# generated using pymatgen
data_K24Na3Li5Mg64Fe17Si79(O5F)48
_symmetry_space_group_name_H-M   'P 1'
_cell_length_a   16.09944576
_cell_length_b   18.59105504
_cell_length_c   20.55395433
_cell_angle_alpha   89.98234680
_cell_angle_beta   100.01657931
_cell_angle_gamma   90.02022778
_symmetry_Int_Tables_number   1
_chemical_formula_structural   K24Na3Li5Mg64Fe17Si79(O5F)48
_chemical_formula_sum   'K24 Na3 Li5 Mg64 Fe17 Si79 O240 F48'
_cell_volume   6058.14396771
_cell_formula_units_Z   1
loop_
 _symmetry_equiv_pos_site_id
 _symmetry_equiv_pos_as_xyz
  1  'x, y, z'
loop_
 _atom_site_type_symbol
 _atom_site_label
 _atom_site_symmetry_multiplicity
 _atom_site_fract_x
 _atom_site_fract_y
 _atom_site_fract_z
 _atom_site_occupancy
  K  K0  1  0.00454523  -0.00896274  -0.00962242  1
  K  K1  1  -0.00694438  -0.00301235  0.50830237  1
  K  K2  1  -0.00927507  0.50897345  -0.00209747  1
  K  K3  1  0.00742846  0.49626732  0.50218149  1
  K  K4  1  0.32843795  -0.00029069  -0.00904521  1
  K  K5  1  0.33225011  0.00198908  0.50470800  1
  K  K6  1  0.33896973  0.50668927  -0.00376468  1
  K  K7  1  0.32463081  0.50262743  0.49972275  1
  K  K8  1  0.66735662  -0.01071381  -0.01072564  1
  K  K9  1  0.67275505  -0.00210399  0.51411231  1
  K  K10  1  0.66807733  0.50536441  0.00149107  1
  K  K11  1  0.66401412  0.50258741  0.49331906  1
  K  K12  1  0.16443644  0.24823882  -0.00325422  1
  K  K13  1  0.16313781  0.26232815  0.50213770  1
  K  K14  1  0.14528300  0.74339255  -0.00807730  1
  K  K15  1  0.16355617  0.74841615  0.50062550  1
  K  K16  1  0.49555473  0.26093062  -0.00381407  1
  K  K17  1  0.50269968  0.24577159  0.50054351  1
  K  K18  1  0.50363694  0.75059291  -0.00546592  1
  K  K19  1  0.50126718  0.74798256  0.50130492  1
  K  K20  1  0.83550012  0.25563650  -0.00288723  1
  K  K21  1  0.83540281  0.25111172  0.50257132  1
  K  K22  1  0.83977726  0.74194601  -0.00263038  1
  K  K23  1  0.83754327  0.74411330  0.50586732  1
  Na  Na24  1  0.50468924  0.50086967  0.26079431  1
  Na  Na25  1  0.66498945  0.92040277  0.74924175  1
  Na  Na26  1  0.66724316  0.57874293  0.24835724  1
  Li  Li27  1  0.16958556  0.50018595  0.74712635  1
  Li  Li28  1  0.50488282  -0.00184037  0.75255873  1
  Li  Li29  1  -0.00102415  0.91603555  0.24546526  1
  Li  Li30  1  0.00118014  0.41970125  0.25075275  1
  Li  Li31  1  -0.00494568  0.91561311  0.74947824  1
  Mg  Mg32  1  0.66970782  0.74805346  0.24355646  1
  Mg  Mg33  1  0.00157663  0.24908482  0.74949518  1
  Mg  Mg34  1  0.33427500  0.25111201  0.75363127  1
  Mg  Mg35  1  0.00104995  0.75233042  0.24557574  1
  Mg  Mg36  1  0.50070430  -0.00068331  0.25069259  1
  Mg  Mg37  1  0.83616171  -0.00135787  0.24657961  1
  Mg  Mg38  1  0.33205679  0.25110258  0.25742130  1
  Mg  Mg39  1  0.83631511  0.49853347  0.24626332  1
  Mg  Mg40  1  0.33495457  0.74899501  0.25137171  1
  Mg  Mg41  1  0.16496929  0.00078328  0.25179462  1
  Mg  Mg42  1  0.16289990  -0.00025254  0.75451580  1
  Mg  Mg43  1  0.16241809  0.50090030  0.24988970  1
  Mg  Mg44  1  0.83395365  0.49974558  0.74772263  1
  Mg  Mg45  1  0.33256564  0.75136818  0.74907971  1
  Mg  Mg46  1  0.83666634  -0.00139323  0.74539355  1
  Mg  Mg47  1  0.66576268  0.24901011  0.74913063  1
  Mg  Mg48  1  -0.00061038  0.25369326  0.25246057  1
  Mg  Mg49  1  0.50062538  0.49865404  0.74894895  1
  Mg  Mg50  1  0.66655467  0.75078171  0.74698186  1
  Mg  Mg51  1  -0.00146485  0.75001607  0.75033514  1
  Mg  Mg52  1  0.66487102  0.24968416  0.25291757  1
  Mg  Mg53  1  0.33483033  0.91856396  0.75309460  1
  Mg  Mg54  1  0.83267893  0.66394851  0.24175664  1
  Mg  Mg55  1  0.33517011  0.58361471  0.25161490  1
  Mg  Mg56  1  0.50110294  0.33517586  0.25564243  1
  Mg  Mg57  1  0.33388379  0.08517319  0.25490941  1
  Mg  Mg58  1  0.66415140  0.58303966  0.74609301  1
  Mg  Mg59  1  0.66741653  0.41456429  0.25426493  1
  Mg  Mg60  1  0.50325414  0.83363866  0.24801003  1
  Mg  Mg61  1  0.16426906  0.33636862  0.25412976  1
  Mg  Mg62  1  0.50093293  0.66682164  0.74851071  1
  Mg  Mg63  1  0.00286357  0.41744620  0.74656533  1
  Mg  Mg64  1  0.00104998  0.58272131  0.74781530  1
  Mg  Mg65  1  0.66386971  0.41463959  0.74897505  1
  Mg  Mg66  1  0.83296920  0.16611726  0.24983497  1
  Mg  Mg67  1  0.50029632  0.16546863  0.25521643  1
  Mg  Mg68  1  0.33458074  0.08234963  0.75497369  1
  Mg  Mg69  1  0.83291624  0.33313266  0.74686490  1
  Mg  Mg70  1  0.33307830  0.58368821  0.74897655  1
  Mg  Mg71  1  0.16587162  0.66379555  0.74915537  1
  Mg  Mg72  1  0.16488179  0.66703832  0.24928473  1
  Mg  Mg73  1  0.83454174  0.33507539  0.25106845  1
  Mg  Mg74  1  0.16867012  0.33684357  0.75036283  1
  Mg  Mg75  1  0.50126793  0.83755364  0.74937085  1
  Mg  Mg76  1  0.83355880  0.66451373  0.74515978  1
  Mg  Mg77  1  0.33460163  0.91602384  0.24989808  1
  Mg  Mg78  1  0.33316355  0.41869677  0.75146975  1
  Mg  Mg79  1  0.83479407  0.83433453  0.24308421  1
  Mg  Mg80  1  0.16684324  0.16522706  0.75429464  1
  Mg  Mg81  1  0.00038168  0.08310491  0.25114275  1
  Mg  Mg82  1  -0.00158847  0.58357819  0.24526572  1
  Mg  Mg83  1  0.33311445  0.41778565  0.25615594  1
  Mg  Mg84  1  0.16820672  0.16704229  0.25503540  1
  Mg  Mg85  1  0.16451829  0.83634716  0.24815439  1
  Mg  Mg86  1  0.16334498  0.83468350  0.75294009  1
  Mg  Mg87  1  0.66473707  0.08136329  0.74889186  1
  Mg  Mg88  1  0.50364780  0.66542363  0.25199604  1
  Mg  Mg89  1  0.49825500  0.33505643  0.74937486  1
  Mg  Mg90  1  0.66675491  0.08311794  0.25058440  1
  Mg  Mg91  1  0.66887858  0.91462993  0.24544499  1
  Mg  Mg92  1  0.83313608  0.83481241  0.74834414  1
  Mg  Mg93  1  0.00070957  0.08071047  0.74999125  1
  Mg  Mg94  1  0.83330429  0.16426388  0.74779969  1
  Mg  Mg95  1  0.49972484  0.16321453  0.75252947  1
  Fe  Fe96  1  0.02758063  0.67041349  0.10751581  1
  Fe  Fe97  1  0.14119557  0.08327518  0.89403484  1
  Fe  Fe98  1  0.85413580  0.57751895  0.10282601  1
  Fe  Fe99  1  0.47619004  0.58870700  0.39422385  1
  Fe  Fe100  1  0.64678935  0.83438023  0.88984698  1
  Fe  Fe101  1  0.85765825  0.08283295  0.60854043  1
  Fe  Fe102  1  0.13770530  0.41892823  0.38897657  1
  Fe  Fe103  1  0.86155384  0.57990064  0.60675773  1
  Fe  Fe104  1  0.68406718  0.83024276  0.60720196  1
  Fe  Fe105  1  0.63994713  0.33100016  0.39372189  1
  Fe  Fe106  1  0.51977406  0.58124001  0.60870022  1
  Fe  Fe107  1  0.52189407  0.41158267  0.60760894  1
  Fe  Fe108  1  0.97074648  0.66151115  0.88784834  1
  Fe  Fe109  1  0.69139551  0.83552713  0.10464837  1
  Fe  Fe110  1  0.31071940  0.16408563  0.39530510  1
  Fe  Fe111  1  0.47798574  0.41935153  0.89173787  1
  Fe  Fe112  1  0.19726479  0.42147089  0.61224365  1
  Si  Si113  1  0.85732287  0.08842146  0.11332178  1
  Si  Si114  1  0.30799070  0.66602959  0.88471708  1
  Si  Si115  1  0.35816749  0.17038381  0.11807807  1
  Si  Si116  1  0.81768731  0.92433048  0.88528667  1
  Si  Si117  1  0.48125159  0.91169970  0.38447499  1
  Si  Si118  1  0.19737094  0.59180344  0.61248162  1
  Si  Si119  1  0.79727116  0.57638222  0.88372475  1
  Si  Si120  1  0.64243889  0.66711824  0.88412817  1
  Si  Si121  1  0.85602404  0.40588459  0.11153307  1
  Si  Si122  1  0.18810164  0.91946809  0.61832544  1
  Si  Si123  1  0.02822267  0.84223225  0.11157127  1
  Si  Si124  1  0.14425061  0.57949466  0.88503141  1
  Si  Si125  1  0.03186158  0.66899824  0.61157669  1
  Si  Si126  1  0.30274001  0.67256445  0.38765170  1
  Si  Si127  1  0.14075647  0.91746252  0.38417591  1
  Si  Si128  1  0.19420201  0.08385200  0.11725062  1
  Si  Si129  1  0.64460478  0.32568622  0.88872603  1
  Si  Si130  1  0.68536525  0.66675522  0.10505404  1
  Si  Si131  1  0.85829523  0.40930924  0.61214662  1
  Si  Si132  1  0.80670508  0.41909288  0.38732262  1
  Si  Si133  1  0.35959769  0.32529895  0.61351913  1
  Si  Si134  1  0.19767966  0.91897903  0.11441148  1
  Si  Si135  1  0.30649311  0.83114982  0.88679480  1
  Si  Si136  1  0.35805032  0.33479012  0.11827003  1
  Si  Si137  1  0.52040382  0.08654809  0.61605896  1
  Si  Si138  1  0.35479963  0.16402684  0.61883401  1
  Si  Si139  1  0.80748290  0.07914585  0.38312918  1
  Si  Si140  1  0.13916555  0.58970775  0.38620443  1
  Si  Si141  1  0.35271282  0.84039345  0.61496594  1
  Si  Si142  1  0.52408965  0.58205816  0.11461788  1
  Si  Si143  1  0.64840486  0.67183026  0.38549965  1
  Si  Si144  1  0.64495984  0.15961758  0.38886926  1
  Si  Si145  1  0.47642574  0.58943260  0.88657170  1
  Si  Si146  1  0.14375100  0.91254800  0.88926308  1
  Si  Si147  1  0.86247408  0.92272351  0.10967997  1
  Si  Si148  1  0.03005229  0.16612730  0.61357532  1
  Si  Si149  1  0.81247348  0.58400257  0.38153658  1
  Si  Si150  1  0.30900920  0.83851384  0.38512822  1
  Si  Si151  1  0.19906319  0.58351574  0.11372662  1
  Si  Si152  1  0.68547384  0.16784191  0.61246301  1
  Si  Si153  1  0.64844598  0.83369728  0.38289338  1
  Si  Si154  1  0.52533026  0.41507362  0.11730548  1
  Si  Si155  1  0.02758809  0.33138658  0.61314265  1
  Si  Si156  1  0.52109008  0.92151396  0.11174992  1
  Si  Si157  1  0.97508262  0.83240128  0.38095615  1
  Si  Si158  1  0.02777207  0.16623265  0.11617899  1
  Si  Si159  1  0.47444388  0.08296409  0.88756477  1
  Si  Si160  1  0.64238252  0.16062402  0.88613653  1
  Si  Si161  1  0.68816200  0.32921782  0.11516958  1
  Si  Si162  1  0.80659055  0.41154916  0.88345315  1
  Si  Si163  1  0.47938008  0.07574468  0.38954911  1
  Si  Si164  1  0.30805366  0.33412065  0.39135845  1
  Si  Si165  1  0.02650062  0.83316614  0.61667446  1
  Si  Si166  1  0.19381095  0.08291688  0.61945961  1
  Si  Si167  1  0.97198025  0.17182648  0.88838901  1
  Si  Si168  1  0.97424686  0.83300246  0.88608238  1
  Si  Si169  1  0.85654530  0.91134541  0.60798800  1
  Si  Si170  1  0.97184682  0.66908000  0.38253862  1
  Si  Si171  1  0.52004602  0.08522905  0.11620030  1
  Si  Si172  1  0.69016928  0.66148141  0.60910545  1
  Si  Si173  1  0.35994470  0.83176802  0.11375806  1
  Si  Si174  1  0.14118011  0.41454096  0.88456076  1
  Si  Si175  1  0.19254898  0.41703677  0.11646215  1
  Si  Si176  1  0.68715243  0.16492977  0.11495108  1
  Si  Si177  1  0.81218133  0.91673886  0.38219936  1
  Si  Si178  1  0.96771539  0.33155012  0.38819488  1
  Si  Si179  1  0.97592276  0.33706272  0.88432243  1
  Si  Si180  1  0.96867592  0.16625695  0.38568848  1
  Si  Si181  1  0.31300116  0.16889687  0.89219701  1
  Si  Si182  1  0.51553111  0.92191901  0.61165222  1
  Si  Si183  1  0.69302784  0.33217807  0.61364770  1
  Si  Si184  1  0.13447405  0.08315359  0.39040165  1
  Si  Si185  1  0.02837353  0.33018637  0.11539197  1
  Si  Si186  1  0.46954157  0.41330661  0.39136926  1
  Si  Si187  1  0.47064458  0.91580887  0.88890452  1
  Si  Si188  1  0.80960223  0.08731221  0.88435349  1
  Si  Si189  1  0.36353298  0.66609089  0.11375152  1
  Si  Si190  1  0.35957795  0.67610399  0.61290739  1
  Si  Si191  1  0.30723525  0.33456349  0.89036412  1
  O  O192  1  0.26987048  0.12725375  0.08873018  1
  O  O193  1  0.27892795  0.10632265  0.59059891  1
  O  O194  1  0.28367993  0.61355178  0.08565694  1
  O  O195  1  0.27829750  0.62532058  0.58237582  1
  O  O196  1  0.60291800  0.11544979  0.08704617  1
  O  O197  1  0.59944200  0.11979340  0.58415631  1
  O  O198  1  0.60347687  0.61101981  0.08222168  1
  O  O199  1  0.62423737  0.59663954  0.58279867  1
  O  O200  1  0.93530259  0.12986855  0.08578489  1
  O  O201  1  0.95434812  0.11630334  0.57622339  1
  O  O202  1  0.94101766  0.61465408  0.06538687  1
  O  O203  1  0.95826170  0.61630167  0.57553381  1
  O  O204  1  0.10375419  0.37401631  0.08606157  1
  O  O205  1  0.10224090  0.36384759  0.57944353  1
  O  O206  1  0.10985600  0.87958076  0.08331832  1
  O  O207  1  0.10666450  0.86987130  0.58690584  1
  O  O208  1  0.43724002  0.36993562  0.08785924  1
  O  O209  1  0.44735100  0.33313398  0.58580602  1
  O  O210  1  0.43749618  0.87055285  0.08448861  1
  O  O211  1  0.42699126  0.87649680  0.58019990  1
  O  O212  1  0.77060426  0.35478692  0.08408722  1
  O  O213  1  0.78470279  0.34750942  0.59040071  1
  O  O214  1  0.78603265  0.87361813  0.07244116  1
  O  O215  1  0.78054729  0.85950456  0.57213558  1
  O  O216  1  0.26998844  0.37662166  0.08678803  1
  O  O217  1  0.28889152  0.38169606  0.57882574  1
  O  O218  1  0.27449753  0.87867792  0.08515987  1
  O  O219  1  0.26834321  0.88969595  0.58647243  1
  O  O220  1  0.60323460  0.37711648  0.08527753  1
  O  O221  1  0.62581591  0.39033067  0.57930410  1
  O  O222  1  0.59952495  0.90009556  0.07759933  1
  O  O223  1  0.59046425  0.89273192  0.57542518  1
  O  O224  1  0.93529771  0.36319204  0.08412581  1
  O  O225  1  0.94071856  0.37619172  0.58469512  1
  O  O226  1  0.95172583  0.90029623  0.08616306  1
  O  O227  1  0.94479500  0.88084530  0.58416815  1
  O  O228  1  0.10278809  0.12145926  0.08781387  1
  O  O229  1  0.11814244  0.13850116  0.58896970  1
  O  O230  1  0.12351282  0.63296945  0.07711527  1
  O  O231  1  0.12038581  0.64924111  0.58549893  1
  O  O232  1  0.43783523  0.13599842  0.08761069  1
  O  O233  1  0.43745739  0.13760333  0.58815493  1
  O  O234  1  0.44072697  0.63126986  0.08081978  1
  O  O235  1  0.44062276  0.65620906  0.58091115  1
  O  O236  1  0.76906725  0.13317055  0.08561965  1
  O  O237  1  0.76056243  0.13875946  0.57632416  1
  O  O238  1  0.75875643  0.63359136  0.06889555  1
  O  O239  1  0.77648282  0.64677699  0.57863859  1
  O  O240  1  0.04851961  0.11396464  0.41530778  1
  O  O241  1  0.04946935  0.12478836  0.92761285  1
  O  O242  1  0.05654877  0.62365074  0.41371878  1
  O  O243  1  0.06998185  0.60858451  0.92190281  1
  O  O244  1  0.40124389  0.09897852  0.42423901  1
  O  O245  1  0.40279051  0.12649825  0.92097026  1
  O  O246  1  0.37956230  0.62524196  0.42558164  1
  O  O247  1  0.39448921  0.62302367  0.91577685  1
  O  O248  1  0.72272764  0.10128262  0.41191137  1
  O  O249  1  0.72674567  0.11322393  0.91601686  1
  O  O250  1  0.73169319  0.61949822  0.40945914  1
  O  O251  1  0.71061542  0.60211316  0.90933904  1
  O  O252  1  0.22413888  0.35332867  0.42118752  1
  O  O253  1  0.21941886  0.36050398  0.91593799  1
  O  O254  1  0.23232589  0.87889503  0.41519648  1
  O  O255  1  0.22618194  0.86053468  0.91826660  1
  O  O256  1  0.53934347  0.35338545  0.42311412  1
  O  O257  1  0.57304380  0.36061577  0.92508860  1
  O  O258  1  0.56337986  0.86073405  0.41167371  1
  O  O259  1  0.55298573  0.87305227  0.92492812  1
  O  O260  1  0.88485349  0.36315708  0.41621321  1
  O  O261  1  0.89712031  0.37288541  0.91406272  1
  O  O262  1  0.89690310  0.86976329  0.41189056  1
  O  O263  1  0.90310185  0.87911642  0.91791868  1
  O  O264  1  0.04663197  0.37879445  0.42324403  1
  O  O265  1  0.05958376  0.38430718  0.91632692  1
  O  O266  1  0.06405088  0.87472205  0.41172911  1
  O  O267  1  0.06352360  0.87566046  0.91580121  1
  O  O268  1  0.37904815  0.39653045  0.41691045  1
  O  O269  1  0.38356266  0.38459459  0.92697109  1
  O  O270  1  0.39801927  0.88180121  0.41317397  1
  O  O271  1  0.38795362  0.88110853  0.91808576  1
  O  O272  1  0.72936510  0.39464663  0.42315851  1
  O  O273  1  0.73656045  0.36537322  0.91543304  1
  O  O274  1  0.72839226  0.88810332  0.41044119  1
  O  O275  1  0.73831801  0.89759913  0.91721633  1
  O  O276  1  0.21432052  0.12845833  0.42726173  1
  O  O277  1  0.24086308  0.13486883  0.92893483  1
  O  O278  1  0.21444270  0.64906902  0.41232140  1
  O  O279  1  0.23126557  0.62683490  0.91444463  1
  O  O280  1  0.56305411  0.12517990  0.41643820  1
  O  O281  1  0.56510567  0.12300701  0.91717760  1
  O  O282  1  0.57329431  0.64665628  0.42312086  1
  O  O283  1  0.55435742  0.64592846  0.91138773  1
  O  O284  1  0.88558905  0.13306147  0.41245741  1
  O  O285  1  0.88420644  0.14566099  0.91370845  1
  O  O286  1  0.89378834  0.63489455  0.41406524  1
  O  O287  1  0.87760237  0.62175541  0.91930834  1
  O  O288  1  0.19406568  0.00236827  0.08651015  1
  O  O289  1  0.16848119  0.00180371  0.58958969  1
  O  O290  1  0.18621121  0.49899709  0.08667929  1
  O  O291  1  0.17358773  0.51493320  0.57783918  1
  O  O292  1  0.49317883  0.00495584  0.08731155  1
  O  O293  1  0.49644838  0.00653764  0.58435837  1
  O  O294  1  0.50887728  0.49731773  0.08791084  1
  O  O295  1  0.47397322  0.49611891  0.57271764  1
  O  O296  1  0.84617193  0.00764130  0.08253293  1
  O  O297  1  0.84116163  -0.00957313  0.57245142  1
  O  O298  1  0.83975564  0.48047724  0.07179274  1
  O  O299  1  0.83304643  0.48499110  0.57582310  1
  O  O300  1  0.02817049  0.24725483  0.08407531  1
  O  O301  1  0.01132806  0.24827658  0.58510224  1
  O  O302  1  0.00966827  0.76639517  0.07461833  1
  O  O303  1  0.01255625  0.75252966  0.58367729  1
  O  O304  1  0.34608223  0.25208605  0.08803285  1
  O  O305  1  0.32296682  0.24267926  0.59016086  1
  O  O306  1  0.34810508  0.74948825  0.08416020  1
  O  O307  1  0.33021273  0.75903423  0.58658315  1
  O  O308  1  0.66660296  0.24632150  0.08553260  1
  O  O309  1  0.66245270  0.25085315  0.58703539  1
  O  O310  1  0.65421664  0.74492390  0.07298193  1
  O  O311  1  0.65002292  0.73750854  0.57823059  1
  O  O312  1  0.14400195  -0.00155768  0.41644749  1
  O  O313  1  0.16131373  -0.01084975  0.92747652  1
  O  O314  1  0.16166555  0.51345684  0.42204542  1
  O  O315  1  0.16630510  0.49579600  0.91241955  1
  O  O316  1  0.50553008  -0.00774158  0.41358289  1
  O  O317  1  0.47693550  0.00062278  0.91712190  1
  O  O318  1  0.50100682  0.49263094  0.41792375  1
  O  O319  1  0.49962303  0.51365709  0.92429318  1
  O  O320  1  0.83351049  -0.00170005  0.41141786  1
  O  O321  1  0.83893519  0.00819187  0.91433259  1
  O  O322  1  0.83264954  0.50254024  0.41218339  1
  O  O323  1  0.81035466  0.49281410  0.91270211  1
  O  O324  1  0.34545650  0.25676724  0.42133433  1
  O  O325  1  0.32781926  0.25221458  0.91965768  1
  O  O326  1  0.31806238  0.75731310  0.41488042  1
  O  O327  1  0.32199654  0.74833082  0.91489227  1
  O  O328  1  0.67161309  0.23536012  0.42349169  1
  O  O329  1  0.65884711  0.24189416  0.91751595  1
  O  O330  1  0.67712939  0.75485015  0.41316101  1
  O  O331  1  0.67716413  0.74056239  0.92098821  1
  O  O332  1  0.98195246  0.24689348  0.41705874  1
  O  O333  1  0.98775488  0.25575630  0.91614895  1
  O  O334  1  0.98659246  0.75148767  0.41331121  1
  O  O335  1  0.98386396  0.75519342  0.92211654  1
  O  O336  1  0.21065887  0.08310783  0.19742075  1
  O  O337  1  0.21171740  0.08349236  0.69962868  1
  O  O338  1  0.21281572  0.58577506  0.19460191  1
  O  O339  1  0.21517011  0.59026924  0.69281130  1
  O  O340  1  0.54136981  0.08409338  0.19677138  1
  O  O341  1  0.54274118  0.08768083  0.69546807  1
  O  O342  1  0.53618547  0.58957642  0.19249941  1
  O  O343  1  0.54232282  0.58253496  0.70145628  1
  O  O344  1  0.87592090  0.08661499  0.19376673  1
  O  O345  1  0.88085301  0.08553879  0.69996354  1
  O  O346  1  0.87794065  0.58203604  0.19462173  1
  O  O347  1  0.87877092  0.57916256  0.69824173  1
  O  O348  1  0.04590347  0.32683676  0.19462407  1
  O  O349  1  0.04433840  0.33147093  0.69433526  1
  O  O350  1  0.04798545  0.83627359  0.19179926  1
  O  O351  1  0.04598676  0.83076243  0.69622530  1
  O  O352  1  0.37521476  0.33223089  0.19831474  1
  O  O353  1  0.37447382  0.32892457  0.69528402  1
  O  O354  1  0.37727665  0.83420339  0.19436791  1
  O  O355  1  0.37202891  0.83777337  0.69524053  1
  O  O356  1  0.70954429  0.32734489  0.19509862  1
  O  O357  1  0.70920952  0.33159344  0.69520135  1
  O  O358  1  0.71200145  0.83559202  0.19663925  1
  O  O359  1  0.71545413  0.82735458  0.69653470  1
  O  O360  1  0.21065459  0.41487963  0.19630047  1
  O  O361  1  0.21494519  0.41522894  0.70261044  1
  O  O362  1  0.21385207  0.91892295  0.19490229  1
  O  O363  1  0.20850053  0.91756117  0.69836728  1
  O  O364  1  0.54616633  0.40903737  0.19605885  1
  O  O365  1  0.54577204  0.41408140  0.70047147  1
  O  O366  1  0.54064532  0.91892370  0.19297797  1
  O  O367  1  0.52872631  0.91811851  0.69051025  1
  O  O368  1  0.87370947  0.41024081  0.19142889  1
  O  O369  1  0.87760892  0.41388107  0.69352698  1
  O  O370  1  0.87293587  0.92061781  0.18995954  1
  O  O371  1  0.87125480  0.91537580  0.68835232  1
  O  O372  1  0.04400446  0.16631321  0.19653086  1
  O  O373  1  0.04456413  0.16699333  0.69452708  1
  O  O374  1  0.04653263  0.66998254  0.19970369  1
  O  O375  1  0.04618407  0.66741050  0.69230807  1
  O  O376  1  0.37763404  0.16615847  0.19806373  1
  O  O377  1  0.37481796  0.16473807  0.69937376  1
  O  O378  1  0.37706000  0.67071982  0.19370799  1
  O  O379  1  0.37533185  0.67119981  0.69393641  1
  O  O380  1  0.70745952  0.16440902  0.19538241  1
  O  O381  1  0.70733902  0.16726323  0.69354332  1
  O  O382  1  0.71246927  0.67263921  0.18529766  1
  O  O383  1  0.70981317  0.66321882  0.69150035  1
  O  O384  1  0.12233567  0.08408232  0.30919689  1
  O  O385  1  0.12167507  0.08461675  0.80283078  1
  O  O386  1  0.12315799  0.58629119  0.30543881  1
  O  O387  1  0.12378865  0.58443291  0.80508103  1
  O  O388  1  0.45871656  0.07973084  0.30800587  1
  O  O389  1  0.45348488  0.08697314  0.80835924  1
  O  O390  1  0.44898645  0.59646341  0.30432066  1
  O  O391  1  0.45502275  0.58585763  0.80612506  1
  O  O392  1  0.78997713  0.08172462  0.30249314  1
  O  O393  1  0.78882723  0.08761333  0.80458343  1
  O  O394  1  0.80112604  0.58375763  0.30245042  1
  O  O395  1  0.78605329  0.57855307  0.80330444  1
  O  O396  1  0.28784109  0.33263104  0.30902376  1
  O  O397  1  0.29215671  0.33271628  0.80986615  1
  O  O398  1  0.29105366  0.83736206  0.30461065  1
  O  O399  1  0.28929877  0.83329540  0.80643344  1
  O  O400  1  0.62197560  0.32832308  0.30179733  1
  O  O401  1  0.62546911  0.32849092  0.80822358  1
  O  O402  1  0.62523587  0.83664533  0.30262213  1
  O  O403  1  0.61645206  0.82643611  0.80102986  1
  O  O404  1  0.95188226  0.32744631  0.30795152  1
  O  O405  1  0.95748162  0.33402184  0.80409855  1
  O  O406  1  0.95570760  0.83295065  0.30141290  1
  O  O407  1  0.95548820  0.83013582  0.80608630  1
  O  O408  1  0.12137471  0.41858924  0.29847398  1
  O  O409  1  0.11917140  0.41088239  0.80549626  1
  O  O410  1  0.12844862  0.91834991  0.30465096  1
  O  O411  1  0.13064812  0.91626203  0.80951905  1
  O  O412  1  0.44987126  0.40661532  0.31066739  1
  O  O413  1  0.45466978  0.41599220  0.80093221  1
  O  O414  1  0.45886164  0.91495816  0.30374397  1
  O  O415  1  0.45212584  0.91369048  0.80904526  1
  O  O416  1  0.79256515  0.41411850  0.30645036  1
  O  O417  1  0.78966136  0.41167971  0.80324039  1
  O  O418  1  0.79300665  0.91788786  0.30201419  1
  O  O419  1  0.80423629  0.92139263  0.80577814  1
  O  O420  1  0.28854966  0.16464585  0.30288610  1
  O  O421  1  0.29185209  0.16653376  0.81134816  1
  O  O422  1  0.28785702  0.67147335  0.30635508  1
  O  O423  1  0.29010596  0.66799819  0.80454421  1
  O  O424  1  0.62422522  0.16192667  0.30728135  1
  O  O425  1  0.62402498  0.16582938  0.80621608  1
  O  O426  1  0.62344434  0.67719910  0.30571820  1
  O  O427  1  0.62428436  0.66738995  0.80335585  1
  O  O428  1  0.95472811  0.16592793  0.30498141  1
  O  O429  1  0.95884668  0.16979905  0.80794789  1
  O  O430  1  0.95587099  0.67084128  0.30266076  1
  O  O431  1  0.95614956  0.66490476  0.79702271  1
  F  F432  1  0.04967342  0.00780809  0.20067946  1
  F  F433  1  0.04910542  0.00172418  0.69947842  1
  F  F434  1  0.04945577  0.50791131  0.19460216  1
  F  F435  1  0.04248078  0.49954020  0.70021442  1
  F  F436  1  0.37852418  0.00146702  0.20356726  1
  F  F437  1  0.36890103  0.00135700  0.70364404  1
  F  F438  1  0.36666879  0.49749593  0.20169803  1
  F  F439  1  0.37783330  0.50203455  0.70157511  1
  F  F440  1  0.71148236  0.00242989  0.20012876  1
  F  F441  1  0.71774282  0.01156393  0.69644342  1
  F  F442  1  0.71719019  0.48510069  0.19753663  1
  F  F443  1  0.71256124  0.49595674  0.70284710  1
  F  F444  1  0.21101216  0.25041315  0.20427250  1
  F  F445  1  0.21305886  0.24802301  0.70760446  1
  F  F446  1  0.21464700  0.75364126  0.20265517  1
  F  F447  1  0.21111645  0.75284934  0.70395241  1
  F  F448  1  0.54275150  0.24400131  0.20264432  1
  F  F449  1  0.54439698  0.24744948  0.70583616  1
  F  F450  1  0.54400393  0.75270635  0.20012251  1
  F  F451  1  0.54012025  0.75027905  0.69962291  1
  F  F452  1  0.87817285  0.24770134  0.20139120  1
  F  F453  1  0.88042619  0.24911675  0.70256487  1
  F  F454  1  0.88099528  0.75222638  0.19659126  1
  F  F455  1  0.88013236  0.75121194  0.69928044  1
  F  F456  1  0.28892862  -0.00120739  0.29924086  1
  F  F457  1  0.28698432  0.00010048  0.80355048  1
  F  F458  1  0.28369745  0.50270618  0.29929276  1
  F  F459  1  0.29559929  0.50371641  0.80162327  1
  F  F460  1  0.62254057  -0.00188560  0.29587820  1
  F  F461  1  0.61957701  0.01203283  0.80452253  1
  F  F462  1  0.63604295  0.48854126  0.31071568  1
  F  F463  1  0.62439695  0.49758521  0.80032219  1
  F  F464  1  0.95230211  0.00453967  0.29757526  1
  F  F465  1  0.95625405  0.00126091  0.79840682  1
  F  F466  1  0.95634576  0.50119289  0.29499360  1
  F  F467  1  0.95520641  0.49516897  0.79917937  1
  F  F468  1  0.11948927  0.24816618  0.30045221  1
  F  F469  1  0.12127717  0.25039128  0.79969528  1
  F  F470  1  0.12334307  0.75577507  0.29865243  1
  F  F471  1  0.12237040  0.74840413  0.79921994  1
  F  F472  1  0.45471216  0.24637707  0.30014182  1
  F  F473  1  0.45564722  0.24896170  0.80077480  1
  F  F474  1  0.45476273  0.75597532  0.29764133  1
  F  F475  1  0.45138419  0.75133253  0.79645386  1
  F  F476  1  0.78770030  0.24636523  0.29731182  1
  F  F477  1  0.78877496  0.24944804  0.79636376  1
  F  F478  1  0.79147750  0.74971478  0.29280437  1
  F  F479  1  0.79026343  0.74588997  0.79612375  1
