# generated using pymatgen
data_K24Na3Li5Mg64Fe17Si79(O5F)48
_symmetry_space_group_name_H-M   'P 1'
_cell_length_a   16.10237457
_cell_length_b   18.60622209
_cell_length_c   20.57984360
_cell_angle_alpha   89.98492657
_cell_angle_beta   100.00230909
_cell_angle_gamma   90.01891904
_symmetry_Int_Tables_number   1
_chemical_formula_structural   K24Na3Li5Mg64Fe17Si79(O5F)48
_chemical_formula_sum   'K24 Na3 Li5 Mg64 Fe17 Si79 O240 F48'
_cell_volume   6072.09468078
_cell_formula_units_Z   1
loop_
 _symmetry_equiv_pos_site_id
 _symmetry_equiv_pos_as_xyz
  1  'x, y, z'
loop_
 _atom_site_type_symbol
 _atom_site_label
 _atom_site_symmetry_multiplicity
 _atom_site_fract_x
 _atom_site_fract_y
 _atom_site_fract_z
 _atom_site_occupancy
  K  K0  1  -0.00951185  0.00060068  -0.00242151  1
  K  K1  1  -0.00681117  -0.00222882  0.50211808  1
  K  K2  1  0.00228203  0.50127295  0.01338309  1
  K  K3  1  -0.00558194  0.50428264  0.48886561  1
  K  K4  1  0.32489397  0.00581416  -0.00197514  1
  K  K5  1  0.34318343  0.00676018  0.50327372  1
  K  K6  1  0.33398391  0.49987176  0.00892976  1
  K  K7  1  0.34652947  0.50167640  0.49350928  1
  K  K8  1  0.68587261  -0.00478626  -0.00256767  1
  K  K9  1  0.67435642  -0.00697618  0.50884652  1
  K  K10  1  0.66980809  0.50353936  0.00677645  1
  K  K11  1  0.65879458  0.50463273  0.49472653  1
  K  K12  1  0.16306991  0.23925336  0.01087247  1
  K  K13  1  0.17374579  0.24092986  0.49203069  1
  K  K14  1  0.15706692  0.75166878  0.00723849  1
  K  K15  1  0.16328841  0.75470325  0.49341844  1
  K  K16  1  0.50190407  0.25295425  0.00140067  1
  K  K17  1  0.49876723  0.24775278  0.49386826  1
  K  K18  1  0.51013393  0.74619971  0.00001811  1
  K  K19  1  0.49876819  0.74782021  0.50285867  1
  K  K20  1  0.81726882  0.23884727  0.00362617  1
  K  K21  1  0.82750964  0.24995671  0.49134080  1
  K  K22  1  0.84585102  0.75444531  0.01321673  1
  K  K23  1  0.83653778  0.76346263  0.49856127  1
  Na  Na24  1  0.33125500  0.25088137  0.25813006  1
  Na  Na25  1  0.83018838  0.16877470  0.24305612  1
  Na  Na26  1  0.17305323  0.32875313  0.25461271  1
  Li  Li27  1  -0.00841284  0.74829323  0.24090911  1
  Li  Li28  1  0.82762953  -0.00517511  0.75458394  1
  Li  Li29  1  0.65936802  0.58812883  0.74967305  1
  Li  Li30  1  0.84022102  0.82835336  0.24187338  1
  Li  Li31  1  0.50717017  0.66683035  0.75047707  1
  Mg  Mg32  1  0.50017933  0.50138530  0.25222325  1
  Mg  Mg33  1  0.33527290  0.24890975  0.74970970  1
  Mg  Mg34  1  0.16727379  0.50063913  0.74949083  1
  Mg  Mg35  1  0.00148977  0.24991375  0.24953559  1
  Mg  Mg36  1  0.16585942  -0.00092528  0.25413292  1
  Mg  Mg37  1  0.16789382  0.50001815  0.25010867  1
  Mg  Mg38  1  0.66722514  0.25023297  0.24856923  1
  Mg  Mg39  1  0.83509011  -0.00271042  0.24641003  1
  Mg  Mg40  1  0.50268824  0.50492789  0.75118568  1
  Mg  Mg41  1  0.50173289  -0.00085501  0.74534473  1
  Mg  Mg42  1  0.83376894  0.50057608  0.24585218  1
  Mg  Mg43  1  0.16529414  0.00109676  0.75256153  1
  Mg  Mg44  1  0.00011324  0.24948723  0.75323053  1
  Mg  Mg45  1  0.66665166  0.24799065  0.74875858  1
  Mg  Mg46  1  0.67071848  0.74912094  0.24824162  1
  Mg  Mg47  1  -0.00135113  0.75060300  0.75017028  1
  Mg  Mg48  1  0.33453315  0.74952058  0.25273384  1
  Mg  Mg49  1  0.50064499  -0.00089012  0.25122356  1
  Mg  Mg50  1  0.82912778  0.50210923  0.74967678  1
  Mg  Mg51  1  0.66322129  0.74685388  0.75015270  1
  Mg  Mg52  1  0.33597595  0.74952558  0.74746753  1
  Mg  Mg53  1  0.50468364  0.66441235  0.25299807  1
  Mg  Mg54  1  -0.00258407  0.08217013  0.24979684  1
  Mg  Mg55  1  -0.00271662  0.58701628  0.24635230  1
  Mg  Mg56  1  0.82850161  0.66517339  0.75035745  1
  Mg  Mg57  1  0.33627016  0.58587203  0.74843359  1
  Mg  Mg58  1  0.33394740  0.91571542  0.25217265  1
  Mg  Mg59  1  0.83465114  0.66831666  0.24383309  1
  Mg  Mg60  1  0.50070492  0.16371287  0.74776197  1
  Mg  Mg61  1  0.33312989  0.91551735  0.74764416  1
  Mg  Mg62  1  0.66522992  0.41963550  0.74841801  1
  Mg  Mg63  1  0.66637847  0.58500563  0.24969093  1
  Mg  Mg64  1  0.49948182  0.33524234  0.74889047  1
  Mg  Mg65  1  0.83086847  0.33488203  0.74857852  1
  Mg  Mg66  1  0.83143140  0.83534118  0.75051865  1
  Mg  Mg67  1  0.16760078  0.66654817  0.74921982  1
  Mg  Mg68  1  0.83146275  0.33278940  0.24458787  1
  Mg  Mg69  1  0.83170528  0.16266944  0.74865626  1
  Mg  Mg70  1  0.33340169  0.08408782  0.25461568  1
  Mg  Mg71  1  -0.00069712  0.41687104  0.74954571  1
  Mg  Mg72  1  0.50051475  0.16595864  0.25259980  1
  Mg  Mg73  1  0.16274547  0.83170208  0.24848867  1
  Mg  Mg74  1  0.16585601  0.83497578  0.74924431  1
  Mg  Mg75  1  -0.00407490  0.91049914  0.24602367  1
  Mg  Mg76  1  -0.00127332  0.58417588  0.74926685  1
  Mg  Mg77  1  0.33430624  0.41717089  0.74956980  1
  Mg  Mg78  1  0.33721475  0.41686523  0.25594269  1
  Mg  Mg79  1  -0.00179142  0.08291140  0.75416333  1
  Mg  Mg80  1  -0.00307220  0.91739780  0.75560201  1
  Mg  Mg81  1  0.66794642  0.08234566  0.24707000  1
  Mg  Mg82  1  0.66505195  0.41450737  0.24641673  1
  Mg  Mg83  1  0.49929617  0.33439465  0.25281134  1
  Mg  Mg84  1  0.33631154  0.58548100  0.25193826  1
  Mg  Mg85  1  0.67229361  0.91428612  0.24868182  1
  Mg  Mg86  1  0.49736438  0.82983587  0.74769853  1
  Mg  Mg87  1  0.00106424  0.41654680  0.24718600  1
  Mg  Mg88  1  0.33407837  0.08471308  0.74917234  1
  Mg  Mg89  1  0.66699342  0.91420800  0.74818324  1
  Mg  Mg90  1  0.16630971  0.16530575  0.25299417  1
  Mg  Mg91  1  0.16348699  0.66790665  0.24973882  1
  Mg  Mg92  1  0.50417292  0.83304396  0.25323520  1
  Mg  Mg93  1  0.16716677  0.16478471  0.75281194  1
  Mg  Mg94  1  0.66969241  0.08114815  0.74546303  1
  Mg  Mg95  1  0.16753371  0.33381989  0.75064860  1
  Fe  Fe96  1  0.35128618  0.83143728  0.60770561  1
  Fe  Fe97  1  0.65026528  0.67272128  0.39226096  1
  Fe  Fe98  1  0.52153333  0.58463247  0.11015336  1
  Fe  Fe99  1  0.80949333  0.91148396  0.89119984  1
  Fe  Fe100  1  0.35916473  0.16870533  0.60986369  1
  Fe  Fe101  1  0.68674383  0.32944696  0.10640339  1
  Fe  Fe102  1  0.47951851  0.41442272  0.39504214  1
  Fe  Fe103  1  0.69995908  0.17194476  0.60634721  1
  Fe  Fe104  1  0.30462164  0.16353247  0.39463049  1
  Fe  Fe105  1  0.85757400  0.91689985  0.10782494  1
  Fe  Fe106  1  0.03090580  0.66597719  0.10801204  1
  Fe  Fe107  1  0.85912075  0.92057944  0.61318179  1
  Fe  Fe108  1  0.47565381  0.59010179  0.39483491  1
  Fe  Fe109  1  0.80705382  0.08780769  0.88877408  1
  Fe  Fe110  1  0.53349228  0.08100125  0.60700064  1
  Fe  Fe111  1  0.85610065  0.58244875  0.10557662  1
  Fe  Fe112  1  0.13744863  0.08268234  0.89263985  1
  Si  Si113  1  0.02858958  0.83293030  0.61404399  1
  Si  Si114  1  0.47485348  0.41932391  0.88509182  1
  Si  Si115  1  0.68820113  0.66333231  0.61555549  1
  Si  Si116  1  0.18921786  0.41818626  0.61541672  1
  Si  Si117  1  0.19191034  0.08236581  0.61563800  1
  Si  Si118  1  0.47422934  0.58280036  0.88495439  1
  Si  Si119  1  0.80649411  0.58377266  0.88486329  1
  Si  Si120  1  0.97751337  0.34101801  0.88578432  1
  Si  Si121  1  0.03076162  0.33454313  0.11628084  1
  Si  Si122  1  0.35458889  0.33920037  0.61367636  1
  Si  Si123  1  0.36069472  0.32903494  0.11714451  1
  Si  Si124  1  0.30791002  0.16850112  0.88930193  1
  Si  Si125  1  0.35961045  0.16285587  0.11774843  1
  Si  Si126  1  0.64699184  0.32786575  0.38613809  1
  Si  Si127  1  0.30045017  0.67027698  0.38789304  1
  Si  Si128  1  0.52236358  0.42139364  0.61581427  1
  Si  Si129  1  0.63393189  0.16877955  0.88787619  1
  Si  Si130  1  0.65029024  0.84042398  0.38768050  1
  Si  Si131  1  0.86024493  0.40991288  0.10846763  1
  Si  Si132  1  0.19972033  0.41570469  0.11721460  1
  Si  Si133  1  0.14243045  0.91024744  0.88920507  1
  Si  Si134  1  0.47036711  0.91722153  0.88410259  1
  Si  Si135  1  0.19751281  0.92115791  0.11624992  1
  Si  Si136  1  0.52023595  0.07729413  0.11366165  1
  Si  Si137  1  0.97843973  0.82337376  0.88872410  1
  Si  Si138  1  0.02532077  0.33343381  0.61534554  1
  Si  Si139  1  0.63388842  0.83090732  0.88690965  1
  Si  Si140  1  0.48030008  0.08082724  0.38858378  1
  Si  Si141  1  0.14559115  0.41824909  0.88512074  1
  Si  Si142  1  0.69019951  0.66841448  0.10873143  1
  Si  Si143  1  0.31009764  0.66679956  0.88487815  1
  Si  Si144  1  0.47097788  0.08255108  0.88571294  1
  Si  Si145  1  0.80914735  0.57703290  0.38645768  1
  Si  Si146  1  0.52154993  0.91347378  0.11495372  1
  Si  Si147  1  0.85745559  0.08580420  0.11159423  1
  Si  Si148  1  0.64677559  0.16158217  0.38334593  1
  Si  Si149  1  0.30729573  0.83139640  0.88473014  1
  Si  Si150  1  0.68460517  0.83246840  0.11182936  1
  Si  Si151  1  0.03369690  0.16988111  0.61640652  1
  Si  Si152  1  0.87006714  0.09260500  0.61132318  1
  Si  Si153  1  0.97731243  0.33266273  0.38401790  1
  Si  Si154  1  0.35972882  0.67292943  0.11489183  1
  Si  Si155  1  0.19061528  0.08419248  0.11784495  1
  Si  Si156  1  0.81167342  0.41226368  0.38215606  1
  Si  Si157  1  0.63994623  0.33507008  0.88370734  1
  Si  Si158  1  0.20144604  0.58086437  0.11296488  1
  Si  Si159  1  0.97442755  0.16771767  0.38323303  1
  Si  Si160  1  0.64010875  0.66587733  0.88409677  1
  Si  Si161  1  0.14509766  0.58252728  0.88459454  1
  Si  Si162  1  0.81219408  0.92223144  0.38260698  1
  Si  Si163  1  0.02458743  0.66709048  0.61461510  1
  Si  Si164  1  0.52472172  0.90857864  0.61097179  1
  Si  Si165  1  0.68103715  0.16108047  0.11042820  1
  Si  Si166  1  0.02515922  0.16858830  0.11575794  1
  Si  Si167  1  0.13746708  0.42354415  0.38714765  1
  Si  Si168  1  0.03301816  0.83848475  0.10847692  1
  Si  Si169  1  0.47821030  0.91453554  0.38663014  1
  Si  Si170  1  0.52022085  0.58512414  0.61735496  1
  Si  Si171  1  0.97237895  0.17653486  0.89072262  1
  Si  Si172  1  0.31098718  0.33385595  0.88551969  1
  Si  Si173  1  0.69242214  0.82763715  0.61286363  1
  Si  Si174  1  0.97099012  0.82932537  0.38098882  1
  Si  Si175  1  0.30585957  0.34082539  0.39643963  1
  Si  Si176  1  0.80718349  0.41768459  0.88499187  1
  Si  Si177  1  0.51818140  0.41595984  0.10943074  1
  Si  Si178  1  0.81102091  0.08250900  0.38176785  1
  Si  Si179  1  0.97672743  0.65925770  0.88495181  1
  Si  Si180  1  0.13485301  0.58757467  0.38515038  1
  Si  Si181  1  0.18848100  0.92132355  0.61460855  1
  Si  Si182  1  0.34935303  0.66250479  0.61053850  1
  Si  Si183  1  0.35721652  0.83451623  0.11738887  1
  Si  Si184  1  0.13543946  0.91217361  0.38496424  1
  Si  Si185  1  0.96776818  0.66583083  0.38331045  1
  Si  Si186  1  0.18759542  0.58070832  0.61392862  1
  Si  Si187  1  0.85732003  0.58478886  0.61398777  1
  Si  Si188  1  0.86001791  0.41950815  0.61430606  1
  Si  Si189  1  0.30653585  0.83693703  0.38543926  1
  Si  Si190  1  0.13301370  0.07715761  0.38981130  1
  Si  Si191  1  0.68871067  0.34167522  0.61153769  1
  O  O192  1  0.26984879  0.12122845  0.08826665  1
  O  O193  1  0.27244559  0.09972647  0.58207050  1
  O  O194  1  0.28571652  0.61390465  0.08693847  1
  O  O195  1  0.27007835  0.60470407  0.58330976  1
  O  O196  1  0.60233448  0.10358898  0.08242447  1
  O  O197  1  0.62553149  0.10306042  0.56790238  1
  O  O198  1  0.61577503  0.61370719  0.07487963  1
  O  O199  1  0.60234726  0.61657781  0.58773051  1
  O  O200  1  0.93455251  0.13145761  0.08415737  1
  O  O201  1  0.96003017  0.11456920  0.58431396  1
  O  O202  1  0.94279163  0.61197360  0.06405433  1
  O  O203  1  0.93623219  0.62401768  0.58566011  1
  O  O204  1  0.11131026  0.37208612  0.08836882  1
  O  O205  1  0.10711847  0.36711001  0.58697142  1
  O  O206  1  0.11917105  0.87166735  0.08253465  1
  O  O207  1  0.11397128  0.86181761  0.58792558  1
  O  O208  1  0.43831071  0.35897164  0.08248855  1
  O  O209  1  0.43913180  0.37174929  0.58821221  1
  O  O210  1  0.44008459  0.86109743  0.08686510  1
  O  O211  1  0.45151503  0.85203757  0.57872546  1
  O  O212  1  0.78831820  0.35173282  0.07799527  1
  O  O213  1  0.77125623  0.37979261  0.58487495  1
  O  O214  1  0.76033424  0.86094536  0.07663949  1
  O  O215  1  0.76911433  0.85773440  0.57914888  1
  O  O216  1  0.27323617  0.37274522  0.08512224  1
  O  O217  1  0.27518890  0.39652490  0.58851788  1
  O  O218  1  0.28216527  0.89206013  0.08887197  1
  O  O219  1  0.26761227  0.90225657  0.57917268  1
  O  O220  1  0.59584348  0.39064217  0.07314572  1
  O  O221  1  0.60677334  0.39540046  0.58784882  1
  O  O222  1  0.60012812  0.88356283  0.08258330  1
  O  O223  1  0.61028704  0.87803810  0.58500703  1
  O  O224  1  0.94844079  0.38181806  0.08267840  1
  O  O225  1  0.93998744  0.38089251  0.58653463  1
  O  O226  1  0.95508172  0.88898006  0.07565565  1
  O  O227  1  0.94996659  0.87866995  0.57695092  1
  O  O228  1  0.10314762  0.12733037  0.08726552  1
  O  O229  1  0.11902377  0.14408014  0.58945550  1
  O  O230  1  0.12288998  0.62474219  0.07311625  1
  O  O231  1  0.10318367  0.62920181  0.58532956  1
  O  O232  1  0.43559348  0.12569594  0.08330608  1
  O  O233  1  0.45187558  0.14858813  0.57332986  1
  O  O234  1  0.43901264  0.65593185  0.07934797  1
  O  O235  1  0.43482848  0.63096919  0.58558634  1
  O  O236  1  0.76975558  0.13332037  0.08874142  1
  O  O237  1  0.80469333  0.15493494  0.57965031  1
  O  O238  1  0.77167651  0.65068882  0.07504611  1
  O  O239  1  0.76790097  0.62479754  0.58573533  1
  O  O240  1  0.05360570  0.11715825  0.41775570  1
  O  O241  1  0.04976727  0.12654186  0.92709222  1
  O  O242  1  0.05734001  0.62554575  0.41538661  1
  O  O243  1  0.06097894  0.60912005  0.91234456  1
  O  O244  1  0.40831282  0.11520332  0.42375067  1
  O  O245  1  0.39170830  0.11809990  0.91586944  1
  O  O246  1  0.37841701  0.62537682  0.42642263  1
  O  O247  1  0.39512555  0.62055078  0.91483937  1
  O  O248  1  0.73042183  0.11321856  0.41293645  1
  O  O249  1  0.71362694  0.12482394  0.92526333  1
  O  O250  1  0.73683050  0.60558299  0.42496165  1
  O  O251  1  0.72952547  0.62325953  0.91426463  1
  O  O252  1  0.22352381  0.38283230  0.42132953  1
  O  O253  1  0.22941254  0.36930338  0.91370104  1
  O  O254  1  0.22977667  0.87822025  0.41422049  1
  O  O255  1  0.22703059  0.85985734  0.91640582  1
  O  O256  1  0.57607017  0.35637201  0.42564462  1
  O  O257  1  0.56340488  0.37708524  0.91274266  1
  O  O258  1  0.56405384  0.86899522  0.41501312  1
  O  O259  1  0.54991618  0.86555615  0.91390075  1
  O  O260  1  0.89706770  0.36593238  0.41391547  1
  O  O261  1  0.89753692  0.37740956  0.91401168  1
  O  O262  1  0.89531416  0.87174898  0.41174428  1
  O  O263  1  0.90140068  0.84828306  0.92271994  1
  O  O264  1  0.05928732  0.38220065  0.41608220  1
  O  O265  1  0.06214811  0.39078751  0.91375310  1
  O  O266  1  0.06408429  0.86470140  0.41484891  1
  O  O267  1  0.06555313  0.86875095  0.91711629  1
  O  O268  1  0.39025811  0.38006746  0.43584236  1
  O  O269  1  0.39595047  0.38114997  0.91431835  1
  O  O270  1  0.39657057  0.87848280  0.41398297  1
  O  O271  1  0.38866708  0.88295234  0.91310554  1
  O  O272  1  0.73584457  0.37320732  0.41296823  1
  O  O273  1  0.73010606  0.37591592  0.91278286  1
  O  O274  1  0.72785327  0.89850338  0.41320155  1
  O  O275  1  0.71342822  0.87577949  0.92341249  1
  O  O276  1  0.21848985  0.11300123  0.42826836  1
  O  O277  1  0.23396144  0.14002715  0.92636516  1
  O  O278  1  0.21620123  0.63799696  0.41460237  1
  O  O279  1  0.22837660  0.63192716  0.91343555  1
  O  O280  1  0.56872832  0.12574449  0.41339769  1
  O  O281  1  0.55066721  0.13457652  0.91519106  1
  O  O282  1  0.55916199  0.65321061  0.43206435  1
  O  O283  1  0.56297024  0.62384677  0.91363165  1
  O  O284  1  0.89010490  0.13719862  0.41002810  1
  O  O285  1  0.88724385  0.16101894  0.91905372  1
  O  O286  1  0.89714051  0.62162887  0.41663755  1
  O  O287  1  0.89685214  0.62465389  0.91387121  1
  O  O288  1  0.18216735  0.00287898  0.08604935  1
  O  O289  1  0.15180636  0.00243755  0.59156027  1
  O  O290  1  0.19373525  0.49669711  0.08370797  1
  O  O291  1  0.16096012  0.49893334  0.58767534  1
  O  O292  1  0.49667659  -0.00500862  0.08606761  1
  O  O293  1  0.50000941  -0.01330890  0.57858490  1
  O  O294  1  0.48357851  0.49327072  0.07885692  1
  O  O295  1  0.50169848  0.50287735  0.58752283  1
  O  O296  1  0.84137861  0.01095213  0.07249433  1
  O  O297  1  0.84349393  0.01442325  0.57854386  1
  O  O298  1  0.83407173  0.48697430  0.07384638  1
  O  O299  1  0.85499430  0.50208517  0.58482503  1
  O  O300  1  0.02389438  0.25137651  0.08644634  1
  O  O301  1  0.01087805  0.25194840  0.58605777  1
  O  O302  1  0.02184801  0.76008788  0.07377640  1
  O  O303  1  0.01603933  0.74852863  0.58580707  1
  O  O304  1  0.34621886  0.24533827  0.08934536  1
  O  O305  1  0.32380599  0.26351440  0.58140473  1
  O  O306  1  0.32592238  0.75496049  0.08881332  1
  O  O307  1  0.31969432  0.73774016  0.57465641  1
  O  O308  1  0.65548866  0.23617772  0.07257392  1
  O  O309  1  0.66900590  0.26672695  0.57408923  1
  O  O310  1  0.65647889  0.75086299  0.08549714  1
  O  O311  1  0.67290501  0.74412951  0.58425257  1
  O  O312  1  0.13034786  -0.00727736  0.41577419  1
  O  O313  1  0.15987124  -0.01235299  0.92458881  1
  O  O314  1  0.14291698  0.50637108  0.41863243  1
  O  O315  1  0.16726478  0.50042990  0.91275070  1
  O  O316  1  0.49457930  -0.00358516  0.41493423  1
  O  O317  1  0.48385003  -0.00047069  0.91533836  1
  O  O318  1  0.50337834  0.50250038  0.43525643  1
  O  O319  1  0.48276864  0.50062231  0.91604215  1
  O  O320  1  0.83706392  0.00290144  0.41444527  1
  O  O321  1  0.83814928  0.00056827  0.92789783  1
  O  O322  1  0.83018528  0.49300972  0.41358881  1
  O  O323  1  0.81324240  0.50027192  0.91366704  1
  O  O324  1  0.30296832  0.25870686  0.42415106  1
  O  O325  1  0.32964469  0.25287859  0.91521722  1
  O  O326  1  0.30981459  0.75505886  0.41461493  1
  O  O327  1  0.32616614  0.74880016  0.91365281  1
  O  O328  1  0.66803584  0.24337195  0.41075162  1
  O  O329  1  0.64196387  0.25409290  0.91458761  1
  O  O330  1  0.68286329  0.76650031  0.42330664  1
  O  O331  1  0.64105844  0.74702616  0.91595622  1
  O  O332  1  0.99152150  0.25023052  0.41386161  1
  O  O333  1  1.00066697  0.26121845  0.91482212  1
  O  O334  1  0.97294088  0.74798278  0.41429051  1
  O  O335  1  1.00166181  0.73918538  0.91381553  1
  O  O336  1  0.20813229  0.07884186  0.19739482  1
  O  O337  1  0.21113231  0.08426592  0.69673884  1
  O  O338  1  0.21290882  0.58391624  0.19371035  1
  O  O339  1  0.20656472  0.58264125  0.69459317  1
  O  O340  1  0.53994581  0.07965192  0.19390556  1
  O  O341  1  0.54568159  0.08320188  0.70012584  1
  O  O342  1  0.54515590  0.58256172  0.20109863  1
  O  O343  1  0.53821722  0.58296458  0.69621940  1
  O  O344  1  0.88154238  0.07680803  0.19079560  1
  O  O345  1  0.88799541  0.09372018  0.69186220  1
  O  O346  1  0.87718236  0.58161444  0.19777295  1
  O  O347  1  0.87725233  0.58309194  0.69434515  1
  O  O348  1  0.04012713  0.33382917  0.19522283  1
  O  O349  1  0.04387427  0.33581173  0.69591059  1
  O  O350  1  0.04996378  0.83867107  0.18901392  1
  O  O351  1  0.04419865  0.83108619  0.69509963  1
  O  O352  1  0.37998353  0.33676345  0.19577559  1
  O  O353  1  0.37425237  0.33716971  0.69513284  1
  O  O354  1  0.37765609  0.83478270  0.19769242  1
  O  O355  1  0.37409480  0.83277346  0.69961140  1
  O  O356  1  0.70881120  0.33224325  0.19785786  1
  O  O357  1  0.70941817  0.33783906  0.69272318  1
  O  O358  1  0.70072630  0.83386899  0.19179963  1
  O  O359  1  0.70890796  0.82696308  0.69361679  1
  O  O360  1  0.21802853  0.42219197  0.19605686  1
  O  O361  1  0.20749590  0.41716706  0.69620496  1
  O  O362  1  0.21276367  0.91840483  0.19657828  1
  O  O363  1  0.20831940  0.91766165  0.69596347  1
  O  O364  1  0.54215034  0.41464386  0.19052784  1
  O  O365  1  0.54091136  0.41875854  0.69639715  1
  O  O366  1  0.54064632  0.91536610  0.19528447  1
  O  O367  1  0.54095801  0.91153998  0.69275461  1
  O  O368  1  0.87751270  0.41522982  0.19004684  1
  O  O369  1  0.87823881  0.41897443  0.69479526  1
  O  O370  1  0.87857097  0.91704171  0.19779775  1
  O  O371  1  0.88273031  0.91299819  0.70306544  1
  O  O372  1  0.04197383  0.16443389  0.19560923  1
  O  O373  1  0.04743540  0.17313547  0.69666729  1
  O  O374  1  0.04811278  0.66453325  0.19885926  1
  O  O375  1  0.04334161  0.66458133  0.69513084  1
  O  O376  1  0.38297381  0.15665697  0.19641361  1
  O  O377  1  0.37813462  0.16806753  0.70290628  1
  O  O378  1  0.37687516  0.67148329  0.19561245  1
  O  O379  1  0.36322947  0.66516429  0.69053976  1
  O  O380  1  0.69300181  0.16543345  0.18998087  1
  O  O381  1  0.71089744  0.17057526  0.69863448  1
  O  O382  1  0.70947512  0.66504925  0.19003392  1
  O  O383  1  0.71118790  0.66561152  0.69488819  1
  O  O384  1  0.11990491  0.07890185  0.30906667  1
  O  O385  1  0.12241011  0.08462518  0.80110657  1
  O  O386  1  0.12206629  0.58378442  0.30547197  1
  O  O387  1  0.12522647  0.58271311  0.80400239  1
  O  O388  1  0.45974025  0.08042056  0.30751090  1
  O  O389  1  0.45435961  0.08126704  0.80593943  1
  O  O390  1  0.45438337  0.58623574  0.30231695  1
  O  O391  1  0.45205269  0.58023334  0.80574298  1
  O  O392  1  0.78752993  0.07701001  0.30278311  1
  O  O393  1  0.78761002  0.08373130  0.79792425  1
  O  O394  1  0.78937641  0.58021508  0.30615695  1
  O  O395  1  0.79444667  0.58241896  0.80533255  1
  O  O396  1  0.29789006  0.34645452  0.31768546  1
  O  O397  1  0.29051698  0.33572870  0.80513093  1
  O  O398  1  0.29040272  0.83556731  0.30515552  1
  O  O399  1  0.28723639  0.83159126  0.80468756  1
  O  O400  1  0.62445131  0.33255085  0.30572433  1
  O  O401  1  0.62308114  0.33571497  0.80344607  1
  O  O402  1  0.62682977  0.83717940  0.30691310  1
  O  O403  1  0.61867577  0.83088779  0.80613638  1
  O  O404  1  0.95882268  0.33406962  0.30426118  1
  O  O405  1  0.95823495  0.33933169  0.80518456  1
  O  O406  1  0.96017624  0.83132077  0.30281533  1
  O  O407  1  0.96076494  0.82729750  0.80794280  1
  O  O408  1  0.11853702  0.42564991  0.30795063  1
  O  O409  1  0.12523111  0.41793269  0.80458021  1
  O  O410  1  0.12206983  0.91366493  0.30488449  1
  O  O411  1  0.12518192  0.91317671  0.80813915  1
  O  O412  1  0.45975009  0.41782486  0.30240662  1
  O  O413  1  0.45510612  0.41834955  0.80487619  1
  O  O414  1  0.45824445  0.91521840  0.30598675  1
  O  O415  1  0.45415929  0.91818537  0.80414731  1
  O  O416  1  0.79379326  0.41566957  0.30233228  1
  O  O417  1  0.79084479  0.41729893  0.80452057  1
  O  O418  1  0.78931341  0.92149781  0.30373257  1
  O  O419  1  0.78324562  0.91006308  0.80089636  1
  O  O420  1  0.28223846  0.15557050  0.30492076  1
  O  O421  1  0.28848400  0.16883331  0.80865056  1
  O  O422  1  0.28839950  0.66860087  0.30700067  1
  O  O423  1  0.28912238  0.66511231  0.80460567  1
  O  O424  1  0.62576532  0.16214923  0.30306507  1
  O  O425  1  0.61917990  0.17021797  0.80754302  1
  O  O426  1  0.62644833  0.66934719  0.30030034  1
  O  O427  1  0.62518605  0.66704327  0.80549747  1
  O  O428  1  0.96324717  0.16678077  0.30441247  1
  O  O429  1  0.95953457  0.17176003  0.80913785  1
  O  O430  1  0.95194218  0.66309491  0.30462594  1
  O  O431  1  0.95791819  0.66195420  0.80438522  1
  F  F432  1  0.04808196  -0.00045982  0.20380132  1
  F  F433  1  0.04543035  -0.00283757  0.70492824  1
  F  F434  1  0.04736097  0.49989759  0.20005989  1
  F  F435  1  0.04528499  0.50027506  0.70160982  1
  F  F436  1  0.37830169  -0.00138221  0.20497866  1
  F  F437  1  0.37736472  0.00017640  0.70231255  1
  F  F438  1  0.37688194  0.50155761  0.20282437  1
  F  F439  1  0.37665162  0.49989584  0.70229735  1
  F  F440  1  0.70964084  -0.00082085  0.19806870  1
  F  F441  1  0.70210692  -0.00424752  0.69649854  1
  F  F442  1  0.71173312  0.49902441  0.20138873  1
  F  F443  1  0.71460984  0.49633173  0.69950950  1
  F  F444  1  0.20107469  0.23578625  0.19163904  1
  F  F445  1  0.21182485  0.25195709  0.70496168  1
  F  F446  1  0.21552499  0.75138169  0.20213930  1
  F  F447  1  0.20930839  0.74899496  0.70242791  1
  F  F448  1  0.54338024  0.24887761  0.20271094  1
  F  F449  1  0.54404230  0.25315489  0.70327016  1
  F  F450  1  0.54372037  0.75298065  0.20380570  1
  F  F451  1  0.54535513  0.75011938  0.70110132  1
  F  F452  1  0.88565188  0.25819108  0.19728480  1
  F  F453  1  0.88224140  0.25569235  0.70423831  1
  F  F454  1  0.87691259  0.74591622  0.19348536  1
  F  F455  1  0.87999884  0.74539973  0.70296742  1
  F  F456  1  0.28876060  -0.00346650  0.30117449  1
  F  F457  1  0.28855313  -0.00062820  0.79843518  1
  F  F458  1  0.28713101  0.50525165  0.30005294  1
  F  F459  1  0.28680953  0.50072631  0.79770101  1
  F  F460  1  0.62143970  -0.00133155  0.29511114  1
  F  F461  1  0.61930975  -0.00416175  0.79767493  1
  F  F462  1  0.62508015  0.49611965  0.29767939  1
  F  F463  1  0.61983923  0.49505965  0.80114321  1
  F  F464  1  0.95620451  -0.00057697  0.29894745  1
  F  F465  1  0.96636289  0.00144842  0.80618140  1
  F  F466  1  0.95519758  0.49770059  0.29632796  1
  F  F467  1  0.95534367  0.50033204  0.79709584  1
  F  F468  1  0.11600510  0.24020906  0.30409253  1
  F  F469  1  0.12265003  0.25464692  0.80053798  1
  F  F470  1  0.13258360  0.75183220  0.30205416  1
  F  F471  1  0.12153292  0.74728434  0.79758584  1
  F  F472  1  0.46951378  0.24754431  0.30420133  1
  F  F473  1  0.45458650  0.25615152  0.80040023  1
  F  F474  1  0.45471227  0.75269442  0.30036826  1
  F  F475  1  0.45094607  0.74934214  0.79996219  1
  F  F476  1  0.78583691  0.25701814  0.30050584  1
  F  F477  1  0.78793754  0.25608096  0.79784660  1
  F  F478  1  0.78827722  0.74621078  0.29482866  1
  F  F479  1  0.78825858  0.74722377  0.79784001  1
