# generated using pymatgen
data_K24Na3Li5Mg64Fe17Si79(O5F)48
_symmetry_space_group_name_H-M   'P 1'
_cell_length_a   16.08793484
_cell_length_b   18.58588488
_cell_length_c   20.55229883
_cell_angle_alpha   90.04016268
_cell_angle_beta   100.01552206
_cell_angle_gamma   89.93091339
_symmetry_Int_Tables_number   1
_chemical_formula_structural   K24Na3Li5Mg64Fe17Si79(O5F)48
_chemical_formula_sum   'K24 Na3 Li5 Mg64 Fe17 Si79 O240 F48'
_cell_volume   6051.65657480
_cell_formula_units_Z   1
loop_
 _symmetry_equiv_pos_site_id
 _symmetry_equiv_pos_as_xyz
  1  'x, y, z'
loop_
 _atom_site_type_symbol
 _atom_site_label
 _atom_site_symmetry_multiplicity
 _atom_site_fract_x
 _atom_site_fract_y
 _atom_site_fract_z
 _atom_site_occupancy
  K  K0  1  -0.00978989  0.00204769  -0.00036634  1
  K  K1  1  -0.00173336  0.00246095  0.50303261  1
  K  K2  1  -0.00993967  0.50395696  -0.00523098  1
  K  K3  1  -0.00662203  0.48652874  0.49863726  1
  K  K4  1  0.33993112  0.00201071  -0.00256569  1
  K  K5  1  0.34470607  0.00945848  0.49994617  1
  K  K6  1  0.33268553  0.49573689  -0.00910053  1
  K  K7  1  0.32853872  0.49786994  0.50506255  1
  K  K8  1  0.66471491  0.00059064  -0.00410191  1
  K  K9  1  0.65840290  0.00088581  0.50462127  1
  K  K10  1  0.68646118  0.49059107  0.00345537  1
  K  K11  1  0.68280008  0.49668389  0.50456539  1
  K  K12  1  0.16248735  0.24573900  0.00133988  1
  K  K13  1  0.17387798  0.26483367  0.49663398  1
  K  K14  1  0.16028937  0.74719733  -0.01202268  1
  K  K15  1  0.16481297  0.74913662  0.50809810  1
  K  K16  1  0.49896843  0.25177282  -0.00226239  1
  K  K17  1  0.48769274  0.24617754  0.50043781  1
  K  K18  1  0.50950360  0.75035378  -0.00472652  1
  K  K19  1  0.50697670  0.75477237  0.51418827  1
  K  K20  1  0.83734695  0.25118817  0.00192972  1
  K  K21  1  0.83736479  0.25074341  0.50363544  1
  K  K22  1  0.83049587  0.75031210  -0.00966783  1
  K  K23  1  0.82819184  0.73683870  0.50314419  1
  Na  Na24  1  0.83844051  0.49553927  0.25752167  1
  Na  Na25  1  0.50160425  0.66795573  0.75008388  1
  Na  Na26  1  0.16352592  0.82940302  0.75079680  1
  Li  Li27  1  0.83786082  0.50055741  0.75574937  1
  Li  Li28  1  0.16510385  0.49737461  0.74493582  1
  Li  Li29  1  0.83666312  0.16876784  0.75524605  1
  Li  Li30  1  -0.00471331  0.41367783  0.25669517  1
  Li  Li31  1  0.33500434  0.09093438  0.24799302  1
  Mg  Mg32  1  0.33255796  0.24884360  0.25118029  1
  Mg  Mg33  1  -0.00264882  0.24855800  0.74962641  1
  Mg  Mg34  1  0.33477131  0.75188707  0.24906264  1
  Mg  Mg35  1  0.66946082  0.24998669  0.75001364  1
  Mg  Mg36  1  0.66514225  0.74831799  0.75043217  1
  Mg  Mg37  1  -0.00118388  0.74830743  0.75468501  1
  Mg  Mg38  1  0.83568172  0.00030993  0.24674469  1
  Mg  Mg39  1  0.49934293  0.00236959  0.24538941  1
  Mg  Mg40  1  0.49790103  -0.00038625  0.75000767  1
  Mg  Mg41  1  0.33145122  0.74804621  0.74583557  1
  Mg  Mg42  1  0.16213712  0.50095954  0.25229819  1
  Mg  Mg43  1  0.49977243  0.50049752  0.24932423  1
  Mg  Mg44  1  0.66794226  0.25055568  0.24767065  1
  Mg  Mg45  1  0.33231442  0.25162195  0.74661866  1
  Mg  Mg46  1  0.49943102  0.50022389  0.74541026  1
  Mg  Mg47  1  0.16426854  -0.00068896  0.75076217  1
  Mg  Mg48  1  0.00071929  0.25220579  0.25067785  1
  Mg  Mg49  1  0.83119313  0.00440981  0.75253247  1
  Mg  Mg50  1  0.17319972  0.00219410  0.25234019  1
  Mg  Mg51  1  0.66903759  0.74998865  0.24885152  1
  Mg  Mg52  1  0.00052996  0.75010079  0.25323377  1
  Mg  Mg53  1  0.00129989  0.91665588  0.24893687  1
  Mg  Mg54  1  0.33139809  0.41740029  0.25059127  1
  Mg  Mg55  1  0.16579369  0.33591233  0.74572202  1
  Mg  Mg56  1  0.83490949  0.16488333  0.24798207  1
  Mg  Mg57  1  0.67198410  0.41787308  0.74917055  1
  Mg  Mg58  1  0.83311679  0.83461666  0.75302571  1
  Mg  Mg59  1  0.83303954  0.66391477  0.25288018  1
  Mg  Mg60  1  0.83511893  0.66253504  0.75365047  1
  Mg  Mg61  1  0.16495902  0.16495664  0.75129162  1
  Mg  Mg62  1  0.00001365  0.58143178  0.75406773  1
  Mg  Mg63  1  0.33572262  0.91916475  0.24944980  1
  Mg  Mg64  1  0.00251237  0.41826909  0.75080096  1
  Mg  Mg65  1  0.49664316  0.16596648  0.24940033  1
  Mg  Mg66  1  0.66897679  0.41516550  0.25257241  1
  Mg  Mg67  1  0.33222086  0.08397951  0.74917608  1
  Mg  Mg68  1  0.50137166  0.83377452  0.74877583  1
  Mg  Mg69  1  0.66518840  0.91583409  0.24487403  1
  Mg  Mg70  1  0.83783426  0.33379550  0.75278226  1
  Mg  Mg71  1  -0.00058744  0.58189618  0.25437995  1
  Mg  Mg72  1  0.67066872  0.58087039  0.75105070  1
  Mg  Mg73  1  0.32906468  0.58074593  0.74502147  1
  Mg  Mg74  1  0.83149488  0.83437636  0.24671029  1
  Mg  Mg75  1  0.49769554  0.33432649  0.24798188  1
  Mg  Mg76  1  0.83515638  0.33434463  0.25183059  1
  Mg  Mg77  1  0.66663713  0.08633443  0.74920144  1
  Mg  Mg78  1  0.16616114  0.66753985  0.25119378  1
  Mg  Mg79  1  -0.00169373  0.08491573  0.75180895  1
  Mg  Mg80  1  0.50166081  0.83647460  0.24626022  1
  Mg  Mg81  1  0.00026770  0.91682843  0.75306265  1
  Mg  Mg82  1  0.16908818  0.83506747  0.25094456  1
  Mg  Mg83  1  0.16458628  0.33607606  0.25442358  1
  Mg  Mg84  1  0.49863844  0.33445918  0.74488363  1
  Mg  Mg85  1  0.00188136  0.08464333  0.25003197  1
  Mg  Mg86  1  0.66562541  0.08463873  0.24514335  1
  Mg  Mg87  1  0.33235198  0.58527383  0.25101281  1
  Mg  Mg88  1  0.66868230  0.58272979  0.25253403  1
  Mg  Mg89  1  0.49759983  0.16534167  0.74693307  1
  Mg  Mg90  1  0.32928692  0.41673179  0.74466671  1
  Mg  Mg91  1  0.50118332  0.66744241  0.25207088  1
  Mg  Mg92  1  0.33174056  0.91413451  0.74893501  1
  Mg  Mg93  1  0.66385656  0.91557806  0.75004542  1
  Mg  Mg94  1  0.16461158  0.66267512  0.74905048  1
  Mg  Mg95  1  0.17110267  0.16560778  0.24967167  1
  Fe  Fe96  1  0.97693502  0.32780620  0.39293529  1
  Fe  Fe97  1  0.35797638  0.17068203  0.10957074  1
  Fe  Fe98  1  0.97778259  0.66843433  0.89467617  1
  Fe  Fe99  1  0.14173754  0.08054517  0.89114457  1
  Fe  Fe100  1  0.46810795  0.08208786  0.88762397  1
  Fe  Fe101  1  0.35879521  0.33462935  0.60509789  1
  Fe  Fe102  1  0.52384680  0.91626377  0.60810438  1
  Fe  Fe103  1  0.64297085  0.82841605  0.88983032  1
  Fe  Fe104  1  0.18448626  0.42155017  0.60526035  1
  Fe  Fe105  1  0.68951303  0.33715869  0.10991681  1
  Fe  Fe106  1  0.30907620  0.16998394  0.39161080  1
  Fe  Fe107  1  0.52407494  0.91906370  0.10558032  1
  Fe  Fe108  1  0.69646874  0.82843576  0.10701576  1
  Fe  Fe109  1  0.97224268  0.16551516  0.89068787  1
  Fe  Fe110  1  0.85981726  0.08301616  0.10894877  1
  Fe  Fe111  1  0.80817071  0.58142282  0.39459982  1
  Fe  Fe112  1  0.80678488  0.57815154  0.89183036  1
  Si  Si113  1  0.19515329  0.07876805  0.11472666  1
  Si  Si114  1  0.19367399  0.91518537  0.11568785  1
  Si  Si115  1  0.30943959  0.34236895  0.38762776  1
  Si  Si116  1  0.47950998  0.08060435  0.38674367  1
  Si  Si117  1  0.52547070  0.08864798  0.11152543  1
  Si  Si118  1  0.30939627  0.66317933  0.88328395  1
  Si  Si119  1  0.80675340  0.08368784  0.38450057  1
  Si  Si120  1  0.97842294  0.15839465  0.38840634  1
  Si  Si121  1  0.47101987  0.58006286  0.88138416  1
  Si  Si122  1  0.86318573  0.58234335  0.11829999  1
  Si  Si123  1  0.19075422  0.42249665  0.11678818  1
  Si  Si124  1  0.64123990  0.16498490  0.38454926  1
  Si  Si125  1  0.01788856  0.83569388  0.61623611  1
  Si  Si126  1  0.30189242  0.17253347  0.88604078  1
  Si  Si127  1  0.31188307  0.83245311  0.38571252  1
  Si  Si128  1  0.69866778  0.33665662  0.61466818  1
  Si  Si129  1  0.35476885  0.66708796  0.11558830  1
  Si  Si130  1  0.03176691  0.83288133  0.11693448  1
  Si  Si131  1  0.68899706  0.65785284  0.11318443  1
  Si  Si132  1  0.52693608  0.58299179  0.61265032  1
  Si  Si133  1  0.85659957  0.91832273  0.61502406  1
  Si  Si134  1  0.14411517  0.41673103  0.88347596  1
  Si  Si135  1  0.68921117  0.16676651  0.11079360  1
  Si  Si136  1  0.14352527  0.58951144  0.38747277  1
  Si  Si137  1  0.47694758  0.41736703  0.88219461  1
  Si  Si138  1  0.02240512  0.32702536  0.61161518  1
  Si  Si139  1  0.97782817  0.67124536  0.39095798  1
  Si  Si140  1  0.86258257  0.58166595  0.61665042  1
  Si  Si141  1  0.02119271  0.67158704  0.61437407  1
  Si  Si142  1  0.64253643  0.33314259  0.88227787  1
  Si  Si143  1  0.35284651  0.16300123  0.61007275  1
  Si  Si144  1  0.86464897  0.41626631  0.61793617  1
  Si  Si145  1  0.64090138  0.65832480  0.88792464  1
  Si  Si146  1  0.03387634  0.16734202  0.11414875  1
  Si  Si147  1  0.63449052  0.16845951  0.88437800  1
  Si  Si148  1  0.47418213  0.42172184  0.38480957  1
  Si  Si149  1  0.86550540  0.91108207  0.11151363  1
  Si  Si150  1  0.51862675  0.42115989  0.11339574  1
  Si  Si151  1  0.18742942  0.91499260  0.61402896  1
  Si  Si152  1  0.35187501  0.83169106  0.60851160  1
  Si  Si153  1  0.31028570  0.33554544  0.88292989  1
  Si  Si154  1  0.35508829  0.66445124  0.61163684  1
  Si  Si155  1  0.02168833  0.16192059  0.61281772  1
  Si  Si156  1  0.18939784  0.58584104  0.11664689  1
  Si  Si157  1  0.35650728  0.83096603  0.11201157  1
  Si  Si158  1  0.80894374  0.92281226  0.88756983  1
  Si  Si159  1  0.97662095  0.83761010  0.38625306  1
  Si  Si160  1  0.81236247  0.41009007  0.88716545  1
  Si  Si161  1  0.31003515  0.66786191  0.38640845  1
  Si  Si162  1  0.47420830  0.58606011  0.38589987  1
  Si  Si163  1  0.35229984  0.33965046  0.11317403  1
  Si  Si164  1  0.69695206  0.82915730  0.61190901  1
  Si  Si165  1  0.14668205  0.91642851  0.88689135  1
  Si  Si166  1  0.63806627  0.66946542  0.38958099  1
  Si  Si167  1  0.63280023  0.33067944  0.38682583  1
  Si  Si168  1  0.14583289  0.91459943  0.38604222  1
  Si  Si169  1  0.51987883  0.58427608  0.11684466  1
  Si  Si170  1  0.46828214  0.91097633  0.88711583  1
  Si  Si171  1  0.52705838  0.08785284  0.60987965  1
  Si  Si172  1  0.30599258  0.82770791  0.88185673  1
  Si  Si173  1  0.18840976  0.07910888  0.61237797  1
  Si  Si174  1  0.97838308  0.84122396  0.88998358  1
  Si  Si175  1  0.14501815  0.58130524  0.88654084  1
  Si  Si176  1  0.79939732  0.08833255  0.88511441  1
  Si  Si177  1  0.14195325  0.42374702  0.38757970  1
  Si  Si178  1  0.53184890  0.41800264  0.60869466  1
  Si  Si179  1  0.14185798  0.07904981  0.38849785  1
  Si  Si180  1  0.85481991  0.08201811  0.61504237  1
  Si  Si181  1  0.69228048  0.17143376  0.61422179  1
  Si  Si182  1  0.80211644  0.40661910  0.39495849  1
  Si  Si183  1  0.80809611  0.91820664  0.38455365  1
  Si  Si184  1  0.18490522  0.58994090  0.60941540  1
  Si  Si185  1  0.03199689  0.33345935  0.11679209  1
  Si  Si186  1  0.86659723  0.41405657  0.11470529  1
  Si  Si187  1  0.64255324  0.83427944  0.38539195  1
  Si  Si188  1  0.47645912  0.91553584  0.38484813  1
  Si  Si189  1  0.69475804  0.66320155  0.61481366  1
  Si  Si190  1  0.02416387  0.66903202  0.11739472  1
  Si  Si191  1  0.98262343  0.33363773  0.88776555  1
  O  O192  1  0.27463768  0.10009477  0.08056908  1
  O  O193  1  0.26971092  0.11067341  0.58314396  1
  O  O194  1  0.27331130  0.61460295  0.08769436  1
  O  O195  1  0.26706700  0.62319133  0.57809571  1
  O  O196  1  0.61758738  0.10338567  0.08827804  1
  O  O197  1  0.60074646  0.13571420  0.58096776  1
  O  O198  1  0.60468087  0.60580897  0.08789794  1
  O  O199  1  0.60228744  0.62712261  0.58278793  1
  O  O200  1  0.95488521  0.12005184  0.07871763  1
  O  O201  1  0.93489609  0.11524628  0.58339855  1
  O  O202  1  0.93974167  0.62319967  0.08733225  1
  O  O203  1  0.93580827  0.62463872  0.58364640  1
  O  O204  1  0.11187464  0.37019696  0.08676040  1
  O  O205  1  0.09454629  0.35731137  0.57406389  1
  O  O206  1  0.11680455  0.85817435  0.08912993  1
  O  O207  1  0.09886046  0.87027182  0.58749807  1
  O  O208  1  0.43494274  0.37170271  0.08486857  1
  O  O209  1  0.45443610  0.37021239  0.57187504  1
  O  O210  1  0.43460974  0.85158273  0.07724625  1
  O  O211  1  0.42000149  0.87136501  0.57138568  1
  O  O212  1  0.78302700  0.37337181  0.07505960  1
  O  O213  1  0.77591250  0.37544982  0.58547475  1
  O  O214  1  0.80332013  0.84567725  0.08424605  1
  O  O215  1  0.77638031  0.86771991  0.58283195  1
  O  O216  1  0.27600187  0.39964191  0.08832393  1
  O  O217  1  0.27209735  0.39150050  0.56397806  1
  O  O218  1  0.27496640  0.88424554  0.08585255  1
  O  O219  1  0.25826678  0.86999324  0.58102668  1
  O  O220  1  0.59612475  0.39882666  0.07776037  1
  O  O221  1  0.61647491  0.38506584  0.58283384  1
  O  O222  1  0.61757123  0.89490114  0.06931939  1
  O  O223  1  0.61102023  0.86667094  0.57443521  1
  O  O224  1  0.94879530  0.38064205  0.08471627  1
  O  O225  1  0.93565161  0.37380597  0.58405414  1
  O  O226  1  0.95800931  0.89010135  0.08903433  1
  O  O227  1  0.93727986  0.88694655  0.58344080  1
  O  O228  1  0.11780206  0.13557351  0.08764823  1
  O  O229  1  0.10013159  0.12343833  0.58244273  1
  O  O230  1  0.10736891  0.63694188  0.08909797  1
  O  O231  1  0.10422047  0.64621390  0.58364324  1
  O  O232  1  0.46173007  0.15313888  0.08209005  1
  O  O233  1  0.43471821  0.12632224  0.58318483  1
  O  O234  1  0.43937408  0.63869242  0.08801325  1
  O  O235  1  0.43660471  0.62592640  0.58434323  1
  O  O236  1  0.77091628  0.14582351  0.07807345  1
  O  O237  1  0.76865980  0.12849100  0.58464873  1
  O  O238  1  0.77059661  0.61838731  0.08831559  1
  O  O239  1  0.76959187  0.61860603  0.58568421  1
  O  O240  1  0.05181169  0.09681449  0.41337837  1
  O  O241  1  0.04796804  0.09646593  0.92904728  1
  O  O242  1  0.06942936  0.63105387  0.41828143  1
  O  O243  1  0.07491326  0.61125873  0.92752704  1
  O  O244  1  0.40923359  0.11700194  0.42353932  1
  O  O245  1  0.37372447  0.11655097  0.92008502  1
  O  O246  1  0.39096819  0.61580958  0.41491863  1
  O  O247  1  0.39106187  0.61232967  0.91360425  1
  O  O248  1  0.73254301  0.12663687  0.41494016  1
  O  O249  1  0.71128215  0.11178619  0.91117538  1
  O  O250  1  0.71550998  0.62337614  0.42868440  1
  O  O251  1  0.70476055  0.59624361  0.92230307  1
  O  O252  1  0.23070808  0.38038773  0.41563862  1
  O  O253  1  0.22978573  0.36839484  0.91392343  1
  O  O254  1  0.22988456  0.86474990  0.41460152  1
  O  O255  1  0.21794052  0.85108975  0.90727119  1
  O  O256  1  0.55247495  0.36809346  0.41503398  1
  O  O257  1  0.56144619  0.36871179  0.91140100  1
  O  O258  1  0.56418471  0.87202842  0.41507122  1
  O  O259  1  0.54119549  0.85358005  0.91600729  1
  O  O260  1  0.88028884  0.35551522  0.42792634  1
  O  O261  1  0.89540486  0.35858271  0.91420049  1
  O  O262  1  0.89855730  0.87772711  0.41511316  1
  O  O263  1  0.89854462  0.88074693  0.91642397  1
  O  O264  1  0.06841448  0.39116505  0.42266060  1
  O  O265  1  0.06188355  0.39033441  0.91560999  1
  O  O266  1  0.06439544  0.88180075  0.41573203  1
  O  O267  1  0.06192752  0.89176703  0.91691633  1
  O  O268  1  0.39001649  0.39772714  0.41308185  1
  O  O269  1  0.39493634  0.38499315  0.91144647  1
  O  O270  1  0.39749036  0.87821843  0.41485227  1
  O  O271  1  0.38146277  0.88245604  0.91435485  1
  O  O272  1  0.71645137  0.37400436  0.42220372  1
  O  O273  1  0.72807962  0.37683383  0.91413376  1
  O  O274  1  0.73126827  0.87768448  0.41419367  1
  O  O275  1  0.73512999  0.88945436  0.92228893  1
  O  O276  1  0.21629449  0.12984926  0.42554726  1
  O  O277  1  0.21546955  0.15898268  0.91433116  1
  O  O278  1  0.22956629  0.63674703  0.41617798  1
  O  O279  1  0.23197286  0.62874789  0.91536393  1
  O  O280  1  0.57191177  0.11890569  0.41684651  1
  O  O281  1  0.55559491  0.14688175  0.91893915  1
  O  O282  1  0.55045450  0.64137135  0.41490898  1
  O  O283  1  0.54761315  0.63560245  0.90800501  1
  O  O284  1  0.89491107  0.12390591  0.41561441  1
  O  O285  1  0.86927626  0.14483067  0.91948909  1
  O  O286  1  0.90637845  0.63725898  0.42736333  1
  O  O287  1  0.89173540  0.63661060  0.93600279  1
  O  O288  1  0.16593469  -0.00450031  0.08825189  1
  O  O289  1  0.17309499  -0.00338026  0.58121274  1
  O  O290  1  0.16799089  0.50461223  0.08792396  1
  O  O291  1  0.15716877  0.51561092  0.57160733  1
  O  O292  1  0.48773486  0.01257881  0.08103007  1
  O  O293  1  0.52464508  0.01058886  0.57309920  1
  O  O294  1  0.48788689  0.50444524  0.08995145  1
  O  O295  1  0.52072558  0.50196796  0.57914659  1
  O  O296  1  0.83713489  -0.01206931  0.07789135  1
  O  O297  1  0.83854053  -0.00009411  0.58323939  1
  O  O298  1  0.86134986  0.50001888  0.08994849  1
  O  O299  1  0.85797156  0.49893718  0.58720943  1
  O  O300  1  0.02253729  0.25132550  0.08644555  1
  O  O301  1  0.00241696  0.24323214  0.58371217  1
  O  O302  1  0.00957127  0.75134244  0.08831867  1
  O  O303  1  0.00118933  0.75425698  0.58438087  1
  O  O304  1  0.32248457  0.26471362  0.07796199  1
  O  O305  1  0.33559679  0.23912623  0.57342730  1
  O  O306  1  0.32668137  0.74747005  0.08779669  1
  O  O307  1  0.34530857  0.74701326  0.58071463  1
  O  O308  1  0.65317692  0.24431307  0.08150813  1
  O  O309  1  0.69074012  0.25409984  0.58399164  1
  O  O310  1  0.66695219  0.73361443  0.07697057  1
  O  O311  1  0.69566840  0.74489792  0.58383991  1
  O  O312  1  0.16432087  -0.00479655  0.41583707  1
  O  O313  1  0.18573503  -0.01090486  0.92277316  1
  O  O314  1  0.15996734  0.50798171  0.41517388  1
  O  O315  1  0.16918106  0.49780887  0.91266360  1
  O  O316  1  0.49015179  -0.00362891  0.41524826  1
  O  O317  1  0.49193624  -0.01091306  0.92091068  1
  O  O318  1  0.49722105  0.50417637  0.41327289  1
  O  O319  1  0.49155874  0.49876901  0.91432380  1
  O  O320  1  0.81348075  0.00057270  0.41493217  1
  O  O321  1  0.82433984  0.00645817  0.91371506  1
  O  O322  1  0.81664872  0.48677150  0.42770178  1
  O  O323  1  0.83359878  0.48493321  0.92586480  1
  O  O324  1  0.33063930  0.26577645  0.42294662  1
  O  O325  1  0.33387333  0.25512394  0.91189638  1
  O  O326  1  0.32877244  0.75002204  0.41526487  1
  O  O327  1  0.32686603  0.74548034  0.91272382  1
  O  O328  1  0.64144653  0.24717831  0.41484303  1
  O  O329  1  0.66011079  0.25127714  0.91062327  1
  O  O330  1  0.65174742  0.75339955  0.41726061  1
  O  O331  1  0.66712325  0.73540859  0.92320467  1
  O  O332  1  1.00459729  0.23287774  0.42623549  1
  O  O333  1  1.01089818  0.25793049  0.92276416  1
  O  O334  1  0.99123273  0.75651271  0.41707256  1
  O  O335  1  0.99761533  0.76451856  0.92617079  1
  O  O336  1  0.20858481  0.07996738  0.19519040  1
  O  O337  1  0.20788985  0.08183390  0.69240234  1
  O  O338  1  0.21081763  0.58701507  0.19712279  1
  O  O339  1  0.20765696  0.58615791  0.68927407  1
  O  O340  1  0.54345760  0.08608089  0.19375837  1
  O  O341  1  0.54545146  0.08561887  0.69034066  1
  O  O342  1  0.53902208  0.58599867  0.19760182  1
  O  O343  1  0.54824151  0.57740108  0.69154890  1
  O  O344  1  0.88131278  0.08197429  0.20145430  1
  O  O345  1  0.87564104  0.07949110  0.69395541  1
  O  O346  1  0.88375569  0.59097234  0.19738573  1
  O  O347  1  0.88087614  0.58605509  0.69534428  1
  O  O348  1  0.04968276  0.33182068  0.19629528  1
  O  O349  1  0.04221235  0.33058111  0.69208421  1
  O  O350  1  0.04748193  0.83198566  0.19791419  1
  O  O351  1  0.02912010  0.83343516  0.69518839  1
  O  O352  1  0.37353923  0.33810161  0.19457335  1
  O  O353  1  0.37825062  0.33373628  0.69737010  1
  O  O354  1  0.37556510  0.83222691  0.19355975  1
  O  O355  1  0.37250846  0.83343537  0.68880837  1
  O  O356  1  0.71084393  0.33434083  0.20188980  1
  O  O357  1  0.71210843  0.33433504  0.69447636  1
  O  O358  1  0.71174088  0.83201492  0.20035366  1
  O  O359  1  0.71353188  0.83340309  0.69216434  1
  O  O360  1  0.20925411  0.42164857  0.19724314  1
  O  O361  1  0.21075033  0.41423422  0.69555264  1
  O  O362  1  0.21247033  0.91443713  0.19657192  1
  O  O363  1  0.21120393  0.92158839  0.69272177  1
  O  O364  1  0.53877913  0.41790440  0.19463527  1
  O  O365  1  0.54509779  0.41658549  0.68954495  1
  O  O366  1  0.54435204  0.91695463  0.19897484  1
  O  O367  1  0.54209418  0.91907136  0.69889413  1
  O  O368  1  0.87887748  0.40838361  0.19350113  1
  O  O369  1  0.88145203  0.41420480  0.69709537  1
  O  O370  1  0.88105568  0.91488169  0.19386558  1
  O  O371  1  0.87371600  0.91812665  0.69513333  1
  O  O372  1  0.04715086  0.16635917  0.19552690  1
  O  O373  1  0.04221102  0.16377912  0.69232772  1
  O  O374  1  0.04482540  0.67000942  0.19796871  1
  O  O375  1  0.04065169  0.66836901  0.69400141  1
  O  O376  1  0.38022449  0.17254890  0.20016757  1
  O  O377  1  0.37185197  0.16635116  0.69078273  1
  O  O378  1  0.37499018  0.66682947  0.19640771  1
  O  O379  1  0.36777916  0.66425253  0.69069688  1
  O  O380  1  0.71033756  0.16642931  0.19304180  1
  O  O381  1  0.70560341  0.16873715  0.69340776  1
  O  O382  1  0.70668021  0.66453908  0.19424368  1
  O  O383  1  0.71021806  0.66556505  0.69440684  1
  O  O384  1  0.12608635  0.08104268  0.30749524  1
  O  O385  1  0.12109848  0.08230339  0.79825543  1
  O  O386  1  0.12674704  0.58966376  0.30705032  1
  O  O387  1  0.12266616  0.58471539  0.80671898  1
  O  O388  1  0.46513179  0.08165272  0.30699611  1
  O  O389  1  0.45316315  0.08384098  0.79539439  1
  O  O390  1  0.45460771  0.58588467  0.30536548  1
  O  O391  1  0.44944596  0.57398310  0.80232424  1
  O  O392  1  0.78832456  0.08198615  0.30455758  1
  O  O393  1  0.78432640  0.08408067  0.80469371  1
  O  O394  1  0.78350428  0.59112161  0.30495003  1
  O  O395  1  0.78917694  0.58255117  0.80116513  1
  O  O396  1  0.29104193  0.33854499  0.30652226  1
  O  O397  1  0.29012478  0.33422187  0.80303890  1
  O  O398  1  0.29244295  0.83160818  0.30536626  1
  O  O399  1  0.29665055  0.82938474  0.80263304  1
  O  O400  1  0.61743001  0.33330331  0.30671037  1
  O  O401  1  0.62268840  0.33479454  0.80168424  1
  O  O402  1  0.62388601  0.83283979  0.30555891  1
  O  O403  1  0.62400520  0.83175600  0.79820255  1
  O  O404  1  0.95388396  0.32790699  0.30271327  1
  O  O405  1  0.96225023  0.33373213  0.80682201  1
  O  O406  1  0.95850949  0.83575643  0.30592268  1
  O  O407  1  0.95716627  0.83620721  0.80875883  1
  O  O408  1  0.12791249  0.42081341  0.30739697  1
  O  O409  1  0.12291789  0.41189864  0.80425130  1
  O  O410  1  0.12553984  0.91392096  0.30584041  1
  O  O411  1  0.11953965  0.92305456  0.80723379  1
  O  O412  1  0.45594868  0.42050245  0.30423017  1
  O  O413  1  0.45933560  0.41677669  0.80208810  1
  O  O414  1  0.45666954  0.91347994  0.30501504  1
  O  O415  1  0.45193175  0.91613201  0.80549442  1
  O  O416  1  0.78334634  0.40630062  0.31473308  1
  O  O417  1  0.79050875  0.41211943  0.80702014  1
  O  O418  1  0.79248587  0.91777155  0.30461774  1
  O  O419  1  0.78979552  0.91866464  0.80606530  1
  O  O420  1  0.28693803  0.16982536  0.30169802  1
  O  O421  1  0.28908699  0.16886957  0.80412462  1
  O  O422  1  0.29191957  0.66870589  0.30585125  1
  O  O423  1  0.29043897  0.66351469  0.80323506  1
  O  O424  1  0.62425000  0.16609776  0.30436506  1
  O  O425  1  0.61935586  0.16839909  0.80314470  1
  O  O426  1  0.62155811  0.66819327  0.30848282  1
  O  O427  1  0.63394720  0.66343702  0.80776158  1
  O  O428  1  0.95977022  0.16373093  0.30771240  1
  O  O429  1  0.95789667  0.16703934  0.79961653  1
  O  O430  1  0.95992272  0.66984502  0.31010253  1
  O  O431  1  0.95510936  0.66604667  0.80271264  1
  F  F432  1  0.04990679  -0.00130333  0.20532281  1
  F  F433  1  0.04118982  -0.00290276  0.69909186  1
  F  F434  1  0.05060319  0.51204308  0.19918306  1
  F  F435  1  0.03986313  0.50086588  0.70058413  1
  F  F436  1  0.37953986  -0.00325710  0.20272949  1
  F  F437  1  0.37535972  -0.00201451  0.69856394  1
  F  F438  1  0.37657722  0.50306841  0.20303741  1
  F  F439  1  0.37884259  0.49924318  0.69510667  1
  F  F440  1  0.71452981  -0.00024389  0.20161129  1
  F  F441  1  0.71106717  0.00039082  0.70099777  1
  F  F442  1  0.69829745  0.49906154  0.20205296  1
  F  F443  1  0.70794207  0.49808735  0.69813947  1
  F  F444  1  0.21100331  0.25584947  0.20314519  1
  F  F445  1  0.21059009  0.24754909  0.70003990  1
  F  F446  1  0.21262416  0.74989965  0.20330665  1
  F  F447  1  0.21239571  0.74028940  0.69692133  1
  F  F448  1  0.54518983  0.25150900  0.20450981  1
  F  F449  1  0.54630823  0.25024224  0.69932128  1
  F  F450  1  0.54486886  0.74839474  0.20341975  1
  F  F451  1  0.54943586  0.75709875  0.69269472  1
  F  F452  1  0.87978636  0.24585615  0.20162538  1
  F  F453  1  0.87962561  0.25654910  0.69845547  1
  F  F454  1  0.88160304  0.74931074  0.20613365  1
  F  F455  1  0.87678210  0.75202231  0.70369137  1
  F  F456  1  0.28715982  -0.01058356  0.30480783  1
  F  F457  1  0.28745725  -0.00014135  0.79556735  1
  F  F458  1  0.28784081  0.50401550  0.29911092  1
  F  F459  1  0.29314046  0.49938005  0.79583465  1
  F  F460  1  0.62431250  0.00126839  0.29675056  1
  F  F461  1  0.62090576  0.00299796  0.79655947  1
  F  F462  1  0.61653397  0.50057080  0.30082678  1
  F  F463  1  0.61931978  0.49680163  0.79630690  1
  F  F464  1  0.95719562  -0.00395696  0.30015096  1
  F  F465  1  0.95198185  -0.00029800  0.79751240  1
  F  F466  1  0.97195596  0.50514130  0.30895468  1
  F  F467  1  0.96145541  0.49835300  0.80265171  1
  F  F468  1  0.12271288  0.24919200  0.29946427  1
  F  F469  1  0.12105160  0.25112163  0.79344174  1
  F  F470  1  0.12475772  0.75171377  0.30110776  1
  F  F471  1  0.11697864  0.73893042  0.80211234  1
  F  F472  1  0.45616564  0.25508135  0.30071220  1
  F  F473  1  0.45533686  0.24971714  0.79463089  1
  F  F474  1  0.45445763  0.75150644  0.29799617  1
  F  F475  1  0.44840433  0.75784135  0.79514507  1
  F  F476  1  0.78756197  0.24369113  0.29886335  1
  F  F477  1  0.78606235  0.25427816  0.79829367  1
  F  F478  1  0.79029927  0.75098649  0.30023107  1
  F  F479  1  0.78804680  0.75122185  0.79763961  1
