# generated using pymatgen
data_K24Na3Li5Mg64Fe17Si79(O5F)48
_symmetry_space_group_name_H-M   'P 1'
_cell_length_a   16.09739919
_cell_length_b   18.58632327
_cell_length_c   20.55090079
_cell_angle_alpha   90.00602122
_cell_angle_beta   99.99827672
_cell_angle_gamma   90.00409573
_symmetry_Int_Tables_number   1
_chemical_formula_structural   K24Na3Li5Mg64Fe17Si79(O5F)48
_chemical_formula_sum   'K24 Na3 Li5 Mg64 Fe17 Si79 O240 F48'
_cell_volume   6055.27429824
_cell_formula_units_Z   1
loop_
 _symmetry_equiv_pos_site_id
 _symmetry_equiv_pos_as_xyz
  1  'x, y, z'
loop_
 _atom_site_type_symbol
 _atom_site_label
 _atom_site_symmetry_multiplicity
 _atom_site_fract_x
 _atom_site_fract_y
 _atom_site_fract_z
 _atom_site_occupancy
  K  K0  1  0.01093991  -0.00008632  -0.00194677  1
  K  K1  1  0.00710733  -0.00665619  0.51535558  1
  K  K2  1  0.01198045  0.50373151  0.00262106  1
  K  K3  1  0.02296871  0.50356363  0.49793891  1
  K  K4  1  0.33446452  0.00264120  -0.00550024  1
  K  K5  1  0.32955433  0.00454307  0.50881849  1
  K  K6  1  0.32264648  0.49402187  -0.00003680  1
  K  K7  1  0.32613855  0.49846798  0.49865925  1
  K  K8  1  0.66707707  0.00540883  -0.00700855  1
  K  K9  1  0.66420643  -0.00751397  0.51179706  1
  K  K10  1  0.66131959  0.50197701  -0.00239721  1
  K  K11  1  0.65407846  0.49607060  0.50246080  1
  K  K12  1  0.17223825  0.25159673  -0.00085904  1
  K  K13  1  0.17688260  0.24221650  0.50029564  1
  K  K14  1  0.15672353  0.75507171  -0.00383030  1
  K  K15  1  0.17088786  0.74950049  0.50444406  1
  K  K16  1  0.49168886  0.24471645  -0.00355850  1
  K  K17  1  0.49457604  0.24436062  0.50127721  1
  K  K18  1  0.49904172  0.75202621  -0.00925714  1
  K  K19  1  0.49729707  0.74639118  0.51411845  1
  K  K20  1  0.83278030  0.24575370  0.00003335  1
  K  K21  1  0.84029139  0.24537741  0.50130713  1
  K  K22  1  0.84227125  0.75101084  -0.00751928  1
  K  K23  1  0.84009536  0.75804565  0.51125576  1
  Na  Na24  1  0.32926047  0.24788512  0.75052820  1
  Na  Na25  1  0.00022122  0.91888054  0.74717622  1
  Na  Na26  1  0.49916189  0.83079807  0.75047646  1
  Li  Li27  1  0.17123940  0.00582985  0.25073493  1
  Li  Li28  1  0.49690485  0.00234614  0.24949794  1
  Li  Li29  1  0.49502751  0.33096496  0.25265754  1
  Li  Li30  1  0.17270928  0.16249192  0.25411063  1
  Li  Li31  1  0.17339358  0.16597755  0.75031120  1
  Mg  Mg32  1  0.33289829  0.24875561  0.25500078  1
  Mg  Mg33  1  0.66810020  0.75128451  0.24902581  1
  Mg  Mg34  1  0.83330181  0.00163841  0.24789018  1
  Mg  Mg35  1  0.83215671  0.49987377  0.74931125  1
  Mg  Mg36  1  0.66622993  0.24820726  0.74650297  1
  Mg  Mg37  1  0.00404104  0.25110373  0.75261916  1
  Mg  Mg38  1  0.16670455  0.49930403  0.25251768  1
  Mg  Mg39  1  0.33355671  0.75255133  0.24977423  1
  Mg  Mg40  1  0.16744683  0.00323010  0.74969957  1
  Mg  Mg41  1  0.49984297  0.49932037  0.75095627  1
  Mg  Mg42  1  0.83297808  0.49752138  0.24848501  1
  Mg  Mg43  1  0.16691666  0.49942712  0.75476778  1
  Mg  Mg44  1  0.49806453  0.49788247  0.25024972  1
  Mg  Mg45  1  0.83450675  -0.00020437  0.74886343  1
  Mg  Mg46  1  0.49782809  0.00077007  0.74744882  1
  Mg  Mg47  1  0.66332478  0.74786571  0.74794175  1
  Mg  Mg48  1  0.00282442  0.75176442  0.24800290  1
  Mg  Mg49  1  0.33264972  0.75001277  0.75368727  1
  Mg  Mg50  1  0.00251755  0.24781747  0.25339019  1
  Mg  Mg51  1  -0.00216918  0.75234581  0.74722145  1
  Mg  Mg52  1  0.66111684  0.25244665  0.24631084  1
  Mg  Mg53  1  0.66088373  0.41406499  0.24633133  1
  Mg  Mg54  1  0.16642387  0.66472852  0.24970519  1
  Mg  Mg55  1  0.50058983  0.83678183  0.24927878  1
  Mg  Mg56  1  0.83510976  0.83588455  0.24787103  1
  Mg  Mg57  1  0.00129839  0.58390317  0.75318055  1
  Mg  Mg58  1  0.66533886  0.91860190  0.24971331  1
  Mg  Mg59  1  0.83163256  0.83495146  0.74754126  1
  Mg  Mg60  1  0.66501236  0.41551748  0.74535417  1
  Mg  Mg61  1  0.33259656  0.08252412  0.25178884  1
  Mg  Mg62  1  0.16798018  0.66678286  0.75352111  1
  Mg  Mg63  1  0.00306762  0.58373858  0.25107676  1
  Mg  Mg64  1  0.33492334  0.92138772  0.24914577  1
  Mg  Mg65  1  0.16755812  0.33284449  0.75521850  1
  Mg  Mg66  1  0.00483997  0.08573058  0.74958663  1
  Mg  Mg67  1  0.49901169  0.66727608  0.24860817  1
  Mg  Mg68  1  0.33112897  0.58451081  0.25083454  1
  Mg  Mg69  1  0.66626450  0.58345620  0.24912133  1
  Mg  Mg70  1  0.33343246  0.41507209  0.75272584  1
  Mg  Mg71  1  0.33374821  0.08457376  0.74964205  1
  Mg  Mg72  1  0.16694950  0.83878213  0.24758431  1
  Mg  Mg73  1  0.83472275  0.16534213  0.74619357  1
  Mg  Mg74  1  0.00292883  0.41395763  0.25282570  1
  Mg  Mg75  1  0.16958624  0.33033215  0.25607576  1
  Mg  Mg76  1  0.16638368  0.83637643  0.75095115  1
  Mg  Mg77  1  0.66484134  0.91509791  0.74867140  1
  Mg  Mg78  1  0.33412005  0.41242187  0.25375665  1
  Mg  Mg79  1  0.00392462  0.91858416  0.24707047  1
  Mg  Mg80  1  0.00209960  0.41640359  0.75303279  1
  Mg  Mg81  1  0.82972275  0.33312292  0.24832220  1
  Mg  Mg82  1  0.50128015  0.66328229  0.75004235  1
  Mg  Mg83  1  0.33205311  0.91630051  0.75146479  1
  Mg  Mg84  1  0.83562210  0.66584681  0.25116403  1
  Mg  Mg85  1  0.33485063  0.58488888  0.75339237  1
  Mg  Mg86  1  0.49896575  0.33175853  0.74748108  1
  Mg  Mg87  1  0.49828438  0.16402943  0.74829102  1
  Mg  Mg88  1  0.00511471  0.08334075  0.25000941  1
  Mg  Mg89  1  0.49787949  0.16625441  0.25003136  1
  Mg  Mg90  1  0.83104031  0.16677630  0.24873239  1
  Mg  Mg91  1  0.66444728  0.08334100  0.74758328  1
  Mg  Mg92  1  0.66232651  0.08399924  0.24945220  1
  Mg  Mg93  1  0.83270560  0.66565723  0.74915632  1
  Mg  Mg94  1  0.83445628  0.33337766  0.74924494  1
  Mg  Mg95  1  0.66375252  0.58368951  0.74899494  1
  Fe  Fe96  1  0.19360922  0.58050949  0.10969962  1
  Fe  Fe97  1  0.14206081  0.41463463  0.89314700  1
  Fe  Fe98  1  0.14001159  0.41321194  0.39485039  1
  Fe  Fe99  1  0.64373472  0.66509648  0.89127776  1
  Fe  Fe100  1  0.14475316  0.59023700  0.39345674  1
  Fe  Fe101  1  0.52302776  0.58099517  0.60857097  1
  Fe  Fe102  1  0.52313138  0.08004823  0.60571126  1
  Fe  Fe103  1  0.02612007  0.83778861  0.10833173  1
  Fe  Fe104  1  0.14463655  0.92123016  0.89221750  1
  Fe  Fe105  1  0.30823358  0.66492528  0.89215150  1
  Fe  Fe106  1  0.85642219  0.91767525  0.60646145  1
  Fe  Fe107  1  0.31309837  0.32658681  0.39667738  1
  Fe  Fe108  1  0.96872382  0.83333019  0.88902272  1
  Fe  Fe109  1  0.47769673  0.08738613  0.89232091  1
  Fe  Fe110  1  0.19191735  0.91763485  0.60844911  1
  Fe  Fe111  1  0.47648510  0.91873414  0.89002405  1
  Fe  Fe112  1  0.68553719  0.33557411  0.10646327  1
  Si  Si113  1  0.80467376  0.08552993  0.38434483  1
  Si  Si114  1  0.85884103  0.58019569  0.11588449  1
  Si  Si115  1  0.35506461  0.83113202  0.61393273  1
  Si  Si116  1  0.64534527  0.83140810  0.88637101  1
  Si  Si117  1  0.80702042  0.41520184  0.88231158  1
  Si  Si118  1  0.69482544  0.66596763  0.11535903  1
  Si  Si119  1  0.86265603  0.41377343  0.11304205  1
  Si  Si120  1  0.68527619  0.16464425  0.11188531  1
  Si  Si121  1  0.69634988  0.66246219  0.61055065  1
  Si  Si122  1  0.35457027  0.66607947  0.61251362  1
  Si  Si123  1  0.30923817  0.83287753  0.89196400  1
  Si  Si124  1  0.31413319  0.15608569  0.39006211  1
  Si  Si125  1  0.97061062  0.66261792  0.88539714  1
  Si  Si126  1  0.14035256  0.08070613  0.38537561  1
  Si  Si127  1  0.52857253  0.91346965  0.11527865  1
  Si  Si128  1  0.19238599  0.58058971  0.61715001  1
  Si  Si129  1  0.80611742  0.58152187  0.38501272  1
  Si  Si130  1  0.79874749  0.91968252  0.88560551  1
  Si  Si131  1  0.31308490  0.84056038  0.38486820  1
  Si  Si132  1  0.13739092  0.58580994  0.88893711  1
  Si  Si133  1  0.52238804  0.41118832  0.60990956  1
  Si  Si134  1  0.36189069  0.67120898  0.11336899  1
  Si  Si135  1  0.85857993  0.41666799  0.61373802  1
  Si  Si136  1  0.68952133  0.82923318  0.60980397  1
  Si  Si137  1  0.02768224  0.82414940  0.60714901  1
  Si  Si138  1  0.63661905  0.33593071  0.38378983  1
  Si  Si139  1  0.36162644  0.33180089  0.11782158  1
  Si  Si140  1  0.96834925  0.67178961  0.38813062  1
  Si  Si141  1  0.97199248  0.83774804  0.38431302  1
  Si  Si142  1  0.36176773  0.83629258  0.11483542  1
  Si  Si143  1  0.02237854  0.16456869  0.11603140  1
  Si  Si144  1  0.47903575  0.08016607  0.38434135  1
  Si  Si145  1  0.64413263  0.83241457  0.38505629  1
  Si  Si146  1  0.47725559  0.58771972  0.38474552  1
  Si  Si147  1  0.85450971  0.08594792  0.11452122  1
  Si  Si148  1  0.64465854  0.33548690  0.88115124  1
  Si  Si149  1  0.52364282  0.91063334  0.61141801  1
  Si  Si150  1  0.96845267  0.33129197  0.88803649  1
  Si  Si151  1  0.02624268  0.66042102  0.61510894  1
  Si  Si152  1  0.02538352  0.33663710  0.61550579  1
  Si  Si153  1  0.35656433  0.16717280  0.61079176  1
  Si  Si154  1  0.47938539  0.41223951  0.88538833  1
  Si  Si155  1  0.80633995  0.92042922  0.38367222  1
  Si  Si156  1  0.47989416  0.91728430  0.38409404  1
  Si  Si157  1  0.80796709  0.57697788  0.88539001  1
  Si  Si158  1  0.52531499  0.58947357  0.11520312  1
  Si  Si159  1  0.14133708  0.91582935  0.38461056  1
  Si  Si160  1  0.97361763  0.16623665  0.88429049  1
  Si  Si161  1  0.14359767  0.09055293  0.88746314  1
  Si  Si162  1  0.69379344  0.83295279  0.11374292  1
  Si  Si163  1  0.19365619  0.41604221  0.61720940  1
  Si  Si164  1  0.02802571  0.17313000  0.61669940  1
  Si  Si165  1  0.18998580  0.08768350  0.61308256  1
  Si  Si166  1  0.80797561  0.08479992  0.88252149  1
  Si  Si167  1  0.19382368  0.08761835  0.11767897  1
  Si  Si168  1  0.64744035  0.17325210  0.88516097  1
  Si  Si169  1  0.36033503  0.16652703  0.11595751  1
  Si  Si170  1  0.31518929  0.67542712  0.38828369  1
  Si  Si171  1  0.30652273  0.16713798  0.88750029  1
  Si  Si172  1  0.69634244  0.16764452  0.60942330  1
  Si  Si173  1  0.64350046  0.66749821  0.38453426  1
  Si  Si174  1  0.35769390  0.33322375  0.61583325  1
  Si  Si175  1  0.31184655  0.33421033  0.88993241  1
  Si  Si176  1  0.63990303  0.17017715  0.38496291  1
  Si  Si177  1  0.96519970  0.33050272  0.38809116  1
  Si  Si178  1  0.02629409  0.32896136  0.11696411  1
  Si  Si179  1  0.47491878  0.42216319  0.38824467  1
  Si  Si180  1  0.20045596  0.92179336  0.11348835  1
  Si  Si181  1  0.47330867  0.57652102  0.89113725  1
  Si  Si182  1  0.51894193  0.42549295  0.11156474  1
  Si  Si183  1  0.01989684  0.66673392  0.11078362  1
  Si  Si184  1  0.80210189  0.41582936  0.38447716  1
  Si  Si185  1  0.86349226  0.08923479  0.60983604  1
  Si  Si186  1  0.97433241  0.16350922  0.38620224  1
  Si  Si187  1  0.19236857  0.40839737  0.11522349  1
  Si  Si188  1  0.52399288  0.07887098  0.11658212  1
  Si  Si189  1  0.69283083  0.33278430  0.61211318  1
  Si  Si190  1  0.85552102  0.92156240  0.11172428  1
  Si  Si191  1  0.86111134  0.58102658  0.61428604  1
  O  O192  1  0.26822889  0.13033225  0.08509024  1
  O  O193  1  0.26758981  0.12505276  0.58123170  1
  O  O194  1  0.28987346  0.61706800  0.07887959  1
  O  O195  1  0.26763114  0.61867068  0.58572190  1
  O  O196  1  0.60559836  0.10932206  0.08592658  1
  O  O197  1  0.61855064  0.11950809  0.57347628  1
  O  O198  1  0.61045956  0.61787386  0.08777342  1
  O  O199  1  0.61865979  0.61364749  0.57433122  1
  O  O200  1  0.93570642  0.11828376  0.08445305  1
  O  O201  1  0.94343702  0.12793261  0.58210172  1
  O  O202  1  0.93726179  0.61269440  0.08555862  1
  O  O203  1  0.94387095  0.60948944  0.58536440  1
  O  O204  1  0.10986800  0.35569386  0.08884608  1
  O  O205  1  0.10484499  0.37376880  0.58726254  1
  O  O206  1  0.12197826  0.87333805  0.07818390  1
  O  O207  1  0.10433930  0.85363528  0.57224413  1
  O  O208  1  0.43248394  0.37802303  0.08605841  1
  O  O209  1  0.43998866  0.35931246  0.58360431  1
  O  O210  1  0.44640877  0.86342163  0.08675660  1
  O  O211  1  0.44546391  0.85293666  0.59119572  1
  O  O212  1  0.78528773  0.36520236  0.07641567  1
  O  O213  1  0.77234307  0.37099805  0.58349993  1
  O  O214  1  0.77190179  0.87013576  0.08489152  1
  O  O215  1  0.75755895  0.86595330  0.57043362  1
  O  O216  1  0.26999924  0.36753551  0.08667646  1
  O  O217  1  0.27320059  0.38209856  0.58704069  1
  O  O218  1  0.28604564  0.89197283  0.08621208  1
  O  O219  1  0.28493538  0.88377044  0.57238478  1
  O  O220  1  0.59385293  0.39722604  0.07444135  1
  O  O221  1  0.60561386  0.37568863  0.58275592  1
  O  O222  1  0.60795081  0.87823565  0.08445374  1
  O  O223  1  0.59943424  0.86903292  0.58037353  1
  O  O224  1  0.94844101  0.38396605  0.08708209  1
  O  O225  1  0.93827360  0.38200262  0.58396571  1
  O  O226  1  0.93328100  0.89842660  0.07748185  1
  O  O227  1  0.94299860  0.86825557  0.57389045  1
  O  O228  1  0.10282561  0.12906806  0.08760004  1
  O  O229  1  0.10796348  0.14146661  0.58673200  1
  O  O230  1  0.09666649  0.63488704  0.07785749  1
  O  O231  1  0.10486481  0.62302753  0.58608879  1
  O  O232  1  0.43661765  0.12339154  0.08720007  1
  O  O233  1  0.42900394  0.13801950  0.57114907  1
  O  O234  1  0.45234005  0.64907401  0.08961564  1
  O  O235  1  0.42702725  0.63536336  0.57401115  1
  O  O236  1  0.77105951  0.13463690  0.08523103  1
  O  O237  1  0.78314430  0.14362262  0.58269982  1
  O  O238  1  0.77323852  0.62768139  0.08733549  1
  O  O239  1  0.78184976  0.63252678  0.58276977  1
  O  O240  1  0.06367289  0.12304817  0.41649136  1
  O  O241  1  0.05849782  0.12221969  0.91572318  1
  O  O242  1  0.05303791  0.63560719  0.42636665  1
  O  O243  1  0.04438535  0.60253958  0.91010411  1
  O  O244  1  0.39665525  0.10246354  0.41690664  1
  O  O245  1  0.38229811  0.11862331  0.92819518  1
  O  O246  1  0.40167009  0.62735466  0.41482197  1
  O  O247  1  0.38877134  0.59219016  0.92196681  1
  O  O248  1  0.73070884  0.12965751  0.41417625  1
  O  O249  1  0.73208979  0.12387732  0.91395291  1
  O  O250  1  0.72509954  0.61645785  0.41342412  1
  O  O251  1  0.72954980  0.59598738  0.92128069  1
  O  O252  1  0.22314581  0.35220621  0.43600966  1
  O  O253  1  0.23984538  0.36270069  0.93015436  1
  O  O254  1  0.23128733  0.87381692  0.41349421  1
  O  O255  1  0.22390915  0.84941641  0.92258282  1
  O  O256  1  0.56231167  0.37527924  0.41577178  1
  O  O257  1  0.56150529  0.35981390  0.91173330  1
  O  O258  1  0.56376228  0.86669705  0.41385678  1
  O  O259  1  0.55915412  0.84668236  0.91484387  1
  O  O260  1  0.87889498  0.36106051  0.41389172  1
  O  O261  1  0.87893785  0.35596467  0.91206832  1
  O  O262  1  0.89874252  0.88502455  0.41291473  1
  O  O263  1  0.87148371  0.86633385  0.92099895  1
  O  O264  1  0.04063021  0.37904464  0.42506263  1
  O  O265  1  0.04433561  0.38089901  0.92482993  1
  O  O266  1  0.06477708  0.87259872  0.41378693  1
  O  O267  1  0.05036889  0.89593166  0.92743366  1
  O  O268  1  0.40332888  0.39204129  0.42646615  1
  O  O269  1  0.40086884  0.37955347  0.91705212  1
  O  O270  1  0.39730298  0.88914879  0.41470587  1
  O  O271  1  0.37793023  0.89444267  0.92196041  1
  O  O272  1  0.72122344  0.38412826  0.41437916  1
  O  O273  1  0.72016057  0.39338407  0.90963796  1
  O  O274  1  0.73144275  0.87704542  0.41302959  1
  O  O275  1  0.71143809  0.89885977  0.91297304  1
  O  O276  1  0.23115649  0.11868390  0.41633935  1
  O  O277  1  0.21725759  0.15078199  0.91548737  1
  O  O278  1  0.24078245  0.64822324  0.42480569  1
  O  O279  1  0.20348962  0.64774455  0.91916316  1
  O  O280  1  0.56254593  0.13105463  0.41434179  1
  O  O281  1  0.57082065  0.15195438  0.92169606  1
  O  O282  1  0.56276756  0.63527256  0.41309584  1
  O  O283  1  0.54960774  0.62928021  0.92511700  1
  O  O284  1  0.89621181  0.12243400  0.41461605  1
  O  O285  1  0.89409997  0.12978099  0.91321693  1
  O  O286  1  0.88746373  0.63133186  0.41419735  1
  O  O287  1  0.88700320  0.63058184  0.91285687  1
  O  O288  1  0.18677746  0.00582592  0.08627809  1
  O  O289  1  0.16797297  0.01190454  0.57458468  1
  O  O290  1  0.17486352  0.48497610  0.07817165  1
  O  O291  1  0.18083770  0.49824609  0.58753189  1
  O  O292  1  0.51048537  -0.00412167  0.08850903  1
  O  O293  1  0.50351177  -0.01441569  0.57037193  1
  O  O294  1  0.49769956  0.50998458  0.08487452  1
  O  O295  1  0.50517789  0.48727766  0.57268872  1
  O  O296  1  0.82974693  0.00470787  0.08671446  1
  O  O297  1  0.84646968  0.01321872  0.57190450  1
  O  O298  1  0.84434173  0.49791421  0.08739994  1
  O  O299  1  0.84175650  0.49875055  0.58460959  1
  O  O300  1  0.00494450  0.24724659  0.08600957  1
  O  O301  1  0.01131863  0.25541191  0.58473940  1
  O  O302  1  -0.00856704  0.74495353  0.08012713  1
  O  O303  1  0.00879800  0.73871733  0.58003769  1
  O  O304  1  0.36093197  0.24928308  0.08682441  1
  O  O305  1  0.33570768  0.25218348  0.58789179  1
  O  O306  1  0.34092091  0.75439618  0.08707502  1
  O  O307  1  0.33362465  0.74832942  0.58457885  1
  O  O308  1  0.66102229  0.24079699  0.07607117  1
  O  O309  1  0.68241552  0.25180110  0.58155587  1
  O  O310  1  0.68224508  0.74887156  0.08727827  1
  O  O311  1  0.68039189  0.74495619  0.58239818  1
  O  O312  1  0.14493188  -0.00238418  0.41592937  1
  O  O313  1  0.17062232  0.01607998  0.92604847  1
  O  O314  1  0.16184880  0.50276383  0.43535729  1
  O  O315  1  0.16658312  0.50863360  0.92255745  1
  O  O316  1  0.50559251  -0.00170310  0.41216875  1
  O  O317  1  0.51376235  0.00259030  0.93461326  1
  O  O318  1  0.49675194  0.50674403  0.41445616  1
  O  O319  1  0.50398845  0.49237769  0.91508769  1
  O  O320  1  0.80603679  0.00268707  0.41229041  1
  O  O321  1  0.81958041  0.00364654  0.91288685  1
  O  O322  1  0.81985322  0.49872318  0.41379390  1
  O  O323  1  0.83948148  0.49432119  0.91026013  1
  O  O324  1  0.33666836  0.23124143  0.42854731  1
  O  O325  1  0.33320185  0.25070590  0.91268606  1
  O  O326  1  0.33701337  0.75934800  0.41396647  1
  O  O327  1  0.34749725  0.75531917  0.92209184  1
  O  O328  1  0.64960148  0.25314999  0.41419581  1
  O  O329  1  0.67771093  0.25655528  0.90958635  1
  O  O330  1  0.66093573  0.74970046  0.41348392  1
  O  O331  1  0.68443060  0.75627933  0.92135100  1
  O  O332  1  0.97495455  0.24589539  0.41536881  1
  O  O333  1  0.98262179  0.24801604  0.91547939  1
  O  O334  1  0.96443376  0.75639522  0.41347655  1
  O  O335  1  0.99393937  0.73810041  0.92196580  1
  O  O336  1  0.21432555  0.08650532  0.19647748  1
  O  O337  1  0.21231289  0.08337786  0.69253592  1
  O  O338  1  0.21315033  0.58332159  0.20154532  1
  O  O339  1  0.20818805  0.58053473  0.69703387  1
  O  O340  1  0.54450962  0.08414996  0.19612941  1
  O  O341  1  0.54725261  0.08527287  0.69673742  1
  O  O342  1  0.54491287  0.58640352  0.19602972  1
  O  O343  1  0.54339825  0.57755563  0.69968886  1
  O  O344  1  0.87420551  0.08552929  0.19508918  1
  O  O345  1  0.87776067  0.08670676  0.69049528  1
  O  O346  1  0.87529950  0.58260117  0.19674605  1
  O  O347  1  0.87693560  0.58032687  0.69461270  1
  O  O348  1  0.04025943  0.32940655  0.19708706  1
  O  O349  1  0.03781993  0.33661222  0.69524951  1
  O  O350  1  0.04495581  0.83489224  0.20038454  1
  O  O351  1  0.04716988  0.82294962  0.68707016  1
  O  O352  1  0.37706367  0.33226021  0.19728152  1
  O  O353  1  0.38024010  0.34088123  0.69485377  1
  O  O354  1  0.37962762  0.83477608  0.19564553  1
  O  O355  1  0.36202428  0.83079865  0.69315273  1
  O  O356  1  0.70944046  0.33412938  0.19858096  1
  O  O357  1  0.71173924  0.33332281  0.69250116  1
  O  O358  1  0.71147813  0.83345700  0.19471981  1
  O  O359  1  0.70829047  0.83105296  0.69053017  1
  O  O360  1  0.21077191  0.41451669  0.19558488  1
  O  O361  1  0.21074965  0.41678829  0.69706341  1
  O  O362  1  0.21580591  0.91621529  0.19362562  1
  O  O363  1  0.21095849  0.91723890  0.69913447  1
  O  O364  1  0.54339502  0.42497598  0.19165470  1
  O  O365  1  0.54337487  0.41411190  0.69088994  1
  O  O366  1  0.54939951  0.91156916  0.19501883  1
  O  O367  1  0.54949629  0.92300322  0.69007473  1
  O  O368  1  0.87670213  0.41426292  0.19436290  1
  O  O369  1  0.87588548  0.41606102  0.69409266  1
  O  O370  1  0.87355380  0.91848765  0.19305525  1
  O  O371  1  0.86462967  0.91847013  0.69574024  1
  O  O372  1  0.03501163  0.16632147  0.19525865  1
  O  O373  1  0.03789515  0.17226649  0.69577328  1
  O  O374  1  0.03893038  0.66689532  0.19273788  1
  O  O375  1  0.04241175  0.66237398  0.69528232  1
  O  O376  1  0.37677715  0.16599689  0.19595746  1
  O  O377  1  0.38120045  0.16115744  0.68987325  1
  O  O378  1  0.37782233  0.66942489  0.19490492  1
  O  O379  1  0.37695684  0.66212914  0.69278212  1
  O  O380  1  0.70714005  0.16588094  0.19311931  1
  O  O381  1  0.71159425  0.16802273  0.69049205  1
  O  O382  1  0.71197386  0.66691640  0.19620463  1
  O  O383  1  0.71321070  0.66043242  0.69106489  1
  O  O384  1  0.11914476  0.08210555  0.30653245  1
  O  O385  1  0.12167140  0.08494558  0.80761565  1
  O  O386  1  0.12045490  0.58497552  0.30112039  1
  O  O387  1  0.12216648  0.58297598  0.80692430  1
  O  O388  1  0.45884102  0.08480098  0.30507952  1
  O  O389  1  0.45692895  0.08500831  0.80047483  1
  O  O390  1  0.45859640  0.58664629  0.30410781  1
  O  O391  1  0.45725169  0.57818069  0.80950013  1
  O  O392  1  0.78810954  0.08504807  0.30385849  1
  O  O393  1  0.78907530  0.08678953  0.80204408  1
  O  O394  1  0.78867691  0.58259670  0.30437160  1
  O  O395  1  0.78879986  0.57948525  0.80400674  1
  O  O396  1  0.29100243  0.33221414  0.30447367  1
  O  O397  1  0.28702153  0.34308807  0.81063071  1
  O  O398  1  0.29324477  0.83748680  0.30446822  1
  O  O399  1  0.29105642  0.83119468  0.80993962  1
  O  O400  1  0.62266936  0.33454867  0.30430790  1
  O  O401  1  0.62591780  0.33458102  0.80062376  1
  O  O402  1  0.62635720  0.83270596  0.30465833  1
  O  O403  1  0.63551095  0.83030641  0.80583859  1
  O  O404  1  0.95107046  0.33164180  0.30702782  1
  O  O405  1  0.95339494  0.33447460  0.80687698  1
  O  O406  1  0.95391176  0.83663271  0.30393750  1
  O  O407  1  0.94756607  0.82480466  0.79900195  1
  O  O408  1  0.12140781  0.41584879  0.30144240  1
  O  O409  1  0.12016714  0.41756370  0.80144648  1
  O  O410  1  0.12265019  0.91574004  0.30517411  1
  O  O411  1  0.13057760  0.91987905  0.80225896  1
  O  O412  1  0.45590310  0.42183922  0.30808849  1
  O  O413  1  0.45968940  0.41385642  0.80480209  1
  O  O414  1  0.45915655  0.91352453  0.30464800  1
  O  O415  1  0.45135480  0.92494581  0.80004076  1
  O  O416  1  0.78695181  0.41818681  0.30417348  1
  O  O417  1  0.78911133  0.41484944  0.80149912  1
  O  O418  1  0.78942135  0.91777389  0.30319942  1
  O  O419  1  0.78632668  0.91930410  0.80483937  1
  O  O420  1  0.29788064  0.16274776  0.31033593  1
  O  O421  1  0.29055362  0.15843288  0.80882928  1
  O  O422  1  0.29527587  0.67147563  0.30735452  1
  O  O423  1  0.28763824  0.66434392  0.80002746  1
  O  O424  1  0.62410449  0.16787972  0.30484792  1
  O  O425  1  0.62925218  0.16928954  0.80434543  1
  O  O426  1  0.62597610  0.66774279  0.30396337  1
  O  O427  1  0.62426710  0.66437062  0.79975884  1
  O  O428  1  0.95452697  0.16393867  0.30583695  1
  O  O429  1  0.95473227  0.16950118  0.80400250  1
  O  O430  1  0.95472418  0.66854536  0.30686970  1
  O  O431  1  0.95317012  0.66404865  0.80398673  1
  F  F432  1  0.03684098  0.00177654  0.19799131  1
  F  F433  1  0.04918712  0.01350237  0.69512026  1
  F  F434  1  0.04035696  0.49868598  0.20095058  1
  F  F435  1  0.04290911  0.50126716  0.70197572  1
  F  F436  1  0.37807563  0.00160876  0.20089609  1
  F  F437  1  0.37609223  0.00070900  0.69673913  1
  F  F438  1  0.37836970  0.50104942  0.20387666  1
  F  F439  1  0.37789180  0.49930350  0.70431119  1
  F  F440  1  0.71223035  0.00079280  0.20076547  1
  F  F441  1  0.71263676  0.00223818  0.70057665  1
  F  F442  1  0.71188340  0.50147696  0.20085111  1
  F  F443  1  0.71264385  0.49746577  0.69866272  1
  F  F444  1  0.21268990  0.24980188  0.20522995  1
  F  F445  1  0.19544515  0.25627772  0.69966348  1
  F  F446  1  0.21335147  0.75119706  0.20385861  1
  F  F447  1  0.21000449  0.74856385  0.70303870  1
  F  F448  1  0.54456182  0.24487058  0.19942896  1
  F  F449  1  0.54823010  0.25140081  0.69746661  1
  F  F450  1  0.54795773  0.75052927  0.20214029  1
  F  F451  1  0.54842349  0.73793236  0.69412255  1
  F  F452  1  0.87808167  0.24922516  0.20347629  1
  F  F453  1  0.87964304  0.25270652  0.70082968  1
  F  F454  1  0.87722964  0.74975297  0.20284537  1
  F  F455  1  0.87599962  0.74389750  0.69545115  1
  F  F456  1  0.29502573  -0.00080986  0.30174726  1
  F  F457  1  0.28908337  0.00231631  0.79711026  1
  F  F458  1  0.29084520  0.49978387  0.30067106  1
  F  F459  1  0.28886757  0.49973359  0.79909030  1
  F  F460  1  0.63038126  -0.00014971  0.30071674  1
  F  F461  1  0.62408383  0.00029176  0.79711315  1
  F  F462  1  0.62221230  0.50148193  0.29780224  1
  F  F463  1  0.62393570  0.49438482  0.79690741  1
  F  F464  1  0.95186012  0.00006903  0.29736298  1
  F  F465  1  0.94867676  0.01484629  0.79997698  1
  F  F466  1  0.95142973  0.49943091  0.29804550  1
  F  F467  1  0.95188339  0.49874716  0.79732731  1
  F  F468  1  0.11666224  0.25193246  0.30374321  1
  F  F469  1  0.11473450  0.26058971  0.80705273  1
  F  F470  1  0.12285492  0.74969948  0.29827860  1
  F  F471  1  0.11735019  0.74917889  0.79616747  1
  F  F472  1  0.45552350  0.24566763  0.30082456  1
  F  F473  1  0.46942975  0.25033862  0.79839767  1
  F  F474  1  0.45817436  0.75116939  0.29755232  1
  F  F475  1  0.45045611  0.73710340  0.79891854  1
  F  F476  1  0.78547210  0.24799862  0.29793707  1
  F  F477  1  0.78814589  0.24963948  0.79427568  1
  F  F478  1  0.78842321  0.75131650  0.29812567  1
  F  F479  1  0.78635586  0.74735800  0.79226092  1
