# generated using pymatgen
data_K24Na3Li5Mg64Fe17Si79(O5F)48
_symmetry_space_group_name_H-M   'P 1'
_cell_length_a   16.07391752
_cell_length_b   18.56732760
_cell_length_c   20.53333864
_cell_angle_alpha   89.99509126
_cell_angle_beta   100.00949392
_cell_angle_gamma   90.00531307
_symmetry_Int_Tables_number   1
_chemical_formula_structural   K24Na3Li5Mg64Fe17Si79(O5F)48
_chemical_formula_sum   'K24 Na3 Li5 Mg64 Fe17 Si79 O240 F48'
_cell_volume   6034.89149827
_cell_formula_units_Z   1
loop_
 _symmetry_equiv_pos_site_id
 _symmetry_equiv_pos_as_xyz
  1  'x, y, z'
loop_
 _atom_site_type_symbol
 _atom_site_label
 _atom_site_symmetry_multiplicity
 _atom_site_fract_x
 _atom_site_fract_y
 _atom_site_fract_z
 _atom_site_occupancy
  K  K0  1  -0.00690936  0.00338522  0.00051034  1
  K  K1  1  -0.00579935  -0.00077516  0.49320852  1
  K  K2  1  -0.00145829  0.50580282  0.00317627  1
  K  K3  1  -0.00643613  0.49659355  0.49327198  1
  K  K4  1  0.33718948  0.00040910  0.00353309  1
  K  K5  1  0.34629185  -0.00046013  0.49507171  1
  K  K6  1  0.33361376  0.49745954  -0.00203145  1
  K  K7  1  0.33988490  0.49747346  0.50292298  1
  K  K8  1  0.66705404  -0.00033836  -0.00084510  1
  K  K9  1  0.65861097  0.00056446  0.49347657  1
  K  K10  1  0.67028475  0.50591609  -0.00608658  1
  K  K11  1  0.65987492  0.49681848  0.50440136  1
  K  K12  1  0.17340551  0.24878122  0.00167412  1
  K  K13  1  0.15939893  0.25639571  0.49578663  1
  K  K14  1  0.16326582  0.75243760  0.00482846  1
  K  K15  1  0.16600934  0.74470305  0.48637857  1
  K  K16  1  0.49939696  0.24956471  -0.00240567  1
  K  K17  1  0.51404427  0.25430897  0.50779980  1
  K  K18  1  0.50164031  0.75193315  -0.00136138  1
  K  K19  1  0.50168786  0.75478047  0.49829290  1
  K  K20  1  0.82983342  0.24588375  0.00063768  1
  K  K21  1  0.82919531  0.25438212  0.49692038  1
  K  K22  1  0.83218591  0.74691811  0.00053271  1
  K  K23  1  0.83702791  0.75372735  0.49158628  1
  Na  Na24  1  0.50184328  -0.00139676  0.75320555  1
  Na  Na25  1  0.16530675  0.83046175  0.24750674  1
  Na  Na26  1  0.50364988  0.33094305  0.74578766  1
  Li  Li27  1  0.66417813  0.25284711  0.74988842  1
  Li  Li28  1  0.66723033  0.75023759  0.75248735  1
  Li  Li29  1  0.50299944  0.16676326  0.25273154  1
  Li  Li30  1  0.83211566  0.83491431  0.24099321  1
  Li  Li31  1  0.83414788  0.33152324  0.25636127  1
  Mg  Mg32  1  0.16539878  0.49915701  0.74975725  1
  Mg  Mg33  1  0.33501642  0.24814769  0.24950342  1
  Mg  Mg34  1  -0.00300460  0.25082900  0.75366433  1
  Mg  Mg35  1  0.33421345  0.75137255  0.75090952  1
  Mg  Mg36  1  0.33342612  0.75031677  0.24917588  1
  Mg  Mg37  1  0.16452095  0.50029920  0.24827720  1
  Mg  Mg38  1  0.83304725  0.49695302  0.25503948  1
  Mg  Mg39  1  -0.00431353  0.24946977  0.25119816  1
  Mg  Mg40  1  -0.00144177  0.74911877  0.25002117  1
  Mg  Mg41  1  0.16902244  -0.00010203  0.24719546  1
  Mg  Mg42  1  0.33357847  0.24974582  0.74772822  1
  Mg  Mg43  1  0.66618370  0.25084014  0.25473437  1
  Mg  Mg44  1  0.83199405  0.49870552  0.75170751  1
  Mg  Mg45  1  0.83409643  -0.00173237  0.24811258  1
  Mg  Mg46  1  0.16622281  -0.00011202  0.74941737  1
  Mg  Mg47  1  0.50176888  0.00187351  0.25278693  1
  Mg  Mg48  1  0.50115576  0.49974406  0.74971350  1
  Mg  Mg49  1  0.49903285  0.49835006  0.25252813  1
  Mg  Mg50  1  -0.00223496  0.75121004  0.75013046  1
  Mg  Mg51  1  0.83164824  0.00094765  0.75179051  1
  Mg  Mg52  1  0.67119334  0.75063062  0.25064338  1
  Mg  Mg53  1  0.50052856  0.66614882  0.24939041  1
  Mg  Mg54  1  0.16628826  0.83430083  0.74990450  1
  Mg  Mg55  1  0.50298212  0.83269719  0.75007379  1
  Mg  Mg56  1  0.16613027  0.16507711  0.24697435  1
  Mg  Mg57  1  0.66658902  0.08556889  0.25297566  1
  Mg  Mg58  1  0.33654818  0.58402039  0.74968584  1
  Mg  Mg59  1  0.16332044  0.66471319  0.24741732  1
  Mg  Mg60  1  0.50224690  0.83563662  0.25053033  1
  Mg  Mg61  1  0.83308233  0.16703944  0.25235030  1
  Mg  Mg62  1  0.50359486  0.66664018  0.74963901  1
  Mg  Mg63  1  -0.00010898  0.08497677  0.75094463  1
  Mg  Mg64  1  0.83167136  0.66767234  0.75059680  1
  Mg  Mg65  1  0.33617007  0.08267461  0.74864857  1
  Mg  Mg66  1  -0.00002556  0.58412741  0.74979282  1
  Mg  Mg67  1  0.16261793  0.33333174  0.24968668  1
  Mg  Mg68  1  0.33526501  0.91649008  0.25045806  1
  Mg  Mg69  1  0.66714199  0.41382009  0.74959730  1
  Mg  Mg70  1  -0.00184146  0.91481865  0.24781006  1
  Mg  Mg71  1  0.66646481  0.08573173  0.75050054  1
  Mg  Mg72  1  -0.00154966  0.08369246  0.24926058  1
  Mg  Mg73  1  0.50111040  0.33028263  0.25385079  1
  Mg  Mg74  1  0.67016974  0.91457253  0.25001719  1
  Mg  Mg75  1  0.33598300  0.08478556  0.25029090  1
  Mg  Mg76  1  0.33048099  0.41513925  0.24873921  1
  Mg  Mg77  1  0.66907461  0.41333027  0.25692171  1
  Mg  Mg78  1  -0.00016792  0.41505655  0.75308700  1
  Mg  Mg79  1  0.33526107  0.41508860  0.74810549  1
  Mg  Mg80  1  0.66715350  0.58616923  0.74917015  1
  Mg  Mg81  1  0.66683394  0.91499007  0.75111097  1
  Mg  Mg82  1  0.16616939  0.16597423  0.75005940  1
  Mg  Mg83  1  0.50268319  0.16782811  0.74753839  1
  Mg  Mg84  1  0.16783640  0.66612774  0.74940076  1
  Mg  Mg85  1  -0.00111144  0.91579555  0.74997760  1
  Mg  Mg86  1  0.83242708  0.83350873  0.75069600  1
  Mg  Mg87  1  -0.00533491  0.41354245  0.25305310  1
  Mg  Mg88  1  0.66835284  0.58285786  0.25259410  1
  Mg  Mg89  1  0.83121415  0.33324344  0.75307973  1
  Mg  Mg90  1  0.32941881  0.58437198  0.24624943  1
  Mg  Mg91  1  0.83434737  0.66734036  0.25150063  1
  Mg  Mg92  1  -0.00154888  0.58508502  0.24942166  1
  Mg  Mg93  1  0.83340178  0.16774045  0.75141487  1
  Mg  Mg94  1  0.16593819  0.33507227  0.75135582  1
  Mg  Mg95  1  0.33481249  0.91642556  0.74886215  1
  Fe  Fe96  1  0.69261912  0.83007530  0.11007895  1
  Fe  Fe97  1  0.98071126  0.16175058  0.89206045  1
  Fe  Fe98  1  0.80160596  0.41467976  0.89259828  1
  Fe  Fe99  1  0.19502170  0.08370479  0.10872215  1
  Fe  Fe100  1  0.01881531  0.66959022  0.10616256  1
  Fe  Fe101  1  0.85599359  0.08487673  0.11149267  1
  Fe  Fe102  1  0.19387590  0.58384791  0.10619683  1
  Fe  Fe103  1  0.14294812  0.42179630  0.89108940  1
  Fe  Fe104  1  0.97955019  0.66941275  0.39222264  1
  Fe  Fe105  1  0.47330653  0.91525817  0.89031427  1
  Fe  Fe106  1  0.97571637  0.33348356  0.89450508  1
  Fe  Fe107  1  0.97056224  0.33054850  0.39315561  1
  Fe  Fe108  1  0.97512279  0.83681838  0.88962643  1
  Fe  Fe109  1  0.47635139  0.58201949  0.88970156  1
  Fe  Fe110  1  0.52522412  0.41889082  0.60637786  1
  Fe  Fe111  1  0.63794763  0.33598147  0.39555880  1
  Fe  Fe112  1  0.47766345  0.91535432  0.39179455  1
  Si  Si113  1  0.30943403  0.16542359  0.88294427  1
  Si  Si114  1  0.97826446  0.66623903  0.88425592  1
  Si  Si115  1  0.35728742  0.16295434  0.61103243  1
  Si  Si116  1  0.14061426  0.41588417  0.38746540  1
  Si  Si117  1  0.30721761  0.33022120  0.88562628  1
  Si  Si118  1  0.18746879  0.41101592  0.11236992  1
  Si  Si119  1  0.30983996  0.17019756  0.38623526  1
  Si  Si120  1  0.35106939  0.32970814  0.60865247  1
  Si  Si121  1  0.47208252  0.41304709  0.88583744  1
  Si  Si122  1  0.46460244  0.41873184  0.38752505  1
  Si  Si123  1  0.30328709  0.83397030  0.88549202  1
  Si  Si124  1  0.47172841  0.58538584  0.38504819  1
  Si  Si125  1  0.02031082  0.83761774  0.11279671  1
  Si  Si126  1  0.19000281  0.91668123  0.61206144  1
  Si  Si127  1  0.68992135  0.66037521  0.11439472  1
  Si  Si128  1  0.35690624  0.83582545  0.61168645  1
  Si  Si129  1  0.36822734  0.66745303  0.11209641  1
  Si  Si130  1  0.19264831  0.91451091  0.11175868  1
  Si  Si131  1  0.52519546  0.92134858  0.11363372  1
  Si  Si132  1  0.64041286  0.66281309  0.38557572  1
  Si  Si133  1  0.52787218  0.08387295  0.61323917  1
  Si  Si134  1  0.98288735  0.83978528  0.38804182  1
  Si  Si135  1  0.63737416  0.33262606  0.88645641  1
  Si  Si136  1  0.69552571  0.16274254  0.61365116  1
  Si  Si137  1  0.85998302  0.91755470  0.61196207  1
  Si  Si138  1  0.14361351  0.58811676  0.88355180  1
  Si  Si139  1  0.19067004  0.41658248  0.61179027  1
  Si  Si140  1  0.02654923  0.16987613  0.11317199  1
  Si  Si141  1  0.69483917  0.83654823  0.61307984  1
  Si  Si142  1  0.80800627  0.58601735  0.38926517  1
  Si  Si143  1  0.81212949  0.58604236  0.88651110  1
  Si  Si144  1  0.01877484  0.33345768  0.11640478  1
  Si  Si145  1  0.14654284  0.57829175  0.38842554  1
  Si  Si146  1  0.64060330  0.83181619  0.88487123  1
  Si  Si147  1  0.64788521  0.82864384  0.38914548  1
  Si  Si148  1  0.36540652  0.16700971  0.11434481  1
  Si  Si149  1  0.30745860  0.83233271  0.38781162  1
  Si  Si150  1  0.19032543  0.08254952  0.61223309  1
  Si  Si151  1  0.80219029  0.91780550  0.88684775  1
  Si  Si152  1  0.14875480  0.07800389  0.88504227  1
  Si  Si153  1  0.52522585  0.59113426  0.60898410  1
  Si  Si154  1  0.69761036  0.33047862  0.61193120  1
  Si  Si155  1  0.14371706  0.92194642  0.38394306  1
  Si  Si156  1  0.30748276  0.66684479  0.38516156  1
  Si  Si157  1  0.81119206  0.91462526  0.38478201  1
  Si  Si158  1  0.97745813  0.15973037  0.39118270  1
  Si  Si159  1  0.14359085  0.91797224  0.88400124  1
  Si  Si160  1  0.36077762  0.83367957  0.11404393  1
  Si  Si161  1  0.52959896  0.08547592  0.11934434  1
  Si  Si162  1  0.52231100  0.41728169  0.11734092  1
  Si  Si163  1  0.80736106  0.07843276  0.38809886  1
  Si  Si164  1  0.52776846  0.91523198  0.61313809  1
  Si  Si165  1  0.30392921  0.66959044  0.88483216  1
  Si  Si166  1  0.80427796  0.42253034  0.39383489  1
  Si  Si167  1  0.85240168  0.41390485  0.11894136  1
  Si  Si168  1  0.64593005  0.66887428  0.88528648  1
  Si  Si169  1  0.35864841  0.33195893  0.11564736  1
  Si  Si170  1  0.86045075  0.41701966  0.61372260  1
  Si  Si171  1  0.30252828  0.33390769  0.38394217  1
  Si  Si172  1  0.02610713  0.16791951  0.61304763  1
  Si  Si173  1  0.52860450  0.58014266  0.11746317  1
  Si  Si174  1  0.35640358  0.67096213  0.61192483  1
  Si  Si175  1  0.85391193  0.57688251  0.11432881  1
  Si  Si176  1  0.85770959  0.58328142  0.61343069  1
  Si  Si177  1  0.69489193  0.67027762  0.61366879  1
  Si  Si178  1  0.68653478  0.33422764  0.11923927  1
  Si  Si179  1  0.19272723  0.58366309  0.61254230  1
  Si  Si180  1  0.86064829  0.08232768  0.61241652  1
  Si  Si181  1  0.47524583  0.08778323  0.88568644  1
  Si  Si182  1  0.80235352  0.08468830  0.88699979  1
  Si  Si183  1  0.85977428  0.91723192  0.11103078  1
  Si  Si184  1  0.68958707  0.17104968  0.11580330  1
  Si  Si185  1  0.63776605  0.16899488  0.88370800  1
  Si  Si186  1  0.02548073  0.83191875  0.61192175  1
  Si  Si187  1  0.02533199  0.33409024  0.61394807  1
  Si  Si188  1  0.47577510  0.08636775  0.38911931  1
  Si  Si189  1  0.14610541  0.08389251  0.38611586  1
  Si  Si190  1  0.64626112  0.16594390  0.39071203  1
  Si  Si191  1  0.02507379  0.66556189  0.61313632  1
  O  O192  1  0.29032500  0.11763304  0.07508954  1
  O  O193  1  0.26998944  0.11662592  0.58160203  1
  O  O194  1  0.29374227  0.61631083  0.07638970  1
  O  O195  1  0.26881271  0.62515895  0.58198315  1
  O  O196  1  0.61050978  0.11556908  0.08815229  1
  O  O197  1  0.60423836  0.12321605  0.58092125  1
  O  O198  1  0.61485073  0.59958902  0.08998895  1
  O  O199  1  0.60204460  0.63639110  0.58118942  1
  O  O200  1  0.95374880  0.11416782  0.08037586  1
  O  O201  1  0.93717253  0.12539404  0.58337986  1
  O  O202  1  0.92972019  0.60333003  0.07840749  1
  O  O203  1  0.93639375  0.62304655  0.58418931  1
  O  O204  1  0.10294570  0.36046436  0.08751218  1
  O  O205  1  0.10033985  0.37603237  0.58326170  1
  O  O206  1  0.11120860  0.86040679  0.09019037  1
  O  O207  1  0.10268023  0.87170113  0.58168538  1
  O  O208  1  0.43716317  0.37061521  0.08650973  1
  O  O209  1  0.42305337  0.36741537  0.57463151  1
  O  O210  1  0.43710602  0.87561209  0.08594524  1
  O  O211  1  0.43618873  0.87467939  0.58336010  1
  O  O212  1  0.77025784  0.36220159  0.09003684  1
  O  O213  1  0.77758873  0.36940913  0.58246886  1
  O  O214  1  0.79340210  0.85415002  0.08074865  1
  O  O215  1  0.76928096  0.87934197  0.58046939  1
  O  O216  1  0.26919782  0.37197446  0.08647069  1
  O  O217  1  0.26043572  0.37222499  0.57791862  1
  O  O218  1  0.27193543  0.87374671  0.08315876  1
  O  O219  1  0.26935450  0.88107700  0.58178597  1
  O  O220  1  0.60436102  0.38622676  0.08826316  1
  O  O221  1  0.61273110  0.36916749  0.57377060  1
  O  O222  1  0.59995657  0.89231506  0.07755314  1
  O  O223  1  0.60330673  0.87470714  0.58063105  1
  O  O224  1  0.93611949  0.38473292  0.08969021  1
  O  O225  1  0.93923321  0.37899950  0.58403088  1
  O  O226  1  0.95170775  0.90194368  0.08615375  1
  O  O227  1  0.93589304  0.87366776  0.58261937  1
  O  O228  1  0.11231708  0.15440685  0.08366239  1
  O  O229  1  0.10336211  0.12813981  0.58217557  1
  O  O230  1  0.10775031  0.64128694  0.06512867  1
  O  O231  1  0.10299575  0.62585820  0.58392858  1
  O  O232  1  0.45307318  0.14102294  0.08968668  1
  O  O233  1  0.43619980  0.12369891  0.58201960  1
  O  O234  1  0.45647336  0.63930107  0.08817623  1
  O  O235  1  0.43622640  0.63750782  0.58191397  1
  O  O236  1  0.76736335  0.14968899  0.07978373  1
  O  O237  1  0.76984359  0.11956721  0.58076954  1
  O  O238  1  0.77123494  0.62771252  0.08572679  1
  O  O239  1  0.76967838  0.62644231  0.58250824  1
  O  O240  1  0.06403607  0.11045380  0.41816020  1
  O  O241  1  0.06836578  0.09254334  0.91953358  1
  O  O242  1  0.07301630  0.60843396  0.42610474  1
  O  O243  1  0.05367440  0.60653090  0.90801436  1
  O  O244  1  0.39605175  0.12664017  0.41763573  1
  O  O245  1  0.39055655  0.11601666  0.91535643  1
  O  O246  1  0.39687422  0.62598429  0.41641674  1
  O  O247  1  0.37651167  0.61496073  0.91928315  1
  O  O248  1  0.72992997  0.11421162  0.42001645  1
  O  O249  1  0.71607821  0.11407814  0.91286100  1
  O  O250  1  0.71921429  0.61013380  0.41537574  1
  O  O251  1  0.73021229  0.61993196  0.91424065  1
  O  O252  1  0.21974873  0.35980942  0.41401299  1
  O  O253  1  0.22948078  0.35375686  0.92082932  1
  O  O254  1  0.22258334  0.86717306  0.41204642  1
  O  O255  1  0.21289816  0.85414095  0.90921122  1
  O  O256  1  0.53937242  0.36904376  0.42504036  1
  O  O257  1  0.54392644  0.35007201  0.90768724  1
  O  O258  1  0.57849383  0.86497299  0.42730118  1
  O  O259  1  0.56116063  0.85007679  0.92101609  1
  O  O260  1  0.87991857  0.36939949  0.42838340  1
  O  O261  1  0.87852009  0.34626303  0.92926036  1
  O  O262  1  0.90197505  0.87731273  0.41640803  1
  O  O263  1  0.87915715  0.86754465  0.92225130  1
  O  O264  1  0.06505504  0.39116020  0.42493290  1
  O  O265  1  0.04744551  0.40883231  0.92681560  1
  O  O266  1  0.06304799  0.89510655  0.41748377  1
  O  O267  1  0.06184552  0.90474062  0.91784040  1
  O  O268  1  0.37717111  0.39151881  0.41252004  1
  O  O269  1  0.38892415  0.38115511  0.91480135  1
  O  O270  1  0.38916995  0.87312340  0.42916230  1
  O  O271  1  0.37373338  0.88866286  0.92241101  1
  O  O272  1  0.72055890  0.40482208  0.42591409  1
  O  O273  1  0.70364308  0.38902800  0.92767851  1
  O  O274  1  0.74006153  0.86789044  0.41610930  1
  O  O275  1  0.71613122  0.89004729  0.91228192  1
  O  O276  1  0.22868515  0.13539165  0.41568771  1
  O  O277  1  0.22658944  0.13516111  0.91143984  1
  O  O278  1  0.23325411  0.62586368  0.41605846  1
  O  O279  1  0.21110426  0.65440040  0.90659044  1
  O  O280  1  0.56304386  0.13172095  0.41759730  1
  O  O281  1  0.55330424  0.14406001  0.91410535  1
  O  O282  1  0.55835554  0.63027616  0.41468400  1
  O  O283  1  0.56919661  0.64263883  0.92216244  1
  O  O284  1  0.89878248  0.11686919  0.41847614  1
  O  O285  1  0.88091893  0.13250359  0.92259111  1
  O  O286  1  0.88126526  0.63999291  0.42457590  1
  O  O287  1  0.89268775  0.64104689  0.91164600  1
  O  O288  1  0.17257393  -0.00972070  0.07275254  1
  O  O289  1  0.17551990  -0.00047219  0.58314366  1
  O  O290  1  0.17302257  0.48752653  0.07623178  1
  O  O291  1  0.18539399  0.50061494  0.58305842  1
  O  O292  1  0.50336417  0.00525492  0.08818790  1
  O  O293  1  0.51953377  -0.00072836  0.58492837  1
  O  O294  1  0.50057814  0.49934296  0.08883890  1
  O  O295  1  0.51417220  0.51489708  0.57053019  1
  O  O296  1  0.82390946  -0.00658897  0.07743205  1
  O  O297  1  0.86010257  -0.00021428  0.58132050  1
  O  O298  1  0.82762579  0.49405734  0.08761837  1
  O  O299  1  0.85011056  0.50047318  0.58358243  1
  O  O300  1  -0.00582281  0.25253119  0.08903287  1
  O  O301  1  0.01840180  0.25093366  0.58382044  1
  O  O302  1  -0.01136753  0.76354342  0.07485609  1
  O  O303  1  0.01692752  0.74865345  0.58347332  1
  O  O304  1  0.35157830  0.25064481  0.08531551  1
  O  O305  1  0.34017280  0.24465184  0.58064347  1
  O  O306  1  0.35636579  0.75119240  0.08441653  1
  O  O307  1  0.34284534  0.75352108  0.58074749  1
  O  O308  1  0.65943812  0.25351896  0.08970725  1
  O  O309  1  0.69496770  0.24529986  0.58496181  1
  O  O310  1  0.66033904  0.73557539  0.07886468  1
  O  O311  1  0.69384813  0.75345562  0.58405301  1
  O  O312  1  0.17067813  0.00266912  0.41644354  1
  O  O313  1  0.18765883  -0.00318030  0.90568025  1
  O  O314  1  0.17405863  0.49613126  0.41541394  1
  O  O315  1  0.18514374  0.51521896  0.91631743  1
  O  O316  1  0.48741011  0.00934969  0.42743889  1
  O  O317  1  0.50193123  0.01039859  0.91889127  1
  O  O318  1  0.47894341  0.50318446  0.41429727  1
  O  O319  1  0.49977898  0.48810263  0.92482351  1
  O  O320  1  0.81518087  -0.00415304  0.41878361  1
  O  O321  1  0.81626570  0.00108059  0.91392124  1
  O  O322  1  0.83307701  0.50564455  0.41955911  1
  O  O323  1  0.83432812  0.50961018  0.92210664  1
  O  O324  1  0.32400208  0.25295427  0.41511213  1
  O  O325  1  0.33247038  0.24683507  0.91098955  1
  O  O326  1  0.31181194  0.74816277  0.41650555  1
  O  O327  1  0.32923721  0.75178602  0.91158587  1
  O  O328  1  0.66569335  0.24243451  0.42831486  1
  O  O329  1  0.66059608  0.24936740  0.91512261  1
  O  O330  1  0.66013149  0.74391732  0.41616651  1
  O  O331  1  0.67518107  0.75110699  0.90987989  1
  O  O332  1  0.99209127  0.23587961  0.42940965  1
  O  O333  1  1.02575295  0.24719008  0.92654446  1
  O  O334  1  1.00291764  0.76386035  0.42702820  1
  O  O335  1  1.00986921  0.74296038  0.91628904  1
  O  O336  1  0.21444517  0.08391980  0.20096386  1
  O  O337  1  0.20723009  0.08340098  0.69240680  1
  O  O338  1  0.21045955  0.58118274  0.19922888  1
  O  O339  1  0.21033091  0.58462250  0.69273194  1
  O  O340  1  0.54744294  0.08189573  0.19915936  1
  O  O341  1  0.54712700  0.08675920  0.69205887  1
  O  O342  1  0.54357334  0.58093755  0.19820140  1
  O  O343  1  0.54391505  0.58832896  0.68933117  1
  O  O344  1  0.87708002  0.08437356  0.20347989  1
  O  O345  1  0.87783012  0.08067349  0.69233193  1
  O  O346  1  0.87233204  0.57917614  0.19538324  1
  O  O347  1  0.87669505  0.58480827  0.69357385  1
  O  O348  1  0.04160722  0.33392483  0.19691804  1
  O  O349  1  0.04393079  0.33175279  0.69361663  1
  O  O350  1  0.03182791  0.83246547  0.19275109  1
  O  O351  1  0.04432507  0.83371084  0.69188111  1
  O  O352  1  0.37671464  0.33369225  0.19618214  1
  O  O353  1  0.36259167  0.33145894  0.68842311  1
  O  O354  1  0.37797967  0.83217724  0.19461189  1
  O  O355  1  0.37177839  0.83278608  0.69130652  1
  O  O356  1  0.70425300  0.33454543  0.19876586  1
  O  O357  1  0.71392216  0.33547593  0.69133835  1
  O  O358  1  0.70776931  0.83214801  0.20092220  1
  O  O359  1  0.71472554  0.83927110  0.69229838  1
  O  O360  1  0.20768035  0.41411280  0.19389790  1
  O  O361  1  0.20964075  0.41700460  0.69181164  1
  O  O362  1  0.21805007  0.92327041  0.19148872  1
  O  O363  1  0.20682379  0.91558884  0.69230069  1
  O  O364  1  0.53939504  0.41701060  0.19760398  1
  O  O365  1  0.54946588  0.42677391  0.69575710  1
  O  O366  1  0.54517484  0.91752941  0.19468439  1
  O  O367  1  0.54870477  0.90940229  0.69173717  1
  O  O368  1  0.87350468  0.41759572  0.19860413  1
  O  O369  1  0.87916717  0.41936971  0.69343215  1
  O  O370  1  0.87738204  0.92081001  0.19215103  1
  O  O371  1  0.87671265  0.91822464  0.69186135  1
  O  O372  1  0.04315375  0.16737035  0.19527998  1
  O  O373  1  0.04528216  0.16551509  0.69292711  1
  O  O374  1  0.04382570  0.66474821  0.19833463  1
  O  O375  1  0.04361471  0.66708118  0.69328433  1
  O  O376  1  0.37379424  0.16737571  0.19435654  1
  O  O377  1  0.37320259  0.16363528  0.69093618  1
  O  O378  1  0.38080610  0.66623566  0.19341462  1
  O  O379  1  0.37197471  0.66967104  0.69180183  1
  O  O380  1  0.70863789  0.16785753  0.19673391  1
  O  O381  1  0.71589422  0.15805314  0.69259179  1
  O  O382  1  0.70814478  0.66323565  0.19564113  1
  O  O383  1  0.71327816  0.66587105  0.69299115  1
  O  O384  1  0.12488474  0.08541669  0.30620947  1
  O  O385  1  0.12560447  0.08240338  0.80330947  1
  O  O386  1  0.12461150  0.57937759  0.30807225  1
  O  O387  1  0.12398617  0.58528152  0.80167623  1
  O  O388  1  0.45549493  0.08177278  0.30917616  1
  O  O389  1  0.45198553  0.09032205  0.80563880  1
  O  O390  1  0.45421330  0.58448166  0.30460141  1
  O  O391  1  0.45584152  0.58466395  0.79725685  1
  O  O392  1  0.78921824  0.08149303  0.30825946  1
  O  O393  1  0.79060409  0.08414239  0.80570029  1
  O  O394  1  0.78951075  0.58349347  0.30824804  1
  O  O395  1  0.79243802  0.58502820  0.80504814  1
  O  O396  1  0.28672798  0.33311057  0.30358389  1
  O  O397  1  0.28889288  0.33240512  0.80412693  1
  O  O398  1  0.30179414  0.83262717  0.30847946  1
  O  O399  1  0.28700865  0.83402926  0.80368839  1
  O  O400  1  0.61966878  0.33402087  0.30421913  1
  O  O401  1  0.63365576  0.33520705  0.80791230  1
  O  O402  1  0.62402368  0.83167861  0.30885042  1
  O  O403  1  0.62142537  0.83536731  0.80441834  1
  O  O404  1  0.95799229  0.33074957  0.30321320  1
  O  O405  1  0.95485332  0.33377123  0.80031796  1
  O  O406  1  0.96658115  0.83483455  0.30864959  1
  O  O407  1  0.95493395  0.83440192  0.79693051  1
  O  O408  1  0.12271227  0.41545462  0.30648683  1
  O  O409  1  0.12208690  0.41774177  0.79766237  1
  O  O410  1  0.12173366  0.92561625  0.30497761  1
  O  O411  1  0.12246520  0.91645938  0.80207411  1
  O  O412  1  0.45225619  0.41761107  0.30668100  1
  O  O413  1  0.44939762  0.42359222  0.80616942  1
  O  O414  1  0.45805319  0.91639867  0.30038478  1
  O  O415  1  0.44875281  0.90652307  0.80003234  1
  O  O416  1  0.78713133  0.42115192  0.31317048  1
  O  O417  1  0.78877124  0.41808784  0.79976814  1
  O  O418  1  0.79049709  0.91979466  0.30581929  1
  O  O419  1  0.79143827  0.91654388  0.80541910  1
  O  O420  1  0.29104866  0.16867531  0.30623893  1
  O  O421  1  0.28870152  0.16466769  0.80203140  1
  O  O422  1  0.29341970  0.66607843  0.30529764  1
  O  O423  1  0.28970109  0.66771102  0.80305009  1
  O  O424  1  0.63055903  0.16647613  0.31074317  1
  O  O425  1  0.62026569  0.16495967  0.80400811  1
  O  O426  1  0.62119656  0.66434127  0.30527502  1
  O  O427  1  0.62303774  0.66435307  0.80485929  1
  O  O428  1  0.96000169  0.16424020  0.31085073  1
  O  O429  1  0.95635979  0.16469136  0.79875099  1
  O  O430  1  0.95454506  0.66454355  0.30172327  1
  O  O431  1  0.95771987  0.66715922  0.80249856  1
  F  F432  1  0.04651733  0.00200851  0.20239983  1
  F  F433  1  0.04470605  0.00003672  0.69975410  1
  F  F434  1  0.04285424  0.49720377  0.20439806  1
  F  F435  1  0.04396096  0.50333434  0.69796044  1
  F  F436  1  0.38107889  0.00206161  0.20236102  1
  F  F437  1  0.36338071  -0.00020435  0.69351376  1
  F  F438  1  0.37853167  0.49898504  0.20211001  1
  F  F439  1  0.37517946  0.50006186  0.69662475  1
  F  F440  1  0.71068323  0.00178692  0.20423671  1
  F  F441  1  0.71433899  -0.00094885  0.69948572  1
  F  F442  1  0.70991447  0.49811482  0.20706975  1
  F  F443  1  0.71385586  0.50543272  0.69918264  1
  F  F444  1  0.21245284  0.25125209  0.20261597  1
  F  F445  1  0.20946361  0.24904667  0.70048211  1
  F  F446  1  0.21947229  0.73967202  0.19862111  1
  F  F447  1  0.21109087  0.75070762  0.69975981  1
  F  F448  1  0.54495250  0.25079419  0.20426334  1
  F  F449  1  0.54396928  0.23913089  0.69019438  1
  F  F450  1  0.54629581  0.74979943  0.20421556  1
  F  F451  1  0.53822618  0.74976573  0.69839929  1
  F  F452  1  0.87906420  0.24371148  0.20240057  1
  F  F453  1  0.87852482  0.24908205  0.69762581  1
  F  F454  1  0.87645746  0.74754539  0.20348002  1
  F  F455  1  0.87839061  0.74888835  0.69697299  1
  F  F456  1  0.29128338  -0.00076248  0.30084769  1
  F  F457  1  0.28631649  0.00005514  0.79460896  1
  F  F458  1  0.28893493  0.49793053  0.29786769  1
  F  F459  1  0.28693392  0.50042801  0.79318052  1
  F  F460  1  0.62355020  -0.00162475  0.30132322  1
  F  F461  1  0.63598341  0.00020638  0.79962547  1
  F  F462  1  0.61820206  0.50093755  0.30138488  1
  F  F463  1  0.62310176  0.50489757  0.79737990  1
  F  F464  1  0.95640861  -0.00142947  0.29984636  1
  F  F465  1  0.95422061  -0.00027104  0.79548552  1
  F  F466  1  0.95501066  0.50002197  0.30060324  1
  F  F467  1  0.95509739  0.50254253  0.79546909  1
  F  F468  1  0.12212777  0.24841457  0.29798405  1
  F  F469  1  0.12202147  0.24884587  0.79593681  1
  F  F470  1  0.12050823  0.73964011  0.30384535  1
  F  F471  1  0.12037216  0.75035791  0.79373725  1
  F  F472  1  0.44919407  0.25438586  0.30258385  1
  F  F473  1  0.44766651  0.24223302  0.79600099  1
  F  F474  1  0.45627525  0.74864622  0.29840560  1
  F  F475  1  0.45305727  0.74833861  0.79608087  1
  F  F476  1  0.78695569  0.24507550  0.30280983  1
  F  F477  1  0.79087405  0.24813013  0.79640071  1
  F  F478  1  0.78350816  0.74008567  0.30529419  1
  F  F479  1  0.79256097  0.75078326  0.79654261  1
