# generated using pymatgen
data_K24Na3Li5Mg64Fe17Si79(O5F)48
_symmetry_space_group_name_H-M   'P 1'
_cell_length_a   16.11603506
_cell_length_b   18.60595314
_cell_length_c   20.57925534
_cell_angle_alpha   90.00793380
_cell_angle_beta   100.01287702
_cell_angle_gamma   89.98020539
_symmetry_Int_Tables_number   1
_chemical_formula_structural   K24Na3Li5Mg64Fe17Si79(O5F)48
_chemical_formula_sum   'K24 Na3 Li5 Mg64 Fe17 Si79 O240 F48'
_cell_volume   6076.78668830
_cell_formula_units_Z   1
loop_
 _symmetry_equiv_pos_site_id
 _symmetry_equiv_pos_as_xyz
  1  'x, y, z'
loop_
 _atom_site_type_symbol
 _atom_site_label
 _atom_site_symmetry_multiplicity
 _atom_site_fract_x
 _atom_site_fract_y
 _atom_site_fract_z
 _atom_site_occupancy
  K  K0  1  -0.01702947  0.00098427  -0.00009715  1
  K  K1  1  -0.00228031  0.00415498  0.49992352  1
  K  K2  1  0.00852320  0.50379735  0.00908099  1
  K  K3  1  -0.00111558  0.49391288  0.49735836  1
  K  K4  1  0.36512607  -0.00529773  -0.00007916  1
  K  K5  1  0.34280702  0.00231165  0.50733109  1
  K  K6  1  0.33061860  0.49293723  0.00695965  1
  K  K7  1  0.33293228  0.49630456  0.49690381  1
  K  K8  1  0.65747388  0.00618325  0.00616970  1
  K  K9  1  0.65354903  -0.00263595  0.49042709  1
  K  K10  1  0.66179982  0.49682588  0.01593616  1
  K  K11  1  0.66680955  0.50772017  0.48752144  1
  K  K12  1  0.18251519  0.24702357  0.00319404  1
  K  K13  1  0.17180229  0.24043399  0.50149780  1
  K  K14  1  0.17670475  0.75310511  -0.00044672  1
  K  K15  1  0.17307363  0.75377610  0.50506702  1
  K  K16  1  0.49236233  0.24034950  0.00537210  1
  K  K17  1  0.50021186  0.24675841  0.49378474  1
  K  K18  1  0.50246447  0.76371531  0.00637143  1
  K  K19  1  0.51419897  0.75650219  0.49948195  1
  K  K20  1  0.82869671  0.24376645  0.01033918  1
  K  K21  1  0.83022298  0.24155682  0.48644723  1
  K  K22  1  0.83968976  0.75550048  -0.00433207  1
  K  K23  1  0.82636196  0.75482648  0.49349774  1
  Na  Na24  1  0.50414183  0.00234823  0.25621213  1
  Na  Na25  1  0.16527678  0.83100954  0.74168047  1
  Na  Na26  1  0.66789924  0.41922906  0.26135816  1
  Li  Li27  1  0.65724066  0.25773040  0.25625430  1
  Li  Li28  1  0.66829994  0.75445628  0.74717537  1
  Li  Li29  1  0.34112190  0.07915528  0.74909749  1
  Li  Li30  1  0.66793533  0.57813034  0.25483903  1
  Li  Li31  1  0.51242093  0.33208434  0.25657527  1
  Mg  Mg32  1  0.50306674  0.49772485  0.25455893  1
  Mg  Mg33  1  0.66444832  0.24975787  0.75271653  1
  Mg  Mg34  1  0.16559494  0.50044144  0.75148685  1
  Mg  Mg35  1  0.00051785  0.75036875  0.74295602  1
  Mg  Mg36  1  0.33175714  0.24627283  0.75736761  1
  Mg  Mg37  1  0.83254132  -0.00078439  0.74636692  1
  Mg  Mg38  1  0.33433686  0.75151260  0.74856745  1
  Mg  Mg39  1  -0.00192532  0.24947113  0.25063112  1
  Mg  Mg40  1  0.16696819  -0.00065455  0.24628274  1
  Mg  Mg41  1  0.33559104  0.75084516  0.24739756  1
  Mg  Mg42  1  0.83369976  0.00011938  0.24803474  1
  Mg  Mg43  1  0.83291408  0.50085161  0.74884504  1
  Mg  Mg44  1  0.33563876  0.25107201  0.25124774  1
  Mg  Mg45  1  0.49809392  -0.00260678  0.74869870  1
  Mg  Mg46  1  -0.00102627  0.75055521  0.24425406  1
  Mg  Mg47  1  0.17052463  -0.00098280  0.74619179  1
  Mg  Mg48  1  0.83126119  0.49944006  0.25311380  1
  Mg  Mg49  1  0.66639143  0.74775223  0.25056702  1
  Mg  Mg50  1  0.16715046  0.50054438  0.24735452  1
  Mg  Mg51  1  0.50062397  0.50158048  0.75397563  1
  Mg  Mg52  1  -0.00004730  0.24933032  0.75036230  1
  Mg  Mg53  1  0.33288275  0.58452587  0.75079262  1
  Mg  Mg54  1  0.50315377  0.83377281  0.74809802  1
  Mg  Mg55  1  0.16688002  0.83370317  0.24563939  1
  Mg  Mg56  1  0.33658026  0.91660270  0.24842175  1
  Mg  Mg57  1  -0.00056698  0.08324275  0.74740341  1
  Mg  Mg58  1  -0.00070234  0.91542015  0.74249571  1
  Mg  Mg59  1  0.00027701  0.58468291  0.24729437  1
  Mg  Mg60  1  0.50555810  0.17330176  0.25543492  1
  Mg  Mg61  1  0.66545298  0.41651527  0.75142544  1
  Mg  Mg62  1  -0.00333542  0.91647074  0.24322926  1
  Mg  Mg63  1  0.16866602  0.33330600  0.75475414  1
  Mg  Mg64  1  0.33278583  0.41499515  0.75366798  1
  Mg  Mg65  1  -0.00204131  0.58567927  0.74615066  1
  Mg  Mg66  1  0.83244947  0.83399544  0.74491433  1
  Mg  Mg67  1  0.33631788  0.41512055  0.24958879  1
  Mg  Mg68  1  -0.00210830  0.41497992  0.25298911  1
  Mg  Mg69  1  0.83143804  0.16546639  0.74890221  1
  Mg  Mg70  1  0.16536727  0.33493422  0.24909412  1
  Mg  Mg71  1  0.83153765  0.83395830  0.24534845  1
  Mg  Mg72  1  0.49532222  0.16352521  0.75041174  1
  Mg  Mg73  1  0.17034475  0.16287412  0.75067484  1
  Mg  Mg74  1  0.16538756  0.16591491  0.24717349  1
  Mg  Mg75  1  0.83121105  0.66384254  0.25044746  1
  Mg  Mg76  1  -0.00302427  0.08337348  0.24571366  1
  Mg  Mg77  1  0.49684413  0.33452369  0.75285476  1
  Mg  Mg78  1  0.33694394  0.08388009  0.25245326  1
  Mg  Mg79  1  0.66286998  0.08320522  0.75006577  1
  Mg  Mg80  1  0.50389979  0.66320351  0.25134224  1
  Mg  Mg81  1  0.50449889  0.66817509  0.75148213  1
  Mg  Mg82  1  0.33254958  0.58351736  0.24686839  1
  Mg  Mg83  1  0.66608163  0.91265563  0.74810112  1
  Mg  Mg84  1  0.16346019  0.66651737  0.74695251  1
  Mg  Mg85  1  0.66766707  0.58544091  0.75059218  1
  Mg  Mg86  1  0.66762180  0.91590038  0.25231265  1
  Mg  Mg87  1  0.66727863  0.08801499  0.25066768  1
  Mg  Mg88  1  0.33470610  0.91810793  0.74909491  1
  Mg  Mg89  1  0.50456980  0.83469240  0.25174851  1
  Mg  Mg90  1  0.83088241  0.66815795  0.74810172  1
  Mg  Mg91  1  -0.00058662  0.41581091  0.75235325  1
  Mg  Mg92  1  0.83255959  0.33243944  0.25609395  1
  Mg  Mg93  1  0.16756856  0.66542174  0.24501133  1
  Mg  Mg94  1  0.83165187  0.33354537  0.75116170  1
  Mg  Mg95  1  0.83074548  0.16650374  0.24893267  1
  Fe  Fe96  1  0.19166272  0.58279140  0.10678288  1
  Fe  Fe97  1  0.01976809  0.66584111  0.60466354  1
  Fe  Fe98  1  0.64298944  0.83164373  0.39307154  1
  Fe  Fe99  1  0.35748503  0.17006957  0.61293099  1
  Fe  Fe100  1  0.64681317  0.17199599  0.39323668  1
  Fe  Fe101  1  0.85457672  0.91190394  0.10523995  1
  Fe  Fe102  1  0.46505683  0.91840329  0.39197879  1
  Fe  Fe103  1  0.30852468  0.33524678  0.89458190  1
  Fe  Fe104  1  0.53554648  0.91839113  0.11084368  1
  Fe  Fe105  1  0.47882386  0.90731388  0.89067371  1
  Fe  Fe106  1  0.97814204  0.32798146  0.39331694  1
  Fe  Fe107  1  0.84993312  0.08358822  0.10643755  1
  Fe  Fe108  1  0.19380755  0.91529661  0.60635207  1
  Fe  Fe109  1  0.47743304  0.08267139  0.89117514  1
  Fe  Fe110  1  0.85996642  0.92100804  0.60650650  1
  Fe  Fe111  1  0.81396867  0.41858106  0.39848749  1
  Fe  Fe112  1  0.52915933  0.91398779  0.60885987  1
  Si  Si113  1  0.13667419  0.58468202  0.88442749  1
  Si  Si114  1  0.68934776  0.17679566  0.11230686  1
  Si  Si115  1  0.14244204  0.07657751  0.38084447  1
  Si  Si116  1  0.13661690  0.91617128  0.88132115  1
  Si  Si117  1  0.81756776  0.58753963  0.38899711  1
  Si  Si118  1  0.14219693  0.58753097  0.38275379  1
  Si  Si119  1  0.52287047  0.57965667  0.11709375  1
  Si  Si120  1  0.85897940  0.41781511  0.11504927  1
  Si  Si121  1  0.18330850  0.08450037  0.60903357  1
  Si  Si122  1  0.29965527  0.16994745  0.38434557  1
  Si  Si123  1  0.13732293  0.91402855  0.37875006  1
  Si  Si124  1  0.13356359  0.41960709  0.88989274  1
  Si  Si125  1  0.14213738  0.42241494  0.38634869  1
  Si  Si126  1  0.30948652  0.66813406  0.38332006  1
  Si  Si127  1  0.52723002  0.58327347  0.61621988  1
  Si  Si128  1  0.64708043  0.66275047  0.88601185  1
  Si  Si129  1  0.47853704  0.58819477  0.88786413  1
  Si  Si130  1  0.02028117  0.66840412  0.10837035  1
  Si  Si131  1  0.19006065  0.41171004  0.11095955  1
  Si  Si132  1  0.97225698  0.66975204  0.88294931  1
  Si  Si133  1  0.52486121  0.41890765  0.61709369  1
  Si  Si134  1  0.69241902  0.66363959  0.61553792  1
  Si  Si135  1  0.35872169  0.16624336  0.11701685  1
  Si  Si136  1  0.35621801  0.33963120  0.61470553  1
  Si  Si137  1  0.19414443  0.08312144  0.11375900  1
  Si  Si138  1  0.81162705  0.58135060  0.88596285  1
  Si  Si139  1  0.29854627  0.83202436  0.38406602  1
  Si  Si140  1  0.97175293  0.16447109  0.88447734  1
  Si  Si141  1  0.02031614  0.83296709  0.60477696  1
  Si  Si142  1  0.97854343  0.67175835  0.38299748  1
  Si  Si143  1  0.69176481  0.16982685  0.61703245  1
  Si  Si144  1  0.81438712  0.08104560  0.38613268  1
  Si  Si145  1  0.63906539  0.33867845  0.39685985  1
  Si  Si146  1  0.30072947  0.16422035  0.89315597  1
  Si  Si147  1  0.64919388  0.82598078  0.88569071  1
  Si  Si148  1  0.80503082  0.08370807  0.88345063  1
  Si  Si149  1  0.02959880  0.83512067  0.10825806  1
  Si  Si150  1  0.68898418  0.65810484  0.11823007  1
  Si  Si151  1  0.35781896  0.33109838  0.11665843  1
  Si  Si152  1  0.02311762  0.17119450  0.61478312  1
  Si  Si153  1  0.30431320  0.82951624  0.88585423  1
  Si  Si154  1  0.30566782  0.66302954  0.88546449  1
  Si  Si155  1  0.47254827  0.58131661  0.38554170  1
  Si  Si156  1  0.85407540  0.41309661  0.61706068  1
  Si  Si157  1  0.97583869  0.83473375  0.38033205  1
  Si  Si158  1  0.36058079  0.66098993  0.61632973  1
  Si  Si159  1  0.19393436  0.58306670  0.61367295  1
  Si  Si160  1  0.81037471  0.41751109  0.88625038  1
  Si  Si161  1  0.02696710  0.16543776  0.11056445  1
  Si  Si162  1  0.36101548  0.83389970  0.11148406  1
  Si  Si163  1  0.69981836  0.82937009  0.61165533  1
  Si  Si164  1  0.64291811  0.66171439  0.38719469  1
  Si  Si165  1  0.02410560  0.33650588  0.61764844  1
  Si  Si166  1  0.68841797  0.33284502  0.61763689  1
  Si  Si167  1  0.64512708  0.33809699  0.88730664  1
  Si  Si168  1  0.85470340  0.09136565  0.61192882  1
  Si  Si169  1  0.69181743  0.33987897  0.11978978  1
  Si  Si170  1  0.46866896  0.09351446  0.39096655  1
  Si  Si171  1  0.52850380  0.08711001  0.61139173  1
  Si  Si172  1  0.85340657  0.57708829  0.61166267  1
  Si  Si173  1  0.36230574  0.82547355  0.60920595  1
  Si  Si174  1  0.85749663  0.58319382  0.11449709  1
  Si  Si175  1  0.30346645  0.33564559  0.38482438  1
  Si  Si176  1  0.48009169  0.42163595  0.89099495  1
  Si  Si177  1  0.81258116  0.91636297  0.38473115  1
  Si  Si178  1  0.97141663  0.33028762  0.88649720  1
  Si  Si179  1  0.97273346  0.83468960  0.88142893  1
  Si  Si180  1  0.52047448  0.41663627  0.11945234  1
  Si  Si181  1  0.80696206  0.91724928  0.88278955  1
  Si  Si182  1  0.18935224  0.41958827  0.61735322  1
  Si  Si183  1  0.46980275  0.41639463  0.38784918  1
  Si  Si184  1  0.13586608  0.07998839  0.88512814  1
  Si  Si185  1  0.52804156  0.09250882  0.11596348  1
  Si  Si186  1  0.98301574  0.15959842  0.38583274  1
  Si  Si187  1  0.69577692  0.82060269  0.10974639  1
  Si  Si188  1  0.64382247  0.17247849  0.88822348  1
  Si  Si189  1  0.02329578  0.33154422  0.11393465  1
  Si  Si190  1  0.19618950  0.91661977  0.11249347  1
  Si  Si191  1  0.36267248  0.66745957  0.11054591  1
  O  O192  1  0.27275743  0.12065401  0.08529844  1
  O  O193  1  0.26082765  0.11699017  0.57674076  1
  O  O194  1  0.28299023  0.62139828  0.07306021  1
  O  O195  1  0.28430865  0.60341671  0.58934871  1
  O  O196  1  0.59650212  0.14074473  0.08352961  1
  O  O197  1  0.61842557  0.11361135  0.58706340  1
  O  O198  1  0.60759990  0.60650844  0.08936000  1
  O  O199  1  0.60697332  0.61580157  0.58645847  1
  O  O200  1  0.94683108  0.12113619  0.07402005  1
  O  O201  1  0.93723714  0.12635864  0.58511882  1
  O  O202  1  0.92830504  0.62850078  0.08208938  1
  O  O203  1  0.93222966  0.59776539  0.57731450  1
  O  O204  1  0.10171412  0.36677659  0.08329070  1
  O  O205  1  0.10506791  0.37061731  0.58918857  1
  O  O206  1  0.11569131  0.86498263  0.08292519  1
  O  O207  1  0.11111540  0.84405481  0.58137492  1
  O  O208  1  0.43550417  0.36919014  0.08638527  1
  O  O209  1  0.43748833  0.37735537  0.58668703  1
  O  O210  1  0.43404977  0.86850858  0.07792539  1
  O  O211  1  0.44769937  0.84281177  0.58055173  1
  O  O212  1  0.76739437  0.38076430  0.08493726  1
  O  O213  1  0.77352016  0.35995956  0.59069156  1
  O  O214  1  0.78149258  0.83446115  0.07991830  1
  O  O215  1  0.78417517  0.84584511  0.58085523  1
  O  O216  1  0.26809565  0.37064106  0.08327042  1
  O  O217  1  0.27343010  0.39292063  0.58934215  1
  O  O218  1  0.27400647  0.88071016  0.08260861  1
  O  O219  1  0.28663831  0.87637227  0.57257358  1
  O  O220  1  0.60400290  0.38580467  0.09092835  1
  O  O221  1  0.60663148  0.38415911  0.59004257  1
  O  O222  1  0.62153661  0.87342856  0.07442328  1
  O  O223  1  0.62549612  0.88255144  0.57746954  1
  O  O224  1  0.93474837  0.37509877  0.08413782  1
  O  O225  1  0.93949931  0.38531476  0.59102836  1
  O  O226  1  0.95440274  0.88500811  0.07248053  1
  O  O227  1  0.95807568  0.89879718  0.57375976  1
  O  O228  1  0.11126256  0.13231878  0.08388833  1
  O  O229  1  0.10072428  0.14019146  0.58251065  1
  O  O230  1  0.08888508  0.62923880  0.07175927  1
  O  O231  1  0.12169365  0.63593610  0.57712173  1
  O  O232  1  0.43568530  0.13142663  0.08626684  1
  O  O233  1  0.45715153  0.14548769  0.58127666  1
  O  O234  1  0.44664767  0.63491090  0.08403394  1
  O  O235  1  0.44273577  0.62958837  0.58661173  1
  O  O236  1  0.75863430  0.14372919  0.07158084  1
  O  O237  1  0.77926246  0.15186457  0.59022239  1
  O  O238  1  0.76627462  0.62038302  0.08576159  1
  O  O239  1  0.76920290  0.62623702  0.58362608  1
  O  O240  1  0.05891182  0.09931188  0.41063254  1
  O  O241  1  0.05477983  0.11654506  0.91371402  1
  O  O242  1  0.06234607  0.62206767  0.41229846  1
  O  O243  1  0.06371533  0.63200034  0.91253300  1
  O  O244  1  0.38540668  0.13032422  0.41864055  1
  O  O245  1  0.38096390  0.11545685  0.92352722  1
  O  O246  1  0.39523913  0.62309242  0.41478053  1
  O  O247  1  0.39686723  0.62315259  0.91539583  1
  O  O248  1  0.74185863  0.11094756  0.42420768  1
  O  O249  1  0.73071713  0.12470410  0.91388867  1
  O  O250  1  0.73059767  0.61579664  0.41373323  1
  O  O251  1  0.72893877  0.60981833  0.91540302  1
  O  O252  1  0.23089282  0.37957020  0.41519922  1
  O  O253  1  0.21911893  0.38331515  0.92671639  1
  O  O254  1  0.20668102  0.85233523  0.40584243  1
  O  O255  1  0.22042916  0.86770214  0.90924267  1
  O  O256  1  0.55285680  0.37323549  0.42370004  1
  O  O257  1  0.56857477  0.37628455  0.91757618  1
  O  O258  1  0.55633404  0.86589090  0.43181016  1
  O  O259  1  0.57214810  0.84670667  0.92203499  1
  O  O260  1  0.89694834  0.35592450  0.44087787  1
  O  O261  1  0.89033008  0.36475309  0.91494528  1
  O  O262  1  0.89448097  0.86222220  0.41013751  1
  O  O263  1  0.89740570  0.87662263  0.91122623  1
  O  O264  1  0.06981047  0.39236806  0.42326041  1
  O  O265  1  0.05302157  0.37950905  0.91625630  1
  O  O266  1  0.05257380  0.89128599  0.40781171  1
  O  O267  1  0.06065382  0.87560756  0.91302951  1
  O  O268  1  0.39120063  0.37644853  0.41685525  1
  O  O269  1  0.40698035  0.38987165  0.92662299  1
  O  O270  1  0.36595135  0.88686628  0.42214893  1
  O  O271  1  0.38693565  0.86729464  0.92663743  1
  O  O272  1  0.71197995  0.39704515  0.42660436  1
  O  O273  1  0.72854781  0.38823737  0.91549433  1
  O  O274  1  0.73918324  0.88960566  0.42273744  1
  O  O275  1  0.73472537  0.87509091  0.91455385  1
  O  O276  1  0.22009340  0.13074337  0.41131862  1
  O  O277  1  0.21676767  0.12740348  0.91873832  1
  O  O278  1  0.22839907  0.63315579  0.41168250  1
  O  O279  1  0.23048982  0.61775080  0.91373192  1
  O  O280  1  0.55018068  0.13936519  0.42492995  1
  O  O281  1  0.56886848  0.14756216  0.92446703  1
  O  O282  1  0.56367725  0.61842179  0.41494432  1
  O  O283  1  0.56410024  0.63495352  0.91741740  1
  O  O284  1  0.90090052  0.12848166  0.41422762  1
  O  O285  1  0.89248291  0.12824223  0.91296177  1
  O  O286  1  0.89641171  0.64651820  0.41391749  1
  O  O287  1  0.89663551  0.62876430  0.91481549  1
  O  O288  1  0.17998672  0.00003687  0.08511830  1
  O  O289  1  0.15653908  0.00748990  0.57402032  1
  O  O290  1  0.17733256  0.48829879  0.07368534  1
  O  O291  1  0.16962709  0.50017688  0.58656852  1
  O  O292  1  0.52317560  0.01422699  0.08168641  1
  O  O293  1  0.50467150  0.00886716  0.57914681  1
  O  O294  1  0.50296057  0.49824174  0.08508025  1
  O  O295  1  0.51290575  0.50086523  0.58731864  1
  O  O296  1  0.82352044  -0.00258094  0.06253695  1
  O  O297  1  0.82741806  0.01614583  0.57664762  1
  O  O298  1  0.85649204  0.50054369  0.08396353  1
  O  O299  1  0.82602429  0.49301844  0.58920288  1
  O  O300  1  0.01406496  0.24982485  0.08371637  1
  O  O301  1  0.00691639  0.25515877  0.58876953  1
  O  O302  1  0.01182175  0.75183585  0.08098260  1
  O  O303  1  -0.01832866  0.75582604  0.57335624  1
  O  O304  1  0.34643684  0.24855397  0.08686110  1
  O  O305  1  0.33477808  0.26486191  0.57743854  1
  O  O306  1  0.34604208  0.75058865  0.08288207  1
  O  O307  1  0.33590754  0.73981194  0.58514006  1
  O  O308  1  0.67770840  0.26104237  0.08407597  1
  O  O309  1  0.66413674  0.25184735  0.59090203  1
  O  O310  1  0.66658148  0.73696389  0.08463352  1
  O  O311  1  0.67328231  0.74456060  0.58791957  1
  O  O312  1  0.16783152  -0.00571975  0.40685739  1
  O  O313  1  0.14572142  -0.00239988  0.91463538  1
  O  O314  1  0.16139056  0.50652473  0.41221950  1
  O  O315  1  0.12968819  0.50391782  0.91515435  1
  O  O316  1  0.47691171  0.01340532  0.42183963  1
  O  O317  1  0.50447935  -0.00510260  0.93117399  1
  O  O318  1  0.47375985  0.50001400  0.41812174  1
  O  O319  1  0.49805196  0.50609634  0.91668832  1
  O  O320  1  0.84264396  -0.00205544  0.40980850  1
  O  O321  1  0.81669755  0.00078820  0.91086251  1
  O  O322  1  0.84506222  0.51423634  0.42865519  1
  O  O323  1  0.83247647  0.49903043  0.91487782  1
  O  O324  1  0.30324089  0.25307287  0.41296258  1
  O  O325  1  0.31198705  0.24289828  0.93026012  1
  O  O326  1  0.32001560  0.74949010  0.41287950  1
  O  O327  1  0.30320075  0.74438490  0.91481396  1
  O  O328  1  0.66193111  0.26261665  0.43646885  1
  O  O329  1  0.66881383  0.25678968  0.91404803  1
  O  O330  1  0.65615199  0.73649763  0.42752421  1
  O  O331  1  0.67723318  0.74263104  0.91236227  1
  O  O332  1  1.01483349  0.23375749  0.42255074  1
  O  O333  1  0.98436104  0.24744437  0.91418070  1
  O  O334  1  1.00303297  0.75394797  0.40964323  1
  O  O335  1  0.97651768  0.75205526  0.91225705  1
  O  O336  1  0.20922363  0.08361975  0.19396472  1
  O  O337  1  0.19797656  0.08551099  0.68970560  1
  O  O338  1  0.21082475  0.58295093  0.19844641  1
  O  O339  1  0.20963626  0.58051759  0.69485841  1
  O  O340  1  0.54649515  0.09354484  0.19521826  1
  O  O341  1  0.54694136  0.08719960  0.69287905  1
  O  O342  1  0.53447877  0.58071069  0.19605542  1
  O  O343  1  0.54430151  0.58143871  0.69665779  1
  O  O344  1  0.87809315  0.08329733  0.19856761  1
  O  O345  1  0.87545894  0.08753217  0.69329397  1
  O  O346  1  0.87991877  0.58409066  0.19429467  1
  O  O347  1  0.87361693  0.58057583  0.69313134  1
  O  O348  1  0.04370438  0.33362409  0.19393659  1
  O  O349  1  0.04252246  0.33539266  0.69837851  1
  O  O350  1  0.04462162  0.83340358  0.18931237  1
  O  O351  1  0.02896478  0.83183793  0.68596115  1
  O  O352  1  0.36737323  0.33315063  0.19534834  1
  O  O353  1  0.37787618  0.33938378  0.69550228  1
  O  O354  1  0.37387386  0.83193710  0.19183099  1
  O  O355  1  0.37688210  0.82723095  0.69042127  1
  O  O356  1  0.71836329  0.33407690  0.19740408  1
  O  O357  1  0.70833864  0.33468317  0.69849516  1
  O  O358  1  0.71241680  0.82656446  0.19090735  1
  O  O359  1  0.71452350  0.83398149  0.69230639  1
  O  O360  1  0.20726510  0.41551064  0.19184740  1
  O  O361  1  0.20659393  0.41834357  0.69783025  1
  O  O362  1  0.21061612  0.91608626  0.19290092  1
  O  O363  1  0.21813811  0.92315694  0.69607179  1
  O  O364  1  0.53280858  0.41933955  0.19740780  1
  O  O365  1  0.54279487  0.41854273  0.69779549  1
  O  O366  1  0.55165664  0.91054845  0.19965951  1
  O  O367  1  0.54860978  0.91571547  0.70027106  1
  O  O368  1  0.88051548  0.41890186  0.19428220  1
  O  O369  1  0.87464045  0.41448099  0.69797904  1
  O  O370  1  0.87753503  0.91621131  0.19756685  1
  O  O371  1  0.87761781  0.91943940  0.69884315  1
  O  O372  1  0.04432652  0.16607716  0.19151283  1
  O  O373  1  0.04067769  0.16929395  0.69554592  1
  O  O374  1  0.04228248  0.66640591  0.18932341  1
  O  O375  1  0.04260870  0.66372433  0.69697036  1
  O  O376  1  0.37231338  0.16695824  0.19663279  1
  O  O377  1  0.37662319  0.17322445  0.70354813  1
  O  O378  1  0.37554435  0.66562960  0.19139167  1
  O  O379  1  0.38090578  0.66145471  0.69675024  1
  O  O380  1  0.71482706  0.16551271  0.19102051  1
  O  O381  1  0.70947981  0.16994210  0.69794934  1
  O  O382  1  0.71214807  0.66511757  0.19722133  1
  O  O383  1  0.71274198  0.65913993  0.69519520  1
  O  O384  1  0.12418925  0.08116414  0.30043109  1
  O  O385  1  0.11929419  0.08388023  0.80485956  1
  O  O386  1  0.12281137  0.58648385  0.30243912  1
  O  O387  1  0.12103790  0.58147773  0.80437555  1
  O  O388  1  0.44943015  0.09533415  0.31063557  1
  O  O389  1  0.46414183  0.08106208  0.80081974  1
  O  O390  1  0.45130111  0.58342066  0.30556342  1
  O  O391  1  0.45893836  0.58500693  0.80737757  1
  O  O392  1  0.79383563  0.08376761  0.30554286  1
  O  O393  1  0.78915803  0.08524885  0.80321127  1
  O  O394  1  0.80343301  0.58436044  0.30922478  1
  O  O395  1  0.79210933  0.58116396  0.80572266  1
  O  O396  1  0.28627380  0.33551940  0.30460024  1
  O  O397  1  0.28857924  0.33538899  0.80246599  1
  O  O398  1  0.28568102  0.83106511  0.30289405  1
  O  O399  1  0.29864650  0.82860028  0.80684591  1
  O  O400  1  0.61979153  0.32958114  0.31863955  1
  O  O401  1  0.62446691  0.33754513  0.80677757  1
  O  O402  1  0.62657674  0.82961403  0.30136440  1
  O  O403  1  0.62814907  0.83104570  0.80604470  1
  O  O404  1  0.96023760  0.33160444  0.30091920  1
  O  O405  1  0.95415193  0.33263008  0.80605396  1
  O  O406  1  0.95977860  0.83178719  0.30002735  1
  O  O407  1  0.95703527  0.83189795  0.80177180  1
  O  O408  1  0.12439682  0.41886440  0.30517104  1
  O  O409  1  0.11984208  0.41705254  0.80886081  1
  O  O410  1  0.12074430  0.91542572  0.29815310  1
  O  O411  1  0.11443454  0.92268031  0.80249381  1
  O  O412  1  0.45065857  0.42047474  0.30877717  1
  O  O413  1  0.45981869  0.41948828  0.80980418  1
  O  O414  1  0.44798609  0.90648392  0.30204240  1
  O  O415  1  0.45524627  0.91241971  0.79917993  1
  O  O416  1  0.80849837  0.41762665  0.30864721  1
  O  O417  1  0.79102490  0.41706266  0.80583719  1
  O  O418  1  0.79256558  0.91401370  0.30389370  1
  O  O419  1  0.78938084  0.91715484  0.80298198  1
  O  O420  1  0.28415469  0.16838948  0.30405103  1
  O  O421  1  0.28125026  0.17228844  0.81308709  1
  O  O422  1  0.29104823  0.66729940  0.30298991  1
  O  O423  1  0.28955841  0.66226088  0.80540395  1
  O  O424  1  0.62526432  0.16686436  0.30339993  1
  O  O425  1  0.62513799  0.17014719  0.80726469  1
  O  O426  1  0.62165343  0.66857324  0.30765826  1
  O  O427  1  0.62345849  0.65775467  0.80692863  1
  O  O428  1  0.96440233  0.16429236  0.30515351  1
  O  O429  1  0.95432356  0.16765078  0.80415422  1
  O  O430  1  0.96118956  0.66817826  0.30252598  1
  O  O431  1  0.95241984  0.66425774  0.80336747  1
  F  F432  1  0.04675835  0.00025245  0.19685726  1
  F  F433  1  0.04269604  0.00314796  0.69987796  1
  F  F434  1  0.04596586  0.49953758  0.20027883  1
  F  F435  1  0.04366692  0.49717400  0.70356063  1
  F  F436  1  0.36468902  0.00247795  0.19812444  1
  F  F437  1  0.38118004  -0.00324754  0.69754452  1
  F  F438  1  0.37569526  0.49965641  0.20173012  1
  F  F439  1  0.38013275  0.49949638  0.70637125  1
  F  F440  1  0.71343334  -0.00016727  0.20154293  1
  F  F441  1  0.71216924  0.00263007  0.70221807  1
  F  F442  1  0.72023427  0.50789630  0.19887905  1
  F  F443  1  0.71083159  0.49817491  0.70355940  1
  F  F444  1  0.21084142  0.25089954  0.20100623  1
  F  F445  1  0.20799755  0.25094028  0.70446477  1
  F  F446  1  0.21247406  0.74944559  0.19813134  1
  F  F447  1  0.22012655  0.73550897  0.69820324  1
  F  F448  1  0.53642875  0.25327294  0.20192915  1
  F  F449  1  0.54585654  0.25468109  0.70590109  1
  F  F450  1  0.54387552  0.74538419  0.20149717  1
  F  F451  1  0.54531108  0.74618655  0.70292444  1
  F  F452  1  0.88105549  0.24845916  0.19967008  1
  F  F453  1  0.87759099  0.25196321  0.70334569  1
  F  F454  1  0.87965293  0.74629126  0.20007965  1
  F  F455  1  0.87776032  0.74631721  0.69994920  1
  F  F456  1  0.28444174  -0.00008928  0.29715198  1
  F  F457  1  0.28668226  -0.00000164  0.79930380  1
  F  F458  1  0.28677537  0.49863644  0.29767291  1
  F  F459  1  0.28752752  0.50079474  0.79980484  1
  F  F460  1  0.63947889  0.00189226  0.30337970  1
  F  F461  1  0.62665704  0.00081902  0.79892997  1
  F  F462  1  0.61232996  0.51122282  0.30930870  1
  F  F463  1  0.62351146  0.49963548  0.80016153  1
  F  F464  1  0.96085870  -0.00148972  0.29641346  1
  F  F465  1  0.95268897  0.00502572  0.79776273  1
  F  F466  1  0.96082942  0.50342311  0.29680197  1
  F  F467  1  0.95300157  0.50001060  0.79811988  1
  F  F468  1  0.12220170  0.24970300  0.29520178  1
  F  F469  1  0.11706723  0.25103458  0.80007268  1
  F  F470  1  0.12074579  0.74886644  0.29145855  1
  F  F471  1  0.11543102  0.74092295  0.80007817  1
  F  F472  1  0.44682961  0.24928387  0.30357090  1
  F  F473  1  0.45637510  0.25573262  0.80303562  1
  F  F474  1  0.45275775  0.74579496  0.29606262  1
  F  F475  1  0.45520196  0.74669143  0.79816709  1
  F  F476  1  0.80299708  0.24686773  0.30362138  1
  F  F477  1  0.78879403  0.25140835  0.79986697  1
  F  F478  1  0.79202177  0.74960915  0.29687712  1
  F  F479  1  0.79548669  0.74969698  0.79810457  1
