# generated using pymatgen
data_K24Na3Li5Mg64Fe17Si79(O5F)48
_symmetry_space_group_name_H-M   'P 1'
_cell_length_a   16.10305464
_cell_length_b   18.60712218
_cell_length_c   20.55851519
_cell_angle_alpha   90.00624138
_cell_angle_beta   100.01513348
_cell_angle_gamma   89.99452918
_symmetry_Int_Tables_number   1
_chemical_formula_structural   K24Na3Li5Mg64Fe17Si79(O5F)48
_chemical_formula_sum   'K24 Na3 Li5 Mg64 Fe17 Si79 O240 F48'
_cell_volume   6066.11213665
_cell_formula_units_Z   1
loop_
 _symmetry_equiv_pos_site_id
 _symmetry_equiv_pos_as_xyz
  1  'x, y, z'
loop_
 _atom_site_type_symbol
 _atom_site_label
 _atom_site_symmetry_multiplicity
 _atom_site_fract_x
 _atom_site_fract_y
 _atom_site_fract_z
 _atom_site_occupancy
  K  K0  1  0.00451826  -0.00007639  0.00007006  1
  K  K1  1  0.00458560  -0.00829696  0.49841478  1
  K  K2  1  0.01070244  0.49973104  0.01017208  1
  K  K3  1  0.00013643  0.49999698  0.48741393  1
  K  K4  1  0.32390932  0.00144674  -0.00240853  1
  K  K5  1  0.32847427  -0.01186095  0.50645314  1
  K  K6  1  0.33647260  0.49581529  -0.00230717  1
  K  K7  1  0.32305292  0.50184410  0.49756489  1
  K  K8  1  0.67045682  0.00795628  -0.00356376  1
  K  K9  1  0.66724974  -0.00799461  0.50941125  1
  K  K10  1  0.66541349  0.49561621  0.00132141  1
  K  K11  1  0.66873685  0.50181257  0.49828902  1
  K  K12  1  0.16806679  0.25292608  0.00498873  1
  K  K13  1  0.15958407  0.24868709  0.48654636  1
  K  K14  1  0.17035774  0.76040860  0.00492391  1
  K  K15  1  0.16898895  0.75640837  0.49860561  1
  K  K16  1  0.49915149  0.24210214  -0.00247896  1
  K  K17  1  0.49512139  0.24693336  0.50182218  1
  K  K18  1  0.49065338  0.74957187  -0.00265134  1
  K  K19  1  0.49592901  0.75724265  0.50335776  1
  K  K20  1  0.82633020  0.24977566  0.00774326  1
  K  K21  1  0.84153380  0.25272491  0.49526712  1
  K  K22  1  0.83267768  0.75681911  -0.00143022  1
  K  K23  1  0.83278293  0.75476737  0.50222191  1
  Na  Na24  1  0.83404317  0.50055202  0.24872874  1
  Na  Na25  1  0.33607122  0.41601074  0.75585283  1
  Na  Na26  1  0.82995105  0.83368707  0.75030144  1
  Li  Li27  1  -0.00709497  0.24864267  0.23765138  1
  Li  Li28  1  0.49278490  -0.00079619  0.75616827  1
  Li  Li29  1  0.15527818  0.32588646  0.24968549  1
  Li  Li30  1  0.34024463  0.07549868  0.75288709  1
  Li  Li31  1  0.83807665  0.16903090  0.24168704  1
  Mg  Mg32  1  -0.00062910  0.75068080  0.74673653  1
  Mg  Mg33  1  0.16864417  0.49865141  0.74947883  1
  Mg  Mg34  1  0.16431489  0.49559810  0.24833004  1
  Mg  Mg35  1  0.33504106  0.24494201  0.75485851  1
  Mg  Mg36  1  0.33175168  0.24974453  0.24889291  1
  Mg  Mg37  1  0.33411215  0.75082910  0.25125042  1
  Mg  Mg38  1  0.16602271  0.00264655  0.25019757  1
  Mg  Mg39  1  0.83000017  -0.00142219  0.74797362  1
  Mg  Mg40  1  0.33443844  0.75298346  0.75187877  1
  Mg  Mg41  1  0.00098335  0.74819533  0.25264455  1
  Mg  Mg42  1  0.66537410  0.75257004  0.75305867  1
  Mg  Mg43  1  0.50118364  0.50031884  0.25472661  1
  Mg  Mg44  1  -0.00137094  0.25054813  0.74319902  1
  Mg  Mg45  1  0.66601214  0.24928827  0.74902444  1
  Mg  Mg46  1  0.50019488  0.49787525  0.75306525  1
  Mg  Mg47  1  0.67306302  0.25003794  0.24944495  1
  Mg  Mg48  1  0.50158668  0.00108501  0.24887010  1
  Mg  Mg49  1  0.83523313  0.00521575  0.24930391  1
  Mg  Mg50  1  0.66652772  0.74982889  0.25618496  1
  Mg  Mg51  1  0.83387799  0.49956950  0.74365056  1
  Mg  Mg52  1  0.16828226  0.00018487  0.75017507  1
  Mg  Mg53  1  0.67179974  0.08673628  0.24930343  1
  Mg  Mg54  1  0.16269962  0.17061338  0.24882365  1
  Mg  Mg55  1  0.83423489  0.66556978  0.25462219  1
  Mg  Mg56  1  0.83265060  0.33612915  0.74216461  1
  Mg  Mg57  1  0.83458952  0.83537390  0.25482030  1
  Mg  Mg58  1  0.50004107  0.33253932  0.75306415  1
  Mg  Mg59  1  0.83606721  0.33035957  0.24670755  1
  Mg  Mg60  1  0.16505044  0.66431064  0.24962471  1
  Mg  Mg61  1  0.00194538  0.91729223  0.25289158  1
  Mg  Mg62  1  0.33139077  0.08510153  0.24842295  1
  Mg  Mg63  1  0.66742147  0.91758441  0.25249570  1
  Mg  Mg64  1  0.33734557  0.91824141  0.75402747  1
  Mg  Mg65  1  -0.00161913  0.08902073  0.24698567  1
  Mg  Mg66  1  0.16574793  0.83541574  0.24982376  1
  Mg  Mg67  1  0.16736279  0.83529582  0.74857152  1
  Mg  Mg68  1  -0.00312083  0.91541514  0.74933455  1
  Mg  Mg69  1  0.66760726  0.58429293  0.75066154  1
  Mg  Mg70  1  0.66634472  0.41528517  0.74837136  1
  Mg  Mg71  1  0.66887969  0.41666898  0.25022510  1
  Mg  Mg72  1  0.66166652  0.91631810  0.75000727  1
  Mg  Mg73  1  -0.00231991  0.08328935  0.74502218  1
  Mg  Mg74  1  0.50259905  0.16629976  0.24840350  1
  Mg  Mg75  1  0.49910796  0.83485941  0.25172233  1
  Mg  Mg76  1  0.83271046  0.66689700  0.74703961  1
  Mg  Mg77  1  0.16984313  0.16437320  0.75114595  1
  Mg  Mg78  1  0.50099668  0.33359975  0.25143390  1
  Mg  Mg79  1  0.16891594  0.33227051  0.74925824  1
  Mg  Mg80  1  0.33194407  0.58289752  0.25156317  1
  Mg  Mg81  1  0.00159474  0.58295268  0.24969342  1
  Mg  Mg82  1  0.49820342  0.16224787  0.75128306  1
  Mg  Mg83  1  -0.00142642  0.41629851  0.74286571  1
  Mg  Mg84  1  0.50031668  0.83839415  0.75476186  1
  Mg  Mg85  1  0.50037951  0.66550509  0.75299052  1
  Mg  Mg86  1  0.16966903  0.66593367  0.74990157  1
  Mg  Mg87  1  0.33162995  0.91620014  0.24870642  1
  Mg  Mg88  1  0.50093013  0.66657602  0.25467483  1
  Mg  Mg89  1  0.33588964  0.58294337  0.75281656  1
  Mg  Mg90  1  0.32955807  0.41376561  0.24936534  1
  Mg  Mg91  1  0.83161641  0.16627373  0.74514383  1
  Mg  Mg92  1  -0.00027561  0.58446091  0.74571830  1
  Mg  Mg93  1  0.66341021  0.08176345  0.75059866  1
  Mg  Mg94  1  0.66698244  0.58505713  0.25571045  1
  Mg  Mg95  1  0.00079956  0.41329980  0.24861284  1
  Fe  Fe96  1  0.02465790  0.66381242  0.10887562  1
  Fe  Fe97  1  0.14397716  0.91554840  0.39215335  1
  Fe  Fe98  1  0.14083614  0.58367130  0.39035344  1
  Fe  Fe99  1  0.01975168  0.16784916  0.10559235  1
  Fe  Fe100  1  0.85749705  0.42036584  0.60247179  1
  Fe  Fe101  1  0.35875144  0.83267778  0.61193120  1
  Fe  Fe102  1  0.64037189  0.66833432  0.39580053  1
  Fe  Fe103  1  0.64066324  0.83178662  0.89505683  1
  Fe  Fe104  1  0.47820378  0.40984305  0.89419336  1
  Fe  Fe105  1  0.80728404  0.92139053  0.89152834  1
  Fe  Fe106  1  0.30454411  0.83700199  0.89047944  1
  Fe  Fe107  1  0.35914585  0.83231610  0.11168859  1
  Fe  Fe108  1  0.47827020  0.08489670  0.89088364  1
  Fe  Fe109  1  0.85536159  0.91630496  0.60670427  1
  Fe  Fe110  1  0.01635274  0.33821401  0.10729149  1
  Fe  Fe111  1  0.19182707  0.08872327  0.11037885  1
  Fe  Fe112  1  0.69693751  0.16749980  0.11055982  1
  Si  Si113  1  0.14181629  0.58099958  0.88303653  1
  Si  Si114  1  0.30034329  0.16420402  0.88979917  1
  Si  Si115  1  0.85263482  0.42263563  0.11207955  1
  Si  Si116  1  0.97386268  0.33230743  0.38309952  1
  Si  Si117  1  0.85768199  0.91445664  0.11863292  1
  Si  Si118  1  0.30951126  0.66747623  0.38688575  1
  Si  Si119  1  0.85556747  0.08838235  0.60811043  1
  Si  Si120  1  0.52662266  0.42080437  0.11785999  1
  Si  Si121  1  0.68610078  0.66751585  0.61474442  1
  Si  Si122  1  0.52998726  0.08032372  0.11478193  1
  Si  Si123  1  0.68308095  0.83077612  0.61162660  1
  Si  Si124  1  0.13208735  0.08314964  0.88275663  1
  Si  Si125  1  0.81059980  0.08629067  0.38585847  1
  Si  Si126  1  0.19107258  0.08570687  0.61519241  1
  Si  Si127  1  0.31519939  0.83125732  0.38734616  1
  Si  Si128  1  0.53035757  0.91575688  0.11594350  1
  Si  Si129  1  0.35879629  0.16614946  0.61484519  1
  Si  Si130  1  0.97309318  0.82793919  0.88433061  1
  Si  Si131  1  0.19568405  0.41430875  0.11225681  1
  Si  Si132  1  0.03033949  0.33330506  0.60792670  1
  Si  Si133  1  0.18972933  0.92081396  0.61297089  1
  Si  Si134  1  0.47460618  0.91634583  0.89416653  1
  Si  Si135  1  0.02571723  0.16758721  0.61087948  1
  Si  Si136  1  0.68813856  0.16809966  0.61194892  1
  Si  Si137  1  0.02823708  0.83165126  0.61076438  1
  Si  Si138  1  0.69427802  0.83390511  0.12007829  1
  Si  Si139  1  0.47586214  0.92159642  0.38608256  1
  Si  Si140  1  0.13666681  0.41638409  0.88227619  1
  Si  Si141  1  0.68876445  0.33739480  0.11172265  1
  Si  Si142  1  0.52834116  0.58514768  0.11936680  1
  Si  Si143  1  0.64732706  0.66140678  0.88821518  1
  Si  Si144  1  0.86118102  0.07572631  0.11037215  1
  Si  Si145  1  0.80848054  0.41210711  0.38401225  1
  Si  Si146  1  0.85370709  0.58752599  0.11417640  1
  Si  Si147  1  0.13089860  0.91694489  0.88572070  1
  Si  Si148  1  0.64278670  0.84038178  0.39026385  1
  Si  Si149  1  0.81314619  0.08855790  0.88317055  1
  Si  Si150  1  0.35827627  0.66147229  0.61434585  1
  Si  Si151  1  0.14267261  0.08733036  0.38878383  1
  Si  Si152  1  0.36400075  0.33406859  0.11539008  1
  Si  Si153  1  0.65049572  0.33191351  0.88603518  1
  Si  Si154  1  0.31031334  0.33163248  0.38513746  1
  Si  Si155  1  0.64843912  0.16976516  0.88503017  1
  Si  Si156  1  0.14284153  0.41303053  0.38651475  1
  Si  Si157  1  0.52464355  0.91907092  0.61233019  1
  Si  Si158  1  0.19291446  0.57759806  0.61495875  1
  Si  Si159  1  0.97735616  0.66424116  0.88286544  1
  Si  Si160  1  0.47517216  0.41394765  0.38766243  1
  Si  Si161  1  0.81115949  0.41662146  0.88105870  1
  Si  Si162  1  0.68712005  0.33256596  0.60888593  1
  Si  Si163  1  0.81229068  0.58004905  0.88193613  1
  Si  Si164  1  0.02123833  0.83362766  0.11497828  1
  Si  Si165  1  0.18679218  0.91802460  0.11213743  1
  Si  Si166  1  0.96817397  0.66639447  0.39108959  1
  Si  Si167  1  0.36759903  0.16742495  0.11350253  1
  Si  Si168  1  0.31051432  0.16807598  0.38595120  1
  Si  Si169  1  0.85616836  0.59221851  0.60938972  1
  Si  Si170  1  0.97390452  0.33443004  0.87915974  1
  Si  Si171  1  0.29912185  0.32760738  0.88965205  1
  Si  Si172  1  0.80478846  0.57973163  0.39019525  1
  Si  Si173  1  0.47036999  0.58014226  0.39044396  1
  Si  Si174  1  0.03033357  0.66591358  0.61321672  1
  Si  Si175  1  0.64314850  0.16723322  0.38643939  1
  Si  Si176  1  0.52544488  0.57911509  0.61650531  1
  Si  Si177  1  0.30954492  0.66430710  0.88740542  1
  Si  Si178  1  0.19563355  0.41252037  0.61504097  1
  Si  Si179  1  0.47595150  0.08628282  0.38598356  1
  Si  Si180  1  0.97419163  0.16767277  0.38239687  1
  Si  Si181  1  0.69134497  0.67013549  0.11849231  1
  Si  Si182  1  0.64253069  0.33280641  0.38633148  1
  Si  Si183  1  0.52558296  0.08532451  0.61387453  1
  Si  Si184  1  0.52368244  0.41437919  0.61421589  1
  Si  Si185  1  0.96844391  0.83266352  0.39021666  1
  Si  Si186  1  0.97192251  0.17222251  0.87907436  1
  Si  Si187  1  0.47864332  0.58179072  0.88992522  1
  Si  Si188  1  0.36116197  0.66239001  0.11613690  1
  Si  Si189  1  0.80671107  0.92326950  0.38679205  1
  Si  Si190  1  0.36123480  0.32847372  0.61608630  1
  Si  Si191  1  0.19944873  0.57915775  0.11236437  1
  O  O192  1  0.29097618  0.11848107  0.07860872  1
  O  O193  1  0.27065064  0.12235512  0.58561397  1
  O  O194  1  0.28906479  0.60208329  0.08862408  1
  O  O195  1  0.27329036  0.61157353  0.58654697  1
  O  O196  1  0.60853916  0.10205563  0.08056206  1
  O  O197  1  0.60340541  0.12160353  0.58043191  1
  O  O198  1  0.60942272  0.61832482  0.09049227  1
  O  O199  1  0.60627510  0.61289515  0.58703874  1
  O  O200  1  0.94551285  0.08946332  0.07937671  1
  O  O201  1  0.93603313  0.12794830  0.58077103  1
  O  O202  1  0.92906970  0.60695399  0.07394344  1
  O  O203  1  0.93654448  0.63280799  0.58368680  1
  O  O204  1  0.11574573  0.36981513  0.07498374  1
  O  O205  1  0.11549028  0.36263414  0.58127297  1
  O  O206  1  0.10538665  0.86315569  0.08835332  1
  O  O207  1  0.10240080  0.87703593  0.58310447  1
  O  O208  1  0.44311493  0.37296077  0.08754710  1
  O  O209  1  0.43823022  0.36795788  0.58510133  1
  O  O210  1  0.45962340  0.85940012  0.08292576  1
  O  O211  1  0.44175878  0.87850010  0.57282533  1
  O  O212  1  0.76731282  0.37423819  0.08217029  1
  O  O213  1  0.76073454  0.36343218  0.57249808  1
  O  O214  1  0.78122028  0.85598823  0.09364692  1
  O  O215  1  0.76081676  0.85679348  0.57695385  1
  O  O216  1  0.28031426  0.38071772  0.08495262  1
  O  O217  1  0.27758224  0.37818245  0.58803111  1
  O  O218  1  0.26531186  0.88872551  0.07911276  1
  O  O219  1  0.26205102  0.88640937  0.57767463  1
  O  O220  1  0.60691823  0.39199746  0.08702290  1
  O  O221  1  0.59950394  0.37807367  0.58130696  1
  O  O222  1  0.62034819  0.89220446  0.09229395  1
  O  O223  1  0.60332130  0.88345714  0.58026418  1
  O  O224  1  0.92721197  0.40478552  0.07114134  1
  O  O225  1  0.95162272  0.38048601  0.57176756  1
  O  O226  1  0.94160535  0.88937949  0.08939774  1
  O  O227  1  0.94035582  0.86455238  0.57312942  1
  O  O228  1  0.11251252  0.14952078  0.06588800  1
  O  O229  1  0.10464935  0.13068246  0.58196580  1
  O  O230  1  0.12225991  0.62949327  0.07719675  1
  O  O231  1  0.10352685  0.61844021  0.58526566  1
  O  O232  1  0.45342660  0.13773575  0.08868646  1
  O  O233  1  0.43672688  0.12867980  0.58315528  1
  O  O234  1  0.44712798  0.63479520  0.08894299  1
  O  O235  1  0.43815191  0.62165016  0.58672794  1
  O  O236  1  0.78759749  0.13019176  0.07538272  1
  O  O237  1  0.77078531  0.13950289  0.58213852  1
  O  O238  1  0.77121520  0.64115468  0.08650502  1
  O  O239  1  0.77080685  0.64218230  0.58575282  1
  O  O240  1  0.06496937  0.13003570  0.41688147  1
  O  O241  1  0.04990890  0.11867156  0.90856026  1
  O  O242  1  0.05402158  0.62815718  0.42692104  1
  O  O243  1  0.06015429  0.61373703  0.91166290  1
  O  O244  1  0.39953780  0.12522163  0.41693162  1
  O  O245  1  0.38240087  0.12060608  0.92507448  1
  O  O246  1  0.38397868  0.60813225  0.41498078  1
  O  O247  1  0.39522508  0.61671499  0.91542225  1
  O  O248  1  0.73195117  0.12552351  0.41615789  1
  O  O249  1  0.72852415  0.11573111  0.91106519  1
  O  O250  1  0.73134556  0.60755912  0.42903910  1
  O  O251  1  0.72792131  0.60411655  0.91107596  1
  O  O252  1  0.23065801  0.36569766  0.41485886  1
  O  O253  1  0.21543246  0.36556245  0.91438553  1
  O  O254  1  0.24080772  0.85902149  0.42445666  1
  O  O255  1  0.20917498  0.87041299  0.92259107  1
  O  O256  1  0.56380973  0.37038223  0.41662063  1
  O  O257  1  0.57534562  0.35339569  0.92499149  1
  O  O258  1  0.56370224  0.88050881  0.41757651  1
  O  O259  1  0.53919466  0.85130266  0.92398458  1
  O  O260  1  0.89650315  0.36984027  0.41595148  1
  O  O261  1  0.89112442  0.36331960  0.90773241  1
  O  O262  1  0.88834803  0.87360634  0.41620335  1
  O  O263  1  0.89081436  0.84834368  0.91463587  1
  O  O264  1  0.06445563  0.37102752  0.41514360  1
  O  O265  1  0.05206125  0.38815866  0.90911106  1
  O  O266  1  0.05382089  0.87161958  0.42608075  1
  O  O267  1  0.04862398  0.88497709  0.91441334  1
  O  O268  1  0.39819807  0.37562681  0.41853434  1
  O  O269  1  0.38048700  0.37382897  0.92344489  1
  O  O270  1  0.39924787  0.88190568  0.41456546  1
  O  O271  1  0.38771286  0.90266360  0.92440616  1
  O  O272  1  0.73024690  0.37543492  0.41691797  1
  O  O273  1  0.73020585  0.38813459  0.91176269  1
  O  O274  1  0.72443383  0.89342746  0.41571952  1
  O  O275  1  0.72251156  0.89432625  0.93664622  1
  O  O276  1  0.23131177  0.13393217  0.41598603  1
  O  O277  1  0.21568553  0.12881125  0.91447525  1
  O  O278  1  0.23132642  0.64696605  0.42273419  1
  O  O279  1  0.22874651  0.62346486  0.91338275  1
  O  O280  1  0.56470444  0.12895100  0.41632606  1
  O  O281  1  0.57024755  0.15031076  0.92081133  1
  O  O282  1  0.54743092  0.62808642  0.42793979  1
  O  O283  1  0.56391929  0.63038193  0.91671087  1
  O  O284  1  0.89738355  0.13022105  0.41635506  1
  O  O285  1  0.88619780  0.15143857  0.90653940  1
  O  O286  1  0.89164318  0.62419801  0.41962414  1
  O  O287  1  0.89472646  0.63083635  0.91054145  1
  O  O288  1  0.15841664  -0.00446739  0.08063405  1
  O  O289  1  0.17557886  0.00445693  0.58469956  1
  O  O290  1  0.18474196  0.49725637  0.08199614  1
  O  O291  1  0.18286677  0.49495508  0.58558708  1
  O  O292  1  0.50181590  -0.00244068  0.09071647  1
  O  O293  1  0.51746784  0.00360644  0.58419240  1
  O  O294  1  0.50921834  0.50347156  0.08989538  1
  O  O295  1  0.51185834  0.49700528  0.58580729  1
  O  O296  1  0.82672430  -0.00774512  0.08781232  1
  O  O297  1  0.83908361  0.01180514  0.57166365  1
  O  O298  1  0.81825801  0.50606544  0.09340237  1
  O  O299  1  0.83952735  0.51581448  0.57190131  1
  O  O300  1  -0.02057222  0.25314966  0.06569361  1
  O  O301  1  0.01730117  0.24965317  0.58087198  1
  O  O302  1  -0.00399494  0.75774726  0.07832913  1
  O  O303  1  0.03581320  0.74735730  0.58463727  1
  O  O304  1  0.35642308  0.25197347  0.08635526  1
  O  O305  1  0.34798757  0.24815555  0.58100131  1
  O  O306  1  0.33275905  0.73790238  0.08146007  1
  O  O307  1  0.34370129  0.73771372  0.57735268  1
  O  O308  1  0.66654876  0.26087789  0.07615768  1
  O  O309  1  0.66605654  0.24950308  0.58260265  1
  O  O310  1  0.66782488  0.75256639  0.09143592  1
  O  O311  1  0.65784331  0.74690320  0.58483806  1
  O  O312  1  0.15582185  0.01039072  0.42652740  1
  O  O313  1  0.14079575  0.00137766  0.91201093  1
  O  O314  1  0.15728518  0.48925335  0.42605003  1
  O  O315  1  0.15436203  0.49822880  0.91131103  1
  O  O316  1  0.48512507  0.00416818  0.41593342  1
  O  O317  1  0.51324097  -0.00638428  0.92342364  1
  O  O318  1  0.48528160  0.49581679  0.41747919  1
  O  O319  1  0.49554776  0.50510491  0.92695267  1
  O  O320  1  0.82338779  0.00454451  0.41766349  1
  O  O321  1  0.84787533  0.01517298  0.91905145  1
  O  O322  1  0.82227048  0.49446106  0.41271910  1
  O  O323  1  0.83606913  0.49791977  0.90959553  1
  O  O324  1  0.32503998  0.24993252  0.41700974  1
  O  O325  1  0.30467301  0.24656186  0.92203211  1
  O  O326  1  0.34474729  0.74859651  0.41111076  1
  O  O327  1  0.32287401  0.74132120  0.92278769  1
  O  O328  1  0.65089472  0.25004550  0.41624979  1
  O  O329  1  0.68547660  0.25103036  0.90810338  1
  O  O330  1  0.66061185  0.76387880  0.42661854  1
  O  O331  1  0.67509903  0.73612326  0.92411042  1
  O  O332  1  0.98076585  0.25009291  0.41387363  1
  O  O333  1  0.99903712  0.25356895  0.90646000  1
  O  O334  1  0.96483212  0.74996529  0.41814442  1
  O  O335  1  1.00015699  0.74471816  0.91222060  1
  O  O336  1  0.21261787  0.08518507  0.20291600  1
  O  O337  1  0.20372599  0.08536693  0.69438266  1
  O  O338  1  0.21344151  0.58155221  0.19332229  1
  O  O339  1  0.21027112  0.58094987  0.69522612  1
  O  O340  1  0.54623612  0.08286679  0.19638457  1
  O  O341  1  0.54712853  0.09211753  0.69230585  1
  O  O342  1  0.54248061  0.58363878  0.19962828  1
  O  O343  1  0.54463973  0.58074073  0.69684937  1
  O  O344  1  0.87774133  0.07793375  0.19117235  1
  O  O345  1  0.87531325  0.08772883  0.68894671  1
  O  O346  1  0.87973737  0.59544644  0.19375386  1
  O  O347  1  0.87625124  0.58433870  0.69028315  1
  O  O348  1  0.04239961  0.33484188  0.19647701  1
  O  O349  1  0.04382625  0.33374732  0.68898510  1
  O  O350  1  0.03944132  0.83186592  0.19614991  1
  O  O351  1  0.04350389  0.83218671  0.69170672  1
  O  O352  1  0.38048588  0.33389361  0.19593679  1
  O  O353  1  0.38084165  0.32408730  0.69495760  1
  O  O354  1  0.37947586  0.83339971  0.20376401  1
  O  O355  1  0.38110500  0.83216843  0.70276216  1
  O  O356  1  0.70620704  0.33574416  0.19265082  1
  O  O357  1  0.70776009  0.33468647  0.68985863  1
  O  O358  1  0.71047805  0.83311502  0.20091012  1
  O  O359  1  0.69747568  0.83049640  0.69103705  1
  O  O360  1  0.21445176  0.41842320  0.19228764  1
  O  O361  1  0.20316255  0.41481225  0.69411214  1
  O  O362  1  0.21000931  0.91684551  0.19391407  1
  O  O363  1  0.20552140  0.91859958  0.69324717  1
  O  O364  1  0.54241235  0.41783137  0.19836968  1
  O  O365  1  0.54489578  0.41464410  0.69411763  1
  O  O366  1  0.54604639  0.91611744  0.19755446  1
  O  O367  1  0.54149650  0.91471613  0.69176920  1
  O  O368  1  0.87847864  0.41077531  0.19084783  1
  O  O369  1  0.87783233  0.41803016  0.69446206  1
  O  O370  1  0.87671645  0.91536235  0.19946388  1
  O  O371  1  0.88266653  0.92517535  0.69601010  1
  O  O372  1  0.04613848  0.16562224  0.19706347  1
  O  O373  1  0.04258305  0.16725719  0.69123785  1
  O  O374  1  0.04430712  0.66805433  0.20050305  1
  O  O375  1  0.04679724  0.66444971  0.69367346  1
  O  O376  1  0.38153816  0.16761166  0.19481655  1
  O  O377  1  0.37785524  0.17011112  0.69381659  1
  O  O378  1  0.37915451  0.66457147  0.19755579  1
  O  O379  1  0.37636433  0.66404916  0.69528092  1
  O  O380  1  0.70972442  0.16796089  0.20107222  1
  O  O381  1  0.70850121  0.16832442  0.69217411  1
  O  O382  1  0.71040034  0.66861881  0.19880938  1
  O  O383  1  0.70716670  0.66483494  0.69495094  1
  O  O384  1  0.12440123  0.08313855  0.30889716  1
  O  O385  1  0.11846891  0.08443007  0.80221097  1
  O  O386  1  0.12555935  0.58136105  0.29932525  1
  O  O387  1  0.12246330  0.58254869  0.80252990  1
  O  O388  1  0.45911464  0.08549294  0.30576389  1
  O  O389  1  0.45601712  0.08596812  0.80208492  1
  O  O390  1  0.45687465  0.58166674  0.30937751  1
  O  O391  1  0.45971920  0.58155159  0.80862525  1
  O  O392  1  0.78851433  0.08037982  0.30709899  1
  O  O393  1  0.79181586  0.08755285  0.80169272  1
  O  O394  1  0.78394520  0.58987378  0.31071809  1
  O  O395  1  0.79342439  0.58040917  0.80120996  1
  O  O396  1  0.30095238  0.33246498  0.30636173  1
  O  O397  1  0.28324861  0.32439253  0.80955528  1
  O  O398  1  0.29127723  0.83419375  0.30681781  1
  O  O399  1  0.28412014  0.83307401  0.79892775  1
  O  O400  1  0.62233771  0.33371160  0.30631434  1
  O  O401  1  0.62847882  0.33407790  0.80467899  1
  O  O402  1  0.62356120  0.83641628  0.30929406  1
  O  O403  1  0.62137606  0.83273491  0.80215166  1
  O  O404  1  0.95313358  0.33728571  0.30467450  1
  O  O405  1  0.95678520  0.33436266  0.79853123  1
  O  O406  1  0.95592168  0.83382504  0.30937128  1
  O  O407  1  0.96637435  0.82849755  0.80467226  1
  O  O408  1  0.12494152  0.41812771  0.30716088  1
  O  O409  1  0.12071935  0.41596566  0.80165904  1
  O  O410  1  0.12352421  0.91657441  0.30071660  1
  O  O411  1  0.11885735  0.91666261  0.80463121  1
  O  O412  1  0.45801774  0.41479658  0.30742052  1
  O  O413  1  0.46945662  0.41527270  0.80436518  1
  O  O414  1  0.45985109  0.92097838  0.30600647  1
  O  O415  1  0.45540323  0.91367126  0.81286000  1
  O  O416  1  0.78500717  0.40910462  0.30525031  1
  O  O417  1  0.79044824  0.41683446  0.80042351  1
  O  O418  1  0.78961704  0.91993297  0.30655665  1
  O  O419  1  0.77937591  0.92688815  0.80121315  1
  O  O420  1  0.29824046  0.16700344  0.30655886  1
  O  O421  1  0.28490005  0.16871031  0.80955139  1
  O  O422  1  0.29106969  0.66578874  0.30565522  1
  O  O423  1  0.29056513  0.66543057  0.80612680  1
  O  O424  1  0.62276741  0.16724310  0.30669621  1
  O  O425  1  0.62626730  0.16824628  0.80389071  1
  O  O426  1  0.62052389  0.66770665  0.30399019  1
  O  O427  1  0.62484814  0.66247271  0.80711123  1
  O  O428  1  0.95495608  0.16314378  0.30430812  1
  O  O429  1  0.95521743  0.17007845  0.79815654  1
  O  O430  1  0.95487233  0.66653368  0.31030977  1
  O  O431  1  0.95836949  0.66345497  0.80233002  1
  F  F432  1  0.04419749  0.00040978  0.20448438  1
  F  F433  1  0.04598211  0.00034228  0.70039595  1
  F  F434  1  0.04518531  0.49908752  0.19798604  1
  F  F435  1  0.04655125  0.50091831  0.69855492  1
  F  F436  1  0.38071607  0.00122498  0.20358312  1
  F  F437  1  0.37375237  -0.00474225  0.70016522  1
  F  F438  1  0.38183973  0.49886790  0.20571498  1
  F  F439  1  0.38346642  0.50826336  0.70037745  1
  F  F440  1  0.71203395  -0.00106052  0.20410399  1
  F  F441  1  0.70944958  0.00571272  0.69591135  1
  F  F442  1  0.69558211  0.50313740  0.20202437  1
  F  F443  1  0.71052867  0.50001276  0.69889508  1
  F  F444  1  0.21848406  0.24606249  0.19952263  1
  F  F445  1  0.21259760  0.24854293  0.70143413  1
  F  F446  1  0.21288261  0.74996150  0.20450082  1
  F  F447  1  0.21152668  0.74623350  0.69940190  1
  F  F448  1  0.54707526  0.25188880  0.20390243  1
  F  F449  1  0.54607746  0.25168065  0.70284853  1
  F  F450  1  0.54560903  0.75153471  0.20543994  1
  F  F451  1  0.54363002  0.74449210  0.70383753  1
  F  F452  1  0.87058015  0.25116989  0.19673886  1
  F  F453  1  0.87743209  0.25146450  0.69474935  1
  F  F454  1  0.87752228  0.75178045  0.20825771  1
  F  F455  1  0.88394775  0.73918931  0.69599760  1
  F  F456  1  0.29235736  -0.00101427  0.29992170  1
  F  F457  1  0.28211009  -0.00329805  0.80025751  1
  F  F458  1  0.28932470  0.49807430  0.29847038  1
  F  F459  1  0.28233248  0.50878627  0.80292542  1
  F  F460  1  0.62184701  0.00195236  0.29966700  1
  F  F461  1  0.62106413  0.00161615  0.79519221  1
  F  F462  1  0.62015297  0.49812299  0.30404640  1
  F  F463  1  0.62573143  0.49916064  0.79683657  1
  F  F464  1  0.95435527  0.00017890  0.29985184  1
  F  F465  1  0.95522768  0.00521173  0.79628604  1
  F  F466  1  0.96732396  0.50006145  0.29993157  1
  F  F467  1  0.95624588  0.50106798  0.79386326  1
  F  F468  1  0.14073790  0.24652540  0.30902890  1
  F  F469  1  0.11678479  0.25038291  0.79347764  1
  F  F470  1  0.12325573  0.75175214  0.30000181  1
  F  F471  1  0.12148123  0.74783781  0.79465762  1
  F  F472  1  0.45719033  0.24937421  0.29874732  1
  F  F473  1  0.45653445  0.24916625  0.80055617  1
  F  F474  1  0.45668968  0.74943274  0.30213269  1
  F  F475  1  0.45449828  0.74412010  0.80123600  1
  F  F476  1  0.78496267  0.25863710  0.30394313  1
  F  F477  1  0.78987035  0.25315686  0.79072707  1
  F  F478  1  0.78805380  0.75210304  0.30298535  1
  F  F479  1  0.78432339  0.73735578  0.79970442  1
