# generated using pymatgen
data_K24Na3Li5Mg64Fe17Si79(O5F)48
_symmetry_space_group_name_H-M   'P 1'
_cell_length_a   16.10274133
_cell_length_b   18.59024493
_cell_length_c   20.55583212
_cell_angle_alpha   89.99298738
_cell_angle_beta   99.98228761
_cell_angle_gamma   89.99631029
_symmetry_Int_Tables_number   1
_chemical_formula_structural   K24Na3Li5Mg64Fe17Si79(O5F)48
_chemical_formula_sum   'K24 Na3 Li5 Mg64 Fe17 Si79 O240 F48'
_cell_volume   6060.31357699
_cell_formula_units_Z   1
loop_
 _symmetry_equiv_pos_site_id
 _symmetry_equiv_pos_as_xyz
  1  'x, y, z'
loop_
 _atom_site_type_symbol
 _atom_site_label
 _atom_site_symmetry_multiplicity
 _atom_site_fract_x
 _atom_site_fract_y
 _atom_site_fract_z
 _atom_site_occupancy
  K  K0  1  -0.01261985  -0.00650557  -0.00683568  1
  K  K1  1  -0.00579199  0.00104329  0.50095595  1
  K  K2  1  -0.01601976  0.49527802  -0.00924349  1
  K  K3  1  -0.00235494  0.50064901  0.50601801  1
  K  K4  1  0.33533562  -0.00259424  0.00093550  1
  K  K5  1  0.35011436  0.00403705  0.50020692  1
  K  K6  1  0.33077949  0.49663227  -0.00245340  1
  K  K7  1  0.34598613  0.50163861  0.50341704  1
  K  K8  1  0.66770135  -0.00233818  0.00625968  1
  K  K9  1  0.65931474  -0.00401011  0.49466975  1
  K  K10  1  0.67046500  0.49479679  -0.00424815  1
  K  K11  1  0.66885673  0.50573669  0.50233899  1
  K  K12  1  0.16978801  0.25629591  -0.00341924  1
  K  K13  1  0.17022992  0.26574645  0.50386220  1
  K  K14  1  0.16361401  0.74725828  -0.00370318  1
  K  K15  1  0.17519544  0.74819444  0.50090633  1
  K  K16  1  0.50573041  0.25965716  0.00482010  1
  K  K17  1  0.50410974  0.25555284  0.50127427  1
  K  K18  1  0.50883525  0.74924840  0.00789313  1
  K  K19  1  0.49830378  0.74494147  0.49568057  1
  K  K20  1  0.81197627  0.25732936  -0.00036604  1
  K  K21  1  0.83540484  0.25179693  0.49886097  1
  K  K22  1  0.82473181  0.75118169  -0.00296543  1
  K  K23  1  0.83612888  0.74255751  0.50380223  1
  Na  Na24  1  0.66717321  0.24953737  0.24696682  1
  Na  Na25  1  0.49815157  0.17040668  0.74861176  1
  Na  Na26  1  0.00008583  0.42007707  0.24573514  1
  Li  Li27  1  0.49288501  0.50241763  0.75061676  1
  Li  Li28  1  0.65490731  0.75571957  0.24764365  1
  Li  Li29  1  0.50528117  0.83192529  0.25574000  1
  Li  Li30  1  0.33943557  0.57745786  0.74920994  1
  Li  Li31  1  0.83230350  0.66333323  0.74679926  1
  Mg  Mg32  1  0.33549099  0.25131461  0.25402278  1
  Mg  Mg33  1  0.49985042  -0.00374003  0.25003592  1
  Mg  Mg34  1  0.16680003  0.50186680  0.25230750  1
  Mg  Mg35  1  0.16587875  -0.00048370  0.24983411  1
  Mg  Mg36  1  0.83222256  0.50031252  0.24560957  1
  Mg  Mg37  1  0.16804734  -0.00206274  0.75012974  1
  Mg  Mg38  1  0.33419230  0.75044916  0.25624600  1
  Mg  Mg39  1  0.49913532  0.50186706  0.25399633  1
  Mg  Mg40  1  0.33271688  0.25374766  0.75025989  1
  Mg  Mg41  1  0.83042106  -0.00086921  0.24562945  1
  Mg  Mg42  1  0.33592485  0.74563923  0.74972394  1
  Mg  Mg43  1  0.83319374  0.50222664  0.75210843  1
  Mg  Mg44  1  -0.00190859  0.74810671  0.75014118  1
  Mg  Mg45  1  -0.00057599  0.25045896  0.75143880  1
  Mg  Mg46  1  0.83368344  -0.00240675  0.75064733  1
  Mg  Mg47  1  0.50174413  -0.00043677  0.74705648  1
  Mg  Mg48  1  -0.00256374  0.74992933  0.24821298  1
  Mg  Mg49  1  0.16983923  0.50067807  0.75098543  1
  Mg  Mg50  1  0.67051785  0.74724803  0.74807397  1
  Mg  Mg51  1  -0.00046641  0.25161168  0.24763493  1
  Mg  Mg52  1  0.66389189  0.25300190  0.75156519  1
  Mg  Mg53  1  0.33566371  0.08367478  0.25359968  1
  Mg  Mg54  1  0.83238184  0.16629933  0.75107834  1
  Mg  Mg55  1  0.83184412  0.33438915  0.24417852  1
  Mg  Mg56  1  0.82775999  0.66789805  0.24496797  1
  Mg  Mg57  1  -0.00066174  0.08235523  0.75020639  1
  Mg  Mg58  1  0.49721148  0.33876577  0.75208326  1
  Mg  Mg59  1  -0.00181596  0.08418910  0.24537001  1
  Mg  Mg60  1  0.33713212  0.58702781  0.25617660  1
  Mg  Mg61  1  0.50253343  0.16622735  0.25074614  1
  Mg  Mg62  1  0.33600467  0.91396509  0.74820453  1
  Mg  Mg63  1  0.66445339  0.08451937  0.74858691  1
  Mg  Mg64  1  0.50348741  0.67083198  0.25622031  1
  Mg  Mg65  1  0.83436329  0.33626695  0.75188587  1
  Mg  Mg66  1  0.82616171  0.83226289  0.24681636  1
  Mg  Mg67  1  0.33706307  0.91420104  0.25427246  1
  Mg  Mg68  1  -0.00365169  0.91526599  0.24643302  1
  Mg  Mg69  1  0.33554876  0.08407854  0.75063633  1
  Mg  Mg70  1  -0.00075596  0.41532143  0.75210553  1
  Mg  Mg71  1  0.33165628  0.42075500  0.75043239  1
  Mg  Mg72  1  0.83569585  0.83037576  0.74914374  1
  Mg  Mg73  1  0.66755930  0.58259170  0.75180104  1
  Mg  Mg74  1  0.16749908  0.83266058  0.74958117  1
  Mg  Mg75  1  0.33699916  0.41792919  0.25606712  1
  Mg  Mg76  1  0.66463217  0.58797437  0.24887555  1
  Mg  Mg77  1  0.66122730  0.91152981  0.24670009  1
  Mg  Mg78  1  0.16909309  0.16621232  0.75137518  1
  Mg  Mg79  1  -0.00183454  0.91340931  0.75003724  1
  Mg  Mg80  1  0.16848914  0.66621882  0.25407183  1
  Mg  Mg81  1  -0.00161469  0.58488226  0.75083201  1
  Mg  Mg82  1  0.83058190  0.16607041  0.24470756  1
  Mg  Mg83  1  0.66522044  0.08302171  0.24551269  1
  Mg  Mg84  1  0.66664855  0.41641956  0.24829776  1
  Mg  Mg85  1  0.16945598  0.66447047  0.74886405  1
  Mg  Mg86  1  0.49985982  0.66258479  0.75073261  1
  Mg  Mg87  1  0.66598915  0.41936739  0.75457709  1
  Mg  Mg88  1  0.16720292  0.33657161  0.75070501  1
  Mg  Mg89  1  0.66656204  0.91455766  0.74704697  1
  Mg  Mg90  1  0.16785847  0.33495431  0.25247995  1
  Mg  Mg91  1  0.50408050  0.33581733  0.25402356  1
  Mg  Mg92  1  -0.00085249  0.58421178  0.24909568  1
  Mg  Mg93  1  0.50186130  0.83280599  0.74710381  1
  Mg  Mg94  1  0.16715075  0.83385631  0.25266957  1
  Mg  Mg95  1  0.16664387  0.16676284  0.24983202  1
  Fe  Fe96  1  0.80318749  0.41513365  0.89270656  1
  Fe  Fe97  1  0.68955500  0.34015256  0.10402267  1
  Fe  Fe98  1  0.85998210  0.58393117  0.61076682  1
  Fe  Fe99  1  0.68514181  0.83251931  0.10578911  1
  Fe  Fe100  1  0.97558849  0.32850231  0.89256925  1
  Fe  Fe101  1  0.48393225  0.40975073  0.39531887  1
  Fe  Fe102  1  0.64687831  0.83318539  0.39129657  1
  Fe  Fe103  1  0.30460673  0.66838943  0.39540225  1
  Fe  Fe104  1  0.52970430  0.91695805  0.60836602  1
  Fe  Fe105  1  0.68826738  0.15947346  0.10225403  1
  Fe  Fe106  1  0.48286904  0.58479183  0.39585624  1
  Fe  Fe107  1  0.47474042  0.91819934  0.39090050  1
  Fe  Fe108  1  0.30854084  0.33351631  0.89061588  1
  Fe  Fe109  1  0.97532130  0.83308367  0.89219758  1
  Fe  Fe110  1  0.64961191  0.16524796  0.38863400  1
  Fe  Fe111  1  0.85835595  0.91501791  0.60937135  1
  Fe  Fe112  1  0.18910949  0.42066747  0.60852034  1
  Si  Si113  1  0.19325762  0.08190585  0.61442956  1
  Si  Si114  1  0.13887648  0.41655419  0.38500198  1
  Si  Si115  1  0.03062819  0.67250939  0.61267133  1
  Si  Si116  1  0.97407779  0.16842284  0.38208648  1
  Si  Si117  1  0.30339945  0.33152370  0.39058867  1
  Si  Si118  1  0.98062042  0.15793547  0.88777477  1
  Si  Si119  1  0.19428825  0.41709671  0.11680704  1
  Si  Si120  1  0.98154147  0.66395520  0.88942536  1
  Si  Si121  1  0.02956240  0.16786618  0.11219643  1
  Si  Si122  1  0.80628194  0.08516567  0.88574973  1
  Si  Si123  1  0.13882450  0.41916208  0.88989080  1
  Si  Si124  1  0.80114548  0.91887406  0.88768356  1
  Si  Si125  1  0.63831022  0.83329164  0.88384363  1
  Si  Si126  1  0.81252778  0.91842739  0.38400120  1
  Si  Si127  1  0.19969786  0.91562631  0.61440971  1
  Si  Si128  1  0.81307293  0.41999924  0.38317542  1
  Si  Si129  1  0.69636014  0.82790387  0.61271335  1
  Si  Si130  1  0.19311517  0.58208965  0.11658882  1
  Si  Si131  1  0.47498843  0.07637470  0.88444756  1
  Si  Si132  1  0.63973954  0.16540493  0.88414997  1
  Si  Si133  1  0.86214034  0.91415007  0.10970791  1
  Si  Si134  1  0.14740047  0.91584601  0.88707508  1
  Si  Si135  1  0.51943925  0.58558022  0.11565709  1
  Si  Si136  1  0.35057056  0.83106780  0.11632482  1
  Si  Si137  1  0.19082055  0.58803262  0.61360308  1
  Si  Si138  1  0.86584349  0.08038957  0.10820677  1
  Si  Si139  1  0.52432678  0.58191949  0.61779669  1
  Si  Si140  1  0.85255205  0.08590597  0.61329068  1
  Si  Si141  1  0.02472572  0.16153461  0.61580227  1
  Si  Si142  1  0.65388491  0.33461417  0.38891047  1
  Si  Si143  1  0.13634942  0.08218634  0.38372223  1
  Si  Si144  1  0.85795885  0.41206759  0.61198352  1
  Si  Si145  1  0.47003527  0.42198740  0.88736458  1
  Si  Si146  1  0.35500973  0.16920125  0.61497860  1
  Si  Si147  1  0.47852853  0.58585208  0.88582730  1
  Si  Si148  1  0.51493917  0.07856803  0.11016812  1
  Si  Si149  1  0.68521108  0.66508326  0.61383492  1
  Si  Si150  1  0.02923222  0.83216073  0.11451066  1
  Si  Si151  1  0.30070708  0.84107230  0.39111864  1
  Si  Si152  1  0.30222715  0.16468416  0.38643117  1
  Si  Si153  1  0.36153308  0.82851285  0.61254932  1
  Si  Si154  1  0.02890478  0.66716754  0.11502671  1
  Si  Si155  1  0.62990217  0.33187301  0.88805608  1
  Si  Si156  1  0.13223171  0.58237547  0.38870625  1
  Si  Si157  1  0.80848423  0.58221792  0.38108022  1
  Si  Si158  1  0.03143306  0.33173158  0.11456835  1
  Si  Si159  1  0.36111514  0.33493735  0.61230433  1
  Si  Si160  1  0.81606675  0.07836073  0.38436613  1
  Si  Si161  1  0.35750395  0.33392438  0.11807958  1
  Si  Si162  1  0.13055720  0.91691076  0.38408050  1
  Si  Si163  1  0.80908752  0.58611312  0.88834055  1
  Si  Si164  1  0.31142845  0.66597878  0.88547646  1
  Si  Si165  1  0.19144732  0.91834890  0.11536402  1
  Si  Si166  1  0.52705895  0.41712306  0.61937292  1
  Si  Si167  1  0.68941102  0.17137813  0.61530260  1
  Si  Si168  1  0.64277199  0.66907421  0.88631102  1
  Si  Si169  1  0.35943592  0.66428928  0.61702676  1
  Si  Si170  1  0.03253488  0.83808152  0.61224742  1
  Si  Si171  1  0.02352972  0.32753118  0.61230916  1
  Si  Si172  1  0.14693318  0.07916354  0.88467820  1
  Si  Si173  1  0.52380200  0.08581640  0.61191171  1
  Si  Si174  1  0.14628046  0.58349059  0.88591252  1
  Si  Si175  1  0.35568114  0.66838560  0.11616045  1
  Si  Si176  1  0.69018105  0.33569727  0.61704159  1
  Si  Si177  1  0.31038166  0.83023024  0.88518517  1
  Si  Si178  1  0.35753280  0.16861980  0.11661963  1
  Si  Si179  1  0.47336067  0.91373812  0.88484518  1
  Si  Si180  1  0.96865935  0.66633831  0.38134527  1
  Si  Si181  1  0.19402586  0.08419162  0.11514705  1
  Si  Si182  1  0.51384342  0.91603440  0.11044930  1
  Si  Si183  1  0.47587990  0.09193071  0.38939746  1
  Si  Si184  1  0.86400852  0.41967333  0.10981870  1
  Si  Si185  1  0.97222604  0.33182488  0.38143573  1
  Si  Si186  1  0.31260185  0.16325735  0.88879135  1
  Si  Si187  1  0.86175815  0.58509053  0.11138198  1
  Si  Si188  1  0.96955318  0.83021267  0.38179292  1
  Si  Si189  1  0.65165783  0.66731668  0.38780548  1
  Si  Si190  1  0.51853144  0.42215253  0.11316092  1
  Si  Si191  1  0.68969864  0.65901874  0.10885185  1
  O  O192  1  0.27122852  0.12280074  0.08590180  1
  O  O193  1  0.26855103  0.12229476  0.58292280  1
  O  O194  1  0.27032540  0.62039825  0.08570495  1
  O  O195  1  0.27720716  0.61540570  0.58747946  1
  O  O196  1  0.59047697  0.10182507  0.07260907  1
  O  O197  1  0.60376275  0.12630396  0.58500090  1
  O  O198  1  0.60083302  0.61256607  0.08294025  1
  O  O199  1  0.60180218  0.61453067  0.58466113  1
  O  O200  1  0.94574417  0.12198069  0.08216688  1
  O  O201  1  0.93733662  0.11841367  0.58642359  1
  O  O202  1  0.93593082  0.63344554  0.08423778  1
  O  O203  1  0.95303115  0.62390897  0.57637970  1
  O  O204  1  0.10949529  0.37124303  0.08570414  1
  O  O205  1  0.09341245  0.36305171  0.57466039  1
  O  O206  1  0.10211055  0.87799092  0.08529902  1
  O  O207  1  0.11877336  0.86566425  0.58455425  1
  O  O208  1  0.43368714  0.37137838  0.08738323  1
  O  O209  1  0.44716203  0.36517404  0.58744543  1
  O  O210  1  0.42764651  0.86653211  0.08506203  1
  O  O211  1  0.43869091  0.85451813  0.57842143  1
  O  O212  1  0.78039621  0.38370976  0.06911892  1
  O  O213  1  0.77027592  0.36576066  0.58593769  1
  O  O214  1  0.77474983  0.88047701  0.07247471  1
  O  O215  1  0.78312313  0.83964885  0.58348636  1
  O  O216  1  0.27155588  0.37912259  0.08686740  1
  O  O217  1  0.28169445  0.38088088  0.57494834  1
  O  O218  1  0.26499623  0.87785822  0.08308410  1
  O  O219  1  0.27962463  0.88195695  0.58561481  1
  O  O220  1  0.59137077  0.39710819  0.07378971  1
  O  O221  1  0.60802640  0.38556862  0.58817254  1
  O  O222  1  0.58484605  0.88466338  0.07060879  1
  O  O223  1  0.62977133  0.88965827  0.58186916  1
  O  O224  1  0.94758727  0.37927593  0.08829835  1
  O  O225  1  0.93097134  0.36366476  0.58404177  1
  O  O226  1  0.93899653  0.86811031  0.08367809  1
  O  O227  1  0.95955591  0.89224624  0.57833919  1
  O  O228  1  0.10862197  0.12911469  0.08406280  1
  O  O229  1  0.10233764  0.12147962  0.58601273  1
  O  O230  1  0.10405654  0.62382789  0.08602188  1
  O  O231  1  0.11854815  0.64983257  0.58658077  1
  O  O232  1  0.43249006  0.13225008  0.08381626  1
  O  O233  1  0.43746688  0.13560934  0.58861851  1
  O  O234  1  0.43693893  0.63707459  0.08580026  1
  O  O235  1  0.43970749  0.62992006  0.58794945  1
  O  O236  1  0.77995173  0.11402399  0.06910753  1
  O  O237  1  0.77334419  0.14207753  0.58757892  1
  O  O238  1  0.76812904  0.61666533  0.07963742  1
  O  O239  1  0.76143592  0.63719677  0.57803283  1
  O  O240  1  0.06024729  0.12261203  0.41306426  1
  O  O241  1  0.06065471  0.10094914  0.91247384  1
  O  O242  1  0.04385781  0.61039741  0.41189960  1
  O  O243  1  0.06608968  0.61299742  0.91838865  1
  O  O244  1  0.38757054  0.12096803  0.41590916  1
  O  O245  1  0.39407622  0.10887509  0.91457276  1
  O  O246  1  0.39190651  0.61207247  0.43511963  1
  O  O247  1  0.39777003  0.62115359  0.91687628  1
  O  O248  1  0.73843475  0.09869697  0.42075307  1
  O  O249  1  0.73166545  0.12831504  0.91554869  1
  O  O250  1  0.72567389  0.60365492  0.41180986  1
  O  O251  1  0.73269692  0.63101877  0.91720877  1
  O  O252  1  0.22142050  0.36835255  0.41730024  1
  O  O253  1  0.21387939  0.36582604  0.92439897  1
  O  O254  1  0.21090332  0.86838045  0.41527478  1
  O  O255  1  0.23132145  0.86550180  0.91487719  1
  O  O256  1  0.57670165  0.35000232  0.42861426  1
  O  O257  1  0.54750009  0.36536948  0.91471492  1
  O  O258  1  0.55542617  0.85488086  0.43212402  1
  O  O259  1  0.55645591  0.86511507  0.91294982  1
  O  O260  1  0.89469970  0.36798692  0.41300838  1
  O  O261  1  0.88728569  0.35384380  0.93326692  1
  O  O262  1  0.88869361  0.85925080  0.41156218  1
  O  O263  1  0.88368323  0.87652316  0.92466542  1
  O  O264  1  0.05787655  0.37815912  0.41053961  1
  O  O265  1  0.05623923  0.40062837  0.92204845  1
  O  O266  1  0.04910978  0.88343259  0.41186525  1
  O  O267  1  0.07209702  0.89094005  0.92406324  1
  O  O268  1  0.38781315  0.36964834  0.42691918  1
  O  O269  1  0.39358607  0.39908281  0.92517779  1
  O  O270  1  0.36907539  0.90186920  0.41811193  1
  O  O271  1  0.39410855  0.87857603  0.91522179  1
  O  O272  1  0.73163006  0.39450790  0.41469098  1
  O  O273  1  0.70961986  0.37630474  0.92464980  1
  O  O274  1  0.73410515  0.90309602  0.42017880  1
  O  O275  1  0.71823088  0.88450682  0.91453479  1
  O  O276  1  0.22475729  0.12262103  0.41405765  1
  O  O277  1  0.22791350  0.12981830  0.91540657  1
  O  O278  1  0.20622566  0.63294559  0.42543405  1
  O  O279  1  0.23082859  0.63263938  0.91611076  1
  O  O280  1  0.54761293  0.14959227  0.42076040  1
  O  O281  1  0.56329408  0.12028431  0.91060422  1
  O  O282  1  0.57336080  0.64790096  0.42489903  1
  O  O283  1  0.56403467  0.63348917  0.91740606  1
  O  O284  1  0.89688055  0.13301779  0.41298557  1
  O  O285  1  0.89849102  0.12172899  0.91502538  1
  O  O286  1  0.88507005  0.63909357  0.40967016  1
  O  O287  1  0.89859913  0.62966442  0.91567064  1
  O  O288  1  0.18463118  0.00140347  0.08613811  1
  O  O289  1  0.18482127  -0.00120531  0.58576252  1
  O  O290  1  0.18447867  0.49954389  0.08711602  1
  O  O291  1  0.16150622  0.51365009  0.57530643  1
  O  O292  1  0.48281481  -0.00232231  0.08234042  1
  O  O293  1  0.50427859  0.01031956  0.57393868  1
  O  O294  1  0.49008612  0.50500111  0.08759670  1
  O  O295  1  0.50707504  0.49891402  0.58993599  1
  O  O296  1  0.87448659  -0.00347416  0.08292068  1
  O  O297  1  0.82897888  0.00974076  0.57790207  1
  O  O298  1  0.87139051  0.50392750  0.08323696  1
  O  O299  1  0.84950668  0.48873008  0.57460739  1
  O  O300  1  0.02181191  0.24991674  0.08241349  1
  O  O301  1  0.01444070  0.24258418  0.58536820  1
  O  O302  1  0.03149648  0.74973445  0.08624167  1
  O  O303  1  0.01354777  0.75593072  0.58467070  1
  O  O304  1  0.34278980  0.25140889  0.08851721  1
  O  O305  1  0.34423388  0.25066751  0.58406942  1
  O  O306  1  0.33547906  0.74937143  0.08417645  1
  O  O307  1  0.33646077  0.74592785  0.58684353  1
  O  O308  1  0.66933320  0.25006387  0.06505606  1
  O  O309  1  0.67180702  0.25365264  0.58716270  1
  O  O310  1  0.67796865  0.73636905  0.07191495  1
  O  O311  1  0.65763972  0.74775834  0.58913328  1
  O  O312  1  0.14146713  -0.00014682  0.41296770  1
  O  O313  1  0.17570148  -0.00158416  0.91228084  1
  O  O314  1  0.14535692  0.49823561  0.41526718  1
  O  O315  1  0.16905746  0.50258145  0.91443623  1
  O  O316  1  0.49839562  0.01386034  0.42186517  1
  O  O317  1  0.48916051  -0.00536482  0.91662658  1
  O  O318  1  0.51354022  0.49645575  0.43488085  1
  O  O319  1  0.49763005  0.50437868  0.91578114  1
  O  O320  1  0.85426825  -0.00205362  0.40828377  1
  O  O321  1  0.80802053  0.00308172  0.91554908  1
  O  O322  1  0.83965063  0.50192073  0.40992786  1
  O  O323  1  0.81821194  0.50998843  0.92706064  1
  O  O324  1  0.30230517  0.24638362  0.41605847  1
  O  O325  1  0.33392055  0.23908190  0.92524325  1
  O  O326  1  0.32091923  0.76408489  0.42654838  1
  O  O327  1  0.32563255  0.74897284  0.91637565  1
  O  O328  1  0.69568629  0.25692356  0.41211143  1
  O  O329  1  0.63710551  0.24672344  0.91382083  1
  O  O330  1  0.69462705  0.74219614  0.41679051  1
  O  O331  1  0.65276731  0.75230530  0.91519668  1
  O  O332  1  0.98861583  0.24997929  0.41315526  1
  O  O333  1  1.00914935  0.23313409  0.92282035  1
  O  O334  1  0.99233727  0.74826198  0.41020338  1
  O  O335  1  1.00069033  0.74058986  0.92756444  1
  O  O336  1  0.20905178  0.08405757  0.19551077  1
  O  O337  1  0.21047522  0.08180886  0.69490249  1
  O  O338  1  0.21007615  0.58386723  0.19652299  1
  O  O339  1  0.20442015  0.58407259  0.69356808  1
  O  O340  1  0.53500468  0.08110898  0.19072239  1
  O  O341  1  0.54650443  0.07793518  0.69153588  1
  O  O342  1  0.54115194  0.58576053  0.19541008  1
  O  O343  1  0.54542551  0.58532797  0.69720001  1
  O  O344  1  0.88029490  0.08216327  0.18939677  1
  O  O345  1  0.87484962  0.08416109  0.69459409  1
  O  O346  1  0.87775972  0.58652123  0.19159216  1
  O  O347  1  0.88074920  0.58076942  0.70115481  1
  O  O348  1  0.05284652  0.32534392  0.19378915  1
  O  O349  1  0.04425102  0.33015630  0.69307550  1
  O  O350  1  0.04513364  0.83355200  0.19489770  1
  O  O351  1  0.04923730  0.83705662  0.69324018  1
  O  O352  1  0.37185746  0.33389501  0.19802958  1
  O  O353  1  0.37554296  0.33406351  0.69261480  1
  O  O354  1  0.36095256  0.83151997  0.19512560  1
  O  O355  1  0.37728441  0.83191325  0.69385662  1
  O  O356  1  0.71432277  0.34245995  0.19462164  1
  O  O357  1  0.71012857  0.33359355  0.69717503  1
  O  O358  1  0.71088579  0.83477476  0.19543848  1
  O  O359  1  0.71189616  0.83208981  0.69466340  1
  O  O360  1  0.21126186  0.41712102  0.19709596  1
  O  O361  1  0.20742700  0.41797383  0.69947140  1
  O  O362  1  0.20735123  0.91782323  0.19560552  1
  O  O363  1  0.21363004  0.91653862  0.69514075  1
  O  O364  1  0.54098198  0.41904789  0.19365685  1
  O  O365  1  0.54621932  0.41600666  0.69876184  1
  O  O366  1  0.54107531  0.91993013  0.18941572  1
  O  O367  1  0.54466290  0.91603626  0.70058206  1
  O  O368  1  0.86965597  0.41971396  0.18913696  1
  O  O369  1  0.87773843  0.41558181  0.69254202  1
  O  O370  1  0.87741779  0.91473581  0.19075998  1
  O  O371  1  0.87819566  0.91813459  0.70125626  1
  O  O372  1  0.04657144  0.16606873  0.19294432  1
  O  O373  1  0.04430679  0.16268068  0.69625197  1
  O  O374  1  0.04510183  0.66794921  0.19531765  1
  O  O375  1  0.04533311  0.66919879  0.69380452  1
  O  O376  1  0.37262078  0.16671427  0.19685705  1
  O  O377  1  0.36333730  0.16729729  0.69411116  1
  O  O378  1  0.37221876  0.66823907  0.19557107  1
  O  O379  1  0.37994387  0.66868720  0.69647047  1
  O  O380  1  0.71670669  0.15565682  0.19253171  1
  O  O381  1  0.70864574  0.16810313  0.69573329  1
  O  O382  1  0.71142055  0.66055456  0.18857227  1
  O  O383  1  0.70475383  0.66395084  0.69429126  1
  O  O384  1  0.12079122  0.08293459  0.30311945  1
  O  O385  1  0.12719929  0.08162766  0.80404896  1
  O  O386  1  0.12069081  0.58404701  0.30750684  1
  O  O387  1  0.12603631  0.58560923  0.80569240  1
  O  O388  1  0.45378181  0.08763936  0.30760576  1
  O  O389  1  0.45303458  0.07358651  0.80503261  1
  O  O390  1  0.45661177  0.58468136  0.30254313  1
  O  O391  1  0.45891699  0.58851575  0.80726439  1
  O  O392  1  0.79682458  0.08144851  0.30353474  1
  O  O393  1  0.79022500  0.08405657  0.80519077  1
  O  O394  1  0.79061724  0.58396851  0.30071298  1
  O  O395  1  0.78800648  0.58178944  0.80867404  1
  O  O396  1  0.28885323  0.33248960  0.30927346  1
  O  O397  1  0.28655429  0.33239237  0.79937906  1
  O  O398  1  0.28359918  0.83631693  0.30911900  1
  O  O399  1  0.29248475  0.83241507  0.80478785  1
  O  O400  1  0.62289857  0.34344617  0.30926439  1
  O  O401  1  0.62014336  0.33355467  0.80761633  1
  O  O402  1  0.62243693  0.83628351  0.30220337  1
  O  O403  1  0.62326064  0.83232765  0.80398042  1
  O  O404  1  0.95410583  0.32799439  0.30230337  1
  O  O405  1  0.95550815  0.33083454  0.79959761  1
  O  O406  1  0.95589996  0.83298408  0.30131284  1
  O  O407  1  0.95914595  0.83216599  0.80109981  1
  O  O408  1  0.13154251  0.41765463  0.30581055  1
  O  O409  1  0.12141320  0.41625451  0.80848209  1
  O  O410  1  0.11749105  0.91816027  0.30339784  1
  O  O411  1  0.12742672  0.91534197  0.80601336  1
  O  O412  1  0.45604386  0.41651252  0.30249351  1
  O  O413  1  0.45083135  0.41796628  0.80751632  1
  O  O414  1  0.45334052  0.91896896  0.29953694  1
  O  O415  1  0.45433817  0.91451609  0.80470925  1
  O  O416  1  0.79459311  0.41861006  0.30310916  1
  O  O417  1  0.78956385  0.41669293  0.80053467  1
  O  O418  1  0.79460275  0.91713395  0.30310997  1
  O  O419  1  0.78721468  0.91783557  0.80719598  1
  O  O420  1  0.28609399  0.16593034  0.30569401  1
  O  O421  1  0.29141606  0.16400455  0.80769124  1
  O  O422  1  0.28586348  0.66757157  0.30249093  1
  O  O423  1  0.28955869  0.67023296  0.80629884  1
  O  O424  1  0.61853305  0.15669647  0.29908445  1
  O  O425  1  0.63115344  0.16607741  0.80505617  1
  O  O426  1  0.62576772  0.66378761  0.30720769  1
  O  O427  1  0.62397803  0.66800163  0.80637784  1
  O  O428  1  0.96006675  0.16552942  0.30173922  1
  O  O429  1  0.95883368  0.16214950  0.80657876  1
  O  O430  1  0.95507777  0.66792179  0.30099777  1
  O  O431  1  0.96902179  0.66718838  0.80977756  1
  F  F432  1  0.04657755  -0.00028725  0.19860983  1
  F  F433  1  0.04754358  -0.00029172  0.70332641  1
  F  F434  1  0.05269450  0.51199631  0.19727647  1
  F  F435  1  0.04590019  0.49957976  0.70562519  1
  F  F436  1  0.37167667  0.00238124  0.20180566  1
  F  F437  1  0.37655320  -0.00078384  0.69984380  1
  F  F438  1  0.37347179  0.50120982  0.20272738  1
  F  F439  1  0.37526798  0.49739524  0.69951672  1
  F  F440  1  0.71242137  -0.00259909  0.19903278  1
  F  F441  1  0.71305497  0.00120566  0.70345694  1
  F  F442  1  0.71052589  0.50297467  0.20047019  1
  F  F443  1  0.71112833  0.50053749  0.70158331  1
  F  F444  1  0.21398615  0.25006330  0.20405199  1
  F  F445  1  0.20862645  0.24636874  0.70054543  1
  F  F446  1  0.20688265  0.75176306  0.20284163  1
  F  F447  1  0.21458095  0.75123452  0.70215251  1
  F  F448  1  0.52700109  0.25269158  0.19884032  1
  F  F449  1  0.54855481  0.26115740  0.69966606  1
  F  F450  1  0.53687074  0.74578647  0.19913090  1
  F  F451  1  0.54577707  0.74833328  0.70359941  1
  F  F452  1  0.88365164  0.24836664  0.19493020  1
  F  F453  1  0.87826714  0.24574065  0.70172066  1
  F  F454  1  0.88042932  0.75018522  0.19581374  1
  F  F455  1  0.88151423  0.74946852  0.70133778  1
  F  F456  1  0.28289550  0.00187831  0.29856244  1
  F  F457  1  0.28894501  -0.00207651  0.79721188  1
  F  F458  1  0.28655771  0.50095324  0.30033468  1
  F  F459  1  0.28615375  0.50066071  0.80209256  1
  F  F460  1  0.62163543  -0.00079883  0.29249919  1
  F  F461  1  0.62258972  0.00111089  0.79914135  1
  F  F462  1  0.62282257  0.50180661  0.29507593  1
  F  F463  1  0.62864624  0.50170074  0.80329629  1
  F  F464  1  0.95572237  0.00009041  0.29264225  1
  F  F465  1  0.95724166  0.00144561  0.80001811  1
  F  F466  1  0.94944112  0.50955102  0.29761837  1
  F  F467  1  0.95654608  0.49850918  0.80077259  1
  F  F468  1  0.12175558  0.24788059  0.29949429  1
  F  F469  1  0.12135179  0.24744890  0.79736471  1
  F  F470  1  0.11736621  0.75128154  0.29869541  1
  F  F471  1  0.12446402  0.75070754  0.79694013  1
  F  F472  1  0.45255248  0.25039135  0.30071089  1
  F  F473  1  0.44886912  0.25903156  0.80082609  1
  F  F474  1  0.44975767  0.74739595  0.30274035  1
  F  F475  1  0.45602263  0.75226695  0.79916820  1
  F  F476  1  0.80582967  0.24936267  0.29661933  1
  F  F477  1  0.78796806  0.24912071  0.79812589  1
  F  F478  1  0.80030429  0.74827812  0.29708622  1
  F  F479  1  0.78618555  0.75421762  0.80003966  1
