# generated using pymatgen
data_K24Na3Li5Mg64Fe17Si79(O5F)48
_symmetry_space_group_name_H-M   'P 1'
_cell_length_a   16.09730981
_cell_length_b   18.59851620
_cell_length_c   20.55946914
_cell_angle_alpha   90.00859041
_cell_angle_beta   100.03766761
_cell_angle_gamma   90.00626758
_symmetry_Int_Tables_number   1
_chemical_formula_structural   K24Na3Li5Mg64Fe17Si79(O5F)48
_chemical_formula_sum   'K24 Na3 Li5 Mg64 Fe17 Si79 O240 F48'
_cell_volume   6061.00309619
_cell_formula_units_Z   1
loop_
 _symmetry_equiv_pos_site_id
 _symmetry_equiv_pos_as_xyz
  1  'x, y, z'
loop_
 _atom_site_type_symbol
 _atom_site_label
 _atom_site_symmetry_multiplicity
 _atom_site_fract_x
 _atom_site_fract_y
 _atom_site_fract_z
 _atom_site_occupancy
  K  K0  1  -0.01183916  -0.00430995  -0.00173029  1
  K  K1  1  -0.00296380  0.00025424  0.49804348  1
  K  K2  1  0.00266955  0.51098877  -0.00102935  1
  K  K3  1  -0.00121158  0.51197986  0.49761282  1
  K  K4  1  0.33704863  -0.00558379  -0.00111212  1
  K  K5  1  0.33881909  -0.00676705  0.49938196  1
  K  K6  1  0.34120962  0.50775219  0.00607446  1
  K  K7  1  0.33167932  0.50232654  0.48745103  1
  K  K8  1  0.67166655  0.00316451  0.00083795  1
  K  K9  1  0.66666362  -0.01429958  0.49813521  1
  K  K10  1  0.66612500  0.50583715  0.00197793  1
  K  K11  1  0.66685294  0.51429453  0.49512366  1
  K  K12  1  0.16725303  0.25422246  0.00427983  1
  K  K13  1  0.16019502  0.25764904  0.48742903  1
  K  K14  1  0.15961532  0.74765217  -0.00138206  1
  K  K15  1  0.16756139  0.75002092  0.50030022  1
  K  K16  1  0.50041473  0.25100997  0.00176653  1
  K  K17  1  0.49589697  0.25263001  0.49967634  1
  K  K18  1  0.50682887  0.74794705  0.00142119  1
  K  K19  1  0.50162492  0.74701027  0.49287627  1
  K  K20  1  0.84078617  0.24937495  0.00299560  1
  K  K21  1  0.84219393  0.25253871  0.49825310  1
  K  K22  1  0.83838035  0.74015588  -0.00698859  1
  K  K23  1  0.83261070  0.73910892  0.50860610  1
  Na  Na24  1  0.16801699  0.50287713  0.24991175  1
  Na  Na25  1  0.49972972  0.82997412  0.25071451  1
  Na  Na26  1  0.16463982  0.16927014  0.25505552  1
  Li  Li27  1  0.50490744  0.50649168  0.25103654  1
  Li  Li28  1  -0.01019374  0.75146567  0.75251819  1
  Li  Li29  1  0.67103015  0.41971265  0.75180151  1
  Li  Li30  1  0.83918186  0.82393028  0.74987406  1
  Li  Li31  1  0.65882589  0.58135170  0.25221832  1
  Mg  Mg32  1  0.33231058  0.25104076  0.25339631  1
  Mg  Mg33  1  0.16578357  0.50153205  0.74498160  1
  Mg  Mg34  1  0.50433770  0.50003343  0.74940986  1
  Mg  Mg35  1  0.83380648  0.00133372  0.24971411  1
  Mg  Mg36  1  0.66572743  0.25223188  0.74973239  1
  Mg  Mg37  1  0.66602941  0.25156679  0.24853351  1
  Mg  Mg38  1  0.00124048  0.74881785  0.24687872  1
  Mg  Mg39  1  0.49910625  -0.00199735  0.74798727  1
  Mg  Mg40  1  0.83206773  0.50056660  0.75064741  1
  Mg  Mg41  1  0.50070549  -0.00075228  0.25189510  1
  Mg  Mg42  1  0.33257343  0.24986412  0.75220850  1
  Mg  Mg43  1  -0.00022960  0.25171841  0.25479839  1
  Mg  Mg44  1  0.33186228  0.74823209  0.74540764  1
  Mg  Mg45  1  0.83276193  -0.00414426  0.75329680  1
  Mg  Mg46  1  0.16523138  -0.00218641  0.75489670  1
  Mg  Mg47  1  0.66499614  0.74447994  0.24977529  1
  Mg  Mg48  1  0.67053457  0.74854083  0.74939815  1
  Mg  Mg49  1  -0.00037490  0.24738657  0.75314840  1
  Mg  Mg50  1  0.82948732  0.50154912  0.24821213  1
  Mg  Mg51  1  0.16586327  0.00260495  0.25146650  1
  Mg  Mg52  1  0.33627794  0.74843782  0.24861982  1
  Mg  Mg53  1  0.16791842  0.66481317  0.24745184  1
  Mg  Mg54  1  0.16699356  0.33373703  0.75043294  1
  Mg  Mg55  1  0.33358374  0.41620172  0.74853307  1
  Mg  Mg56  1  0.66807711  0.08459418  0.25029117  1
  Mg  Mg57  1  -0.00113940  0.41588561  0.74846615  1
  Mg  Mg58  1  0.83236742  0.33459096  0.75083052  1
  Mg  Mg59  1  -0.00167755  0.91653823  0.24704967  1
  Mg  Mg60  1  0.83095673  0.83321491  0.24758579  1
  Mg  Mg61  1  0.16153621  0.83215095  0.75220373  1
  Mg  Mg62  1  0.49781670  0.16558667  0.74979301  1
  Mg  Mg63  1  0.66535380  0.08379776  0.74958791  1
  Mg  Mg64  1  0.33198008  0.08392541  0.75232480  1
  Mg  Mg65  1  0.66767976  0.91359561  0.74948689  1
  Mg  Mg66  1  0.33829629  0.58234791  0.24532899  1
  Mg  Mg67  1  0.67060043  0.58227044  0.75069372  1
  Mg  Mg68  1  0.66115436  0.42199764  0.24809582  1
  Mg  Mg69  1  0.33619480  0.41891576  0.25447146  1
  Mg  Mg70  1  0.50335433  0.66553318  0.74817125  1
  Mg  Mg71  1  0.00113360  0.08249003  0.75665569  1
  Mg  Mg72  1  0.49933612  0.33692303  0.25035032  1
  Mg  Mg73  1  0.83455522  0.16537723  0.75277473  1
  Mg  Mg74  1  0.66548226  0.91419050  0.25151049  1
  Mg  Mg75  1  0.50094653  0.66299384  0.24995715  1
  Mg  Mg76  1  0.83680670  0.66562922  0.75176804  1
  Mg  Mg77  1  -0.00128664  0.08695054  0.25159407  1
  Mg  Mg78  1  0.00125905  0.58426766  0.24898766  1
  Mg  Mg79  1  -0.00162952  0.58828958  0.74708937  1
  Mg  Mg80  1  0.50004120  0.16656801  0.25133491  1
  Mg  Mg81  1  0.83249544  0.33535530  0.25349857  1
  Mg  Mg82  1  0.83631586  0.16601561  0.25146726  1
  Mg  Mg83  1  0.33156793  0.91324961  0.74836364  1
  Mg  Mg84  1  0.83104650  0.66487506  0.24726080  1
  Mg  Mg85  1  0.33201307  0.58306497  0.74511569  1
  Mg  Mg86  1  0.50255755  0.33546852  0.74914769  1
  Mg  Mg87  1  -0.00087561  0.91290225  0.75288304  1
  Mg  Mg88  1  0.16703081  0.33543964  0.25519255  1
  Mg  Mg89  1  0.33377718  0.08397562  0.25318349  1
  Mg  Mg90  1  0.50165098  0.83327265  0.74727833  1
  Mg  Mg91  1  0.00077637  0.41820763  0.25434243  1
  Mg  Mg92  1  0.16861621  0.16436201  0.75496071  1
  Mg  Mg93  1  0.16274293  0.66652250  0.74295226  1
  Mg  Mg94  1  0.33522090  0.91674842  0.24998968  1
  Mg  Mg95  1  0.16745228  0.83469076  0.24784227  1
  Fe  Fe96  1  0.64154988  0.66931935  0.88965472  1
  Fe  Fe97  1  0.85977308  0.08503937  0.10967786  1
  Fe  Fe98  1  0.18950476  0.58140205  0.60502104  1
  Fe  Fe99  1  0.86230939  0.58140912  0.60840085  1
  Fe  Fe100  1  0.14694109  0.91657529  0.89395182  1
  Fe  Fe101  1  0.97768835  0.16416130  0.89272241  1
  Fe  Fe102  1  0.96929909  0.83664165  0.89105574  1
  Fe  Fe103  1  0.81048287  0.57682548  0.89318584  1
  Fe  Fe104  1  0.47433199  0.57973776  0.38980510  1
  Fe  Fe105  1  0.30693836  0.17075295  0.89251098  1
  Fe  Fe106  1  0.35972287  0.67419607  0.10425549  1
  Fe  Fe107  1  0.47940344  0.91942926  0.39089824  1
  Fe  Fe108  1  0.02840036  0.66382818  0.10818742  1
  Fe  Fe109  1  0.14171305  0.42374344  0.39362697  1
  Fe  Fe110  1  0.97803327  0.16625969  0.39472578  1
  Fe  Fe111  1  0.52715380  0.58365125  0.10933522  1
  Fe  Fe112  1  0.52432015  0.91567352  0.60855781  1
  Si  Si113  1  0.02488573  0.15861609  0.61765760  1
  Si  Si114  1  0.52728380  0.91973682  0.11476934  1
  Si  Si115  1  0.02510810  0.32344520  0.61574140  1
  Si  Si116  1  0.64067895  0.83743758  0.88655842  1
  Si  Si117  1  0.85915641  0.58098153  0.11390167  1
  Si  Si118  1  0.02459149  0.84063773  0.61354358  1
  Si  Si119  1  0.85409527  0.91493857  0.11210773  1
  Si  Si120  1  0.80817819  0.91734656  0.38515971  1
  Si  Si121  1  0.52837039  0.58288363  0.61311456  1
  Si  Si122  1  0.35824435  0.32844444  0.11622964  1
  Si  Si123  1  0.98000257  0.66521366  0.88806601  1
  Si  Si124  1  0.14483872  0.08279215  0.89215121  1
  Si  Si125  1  0.65048139  0.82827173  0.38793376  1
  Si  Si126  1  0.35650504  0.17014375  0.61474434  1
  Si  Si127  1  0.80313158  0.41891283  0.38496980  1
  Si  Si128  1  0.85931615  0.91778202  0.61579617  1
  Si  Si129  1  0.85586510  0.41597425  0.11727972  1
  Si  Si130  1  0.31086496  0.82600062  0.88511533  1
  Si  Si131  1  0.52135307  0.08755041  0.61198133  1
  Si  Si132  1  0.14495412  0.07568897  0.39047668  1
  Si  Si133  1  0.80158297  0.08731873  0.88729689  1
  Si  Si134  1  0.18637081  0.41055058  0.61183683  1
  Si  Si135  1  0.47211976  0.91308876  0.88316736  1
  Si  Si136  1  0.30804773  0.66339336  0.87933947  1
  Si  Si137  1  0.68969839  0.83083408  0.11400532  1
  Si  Si138  1  0.64314399  0.33340698  0.38444931  1
  Si  Si139  1  0.69277732  0.66640774  0.61139738  1
  Si  Si140  1  0.97218204  0.83512713  0.38315725  1
  Si  Si141  1  0.35393168  0.82829059  0.61010868  1
  Si  Si142  1  0.69106462  0.33218573  0.61535607  1
  Si  Si143  1  0.14383104  0.42095242  0.88300613  1
  Si  Si144  1  0.85934935  0.40986819  0.61148568  1
  Si  Si145  1  0.30582066  0.67070539  0.38534705  1
  Si  Si146  1  0.14074292  0.91193207  0.38424488  1
  Si  Si147  1  0.97050563  0.33905386  0.39254102  1
  Si  Si148  1  0.36173969  0.66198711  0.61000123  1
  Si  Si149  1  0.69555072  0.83245378  0.61365395  1
  Si  Si150  1  0.02740591  0.67438193  0.60710239  1
  Si  Si151  1  0.48127827  0.08920759  0.38938584  1
  Si  Si152  1  0.19212892  0.08675468  0.11781468  1
  Si  Si153  1  0.85445399  0.08100306  0.61617742  1
  Si  Si154  1  0.68976971  0.33460383  0.11552194  1
  Si  Si155  1  0.64267908  0.17050426  0.38471909  1
  Si  Si156  1  0.63350335  0.16553500  0.88443149  1
  Si  Si157  1  0.30732365  0.83503612  0.38526915  1
  Si  Si158  1  0.14286861  0.58492857  0.88096810  1
  Si  Si159  1  0.19552236  0.41184613  0.11797820  1
  Si  Si160  1  0.47056447  0.58458528  0.88230852  1
  Si  Si161  1  0.19348581  0.08177482  0.61581181  1
  Si  Si162  1  0.52161804  0.41274544  0.11217221  1
  Si  Si163  1  0.64551997  0.66614476  0.38785283  1
  Si  Si164  1  0.02447293  0.83657128  0.11185365  1
  Si  Si165  1  0.79846174  0.92217727  0.88749165  1
  Si  Si166  1  0.80878556  0.58314438  0.38264321  1
  Si  Si167  1  0.35158192  0.84292785  0.11084212  1
  Si  Si168  1  0.02684335  0.17145720  0.11393763  1
  Si  Si169  1  0.35851434  0.16333197  0.11679073  1
  Si  Si170  1  0.02391719  0.33644672  0.11697644  1
  Si  Si171  1  0.81274493  0.40744307  0.88826773  1
  Si  Si172  1  0.63972666  0.33033308  0.88462044  1
  Si  Si173  1  0.47621782  0.40735973  0.39007376  1
  Si  Si174  1  0.19948603  0.57983637  0.10855111  1
  Si  Si175  1  0.47823439  0.42079166  0.88380868  1
  Si  Si176  1  0.47160892  0.07831616  0.88640801  1
  Si  Si177  1  0.98266647  0.33355342  0.88690166  1
  Si  Si178  1  0.69060799  0.16749863  0.61472901  1
  Si  Si179  1  0.52501879  0.41690113  0.61436140  1
  Si  Si180  1  0.97033693  0.66993672  0.38445266  1
  Si  Si181  1  0.52570250  0.08384394  0.11531617  1
  Si  Si182  1  0.30931668  0.32848245  0.39234743  1
  Si  Si183  1  0.69739622  0.66641980  0.11334344  1
  Si  Si184  1  0.19219538  0.91661146  0.61363145  1
  Si  Si185  1  0.68922732  0.16961583  0.11291001  1
  Si  Si186  1  0.35795709  0.33531051  0.61441403  1
  Si  Si187  1  0.13993957  0.59569230  0.38778083  1
  Si  Si188  1  0.31269258  0.34018327  0.88747964  1
  Si  Si189  1  0.80299210  0.08304331  0.38914567  1
  Si  Si190  1  0.31195080  0.16229480  0.38837271  1
  Si  Si191  1  0.18853149  0.92490495  0.11474214  1
  O  O192  1  0.27473646  0.11588712  0.08725192  1
  O  O193  1  0.26898786  0.12531101  0.58650250  1
  O  O194  1  0.27564738  0.60639208  0.07202562  1
  O  O195  1  0.28928066  0.60783123  0.57521405  1
  O  O196  1  0.59998577  0.12594574  0.08521862  1
  O  O197  1  0.60252603  0.12533170  0.58496721  1
  O  O198  1  0.62509564  0.61334774  0.07746496  1
  O  O199  1  0.60640925  0.61851398  0.58348696  1
  O  O200  1  0.95116289  0.12270545  0.07420412  1
  O  O201  1  0.93702206  0.11484273  0.58844683  1
  O  O202  1  0.93763724  0.60163238  0.07889839  1
  O  O203  1  0.94536468  0.62937951  0.57071269  1
  O  O204  1  0.10459388  0.37112041  0.08827039  1
  O  O205  1  0.10761359  0.35344958  0.58718245  1
  O  O206  1  0.10511152  0.87641893  0.08638604  1
  O  O207  1  0.10132826  0.88016556  0.58125309  1
  O  O208  1  0.43896081  0.35881960  0.08516805  1
  O  O209  1  0.43732135  0.37123277  0.58451591  1
  O  O210  1  0.43635973  0.88124855  0.08716245  1
  O  O211  1  0.42672159  0.86201580  0.57476768  1
  O  O212  1  0.77267552  0.36574864  0.08721830  1
  O  O213  1  0.77079928  0.36430151  0.58439979  1
  O  O214  1  0.77145543  0.86314683  0.08550235  1
  O  O215  1  0.78077705  0.86407526  0.58675099  1
  O  O216  1  0.27035523  0.37069482  0.08460932  1
  O  O217  1  0.27072755  0.37802666  0.58532221  1
  O  O218  1  0.27192000  0.89979058  0.08468485  1
  O  O219  1  0.26469434  0.87268725  0.58261796  1
  O  O220  1  0.60439072  0.37832454  0.08305376  1
  O  O221  1  0.60325728  0.37667016  0.58578974  1
  O  O222  1  0.60380965  0.87866360  0.08447662  1
  O  O223  1  0.61884265  0.88223898  0.57622419  1
  O  O224  1  0.93687424  0.38235104  0.08731331  1
  O  O225  1  0.93648961  0.36392765  0.58519096  1
  O  O226  1  0.93867521  0.88464133  0.08634285  1
  O  O227  1  0.94054523  0.88959674  0.58336906  1
  O  O228  1  0.11652538  0.14435525  0.09191536  1
  O  O229  1  0.10186308  0.11989122  0.58688774  1
  O  O230  1  0.11452240  0.62108305  0.07198694  1
  O  O231  1  0.10809149  0.65048836  0.57329294  1
  O  O232  1  0.43728985  0.12665238  0.08691019  1
  O  O233  1  0.43730765  0.13868008  0.58494758  1
  O  O234  1  0.44646343  0.64370276  0.06313503  1
  O  O235  1  0.44820205  0.63484880  0.58394438  1
  O  O236  1  0.76159698  0.13867551  0.07578582  1
  O  O237  1  0.77035817  0.13019887  0.58608184  1
  O  O238  1  0.78420305  0.63929916  0.08717341  1
  O  O239  1  0.76300446  0.63172750  0.57340989  1
  O  O240  1  0.07511436  0.11041988  0.42929025  1
  O  O241  1  0.05618317  0.09153880  0.92007822  1
  O  O242  1  0.05772238  0.62977201  0.41712458  1
  O  O243  1  0.06403521  0.61198681  0.91360632  1
  O  O244  1  0.40013112  0.12081499  0.42044660  1
  O  O245  1  0.39615349  0.10553109  0.92256595  1
  O  O246  1  0.38013846  0.61912877  0.42224426  1
  O  O247  1  0.37919802  0.60197278  0.90570606  1
  O  O248  1  0.71736637  0.11375168  0.41511143  1
  O  O249  1  0.71512399  0.11614126  0.91336033  1
  O  O250  1  0.73139814  0.61696288  0.41433870  1
  O  O251  1  0.72197516  0.60781458  0.93263974  1
  O  O252  1  0.23847600  0.36627613  0.42761805  1
  O  O253  1  0.22774173  0.37248176  0.91307130  1
  O  O254  1  0.21934676  0.85868072  0.41249134  1
  O  O255  1  0.23436306  0.84785071  0.92158546  1
  O  O256  1  0.56121653  0.35592459  0.41662934  1
  O  O257  1  0.56146348  0.37079079  0.91366184  1
  O  O258  1  0.57278596  0.85878388  0.42024905  1
  O  O259  1  0.55284710  0.86289645  0.91253660  1
  O  O260  1  0.88123771  0.36653169  0.41643622  1
  O  O261  1  0.89630248  0.35551570  0.91514470  1
  O  O262  1  0.89871094  0.87801124  0.41390304  1
  O  O263  1  0.87033972  0.86867797  0.92383892  1
  O  O264  1  0.04378808  0.39412117  0.42590803  1
  O  O265  1  0.06032197  0.39262100  0.91178156  1
  O  O266  1  0.05949633  0.87841933  0.41330814  1
  O  O267  1  0.05431937  0.89805904  0.93214636  1
  O  O268  1  0.40229170  0.36395148  0.42215873  1
  O  O269  1  0.39365842  0.39485029  0.91244504  1
  O  O270  1  0.38023469  0.88881250  0.42072209  1
  O  O271  1  0.39203281  0.88016923  0.91291731  1
  O  O272  1  0.72088349  0.38783802  0.41434403  1
  O  O273  1  0.73088132  0.36696468  0.91406612  1
  O  O274  1  0.73567332  0.87737553  0.41809028  1
  O  O275  1  0.70786825  0.90272471  0.91207914  1
  O  O276  1  0.23586041  0.11827389  0.41518616  1
  O  O277  1  0.20542287  0.15115037  0.92051103  1
  O  O278  1  0.21728031  0.65283957  0.41324525  1
  O  O279  1  0.22358115  0.63788847  0.90801203  1
  O  O280  1  0.55706213  0.14979491  0.41345255  1
  O  O281  1  0.55502613  0.12896604  0.91383138  1
  O  O282  1  0.57227545  0.63518163  0.42497527  1
  O  O283  1  0.53762986  0.64292722  0.91575098  1
  O  O284  1  0.88295943  0.12768653  0.42688183  1
  O  O285  1  0.87511642  0.14143957  0.92061933  1
  O  O286  1  0.89387764  0.62997117  0.41423005  1
  O  O287  1  0.90672362  0.63192397  0.92454245  1
  O  O288  1  0.16647228  0.00694294  0.08608802  1
  O  O289  1  0.19085321  0.00011991  0.58470759  1
  O  O290  1  0.18522400  0.49273732  0.08763234  1
  O  O291  1  0.15942831  0.48607869  0.57693999  1
  O  O292  1  0.51955214  0.00255499  0.08318868  1
  O  O293  1  0.50189992  0.01090273  0.57717607  1
  O  O294  1  0.50112559  0.48816261  0.07540110  1
  O  O295  1  0.51396582  0.49932542  0.58427735  1
  O  O296  1  0.83172943  -0.00802556  0.07734793  1
  O  O297  1  0.83771315  0.00013747  0.58376760  1
  O  O298  1  0.83168978  0.49719141  0.08956875  1
  O  O299  1  0.85172721  0.48589205  0.57398384  1
  O  O300  1  0.01199712  0.25514580  0.08517462  1
  O  O301  1  0.01232893  0.24032922  0.58758667  1
  O  O302  1  0.01012223  0.75920487  0.07709772  1
  O  O303  1  0.00954258  0.76007322  0.58239003  1
  O  O304  1  0.34487562  0.24517891  0.08716034  1
  O  O305  1  0.34425908  0.25253436  0.58559832  1
  O  O306  1  0.33097366  0.76896833  0.07101517  1
  O  O307  1  0.33765171  0.74475771  0.58364304  1
  O  O308  1  0.67091170  0.25279450  0.08646036  1
  O  O309  1  0.67738731  0.24949875  0.58456349  1
  O  O310  1  0.67511639  0.74970662  0.08425739  1
  O  O311  1  0.67816048  0.75002589  0.58391284  1
  O  O312  1  0.16189713  -0.00853026  0.41793781  1
  O  O313  1  0.19307654  0.00873966  0.91834098  1
  O  O314  1  0.16410213  0.51934520  0.42359861  1
  O  O315  1  0.16635233  0.50286777  0.90999945  1
  O  O316  1  0.51041050  0.01377868  0.42409547  1
  O  O317  1  0.49399752  -0.00500711  0.91197902  1
  O  O318  1  0.49199832  0.48455633  0.42570216  1
  O  O319  1  0.49863601  0.50263289  0.91057503  1
  O  O320  1  0.81473697  -0.00091070  0.41569714  1
  O  O321  1  0.81884538  0.00557873  0.91644472  1
  O  O322  1  0.82288756  0.50080851  0.41330336  1
  O  O323  1  0.83097413  0.48184144  0.92759333  1
  O  O324  1  0.31651773  0.24363334  0.42017292  1
  O  O325  1  0.33925790  0.26465102  0.92367159  1
  O  O326  1  0.32940462  0.75345077  0.41302752  1
  O  O327  1  0.34064984  0.74273279  0.90806084  1
  O  O328  1  0.67166104  0.25156182  0.41221106  1
  O  O329  1  0.64353503  0.24752477  0.91526900  1
  O  O330  1  0.67409540  0.74728055  0.41783165  1
  O  O331  1  0.67082337  0.76333156  0.92329077  1
  O  O332  1  0.99045148  0.26053839  0.42749962  1
  O  O333  1  1.01549765  0.25779520  0.92045289  1
  O  O334  1  0.97720447  0.75336328  0.41337772  1
  O  O335  1  1.00520203  0.74361372  0.91993681  1
  O  O336  1  0.21478462  0.07987212  0.19699425  1
  O  O337  1  0.21013266  0.08192092  0.69590114  1
  O  O338  1  0.21604943  0.59044929  0.18853438  1
  O  O339  1  0.21176107  0.58168640  0.69679802  1
  O  O340  1  0.54416247  0.08457238  0.19582519  1
  O  O341  1  0.54016723  0.08618313  0.69309447  1
  O  O342  1  0.54625335  0.58324512  0.19790999  1
  O  O343  1  0.54341466  0.58072022  0.69313012  1
  O  O344  1  0.87576982  0.08298081  0.20142009  1
  O  O345  1  0.87205408  0.08222131  0.69608030  1
  O  O346  1  0.87674259  0.58297486  0.19484770  1
  O  O347  1  0.87993613  0.58003442  0.69923640  1
  O  O348  1  0.03953806  0.33399539  0.19693129  1
  O  O349  1  0.04311203  0.32879524  0.69609411  1
  O  O350  1  0.04248426  0.83569648  0.19325413  1
  O  O351  1  0.04628302  0.84106071  0.69236153  1
  O  O352  1  0.37759622  0.33021464  0.19638836  1
  O  O353  1  0.37679079  0.33335289  0.69500028  1
  O  O354  1  0.36370901  0.83658589  0.19040015  1
  O  O355  1  0.37401228  0.83235341  0.69111350  1
  O  O356  1  0.70859984  0.33383909  0.19589083  1
  O  O357  1  0.71054430  0.32992624  0.69491379  1
  O  O358  1  0.70846873  0.83424957  0.19446135  1
  O  O359  1  0.70621106  0.83339470  0.69348861  1
  O  O360  1  0.21738326  0.40744691  0.19696155  1
  O  O361  1  0.20877423  0.41298847  0.69298479  1
  O  O362  1  0.20740671  0.92103107  0.19545404  1
  O  O363  1  0.21089153  0.91700523  0.69365894  1
  O  O364  1  0.54335851  0.40978126  0.19207953  1
  O  O365  1  0.53901836  0.41578161  0.69375494  1
  O  O366  1  0.55009621  0.92505151  0.19381678  1
  O  O367  1  0.54420284  0.91719366  0.70026627  1
  O  O368  1  0.87498700  0.41430766  0.19758627  1
  O  O369  1  0.87710132  0.41197168  0.69245910  1
  O  O370  1  0.87332713  0.91650887  0.19359194  1
  O  O371  1  0.87906710  0.92312209  0.69463716  1
  O  O372  1  0.03268474  0.16954889  0.19330006  1
  O  O373  1  0.04565026  0.16265979  0.69754113  1
  O  O374  1  0.04525840  0.66718827  0.19989696  1
  O  O375  1  0.04549900  0.66373853  0.68695853  1
  O  O376  1  0.37806312  0.16542112  0.19700905  1
  O  O377  1  0.37609975  0.16775340  0.69498926  1
  O  O378  1  0.37845739  0.66967776  0.19609357  1
  O  O379  1  0.37813665  0.66391835  0.69110427  1
  O  O380  1  0.70894166  0.16688410  0.19401732  1
  O  O381  1  0.70824652  0.16705606  0.69523741  1
  O  O382  1  0.71493399  0.67087212  0.19321675  1
  O  O383  1  0.71013943  0.66513762  0.69151129  1
  O  O384  1  0.11835026  0.07504565  0.31084386  1
  O  O385  1  0.12595012  0.08402869  0.80918635  1
  O  O386  1  0.11799869  0.59316464  0.30809959  1
  O  O387  1  0.12279968  0.58248591  0.80066768  1
  O  O388  1  0.46081167  0.08672563  0.30827984  1
  O  O389  1  0.45500615  0.08220922  0.80514194  1
  O  O390  1  0.45514478  0.58269706  0.30056566  1
  O  O391  1  0.45523424  0.58229014  0.80115945  1
  O  O392  1  0.78788997  0.08452282  0.30827941  1
  O  O393  1  0.78590995  0.08613525  0.80605415  1
  O  O394  1  0.79414192  0.58331860  0.30336696  1
  O  O395  1  0.78877561  0.58079328  0.80116130  1
  O  O396  1  0.29216662  0.33112757  0.31173985  1
  O  O397  1  0.29228125  0.33546825  0.80611121  1
  O  O398  1  0.28883919  0.83637829  0.30441354  1
  O  O399  1  0.29149483  0.83105629  0.80385146  1
  O  O400  1  0.62394167  0.33248401  0.30417829  1
  O  O401  1  0.61998559  0.32875680  0.80496853  1
  O  O402  1  0.63760938  0.83166350  0.30809889  1
  O  O403  1  0.62262135  0.83292400  0.80561354  1
  O  O404  1  0.95257169  0.33573166  0.31092207  1
  O  O405  1  0.96071625  0.33297497  0.80560565  1
  O  O406  1  0.95496648  0.83497869  0.30287798  1
  O  O407  1  0.95381746  0.83615008  0.80167904  1
  O  O408  1  0.11770318  0.41270146  0.30421956  1
  O  O409  1  0.12519107  0.41682743  0.80236432  1
  O  O410  1  0.12133287  0.91583321  0.30393274  1
  O  O411  1  0.12300806  0.91607410  0.80110226  1
  O  O412  1  0.45516050  0.40683505  0.31024082  1
  O  O413  1  0.45824644  0.41608536  0.80342131  1
  O  O414  1  0.45186672  0.92539774  0.30115881  1
  O  O415  1  0.45293299  0.91498875  0.80263263  1
  O  O416  1  0.78673619  0.41688452  0.30481391  1
  O  O417  1  0.79660445  0.41278514  0.80795339  1
  O  O418  1  0.79107871  0.91742074  0.30467762  1
  O  O419  1  0.78290478  0.92353526  0.80735571  1
  O  O420  1  0.30182863  0.16580361  0.30922526  1
  O  O421  1  0.29044094  0.16749306  0.80020043  1
  O  O422  1  0.28746060  0.66823908  0.30474089  1
  O  O423  1  0.29018051  0.66591011  0.79893267  1
  O  O424  1  0.62481418  0.16795799  0.30405351  1
  O  O425  1  0.61883860  0.16729000  0.80377235  1
  O  O426  1  0.62423192  0.66918296  0.30831890  1
  O  O427  1  0.62199633  0.66624576  0.79722833  1
  O  O428  1  0.95577183  0.16793347  0.30346472  1
  O  O429  1  0.95464273  0.16629853  0.80032342  1
  O  O430  1  0.95310097  0.66971078  0.30440538  1
  O  O431  1  0.95882097  0.66227208  0.80769842  1
  F  F432  1  0.04381412  0.00165959  0.20276446  1
  F  F433  1  0.04528173  0.00454780  0.70336335  1
  F  F434  1  0.03068416  0.49932988  0.19910009  1
  F  F435  1  0.04476286  0.49656378  0.69934219  1
  F  F436  1  0.37957164  0.00595870  0.20102692  1
  F  F437  1  0.37661720  0.00106075  0.70082288  1
  F  F438  1  0.37311462  0.49401923  0.19821561  1
  F  F439  1  0.38017121  0.49694091  0.70021297  1
  F  F440  1  0.71206789  0.00086431  0.20350831  1
  F  F441  1  0.71052383  0.00231479  0.70151215  1
  F  F442  1  0.71459170  0.49313732  0.19748128  1
  F  F443  1  0.71238515  0.49793248  0.70001283  1
  F  F444  1  0.21652967  0.25740847  0.20390748  1
  F  F445  1  0.21142991  0.25068184  0.70175224  1
  F  F446  1  0.21059253  0.75230143  0.20228050  1
  F  F447  1  0.21213659  0.75274314  0.69772805  1
  F  F448  1  0.54470543  0.24847674  0.20168728  1
  F  F449  1  0.54328210  0.24941308  0.70006929  1
  F  F450  1  0.55071820  0.74222937  0.19854592  1
  F  F451  1  0.54437748  0.75104592  0.69851220  1
  F  F452  1  0.87569593  0.25347968  0.20416341  1
  F  F453  1  0.87706018  0.25026599  0.70180206  1
  F  F454  1  0.87921416  0.75187061  0.20078903  1
  F  F455  1  0.87589779  0.74310056  0.69861834  1
  F  F456  1  0.28730686  0.00083458  0.29966518  1
  F  F457  1  0.28987417  -0.00197759  0.79658957  1
  F  F458  1  0.30122159  0.50178121  0.30276789  1
  F  F459  1  0.28843041  0.49697185  0.79534088  1
  F  F460  1  0.62414070  0.00208185  0.29935026  1
  F  F461  1  0.61828077  0.00471622  0.79739439  1
  F  F462  1  0.62525962  0.49464978  0.30305920  1
  F  F463  1  0.61993454  0.50058697  0.79850125  1
  F  F464  1  0.95396975  -0.00377815  0.29957593  1
  F  F465  1  0.95297405  0.00091876  0.79952721  1
  F  F466  1  0.95063444  0.50190478  0.29946158  1
  F  F467  1  0.95768060  0.49583701  0.79705714  1
  F  F468  1  0.11588413  0.25862388  0.30578950  1
  F  F469  1  0.12298233  0.25080898  0.79780356  1
  F  F470  1  0.12007316  0.75600988  0.29782094  1
  F  F471  1  0.12698698  0.74612666  0.79518280  1
  F  F472  1  0.45704030  0.24939619  0.29811830  1
  F  F473  1  0.45540305  0.25083364  0.79705076  1
  F  F474  1  0.45082042  0.74225919  0.30299764  1
  F  F475  1  0.45303067  0.74978446  0.79240748  1
  F  F476  1  0.78544352  0.24942371  0.29834709  1
  F  F477  1  0.78624427  0.24946612  0.79782022  1
  F  F478  1  0.79110738  0.75055138  0.29695165  1
  F  F479  1  0.78610714  0.74505255  0.79876298  1
