# generated using pymatgen
data_K24Na3Li5Mg64Fe17Si79(O5F)48
_symmetry_space_group_name_H-M   'P 1'
_cell_length_a   16.09584794
_cell_length_b   18.60344877
_cell_length_c   20.57012983
_cell_angle_alpha   89.99293285
_cell_angle_beta   100.03532059
_cell_angle_gamma   90.01279672
_symmetry_Int_Tables_number   1
_chemical_formula_structural   K24Na3Li5Mg64Fe17Si79(O5F)48
_chemical_formula_sum   'K24 Na3 Li5 Mg64 Fe17 Si79 O240 F48'
_cell_volume   6065.24725698
_cell_formula_units_Z   1
loop_
 _symmetry_equiv_pos_site_id
 _symmetry_equiv_pos_as_xyz
  1  'x, y, z'
loop_
 _atom_site_type_symbol
 _atom_site_label
 _atom_site_symmetry_multiplicity
 _atom_site_fract_x
 _atom_site_fract_y
 _atom_site_fract_z
 _atom_site_occupancy
  K  K0  1  0.01109633  -0.00049483  0.01541489  1
  K  K1  1  -0.00148633  0.00030776  0.49603334  1
  K  K2  1  -0.01820721  0.49280063  -0.00033894  1
  K  K3  1  -0.00272675  0.50128795  0.49748959  1
  K  K4  1  0.32246069  0.00013195  0.00106561  1
  K  K5  1  0.33143730  0.00325467  0.49484819  1
  K  K6  1  0.33583027  0.49572920  -0.00059057  1
  K  K7  1  0.33343091  0.50104180  0.50235886  1
  K  K8  1  0.67181248  -0.00347179  -0.00634127  1
  K  K9  1  0.66355036  0.00055526  0.50248972  1
  K  K10  1  0.66990755  0.51694791  0.00311028  1
  K  K11  1  0.66694134  0.50978611  0.49406320  1
  K  K12  1  0.16799397  0.24153671  0.00051778  1
  K  K13  1  0.16788366  0.23960680  0.49575972  1
  K  K14  1  0.15828028  0.75136971  0.00554373  1
  K  K15  1  0.17240579  0.75238633  0.49577973  1
  K  K16  1  0.48671903  0.25359844  -0.00017126  1
  K  K17  1  0.50473579  0.24207416  0.49906285  1
  K  K18  1  0.50597506  0.74382725  0.00287424  1
  K  K19  1  0.50333091  0.76208746  0.49025380  1
  K  K20  1  0.84621345  0.24915069  0.00022515  1
  K  K21  1  0.84138203  0.24438832  0.49933893  1
  K  K22  1  0.83242580  0.75782456  0.00829056  1
  K  K23  1  0.83452489  0.75566892  0.48992704  1
  Na  Na24  1  0.66912512  0.75136417  0.24808045  1
  Na  Na25  1  0.50002745  0.83189703  0.74087578  1
  Na  Na26  1  0.66606698  0.91800897  0.74158991  1
  Li  Li27  1  0.83105896  0.50411413  0.24643305  1
  Li  Li28  1  0.33204387  0.24790661  0.24998982  1
  Li  Li29  1  0.00117368  0.41347341  0.76081058  1
  Li  Li30  1  0.00334326  0.91975260  0.24477008  1
  Li  Li31  1  0.00561905  0.07232542  0.24642162  1
  Mg  Mg32  1  -0.00153206  0.25285039  0.75355829  1
  Mg  Mg33  1  0.83625784  -0.00105102  0.74441192  1
  Mg  Mg34  1  0.66701870  0.24994434  0.25235272  1
  Mg  Mg35  1  0.16892710  -0.00054407  0.74593276  1
  Mg  Mg36  1  0.66606381  0.24875215  0.74905189  1
  Mg  Mg37  1  -0.00113437  0.74936774  0.74749702  1
  Mg  Mg38  1  0.33041356  0.24911417  0.75360730  1
  Mg  Mg39  1  0.50272099  -0.00135262  0.74525414  1
  Mg  Mg40  1  0.00127921  0.24604117  0.25062642  1
  Mg  Mg41  1  0.49882814  0.00276290  0.25245403  1
  Mg  Mg42  1  0.83950157  0.00091744  0.24667816  1
  Mg  Mg43  1  0.33326344  0.75021666  0.74880050  1
  Mg  Mg44  1  0.16084042  0.00077562  0.24613891  1
  Mg  Mg45  1  0.83230549  0.49760433  0.75518439  1
  Mg  Mg46  1  0.49619236  0.49876344  0.75645313  1
  Mg  Mg47  1  0.50465237  0.50135110  0.25220022  1
  Mg  Mg48  1  0.16226502  0.49783702  0.75665707  1
  Mg  Mg49  1  0.33406027  0.75028006  0.25147703  1
  Mg  Mg50  1  0.00078404  0.75113738  0.24517492  1
  Mg  Mg51  1  0.16788040  0.49872484  0.25047060  1
  Mg  Mg52  1  0.66458693  0.75024127  0.74803667  1
  Mg  Mg53  1  0.49697615  0.66459450  0.75263026  1
  Mg  Mg54  1  0.16587824  0.16471658  0.24779521  1
  Mg  Mg55  1  0.67127171  0.41776950  0.25166998  1
  Mg  Mg56  1  0.16515328  0.16534481  0.74992130  1
  Mg  Mg57  1  0.66773478  0.08622506  0.25204093  1
  Mg  Mg58  1  -0.00296851  0.41683808  0.24876470  1
  Mg  Mg59  1  0.67280055  0.58586089  0.24943583  1
  Mg  Mg60  1  0.83519411  0.33443907  0.75432060  1
  Mg  Mg61  1  0.50481261  0.66702350  0.25111469  1
  Mg  Mg62  1  0.66854591  0.91838967  0.24806998  1
  Mg  Mg63  1  0.83406146  0.66504489  0.24797645  1
  Mg  Mg64  1  0.83585131  0.83493772  0.24209789  1
  Mg  Mg65  1  0.16651584  0.66552345  0.24794667  1
  Mg  Mg66  1  0.66455247  0.41497903  0.75428718  1
  Mg  Mg67  1  -0.00282928  0.57985341  0.75308071  1
  Mg  Mg68  1  0.49871533  0.16393152  0.74693687  1
  Mg  Mg69  1  0.83423839  0.33552984  0.25015417  1
  Mg  Mg70  1  0.49901342  0.16925895  0.25168797  1
  Mg  Mg71  1  0.83415595  0.16445060  0.74783746  1
  Mg  Mg72  1  0.83174174  0.83458285  0.74528418  1
  Mg  Mg73  1  0.33197730  0.08368650  0.74905842  1
  Mg  Mg74  1  0.16940249  0.33139425  0.25001152  1
  Mg  Mg75  1  0.33571569  0.41444616  0.25174372  1
  Mg  Mg76  1  0.16520985  0.66480168  0.75275087  1
  Mg  Mg77  1  0.50096170  0.33323881  0.25312334  1
  Mg  Mg78  1  0.33661411  0.58319468  0.25299333  1
  Mg  Mg79  1  0.33361594  0.91567478  0.74513677  1
  Mg  Mg80  1  0.49703720  0.33267264  0.75496964  1
  Mg  Mg81  1  -0.00264769  0.58162456  0.24722042  1
  Mg  Mg82  1  0.16533205  0.83614500  0.24853651  1
  Mg  Mg83  1  0.33035359  0.08766799  0.25017961  1
  Mg  Mg84  1  0.66584339  0.08290137  0.74620444  1
  Mg  Mg85  1  0.50222601  0.83479826  0.25266650  1
  Mg  Mg86  1  0.83722209  0.16544754  0.25205811  1
  Mg  Mg87  1  0.83067310  0.66509496  0.75011228  1
  Mg  Mg88  1  -0.00046381  0.08399898  0.74778265  1
  Mg  Mg89  1  0.66294160  0.58375990  0.75361211  1
  Mg  Mg90  1  -0.00137933  0.91467432  0.74389907  1
  Mg  Mg91  1  0.33102229  0.91657045  0.24923804  1
  Mg  Mg92  1  0.16760464  0.83429873  0.74369369  1
  Mg  Mg93  1  0.33062825  0.41406273  0.75792841  1
  Mg  Mg94  1  0.16383510  0.33484948  0.75885211  1
  Mg  Mg95  1  0.33257600  0.58335545  0.75391241  1
  Fe  Fe96  1  0.86139631  0.08616571  0.60733373  1
  Fe  Fe97  1  0.52839708  0.08162027  0.60667048  1
  Fe  Fe98  1  0.19039283  0.91700244  0.60506761  1
  Fe  Fe99  1  0.85794288  0.91178643  0.60273958  1
  Fe  Fe100  1  0.18972554  0.08846664  0.60993608  1
  Fe  Fe101  1  0.69334103  0.67383054  0.10511755  1
  Fe  Fe102  1  0.30859605  0.82884887  0.38817575  1
  Fe  Fe103  1  0.13798989  0.08206596  0.38727702  1
  Fe  Fe104  1  0.85730781  0.57945468  0.10920620  1
  Fe  Fe105  1  0.35934210  0.83110973  0.60488370  1
  Fe  Fe106  1  0.02104488  0.83109679  0.10777790  1
  Fe  Fe107  1  0.30374211  0.33052540  0.89626840  1
  Fe  Fe108  1  0.64359304  0.66969560  0.39227103  1
  Fe  Fe109  1  0.47524931  0.58326631  0.89359637  1
  Fe  Fe110  1  0.64563585  0.16763087  0.39096261  1
  Fe  Fe111  1  0.97382838  0.33499344  0.89402622  1
  Fe  Fe112  1  0.19287299  0.08313165  0.10719525  1
  Si  Si113  1  0.68539748  0.66212901  0.61581502  1
  Si  Si114  1  0.19432467  0.41737405  0.11582508  1
  Si  Si115  1  0.30881802  0.15889954  0.89006327  1
  Si  Si116  1  0.47675557  0.08114098  0.88523196  1
  Si  Si117  1  0.18641565  0.41517212  0.61969780  1
  Si  Si118  1  0.47564219  0.92299660  0.38667333  1
  Si  Si119  1  0.36192633  0.17074286  0.61242309  1
  Si  Si120  1  0.47831865  0.41275402  0.89368384  1
  Si  Si121  1  0.81223197  0.91742146  0.88297568  1
  Si  Si122  1  0.64347518  0.16425367  0.88506281  1
  Si  Si123  1  0.36534838  0.83043427  0.11532445  1
  Si  Si124  1  0.64323883  0.67286825  0.88867372  1
  Si  Si125  1  0.85284994  0.58118221  0.61648190  1
  Si  Si126  1  0.85567516  0.09080232  0.11311213  1
  Si  Si127  1  0.02352209  0.17113812  0.11157529  1
  Si  Si128  1  0.35364876  0.33514213  0.61869772  1
  Si  Si129  1  0.68768591  0.33672932  0.61731440  1
  Si  Si130  1  0.14077811  0.42471684  0.89616366  1
  Si  Si131  1  0.52399695  0.08573263  0.11524761  1
  Si  Si132  1  0.02818679  0.65850075  0.11006459  1
  Si  Si133  1  0.14010140  0.58151591  0.38420508  1
  Si  Si134  1  0.69412022  0.82398554  0.60970734  1
  Si  Si135  1  0.97747046  0.16333685  0.88906077  1
  Si  Si136  1  0.80906040  0.08193219  0.88459148  1
  Si  Si137  1  0.14125479  0.91120132  0.88262785  1
  Si  Si138  1  0.85483331  0.40962109  0.11297535  1
  Si  Si139  1  0.97003035  0.16998735  0.38784540  1
  Si  Si140  1  0.52915442  0.91427470  0.60509885  1
  Si  Si141  1  0.36170677  0.33567199  0.11788288  1
  Si  Si142  1  0.97816583  0.66807262  0.38326348  1
  Si  Si143  1  0.97442286  0.83120300  0.88360412  1
  Si  Si144  1  0.31012228  0.33651396  0.38606686  1
  Si  Si145  1  0.02040768  0.66009350  0.61644906  1
  Si  Si146  1  0.81355784  0.58572373  0.38861197  1
  Si  Si147  1  0.85264069  0.41799872  0.61847646  1
  Si  Si148  1  0.47792449  0.91765297  0.88283559  1
  Si  Si149  1  0.79916064  0.41680157  0.89105888  1
  Si  Si150  1  0.36310585  0.17021686  0.11318913  1
  Si  Si151  1  0.02858081  0.17598077  0.61448277  1
  Si  Si152  1  0.47865076  0.41537001  0.38729282  1
  Si  Si153  1  0.18749666  0.57852018  0.61840362  1
  Si  Si154  1  0.64621655  0.83499650  0.88254503  1
  Si  Si155  1  0.36334549  0.66450035  0.11741664  1
  Si  Si156  1  0.14204861  0.41545153  0.38566629  1
  Si  Si157  1  0.47481968  0.57989743  0.38889328  1
  Si  Si158  1  0.52111965  0.57954939  0.61784949  1
  Si  Si159  1  0.46966881  0.08949313  0.38577883  1
  Si  Si160  1  0.13915413  0.07633775  0.88413356  1
  Si  Si161  1  0.52074749  0.41590081  0.61896663  1
  Si  Si162  1  0.52767676  0.41580653  0.11705536  1
  Si  Si163  1  0.31153323  0.83504480  0.88503625  1
  Si  Si164  1  0.69671306  0.17323299  0.61199939  1
  Si  Si165  1  0.30952035  0.65814168  0.38712101  1
  Si  Si166  1  0.85445135  0.92515319  0.10695766  1
  Si  Si167  1  0.81258119  0.91815016  0.38003230  1
  Si  Si168  1  0.19635743  0.91151417  0.10718054  1
  Si  Si169  1  0.35181528  0.66031634  0.61311343  1
  Si  Si170  1  0.68990946  0.32904287  0.11583312  1
  Si  Si171  1  0.97461283  0.33434888  0.38609981  1
  Si  Si172  1  0.13936816  0.58959137  0.88876340  1
  Si  Si173  1  0.64884960  0.33808495  0.38922203  1
  Si  Si174  1  0.68833264  0.84726905  0.10811739  1
  Si  Si175  1  0.30395952  0.67014908  0.88933180  1
  Si  Si176  1  0.81174807  0.42120888  0.38478420  1
  Si  Si177  1  0.19778843  0.58287931  0.11582008  1
  Si  Si178  1  0.02028019  0.33786606  0.62117683  1
  Si  Si179  1  0.02942614  0.82419703  0.60895052  1
  Si  Si180  1  0.02671936  0.33551194  0.11538471  1
  Si  Si181  1  0.52210965  0.92262499  0.11462078  1
  Si  Si182  1  0.30448251  0.17159599  0.38531595  1
  Si  Si183  1  0.81038273  0.08036035  0.38533742  1
  Si  Si184  1  0.80453222  0.58380697  0.88645674  1
  Si  Si185  1  0.13853943  0.91260322  0.38463880  1
  Si  Si186  1  0.64378986  0.84498183  0.38588992  1
  Si  Si187  1  0.52640773  0.58072595  0.11352935  1
  Si  Si188  1  0.97026203  0.66561120  0.88555188  1
  Si  Si189  1  0.68916762  0.16569246  0.11462976  1
  Si  Si190  1  0.97147316  0.83199025  0.37884079  1
  Si  Si191  1  0.63859053  0.32844441  0.88745963  1
  O  O192  1  0.28314715  0.12712802  0.07344112  1
  O  O193  1  0.28820335  0.11714401  0.57849161  1
  O  O194  1  0.27737961  0.61932856  0.08745972  1
  O  O195  1  0.26955260  0.60544396  0.58776381  1
  O  O196  1  0.60818602  0.11321102  0.08617466  1
  O  O197  1  0.62404575  0.11923028  0.57684604  1
  O  O198  1  0.59553207  0.61596573  0.07605705  1
  O  O199  1  0.60347674  0.60982946  0.58853128  1
  O  O200  1  0.92999685  0.13383235  0.08345191  1
  O  O201  1  0.95916313  0.11996747  0.57768528  1
  O  O202  1  0.96138247  0.59670142  0.08086932  1
  O  O203  1  0.93624386  0.61049053  0.58781826  1
  O  O204  1  0.10599147  0.37486102  0.08720468  1
  O  O205  1  0.10083395  0.36988601  0.58886283  1
  O  O206  1  0.11567042  0.86412695  0.07310048  1
  O  O207  1  0.11731930  0.83638974  0.58309289  1
  O  O208  1  0.44074816  0.37134608  0.08715336  1
  O  O209  1  0.43426315  0.37065048  0.58917087  1
  O  O210  1  0.44315810  0.86868450  0.08493385  1
  O  O211  1  0.46210123  0.85116360  0.57738409  1
  O  O212  1  0.77460783  0.35292408  0.08710710  1
  O  O213  1  0.76779651  0.37077218  0.58680327  1
  O  O214  1  0.76235252  0.88792526  0.07455450  1
  O  O215  1  0.77375390  0.84119237  0.57420316  1
  O  O216  1  0.27414797  0.38013075  0.08808643  1
  O  O217  1  0.26907780  0.38444670  0.59050250  1
  O  O218  1  0.27969647  0.87233259  0.08211920  1
  O  O219  1  0.28377926  0.89963295  0.56633377  1
  O  O220  1  0.60682275  0.37925231  0.08715381  1
  O  O221  1  0.60244384  0.38511544  0.58957234  1
  O  O222  1  0.60385939  0.89914263  0.08255616  1
  O  O223  1  0.61949233  0.88287618  0.58475851  1
  O  O224  1  0.93891299  0.37765849  0.08491283  1
  O  O225  1  0.93727059  0.38899410  0.59162627  1
  O  O226  1  0.92589347  0.88827717  0.07151092  1
  O  O227  1  0.95547047  0.87647369  0.57288996  1
  O  O228  1  0.09076964  0.13161071  0.07364630  1
  O  O229  1  0.11733419  0.16795794  0.58859269  1
  O  O230  1  0.11785918  0.63261310  0.08524082  1
  O  O231  1  0.10132050  0.62430095  0.58806703  1
  O  O232  1  0.44834901  0.14116826  0.08444197  1
  O  O233  1  0.44692179  0.15479314  0.58266920  1
  O  O234  1  0.43672947  0.62347223  0.08636697  1
  O  O235  1  0.43396123  0.62181298  0.58719730  1
  O  O236  1  0.76819954  0.13581802  0.08162114  1
  O  O237  1  0.78357836  0.16196374  0.58414836  1
  O  O238  1  0.77849698  0.64107762  0.06228191  1
  O  O239  1  0.76791925  0.62838498  0.58737582  1
  O  O240  1  0.04890807  0.12383070  0.42372475  1
  O  O241  1  0.06179065  0.11251122  0.91529970  1
  O  O242  1  0.06373572  0.62079239  0.41431602  1
  O  O243  1  0.05660968  0.62165213  0.91652398  1
  O  O244  1  0.38683940  0.12055806  0.41361115  1
  O  O245  1  0.39725543  0.11313977  0.91725909  1
  O  O246  1  0.38429326  0.59848384  0.41267699  1
  O  O247  1  0.37878950  0.61849680  0.92545280  1
  O  O248  1  0.73003160  0.09914569  0.41962604  1
  O  O249  1  0.72909787  0.11772521  0.91490840  1
  O  O250  1  0.74273191  0.61645376  0.42867270  1
  O  O251  1  0.72920184  0.62475386  0.91494632  1
  O  O252  1  0.23143927  0.37450960  0.41749738  1
  O  O253  1  0.21897581  0.37599089  0.93330629  1
  O  O254  1  0.20842450  0.85261036  0.41592569  1
  O  O255  1  0.23259856  0.87362275  0.91422511  1
  O  O256  1  0.56432776  0.36982268  0.41687189  1
  O  O257  1  0.55466127  0.35221782  0.91627438  1
  O  O258  1  0.56666551  0.88408512  0.41629519  1
  O  O259  1  0.56597058  0.87294890  0.91136698  1
  O  O260  1  0.89721917  0.37404490  0.41569747  1
  O  O261  1  0.87778218  0.37038180  0.92743910  1
  O  O262  1  0.88862213  0.86157771  0.40874594  1
  O  O263  1  0.89979728  0.87306131  0.91427569  1
  O  O264  1  0.06379278  0.37764364  0.41541410  1
  O  O265  1  0.05666647  0.40410511  0.92552939  1
  O  O266  1  0.04969150  0.88453523  0.40871009  1
  O  O267  1  0.06655783  0.86825620  0.91292740  1
  O  O268  1  0.39659805  0.38290617  0.41615450  1
  O  O269  1  0.40118184  0.38492250  0.92835085  1
  O  O270  1  0.40258052  0.88702113  0.42035732  1
  O  O271  1  0.39949616  0.87953976  0.91397276  1
  O  O272  1  0.72873021  0.39385086  0.41566030  1
  O  O273  1  0.71430607  0.38467006  0.91680688  1
  O  O274  1  0.72905224  0.89488246  0.41084901  1
  O  O275  1  0.73221207  0.88223269  0.91256640  1
  O  O276  1  0.22814581  0.14535780  0.42037026  1
  O  O277  1  0.23034747  0.11395155  0.91471447  1
  O  O278  1  0.22722920  0.62353785  0.41536267  1
  O  O279  1  0.21568089  0.64641224  0.91562803  1
  O  O280  1  0.54684510  0.13976081  0.41992488  1
  O  O281  1  0.56346051  0.12832855  0.91456343  1
  O  O282  1  0.54970545  0.62991151  0.42667888  1
  O  O283  1  0.56759440  0.64377804  0.92373082  1
  O  O284  1  0.88498506  0.13872002  0.41361734  1
  O  O285  1  0.89571845  0.12534847  0.91602144  1
  O  O286  1  0.90311051  0.62991736  0.41603697  1
  O  O287  1  0.89357817  0.62564741  0.91468820  1
  O  O288  1  0.18900392  -0.01003515  0.07136681  1
  O  O289  1  0.14209124  0.00394219  0.57512292  1
  O  O290  1  0.18626007  0.50003922  0.08666347  1
  O  O291  1  0.16852257  0.49666248  0.58876076  1
  O  O292  1  0.49762902  0.00464053  0.08602395  1
  O  O293  1  0.50747608  -0.00920077  0.56587929  1
  O  O294  1  0.51127088  0.49661720  0.08670029  1
  O  O295  1  0.50473214  0.49713214  0.58832542  1
  O  O296  1  0.84472970  0.01030679  0.07994493  1
  O  O297  1  0.82563124  0.00024007  0.56604411  1
  O  O298  1  0.82855930  0.48434702  0.07618037  1
  O  O299  1  0.83486641  0.49953053  0.58649501  1
  O  O300  1  0.01516193  0.25526226  0.08284812  1
  O  O301  1  -0.00579526  0.25878867  0.59027881  1
  O  O302  1  0.00342468  0.73547172  0.07484995  1
  O  O303  1  -0.00037267  0.73956175  0.58578007  1
  O  O304  1  0.35199578  0.25478161  0.08707682  1
  O  O305  1  0.33390095  0.25544150  0.58792828  1
  O  O306  1  0.35651312  0.74680587  0.08752695  1
  O  O307  1  0.32909347  0.73463880  0.57564405  1
  O  O308  1  0.66525385  0.24762144  0.08636173  1
  O  O309  1  0.66475489  0.25689063  0.58824336  1
  O  O310  1  0.66681628  0.76974185  0.07442795  1
  O  O311  1  0.66135359  0.74101167  0.58391671  1
  O  O312  1  0.16227367  -0.01059939  0.42062517  1
  O  O313  1  0.14652376  -0.00673469  0.91244616  1
  O  O314  1  0.14913062  0.49860672  0.41463311  1
  O  O315  1  0.16424194  0.51035244  0.91974298  1
  O  O316  1  0.48720412  0.00681007  0.41195324  1
  O  O317  1  0.49354088  -0.00072112  0.91605104  1
  O  O318  1  0.49513084  0.49664107  0.41709960  1
  O  O319  1  0.51117361  0.49038316  0.92356361  1
  O  O320  1  0.84320524  -0.00166061  0.40774039  1
  O  O321  1  0.82056214  -0.00041922  0.91425118  1
  O  O322  1  0.83449025  0.50168940  0.41534077  1
  O  O323  1  0.81018738  0.50172044  0.91613647  1
  O  O324  1  0.32732683  0.25516710  0.41466757  1
  O  O325  1  0.31843666  0.23486076  0.92884269  1
  O  O326  1  0.33555952  0.73416010  0.42099570  1
  O  O327  1  0.32264387  0.75357947  0.91668380  1
  O  O328  1  0.67408410  0.26179914  0.42397692  1
  O  O329  1  0.66136820  0.24626115  0.91578503  1
  O  O330  1  0.66024056  0.76654867  0.41996721  1
  O  O331  1  0.66421191  0.75510749  0.91705085  1
  O  O332  1  0.98232473  0.25408241  0.41832644  1
  O  O333  1  0.99472370  0.23957961  0.92674642  1
  O  O334  1  0.99097848  0.75034554  0.41240109  1
  O  O335  1  0.97921836  0.74850700  0.91364890  1
  O  O336  1  0.21379513  0.08474673  0.19770778  1
  O  O337  1  0.21219355  0.08548388  0.70274535  1
  O  O338  1  0.21423108  0.58054949  0.19637678  1
  O  O339  1  0.20616890  0.58076894  0.69873968  1
  O  O340  1  0.54235727  0.08473606  0.19523867  1
  O  O341  1  0.54509793  0.08530223  0.69881797  1
  O  O342  1  0.54260755  0.58106538  0.19415546  1
  O  O343  1  0.54141004  0.57831553  0.69800928  1
  O  O344  1  0.86976867  0.08796268  0.19223311  1
  O  O345  1  0.88110242  0.08435951  0.70035121  1
  O  O346  1  0.88048990  0.58248429  0.20009719  1
  O  O347  1  0.87259888  0.58153175  0.69674969  1
  O  O348  1  0.04458292  0.33506857  0.19578925  1
  O  O349  1  0.04506211  0.33588692  0.70049342  1
  O  O350  1  0.04813035  0.82941403  0.19751328  1
  O  O351  1  0.04221921  0.82813240  0.69102087  1
  O  O352  1  0.38085808  0.33837544  0.19726344  1
  O  O353  1  0.37531314  0.33526242  0.69896139  1
  O  O354  1  0.38099886  0.83319469  0.19523414  1
  O  O355  1  0.36374520  0.83030613  0.69517454  1
  O  O356  1  0.70854597  0.33188909  0.19618373  1
  O  O357  1  0.70740904  0.33659319  0.69791049  1
  O  O358  1  0.71200575  0.84615406  0.18780729  1
  O  O359  1  0.71625218  0.82035506  0.68975055  1
  O  O360  1  0.21196954  0.41708885  0.19619799  1
  O  O361  1  0.20586579  0.41705327  0.69967769  1
  O  O362  1  0.21227584  0.91511249  0.18807473  1
  O  O363  1  0.21070912  0.91703656  0.69874503  1
  O  O364  1  0.54556877  0.41552450  0.19745138  1
  O  O365  1  0.53964353  0.41537877  0.69947692  1
  O  O366  1  0.54107585  0.92054447  0.19473507  1
  O  O367  1  0.53738747  0.92651747  0.68349043  1
  O  O368  1  0.87754156  0.41070990  0.19311363  1
  O  O369  1  0.86515292  0.41884132  0.69764053  1
  O  O370  1  0.86994315  0.92041855  0.18649125  1
  O  O371  1  0.87916638  0.91388455  0.69599776  1
  O  O372  1  0.04413286  0.17336538  0.19108580  1
  O  O373  1  0.04178339  0.17104638  0.69633653  1
  O  O374  1  0.04663571  0.66186068  0.19171955  1
  O  O375  1  0.04021164  0.66133843  0.69691094  1
  O  O376  1  0.38039699  0.16542607  0.19299550  1
  O  O377  1  0.37579226  0.17003766  0.69452161  1
  O  O378  1  0.37867850  0.66448827  0.19782474  1
  O  O379  1  0.37061945  0.66201825  0.69389448  1
  O  O380  1  0.71049859  0.16771569  0.19455694  1
  O  O381  1  0.71007257  0.17079607  0.69383095  1
  O  O382  1  0.71803629  0.65967266  0.19438806  1
  O  O383  1  0.70811235  0.66096619  0.69621662  1
  O  O384  1  0.12179315  0.08433523  0.29727303  1
  O  O385  1  0.12121039  0.08094536  0.80432664  1
  O  O386  1  0.12498262  0.58091201  0.30405409  1
  O  O387  1  0.12045657  0.58567519  0.80823476  1
  O  O388  1  0.45472222  0.08764829  0.30464264  1
  O  O389  1  0.45594181  0.08507371  0.80552742  1
  O  O390  1  0.45859630  0.58107151  0.30777412  1
  O  O391  1  0.45265054  0.58138185  0.80174971  1
  O  O392  1  0.79056510  0.08439034  0.30437615  1
  O  O393  1  0.78963493  0.08466273  0.80492382  1
  O  O394  1  0.79072320  0.58719835  0.30932015  1
  O  O395  1  0.78746323  0.58304394  0.80589904  1
  O  O396  1  0.28854865  0.33993971  0.30675954  1
  O  O397  1  0.28726957  0.33208602  0.80451486  1
  O  O398  1  0.28874970  0.83192566  0.29622138  1
  O  O399  1  0.28950864  0.83194050  0.80552554  1
  O  O400  1  0.62707329  0.33606236  0.30823293  1
  O  O401  1  0.62191984  0.33095892  0.80682206  1
  O  O402  1  0.62069834  0.84468305  0.30577524  1
  O  O403  1  0.62995428  0.82729045  0.80461069  1
  O  O404  1  0.95812211  0.33470928  0.30591080  1
  O  O405  1  0.95216917  0.33213644  0.80367749  1
  O  O406  1  0.95379371  0.82866889  0.29973133  1
  O  O407  1  0.95764426  0.82995082  0.80351739  1
  O  O408  1  0.12572212  0.41499004  0.30563693  1
  O  O409  1  0.12900167  0.41942504  0.81543787  1
  O  O410  1  0.12921885  0.91691354  0.30435497  1
  O  O411  1  0.12171450  0.91185586  0.80277662  1
  O  O412  1  0.45953686  0.41650546  0.30697576  1
  O  O413  1  0.45655001  0.41360698  0.81163123  1
  O  O414  1  0.45676577  0.91901424  0.30540658  1
  O  O415  1  0.45437224  0.92337433  0.80424346  1
  O  O416  1  0.79151032  0.41452956  0.30548586  1
  O  O417  1  0.78508076  0.41599214  0.81005446  1
  O  O418  1  0.79186876  0.91781592  0.29979612  1
  O  O419  1  0.80047143  0.91713964  0.80406219  1
  O  O420  1  0.28825404  0.17002292  0.30532450  1
  O  O421  1  0.29208615  0.16561183  0.80968016  1
  O  O422  1  0.29010862  0.66195010  0.30606928  1
  O  O423  1  0.28692889  0.66594579  0.80839590  1
  O  O424  1  0.62233717  0.16876958  0.29901351  1
  O  O425  1  0.62460988  0.16814817  0.80522858  1
  O  O426  1  0.61899252  0.65807992  0.30302744  1
  O  O427  1  0.62375905  0.66621798  0.80793195  1
  O  O428  1  0.95341664  0.17457913  0.30808092  1
  O  O429  1  0.95844741  0.16665119  0.80849876  1
  O  O430  1  0.96230235  0.66600081  0.30351890  1
  O  O431  1  0.95435903  0.66515941  0.80518209  1
  F  F432  1  0.04857664  -0.00228675  0.19012670  1
  F  F433  1  0.04593950  -0.00053062  0.70207146  1
  F  F434  1  0.04975353  0.49641503  0.20138948  1
  F  F435  1  0.04527066  0.50210786  0.70600630  1
  F  F436  1  0.38012252  0.00106485  0.20224874  1
  F  F437  1  0.37817577  0.00323365  0.70216021  1
  F  F438  1  0.38102020  0.49950800  0.20484993  1
  F  F439  1  0.37444675  0.49471437  0.70538917  1
  F  F440  1  0.71072673  0.00496164  0.20158912  1
  F  F441  1  0.71940986  0.01112017  0.69706757  1
  F  F442  1  0.70716923  0.49802384  0.20213188  1
  F  F443  1  0.70849602  0.49893025  0.70622629  1
  F  F444  1  0.20873699  0.25263653  0.20031385  1
  F  F445  1  0.20985972  0.25191862  0.70683711  1
  F  F446  1  0.21577180  0.74313774  0.19897808  1
  F  F447  1  0.20928969  0.74382868  0.70403808  1
  F  F448  1  0.54595107  0.25453490  0.20104633  1
  F  F449  1  0.54358817  0.25335342  0.70406418  1
  F  F450  1  0.53149723  0.75215627  0.19871596  1
  F  F451  1  0.54903225  0.73249434  0.69801000  1
  F  F452  1  0.87864162  0.25115251  0.20254661  1
  F  F453  1  0.87656494  0.25146707  0.70389604  1
  F  F454  1  0.88053223  0.74918418  0.19512333  1
  F  F455  1  0.87927402  0.74442783  0.70150293  1
  F  F456  1  0.28921975  -0.00052319  0.29585551  1
  F  F457  1  0.29018435  -0.00101142  0.80050693  1
  F  F458  1  0.28937181  0.49860076  0.29954869  1
  F  F459  1  0.28573340  0.50061097  0.80156664  1
  F  F460  1  0.62098937  0.00246020  0.29679766  1
  F  F461  1  0.61974262  0.00848232  0.80244723  1
  F  F462  1  0.62297361  0.49799602  0.30035834  1
  F  F463  1  0.61980002  0.49851769  0.80140779  1
  F  F464  1  0.95357653  -0.00040616  0.29353293  1
  F  F465  1  0.95937532  -0.00238471  0.79833638  1
  F  F466  1  0.96805163  0.49754578  0.30212617  1
  F  F467  1  0.94869889  0.50552989  0.80404685  1
  F  F468  1  0.12121009  0.25252669  0.29889147  1
  F  F469  1  0.12091950  0.24808806  0.80255922  1
  F  F470  1  0.12332776  0.74460207  0.29670832  1
  F  F471  1  0.11879889  0.74941989  0.79707040  1
  F  F472  1  0.46004357  0.25252055  0.30023236  1
  F  F473  1  0.45447665  0.24778556  0.79971279  1
  F  F474  1  0.45511010  0.74965057  0.30026927  1
  F  F475  1  0.44830948  0.73955779  0.80153009  1
  F  F476  1  0.78886816  0.25155088  0.29767491  1
  F  F477  1  0.78590717  0.24966782  0.79866198  1
  F  F478  1  0.80339054  0.75253997  0.29637374  1
  F  F479  1  0.78997730  0.74768654  0.79749114  1
