# generated using pymatgen
data_K24Na3Li5Mg64Fe17Si79(O5F)48
_symmetry_space_group_name_H-M   'P 1'
_cell_length_a   16.10480638
_cell_length_b   18.61243664
_cell_length_c   20.56590560
_cell_angle_alpha   90.00516018
_cell_angle_beta   100.02815141
_cell_angle_gamma   89.96057291
_symmetry_Int_Tables_number   1
_chemical_formula_structural   K24Na3Li5Mg64Fe17Si79(O5F)48
_chemical_formula_sum   'K24 Na3 Li5 Mg64 Fe17 Si79 O240 F48'
_cell_volume   6070.44117232
_cell_formula_units_Z   1
loop_
 _symmetry_equiv_pos_site_id
 _symmetry_equiv_pos_as_xyz
  1  'x, y, z'
loop_
 _atom_site_type_symbol
 _atom_site_label
 _atom_site_symmetry_multiplicity
 _atom_site_fract_x
 _atom_site_fract_y
 _atom_site_fract_z
 _atom_site_occupancy
  K  K0  1  -0.00020251  0.00888289  0.00874748  1
  K  K1  1  -0.00428808  -0.00726028  0.49550613  1
  K  K2  1  0.00631177  0.50523078  0.01220321  1
  K  K3  1  -0.00807417  0.48506418  0.48420194  1
  K  K4  1  0.33567636  -0.00793624  0.00874036  1
  K  K5  1  0.32878971  0.00671295  0.48429709  1
  K  K6  1  0.34266813  0.49105944  0.01221350  1
  K  K7  1  0.31921216  0.49570781  0.48993784  1
  K  K8  1  0.67415532  0.00112372  0.00322115  1
  K  K9  1  0.66497758  0.00573103  0.49958988  1
  K  K10  1  0.66135473  0.49578200  0.00442267  1
  K  K11  1  0.67912340  0.49276430  0.49257954  1
  K  K12  1  0.15966438  0.25372999  0.00957729  1
  K  K13  1  0.16373614  0.25925319  0.48566569  1
  K  K14  1  0.16519314  0.75628029  0.01561671  1
  K  K15  1  0.17079679  0.73989375  0.48471816  1
  K  K16  1  0.51017684  0.25171725  0.00223208  1
  K  K17  1  0.49684803  0.25024648  0.49557994  1
  K  K18  1  0.49543958  0.75089131  0.01490750  1
  K  K19  1  0.49452124  0.75175198  0.47132003  1
  K  K20  1  0.84274499  0.24738046  0.00558654  1
  K  K21  1  0.83464064  0.25564626  0.49738291  1
  K  K22  1  0.84349914  0.75077219  0.01432203  1
  K  K23  1  0.83155802  0.74303332  0.48162744  1
  Na  Na24  1  0.16430340  0.50052783  0.24306020  1
  Na  Na25  1  0.49614360  0.67355734  0.25081619  1
  Na  Na26  1  0.67212529  0.08261875  0.75298529  1
  Li  Li27  1  0.00182150  0.25559100  0.24529483  1
  Li  Li28  1  0.32890493  0.75234153  0.24526894  1
  Li  Li29  1  -0.00201258  0.41304227  0.74621465  1
  Li  Li30  1  0.82906841  0.16740092  0.75187853  1
  Li  Li31  1  0.83604436  0.83320794  0.24681083  1
  Mg  Mg32  1  0.16392674  0.49694383  0.74326571  1
  Mg  Mg33  1  0.16645800  0.00123598  0.25485980  1
  Mg  Mg34  1  0.50026085  0.49818713  0.74759703  1
  Mg  Mg35  1  0.83331951  0.50111933  0.25049625  1
  Mg  Mg36  1  0.33136472  0.75066036  0.75030750  1
  Mg  Mg37  1  -0.00078366  0.75138992  0.24840311  1
  Mg  Mg38  1  0.50144592  0.50023935  0.24497272  1
  Mg  Mg39  1  0.83106903  0.00065929  0.75355466  1
  Mg  Mg40  1  0.50031808  -0.00055186  0.75130815  1
  Mg  Mg41  1  0.83694123  0.49744182  0.74896613  1
  Mg  Mg42  1  0.66706459  0.25038048  0.24911320  1
  Mg  Mg43  1  0.83507103  -0.00172091  0.25107150  1
  Mg  Mg44  1  0.66985485  0.75179943  0.25171586  1
  Mg  Mg45  1  0.16383283  0.00157080  0.75536888  1
  Mg  Mg46  1  0.33166232  0.25120003  0.24957570  1
  Mg  Mg47  1  -0.00353687  0.25229202  0.74898516  1
  Mg  Mg48  1  0.50001476  -0.00080605  0.25182852  1
  Mg  Mg49  1  0.33341020  0.25075205  0.74628456  1
  Mg  Mg50  1  0.66624402  0.74984668  0.75185765  1
  Mg  Mg51  1  0.00016382  0.75083477  0.75208164  1
  Mg  Mg52  1  0.67131921  0.24993234  0.75032891  1
  Mg  Mg53  1  0.50336320  0.33332842  0.74754510  1
  Mg  Mg54  1  0.49998661  0.83299970  0.25538131  1
  Mg  Mg55  1  0.66926040  0.41310297  0.74949389  1
  Mg  Mg56  1  0.49750934  0.16567060  0.25004656  1
  Mg  Mg57  1  -0.00524757  0.08619661  0.75391145  1
  Mg  Mg58  1  0.33144192  0.58317445  0.74549136  1
  Mg  Mg59  1  0.33028704  0.91636633  0.75229636  1
  Mg  Mg60  1  0.00088078  0.91677875  0.75551120  1
  Mg  Mg61  1  0.49931464  0.66584013  0.74879723  1
  Mg  Mg62  1  0.83389872  0.33261006  0.74768841  1
  Mg  Mg63  1  0.49861564  0.33399919  0.24618859  1
  Mg  Mg64  1  0.16818763  0.66779710  0.24771092  1
  Mg  Mg65  1  0.16331216  0.33558872  0.74448443  1
  Mg  Mg66  1  0.83468028  0.66561576  0.74946110  1
  Mg  Mg67  1  0.16488992  0.83615029  0.75362425  1
  Mg  Mg68  1  0.66704275  0.08294707  0.25176881  1
  Mg  Mg69  1  0.00097887  0.58130870  0.74736303  1
  Mg  Mg70  1  0.16440682  0.16711668  0.75114839  1
  Mg  Mg71  1  0.16577033  0.66517286  0.74702807  1
  Mg  Mg72  1  0.83753667  0.16657432  0.25399714  1
  Mg  Mg73  1  0.66976799  0.91481502  0.24873151  1
  Mg  Mg74  1  0.83424221  0.83479415  0.75535407  1
  Mg  Mg75  1  -0.00162352  0.58558534  0.24816088  1
  Mg  Mg76  1  0.16426304  0.33514179  0.24783597  1
  Mg  Mg77  1  0.33415672  0.91363509  0.25243317  1
  Mg  Mg78  1  0.33063113  0.08537842  0.25260475  1
  Mg  Mg79  1  0.33340441  0.58551786  0.24599600  1
  Mg  Mg80  1  0.66625280  0.58504795  0.24958306  1
  Mg  Mg81  1  0.83269083  0.66872964  0.25010734  1
  Mg  Mg82  1  0.00194805  0.08740135  0.25522302  1
  Mg  Mg83  1  0.16429913  0.16847299  0.25418642  1
  Mg  Mg84  1  0.16836681  0.83372133  0.25040520  1
  Mg  Mg85  1  0.33342438  0.08472367  0.75056796  1
  Mg  Mg86  1  0.66888597  0.91613081  0.75373611  1
  Mg  Mg87  1  0.66682137  0.41591224  0.24859902  1
  Mg  Mg88  1  -0.00119403  0.91607953  0.25232847  1
  Mg  Mg89  1  -0.00205563  0.41540334  0.24782389  1
  Mg  Mg90  1  0.50462871  0.16564982  0.75160837  1
  Mg  Mg91  1  0.49944696  0.83444269  0.75180374  1
  Mg  Mg92  1  0.33129726  0.41514285  0.74469842  1
  Mg  Mg93  1  0.83658887  0.33293612  0.24966967  1
  Mg  Mg94  1  0.66767835  0.58302452  0.74937189  1
  Mg  Mg95  1  0.33432199  0.41633511  0.24512496  1
  Fe  Fe96  1  0.13845561  0.91980330  0.89477351  1
  Fe  Fe97  1  0.30600699  0.17399394  0.39252200  1
  Fe  Fe98  1  0.31288034  0.82631389  0.39009873  1
  Fe  Fe99  1  0.80801608  0.58396075  0.38984392  1
  Fe  Fe100  1  0.64353758  0.33126528  0.89062528  1
  Fe  Fe101  1  0.80858130  0.91453002  0.89426249  1
  Fe  Fe102  1  0.36009808  0.83208129  0.11274499  1
  Fe  Fe103  1  0.52901754  0.41530669  0.10660917  1
  Fe  Fe104  1  0.02581444  0.17120090  0.11392192  1
  Fe  Fe105  1  0.02441302  0.66679239  0.10876674  1
  Fe  Fe106  1  0.35759611  0.32496325  0.10584700  1
  Fe  Fe107  1  0.69336474  0.33289710  0.60632023  1
  Fe  Fe108  1  0.85601697  0.41925493  0.11071754  1
  Fe  Fe109  1  0.97640313  0.32425325  0.38834326  1
  Fe  Fe110  1  0.13962279  0.07983877  0.39640284  1
  Fe  Fe111  1  0.19077372  0.41458685  0.60393298  1
  Fe  Fe112  1  0.85776140  0.91843479  0.11339681  1
  Si  Si113  1  0.47524137  0.08103177  0.88642252  1
  Si  Si114  1  0.36011113  0.16337389  0.61484332  1
  Si  Si115  1  0.48081271  0.92029117  0.39009073  1
  Si  Si116  1  0.18963078  0.08555248  0.61694021  1
  Si  Si117  1  0.35713153  0.67120648  0.61320206  1
  Si  Si118  1  0.19092081  0.91960138  0.61654202  1
  Si  Si119  1  0.69139311  0.83043075  0.61621170  1
  Si  Si120  1  0.64306900  0.83471851  0.38705138  1
  Si  Si121  1  0.30497249  0.82883896  0.88736402  1
  Si  Si122  1  0.01941296  0.16318385  0.61603922  1
  Si  Si123  1  0.52373116  0.07929838  0.61582043  1
  Si  Si124  1  0.02407424  0.32733932  0.61224439  1
  Si  Si125  1  0.35670423  0.83649786  0.61566527  1
  Si  Si126  1  0.81163121  0.42221760  0.88699626  1
  Si  Si127  1  0.85283127  0.08644828  0.11496955  1
  Si  Si128  1  0.47826244  0.41850211  0.38287065  1
  Si  Si129  1  0.02448902  0.67158899  0.61377908  1
  Si  Si130  1  0.80147447  0.07999824  0.38836412  1
  Si  Si131  1  0.97455416  0.33773562  0.88279187  1
  Si  Si132  1  0.63892518  0.16587927  0.38533245  1
  Si  Si133  1  0.47698253  0.57829592  0.38178596  1
  Si  Si134  1  0.14092651  0.41554852  0.88049867  1
  Si  Si135  1  0.19292649  0.92032942  0.11675146  1
  Si  Si136  1  0.81138328  0.58725051  0.88412498  1
  Si  Si137  1  0.69078796  0.66488181  0.61385629  1
  Si  Si138  1  0.68653926  0.67154508  0.11450108  1
  Si  Si139  1  0.52577427  0.58398078  0.11066406  1
  Si  Si140  1  0.19598071  0.41576497  0.10943171  1
  Si  Si141  1  0.31130578  0.34396847  0.38589344  1
  Si  Si142  1  0.52756817  0.08190510  0.11632095  1
  Si  Si143  1  0.97664844  0.17319580  0.88625140  1
  Si  Si144  1  0.85580176  0.07858825  0.61691504  1
  Si  Si145  1  0.97221153  0.82687109  0.89007991  1
  Si  Si146  1  0.96781327  0.15546090  0.39534026  1
  Si  Si147  1  0.02443010  0.83618075  0.61593027  1
  Si  Si148  1  0.02705105  0.34195420  0.10838892  1
  Si  Si149  1  0.46908821  0.41645676  0.88270237  1
  Si  Si150  1  0.64135412  0.66582971  0.88481526  1
  Si  Si151  1  0.80660714  0.91585782  0.38652212  1
  Si  Si152  1  0.69274976  0.83310911  0.11515892  1
  Si  Si153  1  0.84862257  0.58724598  0.11015912  1
  Si  Si154  1  0.18936013  0.58787475  0.60891771  1
  Si  Si155  1  0.35745163  0.15698309  0.11281316  1
  Si  Si156  1  0.52146062  0.58593193  0.61300523  1
  Si  Si157  1  0.81720609  0.08417319  0.88912742  1
  Si  Si158  1  0.35651308  0.66443983  0.11075604  1
  Si  Si159  1  0.14425919  0.57970294  0.88188793  1
  Si  Si160  1  0.14512899  0.09184725  0.89025587  1
  Si  Si161  1  0.63982089  0.66848091  0.38750490  1
  Si  Si162  1  0.19630906  0.58412483  0.10921903  1
  Si  Si163  1  0.30930492  0.66384548  0.88262494  1
  Si  Si164  1  0.36521828  0.33055910  0.61001245  1
  Si  Si165  1  0.31201282  0.65599279  0.38641575  1
  Si  Si166  1  0.64446208  0.16314193  0.88970868  1
  Si  Si167  1  0.68984693  0.16759179  0.11863883  1
  Si  Si168  1  0.30539511  0.33491166  0.88090083  1
  Si  Si169  1  0.53057094  0.91733102  0.11464145  1
  Si  Si170  1  0.86351198  0.41891642  0.61158692  1
  Si  Si171  1  0.02786539  0.83915886  0.11302707  1
  Si  Si172  1  0.80380418  0.41157112  0.38905760  1
  Si  Si173  1  0.46763059  0.91455637  0.88550425  1
  Si  Si174  1  0.52614492  0.42105105  0.61027874  1
  Si  Si175  1  0.19311409  0.08157382  0.11585747  1
  Si  Si176  1  0.97427172  0.83500784  0.38540245  1
  Si  Si177  1  0.31234290  0.17101707  0.88481786  1
  Si  Si178  1  0.63735189  0.32992106  0.38380800  1
  Si  Si179  1  0.97834461  0.66977317  0.38878184  1
  Si  Si180  1  0.47573753  0.08461335  0.38869763  1
  Si  Si181  1  0.86037355  0.58550593  0.61352291  1
  Si  Si182  1  0.98044607  0.66395437  0.88322389  1
  Si  Si183  1  0.68966905  0.16478434  0.61233919  1
  Si  Si184  1  0.47499236  0.58176980  0.88200075  1
  Si  Si185  1  0.13850625  0.41842689  0.38431532  1
  Si  Si186  1  0.69805072  0.32933054  0.11399311  1
  Si  Si187  1  0.14022578  0.58553539  0.38345669  1
  Si  Si188  1  0.85737623  0.91453558  0.61708381  1
  Si  Si189  1  0.52566544  0.91405867  0.61583942  1
  Si  Si190  1  0.14314392  0.90997550  0.39160376  1
  Si  Si191  1  0.63379064  0.83217398  0.88830327  1
  O  O192  1  0.28454972  0.09512858  0.09011551  1
  O  O193  1  0.26916203  0.12291813  0.58937014  1
  O  O194  1  0.28141105  0.60677335  0.07795660  1
  O  O195  1  0.26963649  0.62935481  0.58309752  1
  O  O196  1  0.60921331  0.11515559  0.08840071  1
  O  O197  1  0.60276897  0.11454971  0.58687975  1
  O  O198  1  0.60585751  0.62174790  0.08164329  1
  O  O199  1  0.60288765  0.62110166  0.58514808  1
  O  O200  1  0.93086263  0.11344904  0.08084092  1
  O  O201  1  0.93623709  0.11354529  0.58733225  1
  O  O202  1  0.92598305  0.61401684  0.07427730  1
  O  O203  1  0.93493252  0.63088763  0.58558904  1
  O  O204  1  0.11122831  0.36957866  0.07836923  1
  O  O205  1  0.10138838  0.35129979  0.57642329  1
  O  O206  1  0.11636854  0.86458684  0.08881580  1
  O  O207  1  0.10255479  0.87642334  0.58807584  1
  O  O208  1  0.44595050  0.35376233  0.06528644  1
  O  O209  1  0.44736874  0.36582861  0.58381647  1
  O  O210  1  0.45262324  0.87021748  0.07700935  1
  O  O211  1  0.43660961  0.87207340  0.58755516  1
  O  O212  1  0.78402705  0.34042502  0.08447770  1
  O  O213  1  0.78172866  0.37783691  0.57220067  1
  O  O214  1  0.77182831  0.85220333  0.07978561  1
  O  O215  1  0.77065887  0.86850185  0.58836822  1
  O  O216  1  0.26893523  0.38752663  0.07012542  1
  O  O217  1  0.28419931  0.37418110  0.57328616  1
  O  O218  1  0.27205495  0.89749360  0.08230739  1
  O  O219  1  0.26994125  0.88166227  0.58800762  1
  O  O220  1  0.62897460  0.38650434  0.07851715  1
  O  O221  1  0.60373573  0.39808163  0.57532514  1
  O  O222  1  0.61568063  0.89032973  0.08695322  1
  O  O223  1  0.60325108  0.87384516  0.58698954  1
  O  O224  1  0.95367110  0.39865478  0.07678644  1
  O  O225  1  0.94547268  0.38267656  0.58573175  1
  O  O226  1  0.95679063  0.89712445  0.08081789  1
  O  O227  1  0.93635734  0.87870960  0.58611584  1
  O  O228  1  0.12294060  0.13764108  0.08061229  1
  O  O229  1  0.10180343  0.12847293  0.58860369  1
  O  O230  1  0.11647758  0.63076012  0.07157748  1
  O  O231  1  0.10445755  0.63818523  0.58442723  1
  O  O232  1  0.44319852  0.12788744  0.08519673  1
  O  O233  1  0.43372897  0.11946359  0.58450893  1
  O  O234  1  0.44397944  0.63689371  0.08508339  1
  O  O235  1  0.43815719  0.63628929  0.58562403  1
  O  O236  1  0.77262114  0.14312964  0.08897577  1
  O  O237  1  0.76745005  0.11930163  0.58555280  1
  O  O238  1  0.76960426  0.64556254  0.08486288  1
  O  O239  1  0.76941863  0.62625861  0.58587851  1
  O  O240  1  0.03822707  0.09716235  0.42749402  1
  O  O241  1  0.06553848  0.13084754  0.91731463  1
  O  O242  1  0.07081782  0.63163616  0.41752363  1
  O  O243  1  0.06153503  0.61112678  0.90973376  1
  O  O244  1  0.40188868  0.11474466  0.42457743  1
  O  O245  1  0.39692465  0.12232437  0.91386427  1
  O  O246  1  0.39468054  0.60307387  0.41419790  1
  O  O247  1  0.39512867  0.61759622  0.91035382  1
  O  O248  1  0.71886658  0.11380069  0.41572583  1
  O  O249  1  0.73039186  0.11484919  0.91383658  1
  O  O250  1  0.72137782  0.62775535  0.42908750  1
  O  O251  1  0.73021410  0.62330611  0.91208635  1
  O  O252  1  0.23410180  0.38618029  0.41337914  1
  O  O253  1  0.22217245  0.36344927  0.90933356  1
  O  O254  1  0.21511928  0.85232283  0.42343894  1
  O  O255  1  0.22782045  0.85381748  0.92155539  1
  O  O256  1  0.55516412  0.36182648  0.41252442  1
  O  O257  1  0.54491061  0.36715151  0.91829098  1
  O  O258  1  0.57073740  0.87761939  0.41909149  1
  O  O259  1  0.54702595  0.86173515  0.91304190  1
  O  O260  1  0.88232317  0.36143679  0.42176363  1
  O  O261  1  0.89906385  0.37700471  0.91379283  1
  O  O262  1  0.89418314  0.87175438  0.41524213  1
  O  O263  1  0.88441482  0.83754624  0.91686389  1
  O  O264  1  0.07314035  0.37901842  0.42419849  1
  O  O265  1  0.06103545  0.38398035  0.91099722  1
  O  O266  1  0.05526846  0.88371729  0.41865262  1
  O  O267  1  0.04261233  0.88401462  0.92352852  1
  O  O268  1  0.39468705  0.39582981  0.41321213  1
  O  O269  1  0.38093913  0.39185328  0.90745190  1
  O  O270  1  0.40793883  0.88627232  0.42563880  1
  O  O271  1  0.38715119  0.88077831  0.91382417  1
  O  O272  1  0.71851831  0.37805851  0.41517978  1
  O  O273  1  0.73563361  0.39272139  0.92121209  1
  O  O274  1  0.73355029  0.87344000  0.41947249  1
  O  O275  1  0.70883026  0.88270183  0.92279443  1
  O  O276  1  0.22416297  0.14092669  0.43756773  1
  O  O277  1  0.23021129  0.14268249  0.91421275  1
  O  O278  1  0.23300618  0.61869193  0.41725438  1
  O  O279  1  0.22872633  0.62836522  0.91026789  1
  O  O280  1  0.56009778  0.13426981  0.41680212  1
  O  O281  1  0.56532827  0.11841323  0.91657067  1
  O  O282  1  0.55445982  0.63402512  0.41128217  1
  O  O283  1  0.56252919  0.62532181  0.91126064  1
  O  O284  1  0.87998773  0.12903157  0.42323108  1
  O  O285  1  0.89798302  0.13906111  0.91725412  1
  O  O286  1  0.90913717  0.63247359  0.42649059  1
  O  O287  1  0.89619667  0.63558643  0.91093746  1
  O  O288  1  0.16217543  0.00084534  0.08852132  1
  O  O289  1  0.17999186  0.00225177  0.58874497  1
  O  O290  1  0.17568508  0.49999093  0.08558141  1
  O  O291  1  0.17588899  0.51125595  0.57312608  1
  O  O292  1  0.51442493  0.00082145  0.08584626  1
  O  O293  1  0.51675958  -0.00406583  0.58645893  1
  O  O294  1  0.50655643  0.50904467  0.07073999  1
  O  O295  1  0.49920104  0.50492132  0.58493348  1
  O  O296  1  0.81792304  0.00974791  0.08393695  1
  O  O297  1  0.84431163  -0.00441318  0.58592797  1
  O  O298  1  0.81379445  0.51001166  0.07948093  1
  O  O299  1  0.85862705  0.50432071  0.58429039  1
  O  O300  1  0.00420048  0.26283359  0.07583616  1
  O  O301  1  -0.00212580  0.24393704  0.58660089  1
  O  O302  1  0.00508825  0.76152357  0.07777440  1
  O  O303  1  0.01409178  0.75454581  0.58560891  1
  O  O304  1  0.32691370  0.23037305  0.07461459  1
  O  O305  1  0.35862602  0.24524280  0.58583692  1
  O  O306  1  0.33438170  0.74121838  0.07313705  1
  O  O307  1  0.34487544  0.75436807  0.58659279  1
  O  O308  1  0.66067788  0.24751308  0.09146809  1
  O  O309  1  0.67426988  0.23899697  0.57030136  1
  O  O310  1  0.65962162  0.75262410  0.08653882  1
  O  O311  1  0.68133131  0.74803889  0.58570332  1
  O  O312  1  0.16948538  -0.01378170  0.42765185  1
  O  O313  1  0.16573876  0.01438957  0.92470572  1
  O  O314  1  0.14188363  0.50292012  0.41136870  1
  O  O315  1  0.16141417  0.49775089  0.91033822  1
  O  O316  1  0.50166670  0.00324762  0.41782613  1
  O  O317  1  0.47990223  -0.00273331  0.91407863  1
  O  O318  1  0.50712579  0.49838278  0.41379176  1
  O  O319  1  0.48619458  0.50008900  0.90957796  1
  O  O320  1  0.81420855  -0.00238259  0.41971162  1
  O  O321  1  0.83925385  0.00729617  0.92622233  1
  O  O322  1  0.81707440  0.49031129  0.42404562  1
  O  O323  1  0.82998407  0.50656979  0.91328191  1
  O  O324  1  0.33179548  0.26868996  0.42466014  1
  O  O325  1  0.33152596  0.25408180  0.91050940  1
  O  O326  1  0.33243931  0.73177030  0.42504627  1
  O  O327  1  0.32991208  0.74522268  0.91060761  1
  O  O328  1  0.65540015  0.24794305  0.41378925  1
  O  O329  1  0.65649034  0.23862096  0.92922881  1
  O  O330  1  0.64589731  0.75275291  0.41702328  1
  O  O331  1  0.64653379  0.74754282  0.91415603  1
  O  O332  1  0.99185172  0.23341255  0.42879190  1
  O  O333  1  0.98888114  0.25636966  0.91451810  1
  O  O334  1  0.98774090  0.75379625  0.41790539  1
  O  O335  1  1.00679931  0.74382460  0.91163853  1
  O  O336  1  0.21049428  0.08266502  0.19642793  1
  O  O337  1  0.20881203  0.08372888  0.69775844  1
  O  O338  1  0.21353904  0.59215674  0.18855506  1
  O  O339  1  0.20980698  0.58637403  0.69016065  1
  O  O340  1  0.54351505  0.08275210  0.19687154  1
  O  O341  1  0.53374300  0.07997530  0.69523730  1
  O  O342  1  0.54877293  0.57741851  0.19014135  1
  O  O343  1  0.54224360  0.58596212  0.69381052  1
  O  O344  1  0.87346282  0.08474046  0.19651392  1
  O  O345  1  0.87710209  0.07681686  0.69618774  1
  O  O346  1  0.87243726  0.58743576  0.19133957  1
  O  O347  1  0.87679895  0.58615070  0.69392630  1
  O  O348  1  0.04690437  0.34098262  0.18880162  1
  O  O349  1  0.04532475  0.32801764  0.69236174  1
  O  O350  1  0.04321800  0.83637039  0.19440181  1
  O  O351  1  0.04226259  0.83369021  0.69626569  1
  O  O352  1  0.37950233  0.32988061  0.19817391  1
  O  O353  1  0.37856129  0.33275681  0.69134336  1
  O  O354  1  0.38410386  0.83646180  0.20261354  1
  O  O355  1  0.37487420  0.83441491  0.69644795  1
  O  O356  1  0.71076399  0.33171043  0.19550469  1
  O  O357  1  0.71284911  0.33526882  0.69775718  1
  O  O358  1  0.70917311  0.83414951  0.19522162  1
  O  O359  1  0.70778529  0.82900052  0.69637890  1
  O  O360  1  0.21728127  0.40803145  0.18889408  1
  O  O361  1  0.21227602  0.41671248  0.69599997  1
  O  O362  1  0.21051445  0.92054086  0.19747352  1
  O  O363  1  0.20995972  0.91749095  0.69696607  1
  O  O364  1  0.54637086  0.41455052  0.19878066  1
  O  O365  1  0.54299045  0.42042933  0.69148970  1
  O  O366  1  0.54523387  0.91935458  0.19544746  1
  O  O367  1  0.54223269  0.91338055  0.69626692  1
  O  O368  1  0.87401216  0.41885435  0.20205610  1
  O  O369  1  0.87309506  0.41899855  0.69160799  1
  O  O370  1  0.87926211  0.91855177  0.20345017  1
  O  O371  1  0.87919364  0.91291213  0.69703744  1
  O  O372  1  0.04425179  0.16794945  0.20409821  1
  O  O373  1  0.04145618  0.16390911  0.69652945  1
  O  O374  1  0.04328976  0.66802304  0.19979478  1
  O  O375  1  0.04302139  0.66942931  0.69435288  1
  O  O376  1  0.37878157  0.16326831  0.19354282  1
  O  O377  1  0.37759873  0.16429751  0.69553492  1
  O  O378  1  0.36783479  0.66682142  0.18967828  1
  O  O379  1  0.37553481  0.66873372  0.69399982  1
  O  O380  1  0.70813486  0.16452144  0.19906324  1
  O  O381  1  0.70832171  0.17355400  0.69093643  1
  O  O382  1  0.70601269  0.66934811  0.19452617  1
  O  O383  1  0.70834820  0.66595523  0.69445936  1
  O  O384  1  0.12518846  0.08319714  0.30486054  1
  O  O385  1  0.12517653  0.08700616  0.80885954  1
  O  O386  1  0.11982658  0.59101806  0.30487299  1
  O  O387  1  0.12599868  0.58287458  0.80128096  1
  O  O388  1  0.45832209  0.08457243  0.30782330  1
  O  O389  1  0.45581917  0.08183788  0.80581484  1
  O  O390  1  0.45566278  0.57550517  0.30294955  1
  O  O391  1  0.45615935  0.58419071  0.80119916  1
  O  O392  1  0.78651739  0.08092674  0.30828350  1
  O  O393  1  0.80332386  0.08047183  0.81001098  1
  O  O394  1  0.78854949  0.58454551  0.29881648  1
  O  O395  1  0.79037210  0.58624679  0.80336982  1
  O  O396  1  0.29250319  0.33720321  0.30578480  1
  O  O397  1  0.28930580  0.33211818  0.80041123  1
  O  O398  1  0.28708066  0.83542573  0.30119498  1
  O  O399  1  0.28858351  0.83189397  0.80575973  1
  O  O400  1  0.62173664  0.32948639  0.30385108  1
  O  O401  1  0.62044755  0.33440787  0.79860315  1
  O  O402  1  0.62792708  0.83743589  0.30749938  1
  O  O403  1  0.61969068  0.83019696  0.80676750  1
  O  O404  1  0.95576573  0.33221914  0.29899076  1
  O  O405  1  0.95537523  0.33428297  0.80321112  1
  O  O406  1  0.96116798  0.83268274  0.30648464  1
  O  O407  1  0.95792721  0.83050695  0.80768141  1
  O  O408  1  0.11781677  0.41221709  0.30510127  1
  O  O409  1  0.12523504  0.41768808  0.80089498  1
  O  O410  1  0.12401487  0.91481363  0.31034214  1
  O  O411  1  0.12231236  0.91733195  0.80200439  1
  O  O412  1  0.46011538  0.41657412  0.30319323  1
  O  O413  1  0.45412246  0.41719992  0.80122717  1
  O  O414  1  0.46188801  0.92095913  0.30977639  1
  O  O415  1  0.45184154  0.91526312  0.80468239  1
  O  O416  1  0.78590570  0.41429168  0.30820123  1
  O  O417  1  0.79203674  0.42127749  0.80595588  1
  O  O418  1  0.78556530  0.92122500  0.30785621  1
  O  O419  1  0.78820298  0.91475623  0.80173013  1
  O  O420  1  0.29061735  0.16880405  0.30071948  1
  O  O421  1  0.29254194  0.16744713  0.80410882  1
  O  O422  1  0.28970417  0.66002164  0.30699261  1
  O  O423  1  0.28992176  0.66500482  0.80164169  1
  O  O424  1  0.62182526  0.16520812  0.30520898  1
  O  O425  1  0.61911310  0.17214145  0.81017914  1
  O  O426  1  0.63374777  0.66795087  0.30861273  1
  O  O427  1  0.62259678  0.66578720  0.80377856  1
  O  O428  1  0.94864305  0.15591785  0.31522193  1
  O  O429  1  0.96302779  0.17014262  0.80665614  1
  O  O430  1  0.95598035  0.66818341  0.30865731  1
  O  O431  1  0.95921211  0.66487499  0.80238929  1
  F  F432  1  0.04520848  -0.00020521  0.20714356  1
  F  F433  1  0.04431761  0.00226721  0.70422032  1
  F  F434  1  0.02913256  0.50200028  0.19811904  1
  F  F435  1  0.04738218  0.50856934  0.69472432  1
  F  F436  1  0.38039871  0.00134263  0.20639420  1
  F  F437  1  0.37622792  -0.00162754  0.70322053  1
  F  F438  1  0.38104597  0.49885448  0.19560533  1
  F  F439  1  0.37914944  0.50186233  0.69843530  1
  F  F440  1  0.71090105  0.00137019  0.20340223  1
  F  F441  1  0.71356631  -0.01170680  0.69683453  1
  F  F442  1  0.71095256  0.49882360  0.20260336  1
  F  F443  1  0.71279763  0.50278040  0.70215718  1
  F  F444  1  0.21142140  0.25083214  0.20144609  1
  F  F445  1  0.21233614  0.24670415  0.70021317  1
  F  F446  1  0.20470998  0.75192461  0.19956707  1
  F  F447  1  0.21094293  0.75218645  0.70143053  1
  F  F448  1  0.54563243  0.24635540  0.20182464  1
  F  F449  1  0.54268713  0.24702279  0.69989681  1
  F  F450  1  0.55254095  0.76184911  0.20248002  1
  F  F451  1  0.54358941  0.75011381  0.70198133  1
  F  F452  1  0.87160714  0.24605073  0.20325202  1
  F  F453  1  0.88099763  0.25337763  0.69918059  1
  F  F454  1  0.87998220  0.74719333  0.20190025  1
  F  F455  1  0.87814960  0.75072165  0.70293201  1
  F  F456  1  0.29056120  0.00069521  0.30113905  1
  F  F457  1  0.28836501  0.00131594  0.79963732  1
  F  F458  1  0.29912625  0.49936681  0.29449315  1
  F  F459  1  0.28847917  0.50267970  0.79399176  1
  F  F460  1  0.62173926  0.00026575  0.29925315  1
  F  F461  1  0.61347037  -0.01130347  0.80268370  1
  F  F462  1  0.62270343  0.50084995  0.29880270  1
  F  F463  1  0.62009213  0.50243115  0.79623057  1
  F  F464  1  0.95464439  0.00047082  0.30228674  1
  F  F465  1  0.95652118  -0.00102708  0.80015400  1
  F  F466  1  0.95365375  0.50533858  0.30100164  1
  F  F467  1  0.95458561  0.50540149  0.79672015  1
  F  F468  1  0.13121090  0.25472333  0.30218546  1
  F  F469  1  0.12291307  0.25153834  0.79638584  1
  F  F470  1  0.12118726  0.75218869  0.29906921  1
  F  F471  1  0.12300255  0.74789292  0.79703282  1
  F  F472  1  0.45726501  0.24819489  0.29874835  1
  F  F473  1  0.45258395  0.25004768  0.79536268  1
  F  F474  1  0.47015040  0.76374143  0.31929891  1
  F  F475  1  0.45327347  0.74886447  0.79728201  1
  F  F476  1  0.78482835  0.24820393  0.30056846  1
  F  F477  1  0.78897726  0.25452890  0.80075436  1
  F  F478  1  0.78802866  0.74821261  0.30158354  1
  F  F479  1  0.78682363  0.74645092  0.79742459  1
