# generated using pymatgen
data_K24Na3Li5Mg64Fe17Si79(O5F)48
_symmetry_space_group_name_H-M   'P 1'
_cell_length_a   16.09037945
_cell_length_b   18.58634751
_cell_length_c   20.54913175
_cell_angle_alpha   89.98341066
_cell_angle_beta   100.00057536
_cell_angle_gamma   90.04527188
_symmetry_Int_Tables_number   1
_chemical_formula_structural   K24Na3Li5Mg64Fe17Si79(O5F)48
_chemical_formula_sum   'K24 Na3 Li5 Mg64 Fe17 Si79 O240 F48'
_cell_volume   6052.07588407
_cell_formula_units_Z   1
loop_
 _symmetry_equiv_pos_site_id
 _symmetry_equiv_pos_as_xyz
  1  'x, y, z'
loop_
 _atom_site_type_symbol
 _atom_site_label
 _atom_site_symmetry_multiplicity
 _atom_site_fract_x
 _atom_site_fract_y
 _atom_site_fract_z
 _atom_site_occupancy
  K  K0  1  0.00023341  0.00774500  -0.01055923  1
  K  K1  1  -0.01387796  -0.00827731  0.50407772  1
  K  K2  1  -0.00628451  0.49477125  0.00671530  1
  K  K3  1  -0.01039969  0.49072945  0.49118657  1
  K  K4  1  0.32652253  0.00758614  -0.00631025  1
  K  K5  1  0.34352597  -0.00630698  0.51247151  1
  K  K6  1  0.34294587  0.50027728  0.00739874  1
  K  K7  1  0.33640753  0.49832976  0.49509204  1
  K  K8  1  0.66898101  0.00456342  0.00060996  1
  K  K9  1  0.66434716  0.00445262  0.50283335  1
  K  K10  1  0.67493127  0.49662660  0.00962294  1
  K  K11  1  0.66332819  0.50331134  0.48850683  1
  K  K12  1  0.16578685  0.24751513  -0.00419152  1
  K  K13  1  0.15541924  0.25044535  0.50539967  1
  K  K14  1  0.17386288  0.74233690  -0.00139122  1
  K  K15  1  0.16135916  0.75630557  0.49987671  1
  K  K16  1  0.50019039  0.24853393  0.00346324  1
  K  K17  1  0.51189540  0.25045696  0.50109682  1
  K  K18  1  0.49812578  0.75525186  0.00337063  1
  K  K19  1  0.50689317  0.75766716  0.49610660  1
  K  K20  1  0.83045324  0.25049117  -0.00056852  1
  K  K21  1  0.83828278  0.25007475  0.49931579  1
  K  K22  1  0.83040780  0.75241308  0.00755876  1
  K  K23  1  0.83527061  0.74722672  0.49237070  1
  Na  Na24  1  0.67061433  0.25049957  0.74868746  1
  Na  Na25  1  0.66777406  0.92015792  0.25454171  1
  Na  Na26  1  0.83118572  0.32773653  0.74527347  1
  Li  Li27  1  0.67909319  0.25428010  0.24403650  1
  Li  Li28  1  0.50342473  -0.00310817  0.75500895  1
  Li  Li29  1  0.83074619  0.33607189  0.24507205  1
  Li  Li30  1  0.83156972  0.66452777  0.25380592  1
  Li  Li31  1  -0.00824101  0.41522636  0.24684551  1
  Mg  Mg32  1  -0.00008479  0.24734340  0.74641627  1
  Mg  Mg33  1  0.33399616  0.24809740  0.75311404  1
  Mg  Mg34  1  0.33632378  0.25162362  0.24774093  1
  Mg  Mg35  1  -0.00523808  0.74786784  0.25531295  1
  Mg  Mg36  1  0.00025368  0.75003059  0.74813223  1
  Mg  Mg37  1  0.33272983  0.75165736  0.75387765  1
  Mg  Mg38  1  0.16574116  0.00005841  0.25400334  1
  Mg  Mg39  1  0.66450588  0.75142494  0.74849767  1
  Mg  Mg40  1  0.50074189  0.00106749  0.24919494  1
  Mg  Mg41  1  0.83497908  0.49876685  0.25089619  1
  Mg  Mg42  1  0.33233843  0.74821480  0.25180585  1
  Mg  Mg43  1  0.16744900  -0.00003285  0.75421955  1
  Mg  Mg44  1  0.16310861  0.49803248  0.24868200  1
  Mg  Mg45  1  0.83240701  0.00265998  0.24919370  1
  Mg  Mg46  1  0.83180004  0.49822556  0.74503686  1
  Mg  Mg47  1  0.66843590  0.74990215  0.25552591  1
  Mg  Mg48  1  0.50140800  0.50183721  0.25034124  1
  Mg  Mg49  1  0.83432601  -0.00171611  0.74610567  1
  Mg  Mg50  1  0.16571763  0.49848434  0.75082845  1
  Mg  Mg51  1  -0.00307932  0.25500890  0.24571858  1
  Mg  Mg52  1  0.49963583  0.49931983  0.75123651  1
  Mg  Mg53  1  0.17042244  0.83441389  0.75477050  1
  Mg  Mg54  1  0.16477595  0.33255098  0.74903232  1
  Mg  Mg55  1  0.83150967  0.66603103  0.74750583  1
  Mg  Mg56  1  0.50049474  0.66505854  0.25300561  1
  Mg  Mg57  1  0.66517809  0.58439694  0.74957481  1
  Mg  Mg58  1  0.33233635  0.91585260  0.25095195  1
  Mg  Mg59  1  0.16424782  0.33479340  0.24778734  1
  Mg  Mg60  1  0.33513630  0.58415649  0.25254435  1
  Mg  Mg61  1  0.50273909  0.33386676  0.24655574  1
  Mg  Mg62  1  0.50277228  0.16337645  0.74938143  1
  Mg  Mg63  1  0.33363484  0.58517347  0.75355427  1
  Mg  Mg64  1  -0.00520074  0.58069981  0.25153828  1
  Mg  Mg65  1  0.66748305  0.41705634  0.74975937  1
  Mg  Mg66  1  0.83369448  0.83195010  0.25488041  1
  Mg  Mg67  1  0.49976628  0.83726430  0.75141100  1
  Mg  Mg68  1  -0.00257194  0.91523768  0.25501650  1
  Mg  Mg69  1  0.16961446  0.66554010  0.75407274  1
  Mg  Mg70  1  0.66939090  0.58596474  0.25291532  1
  Mg  Mg71  1  0.00029199  0.08267594  0.74758763  1
  Mg  Mg72  1  0.50024540  0.83321284  0.25261432  1
  Mg  Mg73  1  0.67039247  0.41347249  0.24508792  1
  Mg  Mg74  1  0.33367426  0.41550650  0.75086586  1
  Mg  Mg75  1  0.16455064  0.66451953  0.25251330  1
  Mg  Mg76  1  0.33810048  0.91716763  0.75374608  1
  Mg  Mg77  1  -0.00099922  0.91533053  0.74945076  1
  Mg  Mg78  1  0.83022284  0.17301115  0.24599272  1
  Mg  Mg79  1  0.49858141  0.66640933  0.75179810  1
  Mg  Mg80  1  0.66440469  0.08267910  0.74481936  1
  Mg  Mg81  1  0.50345444  0.33153708  0.75130817  1
  Mg  Mg82  1  0.33355415  0.08499364  0.24986133  1
  Mg  Mg83  1  0.16388779  0.83373193  0.25442189  1
  Mg  Mg84  1  -0.00126106  0.08610853  0.24875785  1
  Mg  Mg85  1  0.66375827  0.91636284  0.74777625  1
  Mg  Mg86  1  0.83320486  0.16259988  0.74681618  1
  Mg  Mg87  1  0.50276090  0.16819571  0.24470422  1
  Mg  Mg88  1  0.83080512  0.83375535  0.74438817  1
  Mg  Mg89  1  -0.00049593  0.58275744  0.74958451  1
  Mg  Mg90  1  0.33791113  0.08250841  0.75502588  1
  Mg  Mg91  1  0.16853878  0.16344145  0.74978967  1
  Mg  Mg92  1  0.33500040  0.41564359  0.24971591  1
  Mg  Mg93  1  0.66655864  0.08756430  0.24658363  1
  Mg  Mg94  1  -0.00327440  0.41282002  0.74552393  1
  Mg  Mg95  1  0.16647194  0.16757768  0.25030589  1
  Fe  Fe96  1  0.47266344  0.58428521  0.39508186  1
  Fe  Fe97  1  0.85309470  0.08265188  0.60585824  1
  Fe  Fe98  1  0.64606826  0.67307621  0.39547709  1
  Fe  Fe99  1  0.31157741  0.66169043  0.89417330  1
  Fe  Fe100  1  0.64449766  0.16911455  0.88727261  1
  Fe  Fe101  1  0.31203580  0.16965158  0.89269337  1
  Fe  Fe102  1  0.35934673  0.33470906  0.10885497  1
  Fe  Fe103  1  0.86033167  0.41712124  0.10997832  1
  Fe  Fe104  1  0.35455087  0.66492072  0.11173042  1
  Fe  Fe105  1  0.02113423  0.33227565  0.60620207  1
  Fe  Fe106  1  0.48201970  0.92206725  0.89367555  1
  Fe  Fe107  1  0.52868541  0.92092489  0.60823286  1
  Fe  Fe108  1  0.13846443  0.08431454  0.89149599  1
  Fe  Fe109  1  0.31108913  0.83616172  0.89513360  1
  Fe  Fe110  1  0.68952634  0.16656840  0.10725196  1
  Fe  Fe111  1  0.85561532  0.90861060  0.60690229  1
  Fe  Fe112  1  0.97304268  0.83014661  0.39559806  1
  Si  Si113  1  0.19189080  0.08157275  0.11770273  1
  Si  Si114  1  0.47997558  0.08864441  0.88858541  1
  Si  Si115  1  0.64659444  0.33964004  0.88677842  1
  Si  Si116  1  0.36108699  0.83085372  0.61269556  1
  Si  Si117  1  0.48135766  0.41762940  0.88495852  1
  Si  Si118  1  0.64258907  0.32981680  0.38155452  1
  Si  Si119  1  0.47826630  0.41228047  0.38830890  1
  Si  Si120  1  0.97189277  0.33254040  0.88289637  1
  Si  Si121  1  0.80803435  0.57579435  0.38881434  1
  Si  Si122  1  0.85868662  0.58758792  0.11421474  1
  Si  Si123  1  0.30868690  0.33143915  0.38591297  1
  Si  Si124  1  0.69248412  0.17433014  0.60689962  1
  Si  Si125  1  0.52584321  0.09215727  0.60773605  1
  Si  Si126  1  0.13307056  0.58017046  0.88823992  1
  Si  Si127  1  0.52121188  0.41668768  0.61362269  1
  Si  Si128  1  0.03037699  0.15988716  0.60797801  1
  Si  Si129  1  0.19930333  0.08053174  0.61494394  1
  Si  Si130  1  0.97806373  0.33431705  0.38122295  1
  Si  Si131  1  0.86434249  0.08193605  0.11164192  1
  Si  Si132  1  0.35997635  0.16834429  0.61492979  1
  Si  Si133  1  0.47412750  0.08462094  0.38423892  1
  Si  Si134  1  0.80896607  0.42318319  0.88319679  1
  Si  Si135  1  0.97010564  0.66635695  0.88402121  1
  Si  Si136  1  0.69117116  0.82475780  0.60964818  1
  Si  Si137  1  0.69129225  0.83370767  0.11822932  1
  Si  Si138  1  0.53080061  0.58796957  0.11316242  1
  Si  Si139  1  0.68693220  0.34313116  0.61059090  1
  Si  Si140  1  0.81044144  0.08855500  0.38353462  1
  Si  Si141  1  0.19521008  0.41759928  0.61211669  1
  Si  Si142  1  0.85624155  0.58853679  0.61227776  1
  Si  Si143  1  0.96658544  0.16718181  0.88564139  1
  Si  Si144  1  0.31276288  0.34188505  0.88745638  1
  Si  Si145  1  0.80861659  0.41155115  0.38277801  1
  Si  Si146  1  0.85334064  0.42393686  0.60645158  1
  Si  Si147  1  0.97505672  0.65783408  0.38970574  1
  Si  Si148  1  0.69540801  0.67049396  0.11765977  1
  Si  Si149  1  0.18506761  0.57922308  0.11557694  1
  Si  Si150  1  0.64357388  0.66532781  0.88522665  1
  Si  Si151  1  0.13497485  0.91084664  0.89030068  1
  Si  Si152  1  0.68993275  0.33567791  0.10838482  1
  Si  Si153  1  0.80686775  0.91221800  0.88283448  1
  Si  Si154  1  0.97589557  0.17057835  0.38357002  1
  Si  Si155  1  0.80832981  0.92392364  0.38762545  1
  Si  Si156  1  0.80469085  0.07668291  0.88315143  1
  Si  Si157  1  0.13845956  0.58002952  0.38654531  1
  Si  Si158  1  0.35790617  0.66682806  0.61535798  1
  Si  Si159  1  0.02778330  0.66524871  0.61530852  1
  Si  Si160  1  0.19307596  0.58225432  0.61556027  1
  Si  Si161  1  0.47269329  0.91854980  0.38601426  1
  Si  Si162  1  0.29870637  0.66849629  0.39055420  1
  Si  Si163  1  0.52959318  0.42193017  0.11128402  1
  Si  Si164  1  0.35630487  0.16202127  0.11278132  1
  Si  Si165  1  0.51926021  0.91263418  0.11692184  1
  Si  Si166  1  0.19822827  0.91592848  0.61763538  1
  Si  Si167  1  0.14147555  0.08637168  0.38650471  1
  Si  Si168  1  0.30840690  0.16713860  0.38556567  1
  Si  Si169  1  0.30694371  0.83539617  0.38745750  1
  Si  Si170  1  0.02539591  0.66899429  0.11792970  1
  Si  Si171  1  0.13841498  0.41444570  0.88564011  1
  Si  Si172  1  0.02512641  0.83368193  0.11773346  1
  Si  Si173  1  0.68556982  0.66262013  0.61468762  1
  Si  Si174  1  0.03375962  0.83180419  0.61446100  1
  Si  Si175  1  0.18998088  0.41667664  0.11325288  1
  Si  Si176  1  0.64473010  0.82911652  0.88851116  1
  Si  Si177  1  0.14532292  0.41543037  0.38486720  1
  Si  Si178  1  0.35169991  0.83524380  0.11558232  1
  Si  Si179  1  0.96955477  0.82967882  0.88380812  1
  Si  Si180  1  0.48136783  0.57979301  0.88783171  1
  Si  Si181  1  0.80729730  0.58451238  0.88370028  1
  Si  Si182  1  0.52106269  0.07715009  0.11040980  1
  Si  Si183  1  0.18841911  0.91855324  0.11810312  1
  Si  Si184  1  0.02927284  0.16514054  0.11427289  1
  Si  Si185  1  0.52091064  0.58092346  0.61533548  1
  Si  Si186  1  0.85805631  0.91603812  0.11594411  1
  Si  Si187  1  0.14314004  0.92042535  0.39138694  1
  Si  Si188  1  0.63999870  0.16495491  0.38146386  1
  Si  Si189  1  0.03007239  0.32929469  0.11060619  1
  Si  Si190  1  0.35886437  0.33266714  0.61612197  1
  Si  Si191  1  0.64235414  0.84127189  0.38906651  1
  O  O192  1  0.27604756  0.10588619  0.08998249  1
  O  O193  1  0.27890270  0.11648539  0.58453330  1
  O  O194  1  0.26292207  0.60223126  0.08016462  1
  O  O195  1  0.27128672  0.62100792  0.58666591  1
  O  O196  1  0.59747783  0.10416857  0.07593180  1
  O  O197  1  0.60067433  0.13509505  0.57649450  1
  O  O198  1  0.61509192  0.61931428  0.08545080  1
  O  O199  1  0.60653785  0.60717261  0.58850669  1
  O  O200  1  0.95160279  0.11040398  0.08572545  1
  O  O201  1  0.95480991  0.10644129  0.57606046  1
  O  O202  1  0.93792473  0.62865299  0.08564039  1
  O  O203  1  0.93644199  0.62699041  0.58522904  1
  O  O204  1  0.11664805  0.35718992  0.08438636  1
  O  O205  1  0.11422796  0.37457528  0.57448415  1
  O  O206  1  0.10430315  0.87049401  0.08820850  1
  O  O207  1  0.11657376  0.86579970  0.58779521  1
  O  O208  1  0.45055054  0.37399663  0.07503559  1
  O  O209  1  0.43937180  0.36522427  0.58523421  1
  O  O210  1  0.43658843  0.86255489  0.08754611  1
  O  O211  1  0.43239848  0.86277348  0.57448001  1
  O  O212  1  0.76765160  0.36129979  0.07189066  1
  O  O213  1  0.76178025  0.38394386  0.57863394  1
  O  O214  1  0.76912201  0.87309306  0.08688154  1
  O  O215  1  0.77901624  0.83227254  0.58219123  1
  O  O216  1  0.27036495  0.39977428  0.07855018  1
  O  O217  1  0.27937795  0.38495244  0.58571827  1
  O  O218  1  0.27281928  0.89275334  0.09050837  1
  O  O219  1  0.27479896  0.87863103  0.58621061  1
  O  O220  1  0.61391167  0.39614731  0.08335071  1
  O  O221  1  0.59847784  0.38693687  0.57854829  1
  O  O222  1  0.60332814  0.87863158  0.09132623  1
  O  O223  1  0.61994709  0.87997265  0.57388004  1
  O  O224  1  0.95351772  0.37852107  0.07474097  1
  O  O225  1  0.92391700  0.38680849  0.57009785  1
  O  O226  1  0.93570184  0.87439748  0.08716103  1
  O  O227  1  0.95422734  0.87570886  0.57726919  1
  O  O228  1  0.11342032  0.13430438  0.08751680  1
  O  O229  1  0.11711963  0.12799026  0.58253843  1
  O  O230  1  0.10336848  0.63236442  0.08794588  1
  O  O231  1  0.10344065  0.62295952  0.58598806  1
  O  O232  1  0.43486276  0.12464316  0.08399994  1
  O  O233  1  0.43933646  0.14170192  0.58089650  1
  O  O234  1  0.45219394  0.63747748  0.07947886  1
  O  O235  1  0.43809174  0.63065787  0.58616705  1
  O  O236  1  0.78653951  0.12929168  0.07566229  1
  O  O237  1  0.76513327  0.14698460  0.56719715  1
  O  O238  1  0.77727953  0.64143058  0.08717418  1
  O  O239  1  0.77009856  0.63559571  0.58618296  1
  O  O240  1  0.06306251  0.12515183  0.41453447  1
  O  O241  1  0.04689212  0.12450724  0.92598819  1
  O  O242  1  0.05655772  0.60424931  0.41795891  1
  O  O243  1  0.04682413  0.61168939  0.91347496  1
  O  O244  1  0.39696938  0.12483528  0.41443632  1
  O  O245  1  0.39450785  0.10061785  0.92083203  1
  O  O246  1  0.37570761  0.62054316  0.42698632  1
  O  O247  1  0.40159751  0.59609980  0.92233846  1
  O  O248  1  0.72919290  0.12359287  0.41131704  1
  O  O249  1  0.72777143  0.09939994  0.91946330  1
  O  O250  1  0.73867163  0.61178545  0.42710949  1
  O  O251  1  0.72370640  0.61150521  0.91281197  1
  O  O252  1  0.23252488  0.37075574  0.41740269  1
  O  O253  1  0.22969920  0.37685259  0.91457694  1
  O  O254  1  0.23491107  0.88042343  0.41804609  1
  O  O255  1  0.20410917  0.85129481  0.92055428  1
  O  O256  1  0.56543193  0.36541462  0.41494311  1
  O  O257  1  0.56001356  0.36490287  0.91600631  1
  O  O258  1  0.55975681  0.87764509  0.41694211  1
  O  O259  1  0.56948798  0.85259660  0.92561106  1
  O  O260  1  0.89854664  0.36939189  0.41155038  1
  O  O261  1  0.89428332  0.37540406  0.91031626  1
  O  O262  1  0.88190395  0.87308250  0.42774012  1
  O  O263  1  0.88537927  0.85672978  0.91211339  1
  O  O264  1  0.06534144  0.37967794  0.41434271  1
  O  O265  1  0.06287958  0.37197916  0.91537337  1
  O  O266  1  0.07305721  0.88403037  0.42774343  1
  O  O267  1  0.04529793  0.88365257  0.91460397  1
  O  O268  1  0.39956316  0.36887415  0.41555778  1
  O  O269  1  0.39316621  0.39843159  0.91154294  1
  O  O270  1  0.39637183  0.87693115  0.41541978  1
  O  O271  1  0.38912264  0.90304806  0.93343771  1
  O  O272  1  0.73266655  0.36953286  0.41359350  1
  O  O273  1  0.72530213  0.39779466  0.91318042  1
  O  O274  1  0.71627711  0.90329856  0.40781919  1
  O  O275  1  0.72858441  0.88002721  0.91586537  1
  O  O276  1  0.22956244  0.13013187  0.41498574  1
  O  O277  1  0.22486017  0.14116518  0.93445826  1
  O  O278  1  0.21348621  0.63720571  0.41680524  1
  O  O279  1  0.21185169  0.62700238  0.92310339  1
  O  O280  1  0.56322540  0.12557324  0.41432748  1
  O  O281  1  0.54295530  0.15509437  0.91740157  1
  O  O282  1  0.56004723  0.64018220  0.43754501  1
  O  O283  1  0.56159945  0.63509122  0.91433622  1
  O  O284  1  0.89590570  0.13610756  0.41319661  1
  O  O285  1  0.88494893  0.13003808  0.91152212  1
  O  O286  1  0.89823237  0.61670407  0.41804717  1
  O  O287  1  0.88523778  0.63980656  0.91232843  1
  O  O288  1  0.16555793  0.00026219  0.09049851  1
  O  O289  1  0.18734960  -0.00246127  0.58530161  1
  O  O290  1  0.15227920  0.49772555  0.09081693  1
  O  O291  1  0.18768252  0.50139461  0.58438369  1
  O  O292  1  0.49958389  -0.00690396  0.08564175  1
  O  O293  1  0.50964228  0.01479114  0.57087237  1
  O  O294  1  0.51470437  0.50566722  0.08374687  1
  O  O295  1  0.49833207  0.49933424  0.58632006  1
  O  O296  1  0.85261838  -0.00286714  0.08433348  1
  O  O297  1  0.81959242  -0.00569458  0.56704636  1
  O  O298  1  0.84308522  0.51289027  0.07376847  1
  O  O299  1  0.84090943  0.50881538  0.57900811  1
  O  O300  1  0.01293092  0.24523774  0.08217067  1
  O  O301  1  0.01462830  0.23861559  0.57226334  1
  O  O302  1  0.01614133  0.75173389  0.08801791  1
  O  O303  1  0.02726972  0.74717829  0.58717680  1
  O  O304  1  0.33240595  0.23930531  0.07935667  1
  O  O305  1  0.33762655  0.25127565  0.58633232  1
  O  O306  1  0.32088683  0.75892004  0.08342154  1
  O  O307  1  0.34027155  0.74726753  0.58431352  1
  O  O308  1  0.65653159  0.25856736  0.07574880  1
  O  O309  1  0.67447573  0.26032332  0.58294791  1
  O  O310  1  0.67873887  0.75251311  0.08500459  1
  O  O311  1  0.65536926  0.74163142  0.58717703  1
  O  O312  1  0.15619383  0.00508499  0.41648963  1
  O  O313  1  0.15396098  -0.01112518  0.92463973  1
  O  O314  1  0.16247527  0.49789818  0.41521703  1
  O  O315  1  0.13992465  0.49649494  0.91551136  1
  O  O316  1  0.47729221  0.00203056  0.41381442  1
  O  O317  1  0.52536566  0.01358356  0.91750582  1
  O  O318  1  0.48787748  0.48764913  0.42758495  1
  O  O319  1  0.51504349  0.49810619  0.91068207  1
  O  O320  1  0.82703354  0.00784833  0.41464372  1
  O  O321  1  0.83325275  -0.00689850  0.91083844  1
  O  O322  1  0.82055072  0.49155956  0.41780329  1
  O  O323  1  0.83305043  0.50478870  0.91410981  1
  O  O324  1  0.31631391  0.24881122  0.41579546  1
  O  O325  1  0.33859439  0.26625597  0.92234749  1
  O  O326  1  0.30927095  0.75347946  0.41724660  1
  O  O327  1  0.34657446  0.74746092  0.93245860  1
  O  O328  1  0.64936043  0.24707753  0.41193708  1
  O  O329  1  0.67937109  0.26326780  0.91689092  1
  O  O330  1  0.66979798  0.76831756  0.42964582  1
  O  O331  1  0.67252629  0.74514271  0.91418035  1
  O  O332  1  0.99190320  0.25222400  0.41393701  1
  O  O333  1  0.97248383  0.25152356  0.91397722  1
  O  O334  1  0.99243476  0.73479618  0.42745573  1
  O  O335  1  0.99117982  0.74757688  0.91380421  1
  O  O336  1  0.20902769  0.08251140  0.19856602  1
  O  O337  1  0.21383545  0.08086432  0.69465413  1
  O  O338  1  0.20731766  0.58353248  0.19669201  1
  O  O339  1  0.20869324  0.58174079  0.69587975  1
  O  O340  1  0.53923352  0.08156897  0.19150207  1
  O  O341  1  0.54443539  0.08824950  0.68711427  1
  O  O342  1  0.54531281  0.58530454  0.19381275  1
  O  O343  1  0.53996298  0.58279756  0.69579873  1
  O  O344  1  0.88069563  0.08244222  0.19259139  1
  O  O345  1  0.87983722  0.07995584  0.69841789  1
  O  O346  1  0.87781674  0.58265377  0.19400133  1
  O  O347  1  0.87577156  0.58540261  0.69297724  1
  O  O348  1  0.04842087  0.32799481  0.19069344  1
  O  O349  1  0.04499423  0.33371948  0.69767892  1
  O  O350  1  0.04430342  0.83522855  0.19788725  1
  O  O351  1  0.04665755  0.83104771  0.69547368  1
  O  O352  1  0.37842957  0.33436391  0.20101515  1
  O  O353  1  0.37611016  0.33491107  0.69623995  1
  O  O354  1  0.37146714  0.83454730  0.19691059  1
  O  O355  1  0.37839548  0.82897729  0.69295668  1
  O  O356  1  0.70882392  0.33678552  0.18838825  1
  O  O357  1  0.70231989  0.34712197  0.68879495  1
  O  O358  1  0.71463354  0.82864609  0.19711102  1
  O  O359  1  0.70766423  0.82874514  0.69166806  1
  O  O360  1  0.21039421  0.41516596  0.19452620  1
  O  O361  1  0.21018017  0.41746314  0.69326556  1
  O  O362  1  0.20638104  0.91696275  0.19901385  1
  O  O363  1  0.21128372  0.91718942  0.69751046  1
  O  O364  1  0.54246124  0.41924725  0.19242841  1
  O  O365  1  0.54041821  0.41833864  0.69376124  1
  O  O366  1  0.53166977  0.91565724  0.19640074  1
  O  O367  1  0.54700863  0.91141975  0.69781267  1
  O  O368  1  0.87690322  0.42010764  0.19822072  1
  O  O369  1  0.87814772  0.42564658  0.68638495  1
  O  O370  1  0.87749288  0.91765679  0.19590831  1
  O  O371  1  0.87959118  0.91343147  0.69958921  1
  O  O372  1  0.04675208  0.16546239  0.19491040  1
  O  O373  1  0.04721988  0.16479639  0.68926876  1
  O  O374  1  0.04276967  0.66835852  0.19824678  1
  O  O375  1  0.04409152  0.66368213  0.69589458  1
  O  O376  1  0.37503260  0.16470671  0.19425269  1
  O  O377  1  0.37716411  0.16743278  0.69463696  1
  O  O378  1  0.37548472  0.66756902  0.20344341  1
  O  O379  1  0.37734634  0.66485795  0.69557519  1
  O  O380  1  0.71225007  0.16589781  0.19752456  1
  O  O381  1  0.71569161  0.16084422  0.68555935  1
  O  O382  1  0.70877448  0.66947135  0.19702151  1
  O  O383  1  0.70771047  0.66395811  0.69535696  1
  O  O384  1  0.12412119  0.08523936  0.30595380  1
  O  O385  1  0.12130509  0.08309936  0.79883326  1
  O  O386  1  0.12299857  0.58163431  0.30635855  1
  O  O387  1  0.11978507  0.58138870  0.80680527  1
  O  O388  1  0.45394241  0.08469578  0.30408515  1
  O  O389  1  0.45618516  0.08826877  0.80714262  1
  O  O390  1  0.45602206  0.58180827  0.30283247  1
  O  O391  1  0.45948472  0.58290682  0.80639370  1
  O  O392  1  0.79405512  0.08654227  0.30366183  1
  O  O393  1  0.78842956  0.07683976  0.80261995  1
  O  O394  1  0.78812159  0.57828710  0.30891706  1
  O  O395  1  0.78984742  0.58497655  0.80319685  1
  O  O396  1  0.28900853  0.33169405  0.30586348  1
  O  O397  1  0.29025192  0.33765449  0.80611091  1
  O  O398  1  0.28767342  0.83510444  0.30690509  1
  O  O399  1  0.28967527  0.83316009  0.80136371  1
  O  O400  1  0.62186868  0.33517400  0.30230845  1
  O  O401  1  0.62118634  0.34478066  0.80693765  1
  O  O402  1  0.61672165  0.82877269  0.31014744  1
  O  O403  1  0.62642061  0.82929490  0.80759157  1
  O  O404  1  0.96474571  0.33214663  0.30302024  1
  O  O405  1  0.96344010  0.33382629  0.80392848  1
  O  O406  1  0.95778377  0.83320515  0.30408963  1
  O  O407  1  0.95458803  0.82759760  0.80358687  1
  O  O408  1  0.13154385  0.41535388  0.30563248  1
  O  O409  1  0.12271651  0.41696171  0.80496502  1
  O  O410  1  0.12394645  0.91806369  0.31013485  1
  O  O411  1  0.12013991  0.91343725  0.80830258  1
  O  O412  1  0.45860770  0.41616918  0.30769900  1
  O  O413  1  0.45849916  0.41681530  0.80401248  1
  O  O414  1  0.45328427  0.91833489  0.30577594  1
  O  O415  1  0.45503518  0.91255603  0.80302142  1
  O  O416  1  0.78686312  0.41761607  0.30411963  1
  O  O417  1  0.78751217  0.42662315  0.80384569  1
  O  O418  1  0.80428625  0.92085616  0.30834515  1
  O  O419  1  0.78771401  0.91093864  0.80270483  1
  O  O420  1  0.29009510  0.16649166  0.30518616  1
  O  O421  1  0.28813207  0.16763067  0.79988461  1
  O  O422  1  0.28467774  0.66769621  0.30965472  1
  O  O423  1  0.28915494  0.66520207  0.80104787  1
  O  O424  1  0.61768308  0.16383364  0.30257406  1
  O  O425  1  0.62010867  0.15949715  0.79775647  1
  O  O426  1  0.62160654  0.66673455  0.30322976  1
  O  O427  1  0.62400185  0.66530101  0.80454550  1
  O  O428  1  0.96018918  0.16780554  0.30352619  1
  O  O429  1  0.96028946  0.16582540  0.80540750  1
  O  O430  1  0.96210472  0.66396397  0.30982389  1
  O  O431  1  0.95424222  0.66540257  0.80342482  1
  F  F432  1  0.04669139  -0.00131203  0.20503711  1
  F  F433  1  0.04769336  -0.00490506  0.70140351  1
  F  F434  1  0.04631569  0.50486070  0.20197394  1
  F  F435  1  0.04601001  0.50098724  0.70102263  1
  F  F436  1  0.37496036  0.00021867  0.20387811  1
  F  F437  1  0.37036745  0.00052724  0.70092651  1
  F  F438  1  0.37794569  0.49933142  0.20275151  1
  F  F439  1  0.37770589  0.50113646  0.70339338  1
  F  F440  1  0.71688765  0.00826349  0.19860041  1
  F  F441  1  0.71292466  -0.00397354  0.69801563  1
  F  F442  1  0.71195411  0.50315994  0.20207613  1
  F  F443  1  0.70944444  0.50472119  0.69923224  1
  F  F444  1  0.21366067  0.24843925  0.20287100  1
  F  F445  1  0.21359817  0.25333525  0.70041807  1
  F  F446  1  0.20857382  0.75090546  0.20588323  1
  F  F447  1  0.20857887  0.74824963  0.70133975  1
  F  F448  1  0.53349772  0.25079402  0.19585964  1
  F  F449  1  0.53079736  0.25263870  0.69642196  1
  F  F450  1  0.54282063  0.75179235  0.20391359  1
  F  F451  1  0.54433511  0.74651292  0.70290886  1
  F  F452  1  0.88513236  0.24246308  0.19362571  1
  F  F453  1  0.88571760  0.23890127  0.69419644  1
  F  F454  1  0.88058681  0.75348970  0.20203943  1
  F  F455  1  0.87971178  0.74602628  0.69987964  1
  F  F456  1  0.28776973  0.00084435  0.30070861  1
  F  F457  1  0.28699079  -0.00068524  0.80077347  1
  F  F458  1  0.28682953  0.49885771  0.29785918  1
  F  F459  1  0.28687928  0.49929017  0.79768557  1
  F  F460  1  0.61494817  0.01251538  0.30054889  1
  F  F461  1  0.62866250  -0.00110187  0.79556668  1
  F  F462  1  0.62155636  0.49836857  0.29665943  1
  F  F463  1  0.62110514  0.50286013  0.79636735  1
  F  F464  1  0.95728155  0.00366159  0.29868297  1
  F  F465  1  0.95725366  -0.00253655  0.79975438  1
  F  F466  1  0.95349813  0.50451372  0.30396164  1
  F  F467  1  0.95291124  0.49984615  0.79482544  1
  F  F468  1  0.12298411  0.24938406  0.29805933  1
  F  F469  1  0.12261910  0.24856082  0.79644166  1
  F  F470  1  0.12070499  0.75009114  0.30128641  1
  F  F471  1  0.11850161  0.74702387  0.79835278  1
  F  F472  1  0.45506692  0.24668172  0.29938314  1
  F  F473  1  0.45381180  0.25292316  0.79832321  1
  F  F474  1  0.45104491  0.75405018  0.30238281  1
  F  F475  1  0.45610134  0.74779563  0.79824670  1
  F  F476  1  0.79689017  0.25107340  0.29945002  1
  F  F477  1  0.80101925  0.23675550  0.80385654  1
  F  F478  1  0.78755318  0.75461582  0.30508623  1
  F  F479  1  0.78779079  0.74813258  0.79507505  1
