# generated using pymatgen
data_K24Na3Li5Mg64Fe17Si79(O5F)48
_symmetry_space_group_name_H-M   'P 1'
_cell_length_a   16.09136505
_cell_length_b   18.58670604
_cell_length_c   20.54806309
_cell_angle_alpha   90.00717366
_cell_angle_beta   100.01868704
_cell_angle_gamma   89.97085514
_symmetry_Int_Tables_number   1
_chemical_formula_structural   K24Na3Li5Mg64Fe17Si79(O5F)48
_chemical_formula_sum   'K24 Na3 Li5 Mg64 Fe17 Si79 O240 F48'
_cell_volume   6051.91209661
_cell_formula_units_Z   1
loop_
 _symmetry_equiv_pos_site_id
 _symmetry_equiv_pos_as_xyz
  1  'x, y, z'
loop_
 _atom_site_type_symbol
 _atom_site_label
 _atom_site_symmetry_multiplicity
 _atom_site_fract_x
 _atom_site_fract_y
 _atom_site_fract_z
 _atom_site_occupancy
  K  K0  1  -0.00347514  0.00608013  0.00926684  1
  K  K1  1  -0.00260599  0.00022687  0.48669496  1
  K  K2  1  0.00732722  0.49700949  0.01098673  1
  K  K3  1  0.00283533  0.49470839  0.49485350  1
  K  K4  1  0.32514470  0.00378720  0.00589568  1
  K  K5  1  0.32757324  0.00871160  0.48860950  1
  K  K6  1  0.33070961  0.49432415  0.00490205  1
  K  K7  1  0.33721253  0.49388005  0.49441829  1
  K  K8  1  0.67005899  -0.00594799  0.00310398  1
  K  K9  1  0.67353465  -0.00264832  0.50153318  1
  K  K10  1  0.66771879  0.50064124  -0.00056199  1
  K  K11  1  0.65771200  0.50667945  0.50211911  1
  K  K12  1  0.17333018  0.26264079  0.01260526  1
  K  K13  1  0.15973599  0.24363576  0.48807199  1
  K  K14  1  0.17381226  0.75027843  0.00700491  1
  K  K15  1  0.16705928  0.75282684  0.49087658  1
  K  K16  1  0.49697257  0.25421663  0.00136431  1
  K  K17  1  0.49418515  0.25442341  0.49979581  1
  K  K18  1  0.50245611  0.74665389  -0.00353950  1
  K  K19  1  0.49590204  0.74019397  0.50009718  1
  K  K20  1  0.83085883  0.25647141  0.00612380  1
  K  K21  1  0.83892587  0.25119944  0.49269454  1
  K  K22  1  0.83327465  0.74789699  0.00440692  1
  K  K23  1  0.83511913  0.75188998  0.49680507  1
  Na  Na24  1  0.16802684  0.49858193  0.24712224  1
  Na  Na25  1  0.32794132  0.08191208  0.24913199  1
  Na  Na26  1  0.83209280  0.33169983  0.75241152  1
  Li  Li27  1  0.33677961  0.74850671  0.75461944  1
  Li  Li28  1  0.66302464  0.75007987  0.75501923  1
  Li  Li29  1  0.16270739  0.33573302  0.24842691  1
  Li  Li30  1  0.83949548  0.17583615  0.25168864  1
  Li  Li31  1  0.83689103  0.32659670  0.25148230  1
  Mg  Mg32  1  0.83564312  0.00411531  0.25027258  1
  Mg  Mg33  1  0.33229060  0.74868402  0.25139356  1
  Mg  Mg34  1  0.00150610  0.74915926  0.24892031  1
  Mg  Mg35  1  0.16517200  0.00133423  0.25178619  1
  Mg  Mg36  1  0.83373596  0.49594808  0.25117158  1
  Mg  Mg37  1  0.49900304  0.50114434  0.75194712  1
  Mg  Mg38  1  0.67343494  0.24996168  0.24968444  1
  Mg  Mg39  1  0.49906791  0.00123137  0.24795328  1
  Mg  Mg40  1  0.66746204  0.75054645  0.25079307  1
  Mg  Mg41  1  0.83487864  -0.00100365  0.74567365  1
  Mg  Mg42  1  -0.00339003  0.25243908  0.25086264  1
  Mg  Mg43  1  0.16745822  -0.00250943  0.74863724  1
  Mg  Mg44  1  0.32922117  0.25067681  0.24691313  1
  Mg  Mg45  1  0.66679083  0.25110184  0.74909206  1
  Mg  Mg46  1  0.00187751  0.25096889  0.75008417  1
  Mg  Mg47  1  0.16679537  0.50138292  0.75337840  1
  Mg  Mg48  1  0.83011089  0.49864898  0.75238181  1
  Mg  Mg49  1  0.50143218  -0.00337928  0.74851869  1
  Mg  Mg50  1  0.50018236  0.49915936  0.25108862  1
  Mg  Mg51  1  -0.00236417  0.75052045  0.74806764  1
  Mg  Mg52  1  0.33360282  0.24976773  0.74768788  1
  Mg  Mg53  1  0.33433280  0.41543854  0.75175700  1
  Mg  Mg54  1  -0.00214762  0.91515119  0.74585184  1
  Mg  Mg55  1  0.49907468  0.16643868  0.24831693  1
  Mg  Mg56  1  -0.00127164  0.91530622  0.25140946  1
  Mg  Mg57  1  0.82893479  0.66813412  0.75132853  1
  Mg  Mg58  1  0.49859808  0.83562009  0.24862832  1
  Mg  Mg59  1  -0.00091405  0.41626565  0.75371383  1
  Mg  Mg60  1  0.83017664  0.83490530  0.74644024  1
  Mg  Mg61  1  0.66775312  0.41422549  0.24956844  1
  Mg  Mg62  1  0.16777007  0.66417094  0.25016819  1
  Mg  Mg63  1  0.49790193  0.16444951  0.74645074  1
  Mg  Mg64  1  0.50155144  0.33320922  0.24718074  1
  Mg  Mg65  1  0.00210393  0.58196303  0.25179233  1
  Mg  Mg66  1  0.00084810  0.08432022  0.74670758  1
  Mg  Mg67  1  0.00109602  0.41389636  0.25082966  1
  Mg  Mg68  1  0.16571385  0.83587607  0.24992996  1
  Mg  Mg69  1  0.66948574  0.91693062  0.24906031  1
  Mg  Mg70  1  0.49917976  0.33509226  0.74942348  1
  Mg  Mg71  1  0.83467681  0.66417336  0.25212096  1
  Mg  Mg72  1  0.33572629  0.58735717  0.75423773  1
  Mg  Mg73  1  0.50024947  0.66855624  0.75479482  1
  Mg  Mg74  1  0.33419873  0.41449026  0.24965186  1
  Mg  Mg75  1  0.66975859  0.08551396  0.24961689  1
  Mg  Mg76  1  0.66760281  0.91277121  0.74722283  1
  Mg  Mg77  1  0.16850839  0.66716241  0.75239693  1
  Mg  Mg78  1  0.33399061  0.58296725  0.24977889  1
  Mg  Mg79  1  0.49944505  0.66602331  0.25147678  1
  Mg  Mg80  1  0.16913673  0.33492526  0.75247043  1
  Mg  Mg81  1  0.33015339  0.91763953  0.24906099  1
  Mg  Mg82  1  -0.00181939  0.08718780  0.24927936  1
  Mg  Mg83  1  0.66505786  0.58340027  0.25140680  1
  Mg  Mg84  1  0.66501072  0.58666784  0.75280381  1
  Mg  Mg85  1  0.83492489  0.16728835  0.74672393  1
  Mg  Mg86  1  0.50211695  0.82993063  0.75106834  1
  Mg  Mg87  1  0.33423327  0.08259384  0.74847099  1
  Mg  Mg88  1  0.16977497  0.16495070  0.74960646  1
  Mg  Mg89  1  0.33516285  0.91204207  0.75195803  1
  Mg  Mg90  1  0.16810221  0.83046532  0.74864569  1
  Mg  Mg91  1  0.66761266  0.08373937  0.74594830  1
  Mg  Mg92  1  0.83691905  0.83477926  0.25054202  1
  Mg  Mg93  1  -0.00269023  0.58434545  0.75121384  1
  Mg  Mg94  1  0.66445220  0.41670203  0.74979703  1
  Mg  Mg95  1  0.16386339  0.16884641  0.24903770  1
  Fe  Fe96  1  0.02277583  0.66466831  0.11064257  1
  Fe  Fe97  1  0.80641391  0.41463244  0.89197944  1
  Fe  Fe98  1  0.47770975  0.57878247  0.39115779  1
  Fe  Fe99  1  0.64650678  0.83546461  0.88888036  1
  Fe  Fe100  1  0.30667124  0.33304844  0.89053530  1
  Fe  Fe101  1  0.96835509  0.17092346  0.39156354  1
  Fe  Fe102  1  0.30657624  0.66480332  0.39305734  1
  Fe  Fe103  1  0.47866673  0.58346400  0.89346305  1
  Fe  Fe104  1  0.14208567  0.08539272  0.39078863  1
  Fe  Fe105  1  0.35473833  0.16229436  0.60753873  1
  Fe  Fe106  1  0.85888558  0.91817863  0.60518007  1
  Fe  Fe107  1  0.18997098  0.91902868  0.10927019  1
  Fe  Fe108  1  0.52242188  0.41809435  0.60946283  1
  Fe  Fe109  1  0.85964233  0.92144975  0.11024750  1
  Fe  Fe110  1  0.52815117  0.41936927  0.11027559  1
  Fe  Fe111  1  0.97483485  0.82657936  0.39182571  1
  Fe  Fe112  1  0.19496669  0.41694072  0.10945793  1
  Si  Si113  1  0.85681975  0.41387551  0.11887143  1
  Si  Si114  1  0.80312480  0.91633597  0.38707004  1
  Si  Si115  1  0.02033472  0.33629750  0.11262765  1
  Si  Si116  1  0.85453477  0.57740427  0.11529979  1
  Si  Si117  1  0.52561264  0.91459624  0.61171589  1
  Si  Si118  1  0.97749827  0.32964552  0.88709635  1
  Si  Si119  1  0.98110604  0.16713061  0.88396092  1
  Si  Si120  1  0.86107808  0.09040315  0.61023733  1
  Si  Si121  1  0.63675712  0.83834386  0.38423077  1
  Si  Si122  1  0.86179255  0.41647375  0.61600357  1
  Si  Si123  1  0.30359449  0.83253957  0.88502646  1
  Si  Si124  1  0.14234042  0.07949456  0.88393497  1
  Si  Si125  1  0.52453237  0.58760884  0.11370350  1
  Si  Si126  1  0.02495122  0.83313786  0.11014084  1
  Si  Si127  1  0.85333275  0.08835670  0.11101693  1
  Si  Si128  1  0.19992456  0.59122126  0.10812063  1
  Si  Si129  1  0.64575281  0.32592520  0.38552134  1
  Si  Si130  1  0.80375978  0.41893408  0.38635311  1
  Si  Si131  1  0.63672046  0.32633170  0.88753502  1
  Si  Si132  1  0.13878835  0.91443356  0.88315811  1
  Si  Si133  1  0.69415238  0.82961704  0.11393237  1
  Si  Si134  1  0.18728129  0.07537555  0.61307345  1
  Si  Si135  1  0.02921390  0.33682954  0.61585304  1
  Si  Si136  1  0.48207079  0.40951324  0.38691256  1
  Si  Si137  1  0.69134327  0.33484770  0.61119553  1
  Si  Si138  1  0.81438799  0.08678235  0.88113722  1
  Si  Si139  1  0.47640697  0.08618898  0.38372830  1
  Si  Si140  1  0.14381063  0.41450942  0.38559655  1
  Si  Si141  1  0.35655263  0.67313982  0.61875890  1
  Si  Si142  1  0.30263275  0.66583920  0.88998615  1
  Si  Si143  1  0.13499442  0.58670877  0.88663259  1
  Si  Si144  1  0.81208415  0.92337756  0.88498701  1
  Si  Si145  1  0.47695031  0.07770472  0.88436454  1
  Si  Si146  1  0.02279257  0.66415345  0.61551972  1
  Si  Si147  1  0.36352089  0.32696945  0.10945813  1
  Si  Si148  1  0.13862337  0.58012016  0.38919404  1
  Si  Si149  1  0.14530030  0.91412530  0.39019947  1
  Si  Si150  1  0.01890685  0.17251451  0.11188788  1
  Si  Si151  1  0.97319946  0.83481893  0.88326257  1
  Si  Si152  1  0.02949131  0.82935721  0.61206434  1
  Si  Si153  1  0.69122945  0.66508366  0.61655395  1
  Si  Si154  1  0.97315914  0.65570542  0.39035226  1
  Si  Si155  1  0.80171757  0.08057886  0.38676228  1
  Si  Si156  1  0.69208655  0.66444275  0.11685620  1
  Si  Si157  1  0.18140766  0.08795134  0.10983920  1
  Si  Si158  1  0.52036385  0.58930207  0.61481422  1
  Si  Si159  1  0.31314539  0.33430578  0.38506626  1
  Si  Si160  1  0.69131901  0.83127128  0.60933430  1
  Si  Si161  1  0.52436413  0.08212116  0.11238577  1
  Si  Si162  1  0.81135847  0.58308721  0.88834421  1
  Si  Si163  1  0.03012115  0.17028303  0.61498990  1
  Si  Si164  1  0.64273618  0.16057654  0.88273624  1
  Si  Si165  1  0.36337117  0.83807426  0.11248576  1
  Si  Si166  1  0.53118627  0.08141172  0.60929889  1
  Si  Si167  1  0.47303207  0.92146383  0.38447737  1
  Si  Si168  1  0.31366676  0.83449930  0.38709643  1
  Si  Si169  1  0.69304097  0.33359816  0.11309126  1
  Si  Si170  1  0.13489679  0.41991671  0.88866721  1
  Si  Si171  1  0.36474073  0.67385443  0.11379367  1
  Si  Si172  1  0.47163976  0.91259376  0.88825024  1
  Si  Si173  1  0.19190438  0.42263240  0.61596464  1
  Si  Si174  1  0.80233878  0.58256225  0.38727760  1
  Si  Si175  1  0.31042031  0.16118311  0.88722080  1
  Si  Si176  1  0.97013795  0.67062169  0.88443058  1
  Si  Si177  1  0.35081268  0.33244003  0.61005396  1
  Si  Si178  1  0.97606050  0.34106205  0.39038109  1
  Si  Si179  1  0.53111159  0.91603973  0.11439937  1
  Si  Si180  1  0.35668788  0.16320057  0.11376541  1
  Si  Si181  1  0.69427186  0.16947894  0.61208882  1
  Si  Si182  1  0.35954014  0.83796118  0.61578846  1
  Si  Si183  1  0.19230937  0.58746771  0.61674764  1
  Si  Si184  1  0.47753743  0.41409741  0.88862087  1
  Si  Si185  1  0.68690592  0.16938464  0.11371557  1
  Si  Si186  1  0.64280403  0.67330237  0.38834391  1
  Si  Si187  1  0.63992630  0.16303559  0.38468113  1
  Si  Si188  1  0.64823054  0.66712791  0.89046479  1
  Si  Si189  1  0.85617342  0.58100339  0.61504304  1
  Si  Si190  1  0.31018512  0.17205470  0.38669689  1
  Si  Si191  1  0.19164985  0.91225034  0.61560560  1
  O  O192  1  0.26803682  0.12056533  0.08516797  1
  O  O193  1  0.26668773  0.09606253  0.57923129  1
  O  O194  1  0.28518978  0.62416490  0.08052117  1
  O  O195  1  0.26963967  0.62709347  0.58825251  1
  O  O196  1  0.60076048  0.12179265  0.08154576  1
  O  O197  1  0.61602408  0.11474221  0.58358275  1
  O  O198  1  0.61005622  0.61550611  0.08662325  1
  O  O199  1  0.60253213  0.62413138  0.58623661  1
  O  O200  1  0.93334534  0.12569778  0.08121878  1
  O  O201  1  0.94054800  0.13172651  0.58492501  1
  O  O202  1  0.93160971  0.60119723  0.07934007  1
  O  O203  1  0.93635850  0.61815093  0.58643664  1
  O  O204  1  0.09395778  0.36660683  0.07551105  1
  O  O205  1  0.10421855  0.37877947  0.58603037  1
  O  O206  1  0.11095180  0.84758747  0.07924332  1
  O  O207  1  0.11906515  0.85241051  0.58864433  1
  O  O208  1  0.44626885  0.35096910  0.07937524  1
  O  O209  1  0.42890009  0.35954367  0.57590117  1
  O  O210  1  0.44951623  0.86628955  0.08533987  1
  O  O211  1  0.43650245  0.87307752  0.58232530  1
  O  O212  1  0.78215651  0.35642396  0.08913449  1
  O  O213  1  0.78063366  0.36465754  0.58920950  1
  O  O214  1  0.77017756  0.85647027  0.07876958  1
  O  O215  1  0.76022666  0.86642936  0.56955011  1
  O  O216  1  0.28278487  0.37275567  0.07361233  1
  O  O217  1  0.27054515  0.38934637  0.58615185  1
  O  O218  1  0.28843296  0.88939441  0.07684035  1
  O  O219  1  0.27608298  0.88789680  0.58643484  1
  O  O220  1  0.62255257  0.38829855  0.07504672  1
  O  O221  1  0.61613892  0.38435709  0.57270253  1
  O  O222  1  0.61094435  0.88089333  0.08599260  1
  O  O223  1  0.59886769  0.87064957  0.58172246  1
  O  O224  1  0.93635619  0.38724147  0.08436608  1
  O  O225  1  0.94126049  0.37982085  0.58573743  1
  O  O226  1  0.95831451  0.89643720  0.07991010  1
  O  O227  1  0.95508549  0.88042615  0.57571416  1
  O  O228  1  0.09969962  0.14128686  0.07970518  1
  O  O229  1  0.10632038  0.12897647  0.58700827  1
  O  O230  1  0.12060050  0.64228523  0.07565666  1
  O  O231  1  0.10280503  0.62876338  0.58688364  1
  O  O232  1  0.43288185  0.12011764  0.08268958  1
  O  O233  1  0.45117355  0.12807103  0.57440498  1
  O  O234  1  0.45112102  0.64832865  0.08765873  1
  O  O235  1  0.43799901  0.64239516  0.58891587  1
  O  O236  1  0.76851680  0.13909339  0.08397757  1
  O  O237  1  0.77828459  0.14200922  0.58427746  1
  O  O238  1  0.77234249  0.63092956  0.08768982  1
  O  O239  1  0.76872502  0.62481472  0.58520182  1
  O  O240  1  0.05888400  0.11826109  0.43546599  1
  O  O241  1  0.06125977  0.11356852  0.91243714  1
  O  O242  1  0.04957762  0.59830688  0.41694920  1
  O  O243  1  0.05251118  0.62059631  0.91329340  1
  O  O244  1  0.39605303  0.12109515  0.41105231  1
  O  O245  1  0.39655719  0.11245579  0.91286779  1
  O  O246  1  0.39167854  0.60503859  0.43450456  1
  O  O247  1  0.38139821  0.61851226  0.92589818  1
  O  O248  1  0.71354644  0.10516740  0.41369299  1
  O  O249  1  0.73074109  0.11547682  0.91005766  1
  O  O250  1  0.73166176  0.63021686  0.41701995  1
  O  O251  1  0.72675516  0.60931511  0.91605622  1
  O  O252  1  0.23176411  0.36851094  0.41453766  1
  O  O253  1  0.21312136  0.37140939  0.92245912  1
  O  O254  1  0.22947086  0.86216451  0.41456041  1
  O  O255  1  0.22238804  0.86733647  0.91395200  1
  O  O256  1  0.56108744  0.35224746  0.41355005  1
  O  O257  1  0.54760550  0.34869760  0.91089709  1
  O  O258  1  0.55447830  0.86938097  0.41358180  1
  O  O259  1  0.54935506  0.86474027  0.92446109  1
  O  O260  1  0.89857654  0.38846949  0.41683259  1
  O  O261  1  0.89393481  0.34612445  0.91748121  1
  O  O262  1  0.87735301  0.86343825  0.42157425  1
  O  O263  1  0.89499571  0.87157683  0.91223668  1
  O  O264  1  0.06581455  0.38400661  0.42204210  1
  O  O265  1  0.05082074  0.38940756  0.91568525  1
  O  O266  1  0.07067860  0.88066216  0.42597450  1
  O  O267  1  0.05847947  0.88147220  0.91226521  1
  O  O268  1  0.39858099  0.38099125  0.41673014  1
  O  O269  1  0.39624801  0.39420204  0.92227269  1
  O  O270  1  0.39102700  0.89323629  0.41387171  1
  O  O271  1  0.38524048  0.88335296  0.91431126  1
  O  O272  1  0.73100770  0.37265151  0.41708449  1
  O  O273  1  0.71263414  0.37564889  0.92520869  1
  O  O274  1  0.71446039  0.89229801  0.41285483  1
  O  O275  1  0.73430361  0.90244558  0.92060835  1
  O  O276  1  0.23946625  0.14032254  0.42550778  1
  O  O277  1  0.23084493  0.12011446  0.91440855  1
  O  O278  1  0.20940348  0.63474241  0.42703254  1
  O  O279  1  0.21592483  0.63713528  0.91681095  1
  O  O280  1  0.55757542  0.13650576  0.41630285  1
  O  O281  1  0.56547203  0.12104196  0.91295763  1
  O  O282  1  0.57027572  0.64142860  0.42449154  1
  O  O283  1  0.56928757  0.64456243  0.92646065  1
  O  O284  1  0.87392786  0.13289046  0.42431572  1
  O  O285  1  0.89565885  0.13892787  0.91070152  1
  O  O286  1  0.89256996  0.61890397  0.41935763  1
  O  O287  1  0.88775974  0.64294560  0.91327993  1
  O  O288  1  0.16279095  0.01144808  0.07134882  1
  O  O289  1  0.15828013  -0.00773606  0.58924783  1
  O  O290  1  0.18478271  0.51168069  0.07536486  1
  O  O291  1  0.17900752  0.50530245  0.58694972  1
  O  O292  1  0.51791149  -0.00154673  0.08404655  1
  O  O293  1  0.52293688  -0.00285159  0.58176415  1
  O  O294  1  0.49467470  0.51243005  0.07858772  1
  O  O295  1  0.49968987  0.51285297  0.57844751  1
  O  O296  1  0.83184765  0.01277762  0.07180826  1
  O  O297  1  0.84414064  0.01386617  0.57385973  1
  O  O298  1  0.82602845  0.49483117  0.08995811  1
  O  O299  1  0.84623625  0.49863931  0.58396547  1
  O  O300  1  -0.00162431  0.25382004  0.08194008  1
  O  O301  1  0.02440344  0.25389299  0.58770260  1
  O  O302  1  -0.01564487  0.75628920  0.08155599  1
  O  O303  1  0.00901119  0.74576804  0.58616304  1
  O  O304  1  0.34587259  0.24294092  0.08063425  1
  O  O305  1  0.31752892  0.25458685  0.57986775  1
  O  O306  1  0.34656848  0.75554741  0.08337020  1
  O  O307  1  0.34034902  0.75540041  0.58800818  1
  O  O308  1  0.66990369  0.25093614  0.08337043  1
  O  O309  1  0.67590467  0.25084333  0.58231014  1
  O  O310  1  0.67042108  0.74631910  0.08849376  1
  O  O311  1  0.68126588  0.74624816  0.58490906  1
  O  O312  1  0.17094868  -0.00803706  0.42299247  1
  O  O313  1  0.15393865  -0.00331053  0.91169577  1
  O  O314  1  0.16288758  0.49683087  0.41579166  1
  O  O315  1  0.14759666  0.50436944  0.91474084  1
  O  O316  1  0.49338990  0.00346623  0.41419462  1
  O  O317  1  0.48734840  -0.00341153  0.91560086  1
  O  O318  1  0.51269726  0.48521435  0.42099061  1
  O  O319  1  0.51666765  0.48996324  0.91859768  1
  O  O320  1  0.82096662  -0.00188749  0.41650551  1
  O  O321  1  0.84158605  0.00641203  0.90962843  1
  O  O322  1  0.79974624  0.50095166  0.41797030  1
  O  O323  1  0.84234585  0.50758943  0.92345925  1
  O  O324  1  0.33353247  0.25374309  0.41781270  1
  O  O325  1  0.32585953  0.23785517  0.92295777  1
  O  O326  1  0.34187425  0.75910428  0.42322169  1
  O  O327  1  0.31572927  0.75106309  0.91585615  1
  O  O328  1  0.66583523  0.24369563  0.41484759  1
  O  O329  1  0.65425011  0.24144832  0.91372036  1
  O  O330  1  0.66039115  0.75774183  0.41404439  1
  O  O331  1  0.68393776  0.74461356  0.92035244  1
  O  O332  1  0.97931175  0.26533828  0.42949622  1
  O  O333  1  1.00907214  0.24694369  0.91320532  1
  O  O334  1  0.99262719  0.73217113  0.42756069  1
  O  O335  1  0.98978386  0.75289900  0.91243541  1
  O  O336  1  0.19536731  0.08320105  0.18915013  1
  O  O337  1  0.20848080  0.07976299  0.69450712  1
  O  O338  1  0.21761313  0.59245858  0.18850429  1
  O  O339  1  0.20828769  0.58516301  0.69715104  1
  O  O340  1  0.54339210  0.08276675  0.19253468  1
  O  O341  1  0.54467742  0.08166399  0.69054735  1
  O  O342  1  0.54549500  0.58587164  0.19467731  1
  O  O343  1  0.54218258  0.58607500  0.69528672  1
  O  O344  1  0.87525571  0.08107585  0.19056388  1
  O  O345  1  0.87885129  0.08474700  0.69149851  1
  O  O346  1  0.87281590  0.58197968  0.19628561  1
  O  O347  1  0.87543935  0.58316018  0.69536714  1
  O  O348  1  0.03656883  0.33440195  0.19225488  1
  O  O349  1  0.04611146  0.33588279  0.69626664  1
  O  O350  1  0.04354025  0.83369976  0.19229453  1
  O  O351  1  0.04348951  0.83169215  0.69328577  1
  O  O352  1  0.38003460  0.32998526  0.19079860  1
  O  O353  1  0.37435704  0.33330809  0.69172921  1
  O  O354  1  0.37884769  0.83526324  0.19342260  1
  O  O355  1  0.38057336  0.83904500  0.69528714  1
  O  O356  1  0.70302205  0.33341742  0.19279557  1
  O  O357  1  0.69828389  0.33250463  0.69071681  1
  O  O358  1  0.71028615  0.83223854  0.19510033  1
  O  O359  1  0.71422071  0.83916363  0.68883861  1
  O  O360  1  0.21939052  0.40790202  0.19662339  1
  O  O361  1  0.20676988  0.42037430  0.69630402  1
  O  O362  1  0.21011764  0.91808808  0.20094266  1
  O  O363  1  0.21095083  0.91388675  0.69634905  1
  O  O364  1  0.54707159  0.41793305  0.20214702  1
  O  O365  1  0.54250016  0.41719965  0.70147637  1
  O  O366  1  0.54666803  0.91692887  0.19477668  1
  O  O367  1  0.54229741  0.91724622  0.69199139  1
  O  O368  1  0.87675787  0.41712082  0.19828254  1
  O  O369  1  0.88386486  0.42365787  0.69494586  1
  O  O370  1  0.87533949  0.91873492  0.20175867  1
  O  O371  1  0.87881334  0.91697658  0.69740272  1
  O  O372  1  0.03913099  0.16916093  0.19136368  1
  O  O373  1  0.04714185  0.16736984  0.69565405  1
  O  O374  1  0.04427786  0.66489911  0.20259355  1
  O  O375  1  0.04114110  0.66493249  0.69600659  1
  O  O376  1  0.38167528  0.16912498  0.19259460  1
  O  O377  1  0.37700669  0.16369031  0.69996020  1
  O  O378  1  0.38045079  0.67224218  0.19395639  1
  O  O379  1  0.37377116  0.66857710  0.69804735  1
  O  O380  1  0.70129003  0.16602185  0.19294799  1
  O  O381  1  0.71040028  0.16715335  0.69267588  1
  O  O382  1  0.70966938  0.66578825  0.19762829  1
  O  O383  1  0.71212414  0.66367472  0.69605518  1
  O  O384  1  0.12083559  0.08498959  0.29899525  1
  O  O385  1  0.12430189  0.08153701  0.80329259  1
  O  O386  1  0.12152906  0.58758401  0.30968420  1
  O  O387  1  0.11991414  0.58573035  0.80574693  1
  O  O388  1  0.46719823  0.08310665  0.30465135  1
  O  O389  1  0.45981579  0.07901635  0.80388302  1
  O  O390  1  0.45812858  0.58408956  0.29901934  1
  O  O391  1  0.45489848  0.58409365  0.80153932  1
  O  O392  1  0.78543126  0.07851969  0.30674190  1
  O  O393  1  0.79355255  0.08435027  0.80053818  1
  O  O394  1  0.78719839  0.58324685  0.30698480  1
  O  O395  1  0.79275457  0.58452084  0.80691133  1
  O  O396  1  0.29977684  0.33276824  0.30596409  1
  O  O397  1  0.28840538  0.33180174  0.79814632  1
  O  O398  1  0.29614418  0.83263505  0.30629488  1
  O  O399  1  0.28584146  0.83450988  0.80521788  1
  O  O400  1  0.62717747  0.32958015  0.30567755  1
  O  O401  1  0.62382384  0.32850503  0.80653509  1
  O  O402  1  0.62098700  0.83590397  0.30369010  1
  O  O403  1  0.62159930  0.83784617  0.79816799  1
  O  O404  1  0.96092810  0.33622317  0.31098202  1
  O  O405  1  0.96818017  0.33063327  0.80695892  1
  O  O406  1  0.95638472  0.82927583  0.30037055  1
  O  O407  1  0.95737199  0.83362865  0.80275829  1
  O  O408  1  0.11762911  0.41159520  0.30755477  1
  O  O409  1  0.12202197  0.41895809  0.80722449  1
  O  O410  1  0.12138441  0.91463247  0.30891036  1
  O  O411  1  0.12178955  0.91490331  0.80252146  1
  O  O412  1  0.46082336  0.41204068  0.30630482  1
  O  O413  1  0.45486180  0.41482477  0.80680232  1
  O  O414  1  0.45818644  0.91882893  0.30419048  1
  O  O415  1  0.45669835  0.91543205  0.80719100  1
  O  O416  1  0.78457972  0.42102278  0.30717053  1
  O  O417  1  0.78128335  0.42323864  0.80186754  1
  O  O418  1  0.78700498  0.91549002  0.30632432  1
  O  O419  1  0.79163297  0.91992526  0.80402398  1
  O  O420  1  0.28641131  0.17476719  0.30733365  1
  O  O421  1  0.28960309  0.16252561  0.80619194  1
  O  O422  1  0.29016896  0.66584060  0.30070184  1
  O  O423  1  0.28485277  0.66332142  0.80969096  1
  O  O424  1  0.62214826  0.16504218  0.30451062  1
  O  O425  1  0.62218408  0.16181025  0.80219735  1
  O  O426  1  0.62460618  0.66969618  0.30731016  1
  O  O427  1  0.62364387  0.66419263  0.80966456  1
  O  O428  1  0.95818407  0.16742702  0.30166930  1
  O  O429  1  0.96102772  0.16526812  0.80337738  1
  O  O430  1  0.95280583  0.66210905  0.30978197  1
  O  O431  1  0.95477398  0.66859028  0.80363767  1
  F  F432  1  0.04181772  -0.00200180  0.20347850  1
  F  F433  1  0.04637731  -0.00027910  0.70042749  1
  F  F434  1  0.03124288  0.49955897  0.19985209  1
  F  F435  1  0.04560481  0.50134760  0.70375767  1
  F  F436  1  0.38425634  -0.00855635  0.19701236  1
  F  F437  1  0.37903153  -0.00259537  0.70322542  1
  F  F438  1  0.38119140  0.49783585  0.20006184  1
  F  F439  1  0.37404973  0.49990099  0.70312807  1
  F  F440  1  0.71071931  0.00023002  0.20042560  1
  F  F441  1  0.71279331  0.00092919  0.69915659  1
  F  F442  1  0.71136525  0.50149802  0.20348686  1
  F  F443  1  0.71009113  0.50437373  0.69999203  1
  F  F444  1  0.21435614  0.24219481  0.19605666  1
  F  F445  1  0.20893024  0.24790361  0.70060710  1
  F  F446  1  0.21284748  0.75356288  0.20279601  1
  F  F447  1  0.20503819  0.74763633  0.70121660  1
  F  F448  1  0.54809252  0.24822175  0.20222443  1
  F  F449  1  0.54477552  0.24789311  0.70181852  1
  F  F450  1  0.54698087  0.75120264  0.20308810  1
  F  F451  1  0.53854817  0.74771345  0.70041985  1
  F  F452  1  0.87972292  0.25294464  0.20037124  1
  F  F453  1  0.88634491  0.24221938  0.69784876  1
  F  F454  1  0.87548955  0.74588152  0.20295878  1
  F  F455  1  0.87866391  0.74885692  0.69868983  1
  F  F456  1  0.28598814  -0.00737589  0.30374390  1
  F  F457  1  0.28798315  -0.00131190  0.79798860  1
  F  F458  1  0.30424259  0.49958301  0.30151645  1
  F  F459  1  0.28606648  0.50075394  0.79928409  1
  F  F460  1  0.62100165  -0.00024594  0.29551998  1
  F  F461  1  0.62277108  0.00112188  0.79418686  1
  F  F462  1  0.62358506  0.50246220  0.30095750  1
  F  F463  1  0.62119242  0.50225393  0.79796478  1
  F  F464  1  0.95472029  0.00214462  0.30070294  1
  F  F465  1  0.95782350  0.00213086  0.79616282  1
  F  F466  1  0.95219793  0.50071687  0.30146136  1
  F  F467  1  0.95528545  0.50204879  0.79962402  1
  F  F468  1  0.11785703  0.24866389  0.29616384  1
  F  F469  1  0.12397155  0.24811308  0.79774071  1
  F  F470  1  0.12312090  0.75242194  0.29849441  1
  F  F471  1  0.11802303  0.75036258  0.79847957  1
  F  F472  1  0.45592819  0.24930352  0.29613304  1
  F  F473  1  0.45554495  0.24855682  0.79671006  1
  F  F474  1  0.45719264  0.75303817  0.29779913  1
  F  F475  1  0.45654704  0.75202838  0.80213074  1
  F  F476  1  0.78537585  0.24988591  0.30181434  1
  F  F477  1  0.78317552  0.23752260  0.79975299  1
  F  F478  1  0.78709153  0.74960806  0.29906051  1
  F  F479  1  0.79501368  0.75356309  0.79711764  1
