# generated using pymatgen
data_K24Na3Li5Mg64Fe17Si79(O5F)48
_symmetry_space_group_name_H-M   'P 1'
_cell_length_a   16.10290301
_cell_length_b   18.60299042
_cell_length_c   20.56241473
_cell_angle_alpha   89.99547607
_cell_angle_beta   100.00551259
_cell_angle_gamma   90.01572663
_symmetry_Int_Tables_number   1
_chemical_formula_structural   K24Na3Li5Mg64Fe17Si79(O5F)48
_chemical_formula_sum   'K24 Na3 Li5 Mg64 Fe17 Si79 O240 F48'
_cell_volume   6066.03799969
_cell_formula_units_Z   1
loop_
 _symmetry_equiv_pos_site_id
 _symmetry_equiv_pos_as_xyz
  1  'x, y, z'
loop_
 _atom_site_type_symbol
 _atom_site_label
 _atom_site_symmetry_multiplicity
 _atom_site_fract_x
 _atom_site_fract_y
 _atom_site_fract_z
 _atom_site_occupancy
  K  K0  1  0.00308455  -0.00568827  0.00464465  1
  K  K1  1  -0.02078814  -0.00556362  0.48931301  1
  K  K2  1  -0.01562170  0.50871253  0.00694813  1
  K  K3  1  -0.00744116  0.50151637  0.48792755  1
  K  K4  1  0.34105806  -0.00063201  -0.00036742  1
  K  K5  1  0.34064248  -0.00386582  0.50164825  1
  K  K6  1  0.34017290  0.49949587  -0.00200865  1
  K  K7  1  0.33523731  0.51788225  0.50061840  1
  K  K8  1  0.67415503  -0.00429946  0.00044287  1
  K  K9  1  0.67444370  -0.00673645  0.49819855  1
  K  K10  1  0.67250310  0.50369059  0.00508725  1
  K  K11  1  0.66366397  0.50525409  0.49982475  1
  K  K12  1  0.18034731  0.25109060  -0.00297321  1
  K  K13  1  0.16382608  0.25466415  0.50186917  1
  K  K14  1  0.16040891  0.74755587  0.00783694  1
  K  K15  1  0.15555393  0.74583102  0.49049395  1
  K  K16  1  0.49794550  0.25838983  -0.00523047  1
  K  K17  1  0.50414357  0.25671313  0.50235311  1
  K  K18  1  0.50310123  0.74928844  0.00569463  1
  K  K19  1  0.50556021  0.74201039  0.49562542  1
  K  K20  1  0.82791621  0.25028111  0.00196616  1
  K  K21  1  0.82810589  0.25100749  0.49552042  1
  K  K22  1  0.83180443  0.74731647  0.01199717  1
  K  K23  1  0.83128029  0.74783849  0.49214408  1
  Na  Na24  1  0.50721491  -0.00091241  0.75714146  1
  Na  Na25  1  -0.00643059  0.57736217  0.25355265  1
  Na  Na26  1  0.66718594  0.92094448  0.74859346  1
  Li  Li27  1  0.82457342  0.50245681  0.24170526  1
  Li  Li28  1  0.82751315  -0.00200632  0.25262030  1
  Li  Li29  1  0.50031180  0.33442386  0.75252320  1
  Li  Li30  1  0.67362960  0.58422931  0.24826122  1
  Li  Li31  1  0.66087383  0.58533955  0.74995458  1
  Mg  Mg32  1  -0.00185843  0.75008990  0.74757468  1
  Mg  Mg33  1  0.33558062  0.74885668  0.75099730  1
  Mg  Mg34  1  -0.00371181  0.74954897  0.25102397  1
  Mg  Mg35  1  0.33171661  0.75125078  0.25001058  1
  Mg  Mg36  1  0.83463899  0.00055599  0.74409484  1
  Mg  Mg37  1  0.16476787  -0.00146361  0.24874357  1
  Mg  Mg38  1  0.49982240  -0.00186239  0.25020357  1
  Mg  Mg39  1  0.16814852  0.49948900  0.75260701  1
  Mg  Mg40  1  0.16899240  0.00003807  0.75330954  1
  Mg  Mg41  1  0.50317600  0.49975525  0.75291973  1
  Mg  Mg42  1  0.66564836  0.74899944  0.74741714  1
  Mg  Mg43  1  0.50317748  0.50231913  0.25091878  1
  Mg  Mg44  1  -0.00090075  0.24931508  0.24939729  1
  Mg  Mg45  1  0.33637382  0.25029930  0.75763182  1
  Mg  Mg46  1  0.66557650  0.74805668  0.24869254  1
  Mg  Mg47  1  0.82835169  0.49928739  0.74474031  1
  Mg  Mg48  1  0.00136037  0.25241728  0.74727729  1
  Mg  Mg49  1  0.33537571  0.25013091  0.25161731  1
  Mg  Mg50  1  0.16555389  0.49888542  0.25230195  1
  Mg  Mg51  1  0.66882623  0.25139746  0.24959092  1
  Mg  Mg52  1  0.66245847  0.25108053  0.74616617  1
  Mg  Mg53  1  0.83163585  0.33631514  0.24636520  1
  Mg  Mg54  1  0.33381125  0.91523066  0.24862400  1
  Mg  Mg55  1  0.50442934  0.83220853  0.75204467  1
  Mg  Mg56  1  0.17146397  0.16693998  0.75545640  1
  Mg  Mg57  1  0.50557443  0.66257623  0.75146277  1
  Mg  Mg58  1  0.83307473  0.16764482  0.74523376  1
  Mg  Mg59  1  0.83009881  0.83592919  0.74357841  1
  Mg  Mg60  1  -0.00618915  0.91522917  0.24852089  1
  Mg  Mg61  1  0.50243987  0.16632150  0.25410751  1
  Mg  Mg62  1  0.82974552  0.66224166  0.25039766  1
  Mg  Mg63  1  0.66799221  0.08432739  0.74937478  1
  Mg  Mg64  1  0.82629852  0.66444370  0.74676388  1
  Mg  Mg65  1  0.83170075  0.16427161  0.24962223  1
  Mg  Mg66  1  0.34015038  0.41331255  0.75650270  1
  Mg  Mg67  1  0.50084034  0.66575985  0.24879594  1
  Mg  Mg68  1  0.50109585  0.16687054  0.75314995  1
  Mg  Mg69  1  0.33813043  0.91662701  0.75221813  1
  Mg  Mg70  1  0.83049087  0.33563114  0.74335138  1
  Mg  Mg71  1  0.16553785  0.16534900  0.25039494  1
  Mg  Mg72  1  0.49814521  0.83422830  0.25015899  1
  Mg  Mg73  1  0.16764845  0.66556562  0.75129952  1
  Mg  Mg74  1  -0.00223185  0.41718599  0.74721742  1
  Mg  Mg75  1  0.66788222  0.91546401  0.25083343  1
  Mg  Mg76  1  0.66135765  0.41631023  0.74503511  1
  Mg  Mg77  1  0.33702234  0.08445275  0.75700253  1
  Mg  Mg78  1  0.17089508  0.33499739  0.75345550  1
  Mg  Mg79  1  -0.00201328  0.91571685  0.74631061  1
  Mg  Mg80  1  -0.00217357  0.41681760  0.25179883  1
  Mg  Mg81  1  0.33431719  0.08342424  0.25201888  1
  Mg  Mg82  1  0.16675395  0.33331975  0.25071287  1
  Mg  Mg83  1  0.16756003  0.83370439  0.75009111  1
  Mg  Mg84  1  -0.00434693  0.08169194  0.25146694  1
  Mg  Mg85  1  0.83101492  0.83508576  0.24897571  1
  Mg  Mg86  1  0.33522331  0.41631726  0.25199373  1
  Mg  Mg87  1  0.16160420  0.66573667  0.25018468  1
  Mg  Mg88  1  0.67036016  0.41979351  0.24737483  1
  Mg  Mg89  1  0.33780092  0.58321533  0.75183104  1
  Mg  Mg90  1  -0.00388979  0.58414189  0.74704139  1
  Mg  Mg91  1  0.33109628  0.58493469  0.25143193  1
  Mg  Mg92  1  0.66911219  0.08245477  0.25101279  1
  Mg  Mg93  1  0.00183970  0.08500796  0.74861084  1
  Mg  Mg94  1  0.50359987  0.33604473  0.25017856  1
  Mg  Mg95  1  0.16338527  0.83451038  0.25061142  1
  Fe  Fe96  1  0.64924664  0.67186868  0.89125696  1
  Fe  Fe97  1  0.47494251  0.91849153  0.39101297  1
  Fe  Fe98  1  0.68939222  0.33059440  0.10644465  1
  Fe  Fe99  1  0.80440929  0.08760911  0.39048191  1
  Fe  Fe100  1  0.96887617  0.83292126  0.39035956  1
  Fe  Fe101  1  0.14266303  0.58045256  0.39068024  1
  Fe  Fe102  1  0.64569142  0.66115901  0.38662108  1
  Fe  Fe103  1  0.31333900  0.16203834  0.89764233  1
  Fe  Fe104  1  0.85859883  0.91638871  0.60421917  1
  Fe  Fe105  1  0.85478466  0.41819141  0.60518057  1
  Fe  Fe106  1  0.47804363  0.58736061  0.89342716  1
  Fe  Fe107  1  0.36005920  0.83213077  0.10944592  1
  Fe  Fe108  1  0.30941726  0.33834228  0.89639437  1
  Fe  Fe109  1  0.69206702  0.83640370  0.10951388  1
  Fe  Fe110  1  0.86338019  0.41758766  0.10797915  1
  Fe  Fe111  1  0.52310374  0.58034291  0.60857557  1
  Fe  Fe112  1  0.03041085  0.83427085  0.10930283  1
  Si  Si113  1  0.19683493  0.41215556  0.11726992  1
  Si  Si114  1  0.36200080  0.33388456  0.11721489  1
  Si  Si115  1  0.97579037  0.16925372  0.88306159  1
  Si  Si116  1  0.52707571  0.92017958  0.11217917  1
  Si  Si117  1  0.86046744  0.09070882  0.61081871  1
  Si  Si118  1  0.64557519  0.16466891  0.88459290  1
  Si  Si119  1  0.13807606  0.91185923  0.88482983  1
  Si  Si120  1  0.79914545  0.91617655  0.38783443  1
  Si  Si121  1  0.96991374  0.66478369  0.39084514  1
  Si  Si122  1  0.35885146  0.83559730  0.61501233  1
  Si  Si123  1  0.52331625  0.41928930  0.11246011  1
  Si  Si124  1  0.80883304  0.57513578  0.88311773  1
  Si  Si125  1  0.35990777  0.16855256  0.11792109  1
  Si  Si126  1  0.30250369  0.83754782  0.38673946  1
  Si  Si127  1  0.51899699  0.41167540  0.61202891  1
  Si  Si128  1  0.97209331  0.33308939  0.88248209  1
  Si  Si129  1  0.19149986  0.08792009  0.11565461  1
  Si  Si130  1  0.35039286  0.66242515  0.11172981  1
  Si  Si131  1  0.19948394  0.41656490  0.61730822  1
  Si  Si132  1  0.30239020  0.66761999  0.88820963  1
  Si  Si133  1  0.03244450  0.33566484  0.61253433  1
  Si  Si134  1  0.19476942  0.58184340  0.61683563  1
  Si  Si135  1  0.31177969  0.32904671  0.38697244  1
  Si  Si136  1  0.52201755  0.08238215  0.11786155  1
  Si  Si137  1  0.13647182  0.07803281  0.88909365  1
  Si  Si138  1  0.13855734  0.91931794  0.38705787  1
  Si  Si139  1  0.48423310  0.41902911  0.89009990  1
  Si  Si140  1  0.19769630  0.92344071  0.11036090  1
  Si  Si141  1  0.85124616  0.58722270  0.11147792  1
  Si  Si142  1  0.64241114  0.32997330  0.88187941  1
  Si  Si143  1  0.68825866  0.16490437  0.61298502  1
  Si  Si144  1  0.63887127  0.83016403  0.38711941  1
  Si  Si145  1  0.51810873  0.58282049  0.11493560  1
  Si  Si146  1  0.81320686  0.41287465  0.38355367  1
  Si  Si147  1  0.47945877  0.91092547  0.88761113  1
  Si  Si148  1  0.69212664  0.66876366  0.61086992  1
  Si  Si149  1  0.03262972  0.33244193  0.11343845  1
  Si  Si150  1  0.35449911  0.67143204  0.61246750  1
  Si  Si151  1  0.80889922  0.57618855  0.38534941  1
  Si  Si152  1  0.30942335  0.83462528  0.88666008  1
  Si  Si153  1  0.96656895  0.66642840  0.88250398  1
  Si  Si154  1  0.68549816  0.16216819  0.11188258  1
  Si  Si155  1  0.30583156  0.67204653  0.38650017  1
  Si  Si156  1  0.68682562  0.83142746  0.60904265  1
  Si  Si157  1  0.52273235  0.91433943  0.61474356  1
  Si  Si158  1  0.47608624  0.08762233  0.38897749  1
  Si  Si159  1  0.85798766  0.08673786  0.11438993  1
  Si  Si160  1  0.35875937  0.32709930  0.61853709  1
  Si  Si161  1  0.85734839  0.59058573  0.60976880  1
  Si  Si162  1  0.19665409  0.91766676  0.61722236  1
  Si  Si163  1  0.68519315  0.32950720  0.60896413  1
  Si  Si164  1  0.68467662  0.66616777  0.11213445  1
  Si  Si165  1  0.81302921  0.92326199  0.88183347  1
  Si  Si166  1  0.86187366  0.92094815  0.10913054  1
  Si  Si167  1  0.81251524  0.08702416  0.88233385  1
  Si  Si168  1  0.48186423  0.07998087  0.89137498  1
  Si  Si169  1  0.13391702  0.58844760  0.88450906  1
  Si  Si170  1  0.65060456  0.83643171  0.88684961  1
  Si  Si171  1  0.52561728  0.08175873  0.61584831  1
  Si  Si172  1  0.19252771  0.08167432  0.61793044  1
  Si  Si173  1  0.13332803  0.42202873  0.88834015  1
  Si  Si174  1  0.14424973  0.08326793  0.38573943  1
  Si  Si175  1  0.47381419  0.41785792  0.38581373  1
  Si  Si176  1  0.35919364  0.16287201  0.61746747  1
  Si  Si177  1  0.02395819  0.16793349  0.11460931  1
  Si  Si178  1  0.80606515  0.41094008  0.88107741  1
  Si  Si179  1  0.14754131  0.41134403  0.38933924  1
  Si  Si180  1  0.63560938  0.17495695  0.38905685  1
  Si  Si181  1  0.02948164  0.66468977  0.61478657  1
  Si  Si182  1  0.46893394  0.58411491  0.38640380  1
  Si  Si183  1  0.03383156  0.83089944  0.61211614  1
  Si  Si184  1  0.97951568  0.33091007  0.38498047  1
  Si  Si185  1  0.97078323  0.83153413  0.88311336  1
  Si  Si186  1  0.18832278  0.57620986  0.11475168  1
  Si  Si187  1  0.97942133  0.16673385  0.38862805  1
  Si  Si188  1  0.02389907  0.66638694  0.11180050  1
  Si  Si189  1  0.64306643  0.34012231  0.38569464  1
  Si  Si190  1  0.03083105  0.16949835  0.61565045  1
  Si  Si191  1  0.30870785  0.16499134  0.38639954  1
  O  O192  1  0.27316194  0.12355487  0.08838306  1
  O  O193  1  0.27238466  0.11678663  0.58830463  1
  O  O194  1  0.26868034  0.60814946  0.08388054  1
  O  O195  1  0.26579405  0.62615705  0.58554050  1
  O  O196  1  0.60639277  0.10476437  0.08791744  1
  O  O197  1  0.60496655  0.11519114  0.58331975  1
  O  O198  1  0.60085971  0.61291189  0.08701068  1
  O  O199  1  0.61976438  0.61359440  0.57719691  1
  O  O200  1  0.93813661  0.12300894  0.08308237  1
  O  O201  1  0.93824974  0.13591840  0.58553135  1
  O  O202  1  0.93355902  0.62543687  0.08461586  1
  O  O203  1  0.94075024  0.62614116  0.58429250  1
  O  O204  1  0.12316035  0.35397358  0.08927966  1
  O  O205  1  0.11314786  0.37334142  0.58567317  1
  O  O206  1  0.12189891  0.87299943  0.07385705  1
  O  O207  1  0.11803236  0.86530385  0.58758853  1
  O  O208  1  0.44044075  0.36605198  0.08650621  1
  O  O209  1  0.43806350  0.35643030  0.58628877  1
  O  O210  1  0.45589321  0.86356416  0.07757466  1
  O  O211  1  0.43602010  0.86952071  0.58193877  1
  O  O212  1  0.78027396  0.35488732  0.06780256  1
  O  O213  1  0.75988855  0.35991947  0.57330527  1
  O  O214  1  0.78305987  0.87259331  0.07282626  1
  O  O215  1  0.75959716  0.86542630  0.57246054  1
  O  O216  1  0.28002960  0.38380584  0.08813276  1
  O  O217  1  0.27460252  0.37517481  0.58717769  1
  O  O218  1  0.28249556  0.90606966  0.08090071  1
  O  O219  1  0.27836649  0.88892452  0.58740822  1
  O  O220  1  0.59735236  0.39256159  0.07537840  1
  O  O221  1  0.59693339  0.37245130  0.58154941  1
  O  O222  1  0.61085320  0.90804797  0.08019156  1
  O  O223  1  0.60065671  0.88036399  0.58314296  1
  O  O224  1  0.96273328  0.38594825  0.07578344  1
  O  O225  1  0.94831996  0.37456365  0.57543255  1
  O  O226  1  0.94329329  0.89793001  0.07613883  1
  O  O227  1  0.95293532  0.87408591  0.57568664  1
  O  O228  1  0.10666886  0.13543917  0.08647617  1
  O  O229  1  0.10616286  0.12609774  0.58692393  1
  O  O230  1  0.09999625  0.61770167  0.08479385  1
  O  O231  1  0.10343651  0.61875688  0.58756949  1
  O  O232  1  0.44157047  0.13677952  0.08974799  1
  O  O233  1  0.43733815  0.12672978  0.58582993  1
  O  O234  1  0.43309137  0.62992756  0.08357946  1
  O  O235  1  0.42693445  0.63957536  0.57586454  1
  O  O236  1  0.77084793  0.13158696  0.08487602  1
  O  O237  1  0.77259561  0.13681199  0.58537630  1
  O  O238  1  0.76487951  0.63358554  0.08021391  1
  O  O239  1  0.78109134  0.64764169  0.58446602  1
  O  O240  1  0.06569371  0.11804466  0.41617091  1
  O  O241  1  0.05498219  0.11752678  0.91396961  1
  O  O242  1  0.04728971  0.61112349  0.42232498  1
  O  O243  1  0.05633370  0.62727367  0.91305084  1
  O  O244  1  0.38914154  0.11450320  0.41625682  1
  O  O245  1  0.41248375  0.10967443  0.93279337  1
  O  O246  1  0.38801935  0.62029772  0.41362473  1
  O  O247  1  0.37657845  0.61670716  0.92367153  1
  O  O248  1  0.71292519  0.12794014  0.42697884  1
  O  O249  1  0.73403281  0.12136295  0.91312032  1
  O  O250  1  0.73043637  0.59591881  0.42213607  1
  O  O251  1  0.73446020  0.60200418  0.91965228  1
  O  O252  1  0.22967068  0.35668376  0.41681598  1
  O  O253  1  0.21381629  0.37971604  0.92676129  1
  O  O254  1  0.21608387  0.86265959  0.41459015  1
  O  O255  1  0.23083395  0.87630589  0.91371921  1
  O  O256  1  0.56514157  0.38005124  0.41544826  1
  O  O257  1  0.56223909  0.35968779  0.91227097  1
  O  O258  1  0.55693049  0.84994428  0.42104662  1
  O  O259  1  0.56630948  0.86680390  0.91674855  1
  O  O260  1  0.89689300  0.36210535  0.41353749  1
  O  O261  1  0.88642550  0.35720115  0.90945110  1
  O  O262  1  0.87254669  0.86169718  0.42302648  1
  O  O263  1  0.89841994  0.87612258  0.91384084  1
  O  O264  1  0.06530552  0.37609977  0.41667314  1
  O  O265  1  0.04767098  0.38891476  0.91258133  1
  O  O266  1  0.05970505  0.89785379  0.42155500  1
  O  O267  1  0.06483851  0.86536688  0.91282293  1
  O  O268  1  0.39900556  0.37343029  0.41558486  1
  O  O269  1  0.40651970  0.39301162  0.92626699  1
  O  O270  1  0.37463696  0.89259340  0.42116358  1
  O  O271  1  0.39748274  0.87703619  0.91783701  1
  O  O272  1  0.73215344  0.38069398  0.41592275  1
  O  O273  1  0.72669493  0.37840461  0.91207883  1
  O  O274  1  0.70929584  0.89353619  0.41140166  1
  O  O275  1  0.72754662  0.89736416  0.90797077  1
  O  O276  1  0.22633326  0.13497842  0.41516539  1
  O  O277  1  0.22151859  0.11341014  0.92763108  1
  O  O278  1  0.23183252  0.64458398  0.42431629  1
  O  O279  1  0.21535183  0.63854833  0.91315478  1
  O  O280  1  0.54609325  0.15125242  0.41305715  1
  O  O281  1  0.57250259  0.12335863  0.91682902  1
  O  O282  1  0.55143857  0.62577516  0.42191496  1
  O  O283  1  0.55505182  0.65527354  0.92914579  1
  O  O284  1  0.90535435  0.13845831  0.42535504  1
  O  O285  1  0.89389871  0.13871973  0.91230832  1
  O  O286  1  0.88764080  0.62915315  0.41828987  1
  O  O287  1  0.89528397  0.62260216  0.91339745  1
  O  O288  1  0.17242336  0.00805004  0.08518147  1
  O  O289  1  0.17867911  -0.00026355  0.58848474  1
  O  O290  1  0.17425361  0.49262498  0.08697951  1
  O  O291  1  0.19349099  0.49919403  0.58839353  1
  O  O292  1  0.49107765  0.00318900  0.08973608  1
  O  O293  1  0.50923962  -0.00100933  0.58786801  1
  O  O294  1  0.49525148  0.50095739  0.08586136  1
  O  O295  1  0.49677419  0.48659752  0.57308974  1
  O  O296  1  0.84324834  0.00639544  0.08314429  1
  O  O297  1  0.85198023  0.01365542  0.57533374  1
  O  O298  1  0.84118945  0.51068926  0.07260764  1
  O  O299  1  0.83833340  0.51340829  0.57409868  1
  O  O300  1  0.01150379  0.24946125  0.08485007  1
  O  O301  1  0.03367899  0.25117589  0.58671045  1
  O  O302  1  0.01928260  0.74135806  0.07076056  1
  O  O303  1  0.03177528  0.74660045  0.58668616  1
  O  O304  1  0.34286308  0.25112536  0.09058706  1
  O  O305  1  0.34115175  0.24462023  0.58741546  1
  O  O306  1  0.32561149  0.73925505  0.07681183  1
  O  O307  1  0.33415091  0.75509431  0.58564009  1
  O  O308  1  0.65680535  0.23627314  0.07435605  1
  O  O309  1  0.66585942  0.24539787  0.58253552  1
  O  O310  1  0.66095934  0.74353831  0.07692973  1
  O  O311  1  0.66478054  0.74945732  0.58037010  1
  O  O312  1  0.16855421  0.00235130  0.41434649  1
  O  O313  1  0.13307119  -0.00671625  0.91396156  1
  O  O314  1  0.17168837  0.48669471  0.42579818  1
  O  O315  1  0.14151882  0.50674849  0.91425310  1
  O  O316  1  0.50531890  0.01280399  0.42476578  1
  O  O317  1  0.49712289  -0.00587635  0.91365469  1
  O  O318  1  0.47252376  0.49940172  0.41401428  1
  O  O319  1  0.51781346  0.49549782  0.92263837  1
  O  O320  1  0.82139009  -0.00548482  0.42250429  1
  O  O321  1  0.83310302  0.00572214  0.91196206  1
  O  O322  1  0.83663075  0.49296899  0.41302986  1
  O  O323  1  0.83271270  0.49135047  0.90938982  1
  O  O324  1  0.32970715  0.24656337  0.41562243  1
  O  O325  1  0.32224291  0.25019541  0.93935445  1
  O  O326  1  0.32865707  0.75519010  0.41273105  1
  O  O327  1  0.31411639  0.75214402  0.91487727  1
  O  O328  1  0.64936194  0.25872407  0.41705746  1
  O  O329  1  0.65957840  0.24747663  0.91276222  1
  O  O330  1  0.67650230  0.75418222  0.41806756  1
  O  O331  1  0.68705904  0.76429867  0.92445612  1
  O  O332  1  1.00188555  0.24974825  0.41585612  1
  O  O333  1  0.99622052  0.25132253  0.91161338  1
  O  O334  1  0.99181169  0.74190242  0.42864542  1
  O  O335  1  0.97116576  0.74904855  0.91125850  1
  O  O336  1  0.21016762  0.08679094  0.19616435  1
  O  O337  1  0.20840132  0.08262690  0.69809922  1
  O  O338  1  0.21058165  0.57952889  0.19465101  1
  O  O339  1  0.21094636  0.58319503  0.69742776  1
  O  O340  1  0.54099641  0.08578049  0.19846391  1
  O  O341  1  0.54718240  0.08937837  0.69470999  1
  O  O342  1  0.53103622  0.58235387  0.19413565  1
  O  O343  1  0.53939382  0.58036697  0.69814635  1
  O  O344  1  0.88070743  0.09038613  0.19354349  1
  O  O345  1  0.88097571  0.08774794  0.69197936  1
  O  O346  1  0.86557570  0.58517585  0.19040032  1
  O  O347  1  0.87655636  0.58502262  0.69097906  1
  O  O348  1  0.04739601  0.32942415  0.19444729  1
  O  O349  1  0.04667864  0.33545862  0.69378770  1
  O  O350  1  0.04642873  0.83512338  0.20052788  1
  O  O351  1  0.04649738  0.83256272  0.69345366  1
  O  O352  1  0.37836899  0.33326808  0.19778473  1
  O  O353  1  0.37299980  0.32935258  0.69774293  1
  O  O354  1  0.37525955  0.83198603  0.20081833  1
  O  O355  1  0.37480151  0.83385837  0.69535899  1
  O  O356  1  0.70884794  0.33162726  0.19871437  1
  O  O357  1  0.70765260  0.33073757  0.68968664  1
  O  O358  1  0.70942264  0.83409647  0.20091518  1
  O  O359  1  0.71246737  0.82865153  0.68890301  1
  O  O360  1  0.21506019  0.41295261  0.19773698  1
  O  O361  1  0.21128734  0.41745997  0.69739178  1
  O  O362  1  0.21004406  0.92059913  0.19203393  1
  O  O363  1  0.21175659  0.91693854  0.69784684  1
  O  O364  1  0.54040765  0.41639143  0.19340907  1
  O  O365  1  0.54064274  0.41639476  0.69176203  1
  O  O366  1  0.54236213  0.91801857  0.19348214  1
  O  O367  1  0.53555010  0.90945901  0.69292616  1
  O  O368  1  0.88198577  0.41308148  0.19871627  1
  O  O369  1  0.87895087  0.41652141  0.69706345  1
  O  O370  1  0.87681401  0.91717746  0.18939474  1
  O  O371  1  0.88075134  0.91766203  0.69614177  1
  O  O372  1  0.04343824  0.16618311  0.19518200  1
  O  O373  1  0.04758805  0.16751297  0.69633643  1
  O  O374  1  0.04569146  0.67387293  0.19110724  1
  O  O375  1  0.04521138  0.66596410  0.69557933  1
  O  O376  1  0.37690488  0.16746189  0.19848447  1
  O  O377  1  0.37757873  0.16356090  0.69723274  1
  O  O378  1  0.36970788  0.66437548  0.19273976  1
  O  O379  1  0.37142398  0.66859503  0.69316683  1
  O  O380  1  0.70518685  0.16685548  0.19262517  1
  O  O381  1  0.70930307  0.16746133  0.69333020  1
  O  O382  1  0.70815231  0.66962710  0.19159828  1
  O  O383  1  0.71137284  0.66981641  0.69099720  1
  O  O384  1  0.12526277  0.08463540  0.30527018  1
  O  O385  1  0.12298675  0.08199917  0.80791311  1
  O  O386  1  0.13280737  0.58142368  0.30098422  1
  O  O387  1  0.11955032  0.58520167  0.80394031  1
  O  O388  1  0.45538714  0.08575866  0.30789406  1
  O  O389  1  0.45523936  0.08957143  0.81207910  1
  O  O390  1  0.45272291  0.58263855  0.30559504  1
  O  O391  1  0.45352042  0.58465511  0.80117247  1
  O  O392  1  0.78604411  0.08857481  0.30015888  1
  O  O393  1  0.79681284  0.08765596  0.80220241  1
  O  O394  1  0.79147503  0.58160707  0.30628092  1
  O  O395  1  0.79589637  0.57990099  0.80302714  1
  O  O396  1  0.29288030  0.33084203  0.30651769  1
  O  O397  1  0.28809266  0.33362460  0.80382270  1
  O  O398  1  0.28531916  0.83705319  0.30575955  1
  O  O399  1  0.29008241  0.83390647  0.80596375  1
  O  O400  1  0.62209791  0.33510469  0.30581839  1
  O  O401  1  0.62859398  0.33074581  0.80225835  1
  O  O402  1  0.61767259  0.83226558  0.30571588  1
  O  O403  1  0.62352100  0.82838555  0.80757287  1
  O  O404  1  0.96158957  0.32835243  0.30513934  1
  O  O405  1  0.95734967  0.33205488  0.80206047  1
  O  O406  1  0.95188273  0.83466873  0.29916310  1
  O  O407  1  0.95796768  0.83258376  0.80289842  1
  O  O408  1  0.13111976  0.41110775  0.30867665  1
  O  O409  1  0.12067247  0.41876831  0.80703837  1
  O  O410  1  0.12382141  0.92040389  0.30625543  1
  O  O411  1  0.12208298  0.91416329  0.80417146  1
  O  O412  1  0.45572067  0.41481489  0.30558670  1
  O  O413  1  0.45810811  0.41971394  0.80947749  1
  O  O414  1  0.45362477  0.91984597  0.29947865  1
  O  O415  1  0.45375949  0.90636792  0.80848247  1
  O  O416  1  0.78823923  0.40932481  0.30502547  1
  O  O417  1  0.78800720  0.41225088  0.80092240  1
  O  O418  1  0.78688974  0.91574179  0.30748469  1
  O  O419  1  0.80353567  0.92048536  0.80288247  1
  O  O420  1  0.29029273  0.16661057  0.30594690  1
  O  O421  1  0.28910998  0.16555494  0.80452439  1
  O  O422  1  0.28826037  0.66865082  0.30541109  1
  O  O423  1  0.28754713  0.66775643  0.80686356  1
  O  O424  1  0.62257989  0.17093964  0.30809550  1
  O  O425  1  0.62660311  0.16724756  0.80446198  1
  O  O426  1  0.61868476  0.66641915  0.29698061  1
  O  O427  1  0.62482166  0.67001786  0.80049994  1
  O  O428  1  0.96071543  0.16592042  0.30772838  1
  O  O429  1  0.95839883  0.16859010  0.80245324  1
  O  O430  1  0.95187267  0.67314162  0.31089965  1
  O  O431  1  0.95386812  0.66660984  0.80208636  1
  F  F432  1  0.04626018  0.00373027  0.20117887  1
  F  F433  1  0.04936204  0.00091007  0.70207520  1
  F  F434  1  0.05374442  0.48528354  0.19856313  1
  F  F435  1  0.04760299  0.50095884  0.70143423  1
  F  F436  1  0.37667154  0.00562444  0.20145548  1
  F  F437  1  0.36683818  0.00193738  0.70348931  1
  F  F438  1  0.37749181  0.49836942  0.20405875  1
  F  F439  1  0.37379825  0.49639462  0.70312788  1
  F  F440  1  0.70408213  0.00018841  0.20160217  1
  F  F441  1  0.71902440  0.01326308  0.69474176  1
  F  F442  1  0.70440953  0.49809669  0.19783460  1
  F  F443  1  0.71374052  0.49123180  0.69527007  1
  F  F444  1  0.21440291  0.24883268  0.20362654  1
  F  F445  1  0.20990473  0.24917547  0.70280904  1
  F  F446  1  0.21048571  0.75048829  0.20341476  1
  F  F447  1  0.21192621  0.74991935  0.70370120  1
  F  F448  1  0.54312614  0.24983640  0.20426803  1
  F  F449  1  0.54472486  0.24434158  0.69972689  1
  F  F450  1  0.53890810  0.75151642  0.19957934  1
  F  F451  1  0.54197526  0.75014060  0.70023039  1
  F  F452  1  0.87984160  0.24750503  0.20254356  1
  F  F453  1  0.88107571  0.25035457  0.69791118  1
  F  F454  1  0.87638738  0.74797220  0.20059051  1
  F  F455  1  0.88112637  0.74984314  0.69941334  1
  F  F456  1  0.28599068  0.00203697  0.29696925  1
  F  F457  1  0.28729804  -0.00214092  0.80355409  1
  F  F458  1  0.29021362  0.49758323  0.29956004  1
  F  F459  1  0.28607452  0.50115365  0.80047565  1
  F  F460  1  0.61842925  0.00209434  0.29884114  1
  F  F461  1  0.63931401  0.01379510  0.80975793  1
  F  F462  1  0.61583255  0.49014311  0.30180045  1
  F  F463  1  0.62306263  0.49219914  0.79823717  1
  F  F464  1  0.96001277  0.00043429  0.29891561  1
  F  F465  1  0.95843364  0.00315212  0.79594673  1
  F  F466  1  0.97046879  0.48382070  0.31556950  1
  F  F467  1  0.95511073  0.50163589  0.79564652  1
  F  F468  1  0.12344513  0.24810063  0.29834426  1
  F  F469  1  0.11967151  0.25120797  0.79906825  1
  F  F470  1  0.12188866  0.74957066  0.30011319  1
  F  F471  1  0.12007689  0.75020655  0.79768872  1
  F  F472  1  0.45483075  0.25184486  0.30015131  1
  F  F473  1  0.45582315  0.24583411  0.80201122  1
  F  F474  1  0.45198052  0.74628093  0.29775297  1
  F  F475  1  0.45301752  0.74889416  0.79688849  1
  F  F476  1  0.78989852  0.24853698  0.29793195  1
  F  F477  1  0.78922729  0.25027830  0.79247507  1
  F  F478  1  0.78680614  0.74803965  0.29705156  1
  F  F479  1  0.79156444  0.75187113  0.79449731  1
