# generated using pymatgen
data_K24Na3Li5Mg64Fe17Si79(O5F)48
_symmetry_space_group_name_H-M   'P 1'
_cell_length_a   16.09200461
_cell_length_b   18.60240606
_cell_length_c   20.55829133
_cell_angle_alpha   90.01458912
_cell_angle_beta   100.02445764
_cell_angle_gamma   89.98711232
_symmetry_Int_Tables_number   1
_chemical_formula_structural   K24Na3Li5Mg64Fe17Si79(O5F)48
_chemical_formula_sum   'K24 Na3 Li5 Mg64 Fe17 Si79 O240 F48'
_cell_volume   6060.17258913
_cell_formula_units_Z   1
loop_
 _symmetry_equiv_pos_site_id
 _symmetry_equiv_pos_as_xyz
  1  'x, y, z'
loop_
 _atom_site_type_symbol
 _atom_site_label
 _atom_site_symmetry_multiplicity
 _atom_site_fract_x
 _atom_site_fract_y
 _atom_site_fract_z
 _atom_site_occupancy
  K  K0  1  0.00608563  0.00165989  0.01098829  1
  K  K1  1  0.00076118  0.01226789  0.49637547  1
  K  K2  1  0.00724992  0.49658925  0.00883487  1
  K  K3  1  0.01292913  0.49606748  0.49580491  1
  K  K4  1  0.32896883  0.00680062  0.00740948  1
  K  K5  1  0.33061137  -0.00402697  0.50154145  1
  K  K6  1  0.31273023  0.48717285  0.00395689  1
  K  K7  1  0.32678486  0.49753449  0.49141841  1
  K  K8  1  0.66784411  -0.00011522  0.00620634  1
  K  K9  1  0.66281830  0.00873750  0.49633077  1
  K  K10  1  0.67204830  0.49928894  0.00549772  1
  K  K11  1  0.66199959  0.49461806  0.49690583  1
  K  K12  1  0.16363788  0.25545256  -0.00215815  1
  K  K13  1  0.16263549  0.24358445  0.50479841  1
  K  K14  1  0.18121729  0.74578681  0.01177578  1
  K  K15  1  0.16583174  0.74206363  0.48710231  1
  K  K16  1  0.49227539  0.25400642  0.00441761  1
  K  K17  1  0.49915627  0.25564649  0.49334635  1
  K  K18  1  0.49806890  0.74850030  0.00606803  1
  K  K19  1  0.49569989  0.75423355  0.49436777  1
  K  K20  1  0.83065706  0.25140058  0.00237559  1
  K  K21  1  0.83404390  0.24536973  0.50327944  1
  K  K22  1  0.84135519  0.74614422  0.00800431  1
  K  K23  1  0.83657353  0.74944676  0.49373896  1
  Na  Na24  1  0.16712483  0.49921841  0.25250426  1
  Na  Na25  1  0.33263154  0.07707853  0.75079344  1
  Na  Na26  1  0.50046174  0.16574571  0.25636823  1
  Li  Li27  1  0.50345641  0.00216053  0.25333643  1
  Li  Li28  1  0.00479207  0.25073308  0.74558721  1
  Li  Li29  1  -0.00207624  0.91409665  0.24129351  1
  Li  Li30  1  0.66794589  0.58255572  0.24832729  1
  Li  Li31  1  0.33328624  0.92017072  0.75049136  1
  Mg  Mg32  1  0.16558819  0.49781004  0.75225474  1
  Mg  Mg33  1  0.83423539  0.49768364  0.75103520  1
  Mg  Mg34  1  0.33431584  0.75288636  0.74997271  1
  Mg  Mg35  1  0.66271520  0.25056331  0.25475141  1
  Mg  Mg36  1  0.83280587  0.00096506  0.74730127  1
  Mg  Mg37  1  0.66633993  0.75115344  0.74695663  1
  Mg  Mg38  1  0.00110932  0.75101739  0.24450820  1
  Mg  Mg39  1  0.00016148  0.75324017  0.75014695  1
  Mg  Mg40  1  0.50143534  0.50160166  0.25395742  1
  Mg  Mg41  1  0.66947255  0.74837100  0.24538344  1
  Mg  Mg42  1  0.33170474  0.24944400  0.75314797  1
  Mg  Mg43  1  0.33514172  0.75099906  0.24695310  1
  Mg  Mg44  1  0.50014397  0.49888980  0.75260727  1
  Mg  Mg45  1  0.83032026  0.50252114  0.24608679  1
  Mg  Mg46  1  0.66828902  0.25098276  0.75152394  1
  Mg  Mg47  1  0.33372040  0.24910282  0.25624759  1
  Mg  Mg48  1  0.17029913  0.00051437  0.74911247  1
  Mg  Mg49  1  -0.00282979  0.25063889  0.25083889  1
  Mg  Mg50  1  0.49659860  -0.00180642  0.74852827  1
  Mg  Mg51  1  0.83575249  -0.00166617  0.24846007  1
  Mg  Mg52  1  0.16294419  -0.00221263  0.24390364  1
  Mg  Mg53  1  -0.00050886  0.58335654  0.24641096  1
  Mg  Mg54  1  0.83491623  0.33319383  0.75172333  1
  Mg  Mg55  1  0.66960904  0.41421368  0.75172948  1
  Mg  Mg56  1  0.66273148  0.08211722  0.25452763  1
  Mg  Mg57  1  -0.00133002  0.41672315  0.25025918  1
  Mg  Mg58  1  0.82998806  0.33465006  0.24994413  1
  Mg  Mg59  1  0.49782797  0.16574689  0.75255166  1
  Mg  Mg60  1  0.83287946  0.66503600  0.24736515  1
  Mg  Mg61  1  0.33527166  0.08098912  0.25004784  1
  Mg  Mg62  1  0.00120511  0.41122870  0.75098684  1
  Mg  Mg63  1  0.16681956  0.66791921  0.75121413  1
  Mg  Mg64  1  0.83547980  0.16715433  0.74724878  1
  Mg  Mg65  1  0.50273014  0.83634101  0.24778788  1
  Mg  Mg66  1  0.16529438  0.16770526  0.74989279  1
  Mg  Mg67  1  0.82827816  0.16483943  0.24955251  1
  Mg  Mg68  1  0.33591349  0.91942101  0.24755198  1
  Mg  Mg69  1  0.66536952  0.91521967  0.74576817  1
  Mg  Mg70  1  0.83022702  0.83484219  0.74684246  1
  Mg  Mg71  1  0.00088263  0.58497861  0.75217087  1
  Mg  Mg72  1  0.83244609  0.66631906  0.74962110  1
  Mg  Mg73  1  0.16668073  0.66594439  0.24796128  1
  Mg  Mg74  1  0.50500456  0.66581102  0.24892192  1
  Mg  Mg75  1  0.66476289  0.08441207  0.74962450  1
  Mg  Mg76  1  0.16819093  0.33361703  0.25352443  1
  Mg  Mg77  1  0.66474479  0.41998633  0.25230104  1
  Mg  Mg78  1  0.33041364  0.41451864  0.75254510  1
  Mg  Mg79  1  0.17117145  0.83705315  0.75007854  1
  Mg  Mg80  1  0.33338626  0.41592573  0.25523103  1
  Mg  Mg81  1  0.16468252  0.83654870  0.24434897  1
  Mg  Mg82  1  0.49982649  0.66676741  0.75018782  1
  Mg  Mg83  1  0.33548531  0.58453710  0.25344587  1
  Mg  Mg84  1  0.49934644  0.33401418  0.75341001  1
  Mg  Mg85  1  0.16557560  0.33459546  0.75055912  1
  Mg  Mg86  1  0.33169663  0.58460066  0.74968499  1
  Mg  Mg87  1  0.16700748  0.16431342  0.25059947  1
  Mg  Mg88  1  0.49762416  0.83604439  0.74813025  1
  Mg  Mg89  1  0.49964374  0.33545227  0.25619962  1
  Mg  Mg90  1  0.00113887  0.08595839  0.74754914  1
  Mg  Mg91  1  0.83726860  0.83495305  0.24525270  1
  Mg  Mg92  1  0.00006438  0.91745327  0.74830117  1
  Mg  Mg93  1  0.66789063  0.91713526  0.24760787  1
  Mg  Mg94  1  0.66763023  0.58347594  0.75118497  1
  Mg  Mg95  1  -0.00347136  0.08126290  0.24576613  1
  Fe  Fe96  1  0.47352667  0.42264327  0.39408659  1
  Fe  Fe97  1  0.19745553  0.58304232  0.11012785  1
  Fe  Fe98  1  0.80574575  0.41452195  0.89251676  1
  Fe  Fe99  1  0.85800497  0.91715133  0.10672986  1
  Fe  Fe100  1  0.68790747  0.83029419  0.60598869  1
  Fe  Fe101  1  0.30905857  0.32270495  0.39573479  1
  Fe  Fe102  1  0.64727232  0.17120369  0.39612379  1
  Fe  Fe103  1  0.02221443  0.16612696  0.60908145  1
  Fe  Fe104  1  0.47564367  0.07642128  0.39238897  1
  Fe  Fe105  1  0.13182514  0.41804473  0.89361470  1
  Fe  Fe106  1  0.19642789  0.91619341  0.10591381  1
  Fe  Fe107  1  0.19609593  0.41903748  0.61003991  1
  Fe  Fe108  1  0.85616272  0.58204721  0.10723235  1
  Fe  Fe109  1  0.13597583  0.40579221  0.39328173  1
  Fe  Fe110  1  0.69743026  0.33434965  0.61090271  1
  Fe  Fe111  1  0.30632172  0.33030909  0.89410170  1
  Fe  Fe112  1  0.14360813  0.58298789  0.39050845  1
  Si  Si113  1  0.68497361  0.16757487  0.11485399  1
  Si  Si114  1  0.52069427  0.92003405  0.61141842  1
  Si  Si115  1  0.63344237  0.33307700  0.89086945  1
  Si  Si116  1  0.35946327  0.66852791  0.61488994  1
  Si  Si117  1  0.85944858  0.91364083  0.61169067  1
  Si  Si118  1  0.36152499  0.33063528  0.11683606  1
  Si  Si119  1  0.36836423  0.83358625  0.11025462  1
  Si  Si120  1  0.64823500  0.66814199  0.38214064  1
  Si  Si121  1  0.81121869  0.58671138  0.88739792  1
  Si  Si122  1  0.31097761  0.16196868  0.88906249  1
  Si  Si123  1  0.86816552  0.42097189  0.61264876  1
  Si  Si124  1  0.68713024  0.16282269  0.61390919  1
  Si  Si125  1  0.47775473  0.91500640  0.88585144  1
  Si  Si126  1  0.68956694  0.66860044  0.11083820  1
  Si  Si127  1  0.31128540  0.66949162  0.88576865  1
  Si  Si128  1  0.97576548  0.83221716  0.38166525  1
  Si  Si129  1  0.13488754  0.08288377  0.38194826  1
  Si  Si130  1  0.19351477  0.08226442  0.61156927  1
  Si  Si131  1  0.02232817  0.33149883  0.11489808  1
  Si  Si132  1  0.19304335  0.40857706  0.11430990  1
  Si  Si133  1  0.48183029  0.90971322  0.38537436  1
  Si  Si134  1  0.68709461  0.33127505  0.11711051  1
  Si  Si135  1  0.30661620  0.15338329  0.38919502  1
  Si  Si136  1  0.02731366  0.83128677  0.10690379  1
  Si  Si137  1  0.52065209  0.57879304  0.61720317  1
  Si  Si138  1  0.47888599  0.07863564  0.88701783  1
  Si  Si139  1  0.02796379  0.83879188  0.61411422  1
  Si  Si140  1  0.81053087  0.91431346  0.38290469  1
  Si  Si141  1  0.85279516  0.07809878  0.61137329  1
  Si  Si142  1  0.64311815  0.66917512  0.88486951  1
  Si  Si143  1  0.31263608  0.67441816  0.38781761  1
  Si  Si144  1  0.02108339  0.16805831  0.11369946  1
  Si  Si145  1  0.97358728  0.83920075  0.88407056  1
  Si  Si146  1  0.97370709  0.67449348  0.88499038  1
  Si  Si147  1  0.85934708  0.58648778  0.61539053  1
  Si  Si148  1  0.85338237  0.41084685  0.11280587  1
  Si  Si149  1  0.47765399  0.58599314  0.88609724  1
  Si  Si150  1  0.36016959  0.16991230  0.61763539  1
  Si  Si151  1  0.80622097  0.91987912  0.88360259  1
  Si  Si152  1  0.80750723  0.08516278  0.88509273  1
  Si  Si153  1  0.96712473  0.32597422  0.88859003  1
  Si  Si154  1  0.52444446  0.08020437  0.11627379  1
  Si  Si155  1  0.31049406  0.83402688  0.88446896  1
  Si  Si156  1  0.36613183  0.33331858  0.61575799  1
  Si  Si157  1  0.96151776  0.33100818  0.38658008  1
  Si  Si158  1  0.13937322  0.91778760  0.38081200  1
  Si  Si159  1  0.30923693  0.83902098  0.38314844  1
  Si  Si160  1  0.68568942  0.65963966  0.61244080  1
  Si  Si161  1  0.69028729  0.83108686  0.10954417  1
  Si  Si162  1  0.14363755  0.07962163  0.88580954  1
  Si  Si163  1  0.47136025  0.42091807  0.88938265  1
  Si  Si164  1  0.64016182  0.16631319  0.88758836  1
  Si  Si165  1  0.35963047  0.83242705  0.61501130  1
  Si  Si166  1  0.64752804  0.82992354  0.38205265  1
  Si  Si167  1  0.02549982  0.66768065  0.10762574  1
  Si  Si168  1  0.85128122  0.08808026  0.10998681  1
  Si  Si169  1  0.18865501  0.59085771  0.61430408  1
  Si  Si170  1  0.52781767  0.41650570  0.61803527  1
  Si  Si171  1  0.14147520  0.59164033  0.88818865  1
  Si  Si172  1  0.80871512  0.07816819  0.38644346  1
  Si  Si173  1  0.36766258  0.66623328  0.11172046  1
  Si  Si174  1  0.19466745  0.91600637  0.61396913  1
  Si  Si175  1  0.14342681  0.91521633  0.88441007  1
  Si  Si176  1  0.53155971  0.91780156  0.11370489  1
  Si  Si177  1  0.52977534  0.58136327  0.11601571  1
  Si  Si178  1  0.64667577  0.33968388  0.39071968  1
  Si  Si179  1  0.35791667  0.16672759  0.11697573  1
  Si  Si180  1  0.64199303  0.83398120  0.88472834  1
  Si  Si181  1  0.52094439  0.08405126  0.61644055  1
  Si  Si182  1  0.02686004  0.33504323  0.61150230  1
  Si  Si183  1  0.80952074  0.58425203  0.38267792  1
  Si  Si184  1  0.18904191  0.08849028  0.11049041  1
  Si  Si185  1  0.96937890  0.16506423  0.38210810  1
  Si  Si186  1  0.80502174  0.42166349  0.38332268  1
  Si  Si187  1  0.02330561  0.67393051  0.61583609  1
  Si  Si188  1  0.52460567  0.41771578  0.11646981  1
  Si  Si189  1  0.48126834  0.59449676  0.38894522  1
  Si  Si190  1  0.97633888  0.16043872  0.88439161  1
  Si  Si191  1  0.97272783  0.66865111  0.38642443  1
  O  O192  1  0.26659715  0.13111266  0.08214023  1
  O  O193  1  0.27970816  0.11718592  0.58937367  1
  O  O194  1  0.28826349  0.62182037  0.07302479  1
  O  O195  1  0.27053113  0.62762447  0.58687792  1
  O  O196  1  0.60035661  0.12045727  0.08294310  1
  O  O197  1  0.60561029  0.10908442  0.58891898  1
  O  O198  1  0.60985000  0.61307531  0.08504575  1
  O  O199  1  0.60601659  0.60303591  0.58873141  1
  O  O200  1  0.93320553  0.12517586  0.08292919  1
  O  O201  1  0.92811211  0.10580933  0.57583270  1
  O  O202  1  0.94961442  0.61455302  0.07323857  1
  O  O203  1  0.93677094  0.62851980  0.58703700  1
  O  O204  1  0.10380850  0.36350714  0.08647103  1
  O  O205  1  0.10927253  0.35506647  0.57902474  1
  O  O206  1  0.11010417  0.85101634  0.07405891  1
  O  O207  1  0.10858917  0.86934813  0.58330330  1
  O  O208  1  0.43719519  0.37366110  0.08661742  1
  O  O209  1  0.45637199  0.35532337  0.59259585  1
  O  O210  1  0.45226250  0.86545161  0.08290190  1
  O  O211  1  0.43532737  0.87140705  0.58397222  1
  O  O212  1  0.77046575  0.35746520  0.08718704  1
  O  O213  1  0.79089750  0.37128594  0.57738258  1
  O  O214  1  0.76721044  0.85363818  0.07266928  1
  O  O215  1  0.79022877  0.85563814  0.57828346  1
  O  O216  1  0.27020483  0.36616706  0.08450068  1
  O  O217  1  0.29635877  0.39003826  0.58202503  1
  O  O218  1  0.28982767  0.87946518  0.07168735  1
  O  O219  1  0.27147545  0.87466578  0.58524965  1
  O  O220  1  0.60360196  0.38022535  0.08625738  1
  O  O221  1  0.61006543  0.40205020  0.58540481  1
  O  O222  1  0.61177075  0.88731215  0.08159687  1
  O  O223  1  0.59649682  0.89252607  0.57535522  1
  O  O224  1  0.93503075  0.37514754  0.08456090  1
  O  O225  1  0.95495128  0.39870068  0.58637927  1
  O  O226  1  0.95287119  0.88626579  0.07301104  1
  O  O227  1  0.94908057  0.89243297  0.58626712  1
  O  O228  1  0.10053060  0.13436201  0.08320850  1
  O  O229  1  0.11224220  0.12391688  0.57131496  1
  O  O230  1  0.10850888  0.64604238  0.07667945  1
  O  O231  1  0.10675439  0.64518436  0.58828985  1
  O  O232  1  0.43405739  0.12225422  0.08867699  1
  O  O233  1  0.44180352  0.13711137  0.58807192  1
  O  O234  1  0.45088956  0.63345435  0.08392566  1
  O  O235  1  0.44034582  0.63181708  0.58786494  1
  O  O236  1  0.76701312  0.13955087  0.08325149  1
  O  O237  1  0.76607484  0.12421097  0.58589406  1
  O  O238  1  0.76458183  0.64390312  0.07255229  1
  O  O239  1  0.77056643  0.62853086  0.58609024  1
  O  O240  1  0.05526513  0.11925390  0.41056350  1
  O  O241  1  0.06214000  0.11317608  0.91480381  1
  O  O242  1  0.05173456  0.62442709  0.42611418  1
  O  O243  1  0.06435700  0.63721567  0.91383578  1
  O  O244  1  0.36947558  0.08861069  0.41876388  1
  O  O245  1  0.39535397  0.10890115  0.91370563  1
  O  O246  1  0.40639636  0.63987173  0.41695203  1
  O  O247  1  0.39747298  0.62272544  0.91464307  1
  O  O248  1  0.73763248  0.10586177  0.42625687  1
  O  O249  1  0.73105371  0.12557613  0.91559871  1
  O  O250  1  0.72670371  0.61387972  0.41277947  1
  O  O251  1  0.72897944  0.62463187  0.91363679  1
  O  O252  1  0.21089726  0.33583738  0.42879951  1
  O  O253  1  0.22105281  0.36325253  0.93524507  1
  O  O254  1  0.23064035  0.87891355  0.41213043  1
  O  O255  1  0.22945345  0.86876590  0.91315592  1
  O  O256  1  0.56834118  0.36431184  0.42529312  1
  O  O257  1  0.54903939  0.36467845  0.91703172  1
  O  O258  1  0.56145622  0.85157739  0.41013372  1
  O  O259  1  0.56397630  0.86865037  0.91675399  1
  O  O260  1  0.87456391  0.35982921  0.41153837  1
  O  O261  1  0.88162782  0.34006244  0.91949906  1
  O  O262  1  0.89620935  0.86778084  0.41235466  1
  O  O263  1  0.89632171  0.87993178  0.91234421  1
  O  O264  1  0.03526442  0.38074088  0.42436028  1
  O  O265  1  0.03895664  0.37991600  0.92659567  1
  O  O266  1  0.06378049  0.87638311  0.41182201  1
  O  O267  1  0.06259069  0.88012042  0.91297502  1
  O  O268  1  0.38946253  0.38807090  0.43551699  1
  O  O269  1  0.39351713  0.39907230  0.92429091  1
  O  O270  1  0.39794722  0.87916219  0.41527456  1
  O  O271  1  0.39722121  0.87909505  0.91424749  1
  O  O272  1  0.71925222  0.40402933  0.41193009  1
  O  O273  1  0.71079878  0.38122080  0.92739020  1
  O  O274  1  0.72928756  0.88119053  0.41274614  1
  O  O275  1  0.72901974  0.87932596  0.91233365  1
  O  O276  1  0.21569188  0.13121089  0.41386340  1
  O  O277  1  0.23116598  0.12151630  0.91751640  1
  O  O278  1  0.24282196  0.63729608  0.42409252  1
  O  O279  1  0.22944323  0.63856193  0.91378681  1
  O  O280  1  0.55491107  0.14270629  0.43269973  1
  O  O281  1  0.56558232  0.12419930  0.91906888  1
  O  O282  1  0.56632719  0.64488975  0.41463820  1
  O  O283  1  0.56205145  0.63527983  0.91382173  1
  O  O284  1  0.89582568  0.12429733  0.41353756  1
  O  O285  1  0.89703710  0.12444364  0.91669427  1
  O  O286  1  0.88698065  0.63879803  0.41360566  1
  O  O287  1  0.89367453  0.63936366  0.91282760  1
  O  O288  1  0.17653427  0.01163962  0.07299616  1
  O  O289  1  0.18890100  -0.00277752  0.58267731  1
  O  O290  1  0.18077993  0.48662716  0.07945203  1
  O  O291  1  0.16716526  0.51449056  0.58037401  1
  O  O292  1  0.51288829  -0.00083526  0.08175505  1
  O  O293  1  0.49538912  0.00311294  0.58788855  1
  O  O294  1  0.51387594  0.49931768  0.08500355  1
  O  O295  1  0.49191889  0.49783336  0.59266749  1
  O  O296  1  0.83189554  0.01203389  0.07283479  1
  O  O297  1  0.83062871  -0.00552517  0.58531461  1
  O  O298  1  0.83049303  0.48689099  0.07678220  1
  O  O299  1  0.85053156  0.50543031  0.58578009  1
  O  O300  1  0.00704882  0.24979727  0.08369182  1
  O  O301  1  -0.01008756  0.25897669  0.57889509  1
  O  O302  1  -0.00387740  0.74957881  0.08092417  1
  O  O303  1  0.00555839  0.75641818  0.58646726  1
  O  O304  1  0.36200244  0.24847882  0.08641778  1
  O  O305  1  0.34232611  0.25109198  0.58697949  1
  O  O306  1  0.36038494  0.74987688  0.08289688  1
  O  O307  1  0.35059666  0.75016680  0.58393244  1
  O  O308  1  0.66503416  0.24998118  0.08667174  1
  O  O309  1  0.66776022  0.24037351  0.58007764  1
  O  O310  1  0.65585181  0.75000342  0.08386939  1
  O  O311  1  0.65886709  0.73538906  0.57673573  1
  O  O312  1  0.14443008  0.00004465  0.41197385  1
  O  O313  1  0.15575837  -0.00344300  0.91487231  1
  O  O314  1  0.16752967  0.49518318  0.42974826  1
  O  O315  1  0.15043662  0.51532561  0.92405812  1
  O  O316  1  0.51165314  -0.01732920  0.42412440  1
  O  O317  1  0.49387069  -0.00381675  0.91743605  1
  O  O318  1  0.49751908  0.51864971  0.42638530  1
  O  O319  1  0.49954114  0.50479954  0.91447388  1
  O  O320  1  0.83136425  -0.00523978  0.41293929  1
  O  O321  1  0.81140032  0.00186860  0.91347365  1
  O  O322  1  0.83424096  0.50271914  0.41213567  1
  O  O323  1  0.83020220  0.51025373  0.92278154  1
  O  O324  1  0.34118998  0.22809072  0.42362410  1
  O  O325  1  0.33410066  0.23619837  0.92890920  1
  O  O326  1  0.31831796  0.75856743  0.41604696  1
  O  O327  1  0.32749551  0.75181090  0.91546054  1
  O  O328  1  0.68677302  0.26485025  0.42201072  1
  O  O329  1  0.64532212  0.24813693  0.91775571  1
  O  O330  1  0.67596981  0.74932675  0.41150201  1
  O  O331  1  0.65578971  0.75167155  0.91377806  1
  O  O332  1  0.97642128  0.24652284  0.41244771  1
  O  O333  1  0.99513801  0.24157873  0.91285664  1
  O  O334  1  0.98575235  0.75225893  0.41615951  1
  O  O335  1  0.97964782  0.75738692  0.91321447  1
  O  O336  1  0.20580026  0.08480394  0.19099318  1
  O  O337  1  0.19994479  0.08150084  0.69098741  1
  O  O338  1  0.22106304  0.59191933  0.19966740  1
  O  O339  1  0.20915315  0.58957552  0.69556036  1
  O  O340  1  0.55014926  0.07654828  0.19398592  1
  O  O341  1  0.54182433  0.08340485  0.69715903  1
  O  O342  1  0.54197717  0.58220878  0.19541568  1
  O  O343  1  0.54166431  0.58399557  0.69791774  1
  O  O344  1  0.87144113  0.08584636  0.19070109  1
  O  O345  1  0.87417333  0.08033976  0.69269809  1
  O  O346  1  0.87651196  0.58433345  0.19851361  1
  O  O347  1  0.87724885  0.58702484  0.69610744  1
  O  O348  1  0.03800384  0.32993417  0.19476361  1
  O  O349  1  0.04498161  0.33605112  0.69235787  1
  O  O350  1  0.04523667  0.83122952  0.18776117  1
  O  O351  1  0.04512130  0.83545492  0.69475866  1
  O  O352  1  0.37869229  0.33188138  0.19628909  1
  O  O353  1  0.38064303  0.33382438  0.69703007  1
  O  O354  1  0.38029626  0.83461607  0.19094477  1
  O  O355  1  0.37904204  0.82868701  0.69451680  1
  O  O356  1  0.70684636  0.33326721  0.19709654  1
  O  O357  1  0.71147337  0.33170135  0.70278485  1
  O  O358  1  0.71085660  0.83357704  0.19040611  1
  O  O359  1  0.71009514  0.83265693  0.69861871  1
  O  O360  1  0.21488081  0.40766089  0.19361926  1
  O  O361  1  0.21334720  0.42090035  0.70162802  1
  O  O362  1  0.21257523  0.91660238  0.19694182  1
  O  O363  1  0.20616126  0.91569560  0.69331247  1
  O  O364  1  0.54399892  0.41870323  0.19609796  1
  O  O365  1  0.54514057  0.41759659  0.69966441  1
  O  O366  1  0.54912654  0.91402077  0.19307451  1
  O  O367  1  0.54347985  0.91511091  0.69247731  1
  O  O368  1  0.87267178  0.41327729  0.19343630  1
  O  O369  1  0.87999333  0.41975267  0.69378645  1
  O  O370  1  0.87499736  0.91804621  0.19708521  1
  O  O371  1  0.87650779  0.91451163  0.69313580  1
  O  O372  1  0.03907375  0.16650472  0.19384181  1
  O  O373  1  0.04572261  0.16343689  0.69952275  1
  O  O374  1  0.04123019  0.66771151  0.18909973  1
  O  O375  1  0.04179969  0.67144445  0.69644777  1
  O  O376  1  0.36596462  0.16740744  0.19564923  1
  O  O377  1  0.38131087  0.17298449  0.69720121  1
  O  O378  1  0.38203366  0.66761098  0.19257442  1
  O  O379  1  0.37732449  0.66810220  0.69570915  1
  O  O380  1  0.70725275  0.16600904  0.19450098  1
  O  O381  1  0.70758458  0.16443282  0.69537303  1
  O  O382  1  0.71267636  0.67009438  0.19069080  1
  O  O383  1  0.70749750  0.66497552  0.69378966  1
  O  O384  1  0.11917445  0.08175630  0.30162672  1
  O  O385  1  0.12471297  0.07992193  0.80587363  1
  O  O386  1  0.11473405  0.59365976  0.30105351  1
  O  O387  1  0.12350085  0.58951654  0.80684612  1
  O  O388  1  0.44968903  0.07210160  0.30392376  1
  O  O389  1  0.46911013  0.08001201  0.80801687  1
  O  O390  1  0.46145008  0.58968040  0.30801976  1
  O  O391  1  0.45746061  0.58645638  0.80561075  1
  O  O392  1  0.79067467  0.08099479  0.30549840  1
  O  O393  1  0.78857580  0.08303615  0.80472739  1
  O  O394  1  0.79160462  0.58437322  0.30333098  1
  O  O395  1  0.79096738  0.58622712  0.80604623  1
  O  O396  1  0.28812889  0.33163391  0.30308387  1
  O  O397  1  0.29040198  0.33251516  0.80218515  1
  O  O398  1  0.29247850  0.83563818  0.30319147  1
  O  O399  1  0.29038731  0.82991178  0.80503850  1
  O  O400  1  0.62540957  0.33731316  0.30903840  1
  O  O401  1  0.62080407  0.33323288  0.81007148  1
  O  O402  1  0.62885528  0.83194802  0.30179432  1
  O  O403  1  0.62227500  0.83357053  0.80442463  1
  O  O404  1  0.94946049  0.33137138  0.30548933  1
  O  O405  1  0.95267975  0.33425625  0.80816926  1
  O  O406  1  0.95720928  0.82966352  0.30242721  1
  O  O407  1  0.95517867  0.83651229  0.80333114  1
  O  O408  1  0.11319713  0.40632175  0.30226379  1
  O  O409  1  0.11877833  0.41841559  0.80159017  1
  O  O410  1  0.12316854  0.91708239  0.30154440  1
  O  O411  1  0.12217721  0.91457780  0.80420488  1
  O  O412  1  0.45668866  0.41995854  0.30189864  1
  O  O413  1  0.45597787  0.41966368  0.80817831  1
  O  O414  1  0.45776966  0.91003714  0.30528507  1
  O  O415  1  0.46398625  0.91484062  0.80651677  1
  O  O416  1  0.78905614  0.41965148  0.30281304  1
  O  O417  1  0.78902149  0.41880630  0.80083620  1
  O  O418  1  0.79075940  0.91380060  0.30297447  1
  O  O419  1  0.78955832  0.91838788  0.80328240  1
  O  O420  1  0.28701770  0.16047242  0.30756630  1
  O  O421  1  0.28729991  0.16971859  0.80975133  1
  O  O422  1  0.29541311  0.67268922  0.30725114  1
  O  O423  1  0.29293229  0.66908386  0.80510276  1
  O  O424  1  0.63505630  0.16685912  0.30554014  1
  O  O425  1  0.62351725  0.16527301  0.80728172  1
  O  O426  1  0.62640407  0.67038028  0.30266799  1
  O  O427  1  0.62374810  0.66844806  0.80419218  1
  O  O428  1  0.95221132  0.16570651  0.30163708  1
  O  O429  1  0.95184996  0.15617209  0.80540262  1
  O  O430  1  0.95634626  0.66957056  0.30587088  1
  O  O431  1  0.95622059  0.67136549  0.80421133  1
  F  F432  1  0.04410575  0.00581685  0.19486968  1
  F  F433  1  0.04524273  -0.00208292  0.70231325  1
  F  F434  1  0.02908258  0.49767764  0.19513691  1
  F  F435  1  0.04478581  0.50711796  0.70272882  1
  F  F436  1  0.36885271  -0.00061526  0.19451934  1
  F  F437  1  0.38471770  -0.01109796  0.69697023  1
  F  F438  1  0.38050508  0.50300204  0.20259644  1
  F  F439  1  0.37974053  0.50264777  0.70536616  1
  F  F440  1  0.71379648  0.00098582  0.20135013  1
  F  F441  1  0.71107960  0.00050486  0.70122513  1
  F  F442  1  0.71089910  0.49547006  0.19807820  1
  F  F443  1  0.71163523  0.50387903  0.70256627  1
  F  F444  1  0.20927173  0.24670724  0.20377367  1
  F  F445  1  0.21336824  0.24775631  0.70095595  1
  F  F446  1  0.21538935  0.75207590  0.20113549  1
  F  F447  1  0.21182241  0.75080247  0.70198845  1
  F  F448  1  0.54789975  0.26180621  0.20137657  1
  F  F449  1  0.54646377  0.24959515  0.70736431  1
  F  F450  1  0.54691128  0.75064594  0.19973989  1
  F  F451  1  0.54388515  0.74983072  0.70182223  1
  F  F452  1  0.87494818  0.24930135  0.20072475  1
  F  F453  1  0.87225482  0.24998199  0.70185578  1
  F  F454  1  0.87892957  0.74925806  0.19909472  1
  F  F455  1  0.87868468  0.75060693  0.70164732  1
  F  F456  1  0.28299528  -0.00047100  0.29551630  1
  F  F457  1  0.28052158  -0.01124171  0.80479145  1
  F  F458  1  0.30370497  0.50197231  0.30530417  1
  F  F459  1  0.28912773  0.50705975  0.80100211  1
  F  F460  1  0.63112341  -0.00492855  0.30144853  1
  F  F461  1  0.62268814  -0.00247049  0.79632163  1
  F  F462  1  0.62147803  0.50047867  0.29993243  1
  F  F463  1  0.62199332  0.50252067  0.80008269  1
  F  F464  1  0.95247820  0.00740085  0.29889214  1
  F  F465  1  0.95305691  -0.00208713  0.79656449  1
  F  F466  1  0.95107301  0.49846375  0.29757691  1
  F  F467  1  0.95452964  0.50371027  0.79824927  1
  F  F468  1  0.11667578  0.24479446  0.29712431  1
  F  F469  1  0.12652884  0.25072747  0.79947967  1
  F  F470  1  0.12202995  0.75347003  0.29397293  1
  F  F471  1  0.12175264  0.75327644  0.79803956  1
  F  F472  1  0.45060434  0.25927404  0.30491627  1
  F  F473  1  0.45673950  0.24962918  0.80255791  1
  F  F474  1  0.45717931  0.75118339  0.29423386  1
  F  F475  1  0.45664959  0.75019904  0.79922209  1
  F  F476  1  0.78815278  0.25001093  0.29626574  1
  F  F477  1  0.78740965  0.24350359  0.80118481  1
  F  F478  1  0.78973641  0.75156238  0.29457427  1
  F  F479  1  0.78828790  0.74962407  0.79792830  1
