# generated using pymatgen
data_K24Na3Li5Mg64Fe17Si79(O5F)48
_symmetry_space_group_name_H-M   'P 1'
_cell_length_a   16.09006229
_cell_length_b   18.58889884
_cell_length_c   20.54938654
_cell_angle_alpha   89.99721792
_cell_angle_beta   100.01509021
_cell_angle_gamma   90.01525880
_symmetry_Int_Tables_number   1
_chemical_formula_structural   K24Na3Li5Mg64Fe17Si79(O5F)48
_chemical_formula_sum   'K24 Na3 Li5 Mg64 Fe17 Si79 O240 F48'
_cell_volume   6052.59354377
_cell_formula_units_Z   1
loop_
 _symmetry_equiv_pos_site_id
 _symmetry_equiv_pos_as_xyz
  1  'x, y, z'
loop_
 _atom_site_type_symbol
 _atom_site_label
 _atom_site_symmetry_multiplicity
 _atom_site_fract_x
 _atom_site_fract_y
 _atom_site_fract_z
 _atom_site_occupancy
  K  K0  1  -0.00165409  -0.00288535  -0.00395008  1
  K  K1  1  0.01490147  0.00277968  0.50622124  1
  K  K2  1  0.00106778  0.49433769  0.00487325  1
  K  K3  1  0.01112176  0.50018847  0.49488088  1
  K  K4  1  0.33159761  0.00362534  -0.00914019  1
  K  K5  1  0.33943678  0.00272303  0.50566968  1
  K  K6  1  0.33449223  0.48595912  -0.00355347  1
  K  K7  1  0.32744083  0.49250792  0.50410738  1
  K  K8  1  0.66130807  -0.00219475  -0.01425121  1
  K  K9  1  0.65977463  -0.00018315  0.51022056  1
  K  K10  1  0.65481055  0.49979990  -0.00165177  1
  K  K11  1  0.66439457  0.49229649  0.50030177  1
  K  K12  1  0.16598068  0.24459741  -0.00503792  1
  K  K13  1  0.17224503  0.24862457  0.50284374  1
  K  K14  1  0.16455815  0.74856299  0.00255280  1
  K  K15  1  0.15958553  0.74560510  0.49685163  1
  K  K16  1  0.50269082  0.26229958  -0.01272144  1
  K  K17  1  0.50064612  0.25493647  0.50873169  1
  K  K18  1  0.50208396  0.74385612  -0.00301130  1
  K  K19  1  0.49767692  0.75573348  0.50268585  1
  K  K20  1  0.82806552  0.25540436  -0.00751457  1
  K  K21  1  0.83108960  0.25336624  0.50486382  1
  K  K22  1  0.82225302  0.75555121  -0.00009899  1
  K  K23  1  0.84040170  0.75020723  0.49750986  1
  Na  Na24  1  0.16789201  0.00087673  0.75828109  1
  Na  Na25  1  0.16776545  0.66883865  0.25260163  1
  Na  Na26  1  0.66658127  0.91906682  0.75138704  1
  Li  Li27  1  0.33160887  0.25252129  0.25342777  1
  Li  Li28  1  0.48940274  0.49587018  0.74519604  1
  Li  Li29  1  0.50121362  0.16720549  0.75458383  1
  Li  Li30  1  0.34094525  0.41505866  0.75204206  1
  Li  Li31  1  0.00462678  0.41615839  0.25401527  1
  Mg  Mg32  1  0.00164359  0.25340290  0.25479862  1
  Mg  Mg33  1  0.33207920  0.75126566  0.25149496  1
  Mg  Mg34  1  0.16515818  0.00133100  0.25652523  1
  Mg  Mg35  1  0.17292800  0.49697083  0.74859513  1
  Mg  Mg36  1  0.66316308  0.25359899  0.74631676  1
  Mg  Mg37  1  -0.00062307  0.24784805  0.75348952  1
  Mg  Mg38  1  0.83056484  0.00171192  0.75523328  1
  Mg  Mg39  1  0.50089550  0.00175021  0.75210533  1
  Mg  Mg40  1  0.83407347  0.49942287  0.74519852  1
  Mg  Mg41  1  0.33783164  0.25186815  0.75423987  1
  Mg  Mg42  1  0.66437867  0.25113693  0.24591527  1
  Mg  Mg43  1  0.83336443  -0.00027348  0.25132910  1
  Mg  Mg44  1  -0.00108064  0.75075946  0.25314889  1
  Mg  Mg45  1  0.16479255  0.49854000  0.25061679  1
  Mg  Mg46  1  0.66628189  0.75173621  0.74896292  1
  Mg  Mg47  1  0.49942227  0.49794561  0.24592532  1
  Mg  Mg48  1  0.33346202  0.74917000  0.74772283  1
  Mg  Mg49  1  0.00227209  0.75056755  0.75064766  1
  Mg  Mg50  1  0.66677825  0.74974189  0.24414442  1
  Mg  Mg51  1  0.83557666  0.49854466  0.24563059  1
  Mg  Mg52  1  0.49680684  0.00097186  0.25154135  1
  Mg  Mg53  1  0.33419144  0.58322824  0.25042378  1
  Mg  Mg54  1  0.16838952  0.33402121  0.25331027  1
  Mg  Mg55  1  0.66358913  0.41554133  0.24458322  1
  Mg  Mg56  1  0.16901388  0.66356938  0.74677542  1
  Mg  Mg57  1  0.49903126  0.33686680  0.74953987  1
  Mg  Mg58  1  0.83287391  0.83384735  0.75111658  1
  Mg  Mg59  1  0.33290721  0.08651610  0.25438058  1
  Mg  Mg60  1  0.16637272  0.83502093  0.25649386  1
  Mg  Mg61  1  0.66299752  0.08678564  0.75073095  1
  Mg  Mg62  1  0.33613230  0.91774405  0.75158458  1
  Mg  Mg63  1  0.83515514  0.33461812  0.24878979  1
  Mg  Mg64  1  0.66436341  0.08450099  0.24787510  1
  Mg  Mg65  1  -0.00017344  0.08431776  0.75502333  1
  Mg  Mg66  1  0.33388847  0.57804512  0.74621796  1
  Mg  Mg67  1  0.83161697  0.16691417  0.75366364  1
  Mg  Mg68  1  0.83422619  0.16628184  0.25128103  1
  Mg  Mg69  1  0.17022163  0.16775470  0.25618668  1
  Mg  Mg70  1  0.33375494  0.41375279  0.25040114  1
  Mg  Mg71  1  0.33722764  0.08547813  0.75612472  1
  Mg  Mg72  1  0.66444269  0.58222827  0.74643238  1
  Mg  Mg73  1  0.49481978  0.33508243  0.24660826  1
  Mg  Mg74  1  0.66576807  0.58460961  0.24165931  1
  Mg  Mg75  1  0.00009979  0.91759500  0.75520895  1
  Mg  Mg76  1  0.16890497  0.83450868  0.75343191  1
  Mg  Mg77  1  0.00224204  0.91561373  0.25508614  1
  Mg  Mg78  1  0.50081500  0.83528838  0.75042928  1
  Mg  Mg79  1  0.83311470  0.66519300  0.24603360  1
  Mg  Mg80  1  0.00314093  0.58337795  0.74620042  1
  Mg  Mg81  1  0.66488281  0.91625566  0.24867402  1
  Mg  Mg82  1  0.49885808  0.66439947  0.74606036  1
  Mg  Mg83  1  0.00319260  0.58130657  0.25031016  1
  Mg  Mg84  1  0.66262185  0.41827263  0.74668138  1
  Mg  Mg85  1  0.49573317  0.16870933  0.24914152  1
  Mg  Mg86  1  0.17148767  0.33328847  0.75121923  1
  Mg  Mg87  1  0.00265805  0.41485594  0.74890337  1
  Mg  Mg88  1  0.83198271  0.33491944  0.74757658  1
  Mg  Mg89  1  0.83388134  0.83446821  0.24986825  1
  Mg  Mg90  1  0.33306344  0.91639956  0.25438166  1
  Mg  Mg91  1  0.16869814  0.16555280  0.75740477  1
  Mg  Mg92  1  0.83392210  0.66568201  0.74686316  1
  Mg  Mg93  1  0.49869985  0.83586450  0.24986154  1
  Mg  Mg94  1  0.49976351  0.66594979  0.24569083  1
  Mg  Mg95  1  0.00374830  0.08535288  0.25592176  1
  Fe  Fe96  1  0.14354280  0.91655059  0.39668935  1
  Fe  Fe97  1  0.69203270  0.66798990  0.10403483  1
  Fe  Fe98  1  0.14036752  0.07868967  0.89792651  1
  Fe  Fe99  1  0.97327173  0.17007172  0.89405362  1
  Fe  Fe100  1  0.69037938  0.33831174  0.60693650  1
  Fe  Fe101  1  0.96785525  0.83366497  0.39252202  1
  Fe  Fe102  1  0.14096594  0.41258594  0.39040130  1
  Fe  Fe103  1  0.47177679  0.91329793  0.89218832  1
  Fe  Fe104  1  0.51933471  0.41204401  0.10489456  1
  Fe  Fe105  1  0.81076863  0.91555645  0.89238669  1
  Fe  Fe106  1  0.31202386  0.33405779  0.89054662  1
  Fe  Fe107  1  0.14909731  0.09000482  0.39684462  1
  Fe  Fe108  1  0.18913578  0.57758409  0.60666468  1
  Fe  Fe109  1  0.47319218  0.91750735  0.39105890  1
  Fe  Fe110  1  0.52575211  0.91409594  0.60824915  1
  Fe  Fe111  1  0.47639338  0.41859762  0.38913171  1
  Fe  Fe112  1  0.63591066  0.17151263  0.88668268  1
  Si  Si113  1  0.96529977  0.33282508  0.38827566  1
  Si  Si114  1  0.35586222  0.83630290  0.11472014  1
  Si  Si115  1  0.02648190  0.32561536  0.61538676  1
  Si  Si116  1  0.30388518  0.82726446  0.88905054  1
  Si  Si117  1  0.80226246  0.08203598  0.38468010  1
  Si  Si118  1  0.13956486  0.41905668  0.88627140  1
  Si  Si119  1  0.85785335  0.07964583  0.61735732  1
  Si  Si120  1  0.80982785  0.42156507  0.88256359  1
  Si  Si121  1  0.69390949  0.66096957  0.61066320  1
  Si  Si122  1  0.02498483  0.83075450  0.11553544  1
  Si  Si123  1  0.69301178  0.16325653  0.11344890  1
  Si  Si124  1  0.64041113  0.32945957  0.38279929  1
  Si  Si125  1  0.64188358  0.16841465  0.38207763  1
  Si  Si126  1  0.47307878  0.08311540  0.88995741  1
  Si  Si127  1  0.86205033  0.91945754  0.11538239  1
  Si  Si128  1  0.52154368  0.08630388  0.11371419  1
  Si  Si129  1  0.02554813  0.66527532  0.11541041  1
  Si  Si130  1  0.96766704  0.16708600  0.39064513  1
  Si  Si131  1  0.13988482  0.90524513  0.89090155  1
  Si  Si132  1  0.63795395  0.83141351  0.38247573  1
  Si  Si133  1  0.70077947  0.82561280  0.61032604  1
  Si  Si134  1  0.97786250  0.66257233  0.88356758  1
  Si  Si135  1  0.64508813  0.34152422  0.88623100  1
  Si  Si136  1  0.35414415  0.67057896  0.11288612  1
  Si  Si137  1  0.02437641  0.16176317  0.61710448  1
  Si  Si138  1  0.02743324  0.16857944  0.11799921  1
  Si  Si139  1  0.14348097  0.58263224  0.88348769  1
  Si  Si140  1  0.63834547  0.82552436  0.88967098  1
  Si  Si141  1  0.47905432  0.42236462  0.88438963  1
  Si  Si142  1  0.31642904  0.66521396  0.38502987  1
  Si  Si143  1  0.19644410  0.91829956  0.61886104  1
  Si  Si144  1  0.86252185  0.08445397  0.11638997  1
  Si  Si145  1  0.97531974  0.34088745  0.88614944  1
  Si  Si146  1  0.64414250  0.66375602  0.88226005  1
  Si  Si147  1  0.86305449  0.57962834  0.10878457  1
  Si  Si148  1  0.02315843  0.67276119  0.61090744  1
  Si  Si149  1  0.18735715  0.40814637  0.61242804  1
  Si  Si150  1  0.02896490  0.83865736  0.61722846  1
  Si  Si151  1  0.52222610  0.92046018  0.11344179  1
  Si  Si152  1  0.80026661  0.41590225  0.38148454  1
  Si  Si153  1  0.35374900  0.16298102  0.11623639  1
  Si  Si154  1  0.80726650  0.57990483  0.38100905  1
  Si  Si155  1  0.19048059  0.08044378  0.11832631  1
  Si  Si156  1  0.35983238  0.16858774  0.61808906  1
  Si  Si157  1  0.14702702  0.58204682  0.38701461  1
  Si  Si158  1  0.86753008  0.41904031  0.60961706  1
  Si  Si159  1  0.51622088  0.58514651  0.10601342  1
  Si  Si160  1  0.48332790  0.58743907  0.38518064  1
  Si  Si161  1  0.30975838  0.33401911  0.38827294  1
  Si  Si162  1  0.51908961  0.42240276  0.61163359  1
  Si  Si163  1  0.97595954  0.66136679  0.38664050  1
  Si  Si164  1  0.52465860  0.08456807  0.61317495  1
  Si  Si165  1  0.02923137  0.33184320  0.11685340  1
  Si  Si166  1  0.47570702  0.58578202  0.88110623  1
  Si  Si167  1  0.86262494  0.91511840  0.61636974  1
  Si  Si168  1  0.69090740  0.84171278  0.11023296  1
  Si  Si169  1  0.19352593  0.58208002  0.11484337  1
  Si  Si170  1  0.52413050  0.58788266  0.61232152  1
  Si  Si171  1  0.97501072  0.82593269  0.88989529  1
  Si  Si172  1  0.31007983  0.66391744  0.88385773  1
  Si  Si173  1  0.86251020  0.58420318  0.61160310  1
  Si  Si174  1  0.81033827  0.58388509  0.88175755  1
  Si  Si175  1  0.35398303  0.83043782  0.61155755  1
  Si  Si176  1  0.69650494  0.33041671  0.10932297  1
  Si  Si177  1  0.80433130  0.08656699  0.89196321  1
  Si  Si178  1  0.19620988  0.08666875  0.61989807  1
  Si  Si179  1  0.35722177  0.66578755  0.61030567  1
  Si  Si180  1  0.35082374  0.32738522  0.11153438  1
  Si  Si181  1  0.35885404  0.33287168  0.61621455  1
  Si  Si182  1  0.18968417  0.91618742  0.11760556  1
  Si  Si183  1  0.31079847  0.16527296  0.89288836  1
  Si  Si184  1  0.19167577  0.41743772  0.11362638  1
  Si  Si185  1  0.69368865  0.16659663  0.61181251  1
  Si  Si186  1  0.79728030  0.91727676  0.38601146  1
  Si  Si187  1  0.31679596  0.17270718  0.38898118  1
  Si  Si188  1  0.86312005  0.41277516  0.11413488  1
  Si  Si189  1  0.47973343  0.08814639  0.38774864  1
  Si  Si190  1  0.30602661  0.82841651  0.39078152  1
  Si  Si191  1  0.64602348  0.66973299  0.38014162  1
  O  O192  1  0.27095916  0.11203781  0.08757198  1
  O  O193  1  0.27108545  0.12511686  0.58617377  1
  O  O194  1  0.26725972  0.62557893  0.08300895  1
  O  O195  1  0.28420268  0.61224701  0.57437422  1
  O  O196  1  0.60277139  0.12220900  0.08610089  1
  O  O197  1  0.60397600  0.12463102  0.58453361  1
  O  O198  1  0.59079242  0.61996331  0.07178939  1
  O  O199  1  0.60523252  0.61970741  0.58038203  1
  O  O200  1  0.93648102  0.12935282  0.08807886  1
  O  O201  1  0.93867820  0.11464844  0.58756045  1
  O  O202  1  0.94461910  0.61612818  0.08082059  1
  O  O203  1  0.92863139  0.63752945  0.58307239  1
  O  O204  1  0.10166078  0.37633881  0.08512452  1
  O  O205  1  0.10855898  0.35162254  0.58493031  1
  O  O206  1  0.10385566  0.86967718  0.08679326  1
  O  O207  1  0.10717924  0.87647028  0.58892482  1
  O  O208  1  0.42516156  0.35405456  0.07335930  1
  O  O209  1  0.43107835  0.37696963  0.58411198  1
  O  O210  1  0.43566169  0.87360531  0.08599061  1
  O  O211  1  0.42941223  0.85783833  0.57552199  1
  O  O212  1  0.77861502  0.36623679  0.08227298  1
  O  O213  1  0.77980950  0.38517627  0.57267306  1
  O  O214  1  0.76924813  0.88579497  0.08475686  1
  O  O215  1  0.78362849  0.86282955  0.58426790  1
  O  O216  1  0.26505379  0.37586555  0.08214118  1
  O  O217  1  0.26907519  0.37249648  0.58580006  1
  O  O218  1  0.26867200  0.88115879  0.08610108  1
  O  O219  1  0.26972643  0.88073726  0.58412575  1
  O  O220  1  0.61410953  0.37278816  0.07319525  1
  O  O221  1  0.59145472  0.39038554  0.57325144  1
  O  O222  1  0.60303418  0.88807350  0.08413523  1
  O  O223  1  0.61829439  0.86931092  0.57622085  1
  O  O224  1  0.94051966  0.37292597  0.08522131  1
  O  O225  1  0.94572953  0.37636516  0.58349974  1
  O  O226  1  0.93605756  0.87382922  0.08643869  1
  O  O227  1  0.94485261  0.88546590  0.58659410  1
  O  O228  1  0.10431127  0.12646827  0.09051774  1
  O  O229  1  0.10477254  0.12622004  0.58825010  1
  O  O230  1  0.10699481  0.62911697  0.08774483  1
  O  O231  1  0.09177323  0.63427028  0.57450458  1
  O  O232  1  0.43518547  0.13129076  0.08479282  1
  O  O233  1  0.43766498  0.13254799  0.58687835  1
  O  O234  1  0.43187960  0.63746802  0.08140264  1
  O  O235  1  0.44594212  0.64289090  0.58417979  1
  O  O236  1  0.76950542  0.11946346  0.08672511  1
  O  O237  1  0.77114288  0.12193255  0.58417589  1
  O  O238  1  0.78017518  0.62077756  0.07081193  1
  O  O239  1  0.76730049  0.61400089  0.58206904  1
  O  O240  1  0.04806540  0.12212378  0.42643642  1
  O  O241  1  0.05274142  0.10818970  0.93972072  1
  O  O242  1  0.06393754  0.61701803  0.41420473  1
  O  O243  1  0.06032457  0.61218488  0.91348030  1
  O  O244  1  0.39748243  0.11817404  0.41668988  1
  O  O245  1  0.38385018  0.10368266  0.91579853  1
  O  O246  1  0.39943400  0.61523461  0.41497214  1
  O  O247  1  0.39518286  0.61711318  0.91375337  1
  O  O248  1  0.71799899  0.11181146  0.41138822  1
  O  O249  1  0.71812640  0.10330550  0.92104124  1
  O  O250  1  0.72761206  0.61789318  0.40923594  1
  O  O251  1  0.72705788  0.61231114  0.91023764  1
  O  O252  1  0.22564499  0.34462831  0.42168787  1
  O  O253  1  0.21307450  0.36739492  0.92302160  1
  O  O254  1  0.21977794  0.83929727  0.41953787  1
  O  O255  1  0.21392844  0.84382556  0.91487340  1
  O  O256  1  0.56202533  0.34945646  0.41809063  1
  O  O257  1  0.56779081  0.38003094  0.91639987  1
  O  O258  1  0.55586881  0.84543538  0.41538807  1
  O  O259  1  0.55575332  0.84397128  0.92249955  1
  O  O260  1  0.87975774  0.36547660  0.41353079  1
  O  O261  1  0.89090439  0.37163501  0.91404913  1
  O  O262  1  0.86707544  0.86246169  0.42203541  1
  O  O263  1  0.89799060  0.84819871  0.92612726  1
  O  O264  1  0.04331572  0.38115909  0.42326890  1
  O  O265  1  0.04849109  0.40261986  0.91070051  1
  O  O266  1  0.04860749  0.89592641  0.43348187  1
  O  O267  1  0.05769981  0.87468930  0.92160491  1
  O  O268  1  0.37906496  0.39372440  0.42156525  1
  O  O269  1  0.40522874  0.39383724  0.92247084  1
  O  O270  1  0.37692199  0.88687456  0.42250023  1
  O  O271  1  0.37515512  0.88083615  0.92634355  1
  O  O272  1  0.71863247  0.38532456  0.41045663  1
  O  O273  1  0.72794188  0.39502041  0.91278151  1
  O  O274  1  0.70743809  0.89466654  0.40919253  1
  O  O275  1  0.71488421  0.87834352  0.92262038  1
  O  O276  1  0.23898516  0.15463977  0.42672646  1
  O  O277  1  0.23209393  0.14016508  0.92793710  1
  O  O278  1  0.23009122  0.63645088  0.40991804  1
  O  O279  1  0.22716872  0.63165215  0.91279953  1
  O  O280  1  0.55768785  0.14657359  0.41188213  1
  O  O281  1  0.54095291  0.14391447  0.92230631  1
  O  O282  1  0.56205386  0.64567065  0.41016507  1
  O  O283  1  0.56074068  0.63424902  0.91069196  1
  O  O284  1  0.88169850  0.13359121  0.41504509  1
  O  O285  1  0.87089427  0.15004966  0.92168763  1
  O  O286  1  0.89638736  0.61871051  0.41303395  1
  O  O287  1  0.89397990  0.63327905  0.91172662  1
  O  O288  1  0.17380642  -0.00173426  0.08842988  1
  O  O289  1  0.18546046  0.00249750  0.59334782  1
  O  O290  1  0.18199922  0.50034700  0.08183325  1
  O  O291  1  0.16442725  0.48386447  0.57451234  1
  O  O292  1  0.50729563  0.00328321  0.08542068  1
  O  O293  1  0.51148881  0.00856255  0.57364714  1
  O  O294  1  0.49233121  0.50634849  0.07455468  1
  O  O295  1  0.50111808  0.50666392  0.58357411  1
  O  O296  1  0.86421417  0.00215290  0.08735800  1
  O  O297  1  0.84514865  -0.00279958  0.58722757  1
  O  O298  1  0.85841290  0.49466129  0.08278460  1
  O  O299  1  0.87327070  0.50330561  0.58296963  1
  O  O300  1  0.02347359  0.24970137  0.08570384  1
  O  O301  1  0.00565286  0.24346547  0.58626944  1
  O  O302  1  0.01631672  0.74841573  0.08427375  1
  O  O303  1  0.01372196  0.75741488  0.58619589  1
  O  O304  1  0.32812648  0.24334949  0.08730060  1
  O  O305  1  0.35033119  0.25030175  0.58522123  1
  O  O306  1  0.34064381  0.75411775  0.08458563  1
  O  O307  1  0.33044239  0.74774706  0.58391911  1
  O  O308  1  0.69131506  0.24510738  0.08399813  1
  O  O309  1  0.68774907  0.24349821  0.57361917  1
  O  O310  1  0.68212211  0.76471668  0.07387866  1
  O  O311  1  0.69495608  0.74190341  0.57892468  1
  O  O312  1  0.18494445  0.00298979  0.43447262  1
  O  O313  1  0.16891373  -0.01879661  0.92504326  1
  O  O314  1  0.16900010  0.50652073  0.42506514  1
  O  O315  1  0.16281295  0.50225810  0.91393334  1
  O  O316  1  0.50972970  0.01100113  0.41971640  1
  O  O317  1  0.50111745  0.00550972  0.92541461  1
  O  O318  1  0.51451535  0.51169621  0.41913924  1
  O  O319  1  0.49812651  0.50628318  0.91216474  1
  O  O320  1  0.81871394  0.00034926  0.41327379  1
  O  O321  1  0.84080139  0.00877466  0.92306359  1
  O  O322  1  0.81471641  0.49790417  0.41113450  1
  O  O323  1  0.83307630  0.50332100  0.91209335  1
  O  O324  1  0.35212068  0.25392754  0.41058344  1
  O  O325  1  0.34355698  0.24252667  0.92499769  1
  O  O326  1  0.34034622  0.74602490  0.41463835  1
  O  O327  1  0.32731232  0.74407000  0.91643614  1
  O  O328  1  0.67506012  0.24820798  0.40846234  1
  O  O329  1  0.66677872  0.26514414  0.92241457  1
  O  O330  1  0.67565502  0.75072199  0.40713115  1
  O  O331  1  0.66854434  0.74189233  0.91572420  1
  O  O332  1  0.97284542  0.25016690  0.41877427  1
  O  O333  1  1.00364618  0.26650297  0.92276321  1
  O  O334  1  0.98471045  0.73777110  0.42410700  1
  O  O335  1  1.00241481  0.74209699  0.91430221  1
  O  O336  1  0.21020525  0.08227269  0.19833516  1
  O  O337  1  0.21572517  0.09161929  0.69877688  1
  O  O338  1  0.21570553  0.57758551  0.19359770  1
  O  O339  1  0.20942200  0.58212858  0.69810415  1
  O  O340  1  0.54149256  0.08448322  0.19431756  1
  O  O341  1  0.54401442  0.07982019  0.69259574  1
  O  O342  1  0.53960943  0.58540232  0.18787921  1
  O  O343  1  0.54701842  0.58902740  0.69174751  1
  O  O344  1  0.87734378  0.08441282  0.19699839  1
  O  O345  1  0.87562956  0.08255556  0.69721849  1
  O  O346  1  0.87609022  0.58248590  0.18953406  1
  O  O347  1  0.87904645  0.58427028  0.69223960  1
  O  O348  1  0.04518156  0.32949299  0.19603152  1
  O  O349  1  0.04197283  0.33036741  0.69565701  1
  O  O350  1  0.04239513  0.83239356  0.19509038  1
  O  O351  1  0.04423198  0.83433583  0.69755508  1
  O  O352  1  0.37364648  0.33443235  0.19116145  1
  O  O353  1  0.37906460  0.33106521  0.69517179  1
  O  O354  1  0.37532519  0.83484199  0.19476064  1
  O  O355  1  0.37322707  0.83039034  0.69249880  1
  O  O356  1  0.71120125  0.33176616  0.19048611  1
  O  O357  1  0.71303608  0.33872735  0.69818189  1
  O  O358  1  0.70895965  0.83733153  0.19143293  1
  O  O359  1  0.71704035  0.82135863  0.69013880  1
  O  O360  1  0.21109180  0.41721927  0.19339178  1
  O  O361  1  0.19949760  0.41444949  0.69185067  1
  O  O362  1  0.21018983  0.91719381  0.19755878  1
  O  O363  1  0.21559800  0.91002103  0.69798700  1
  O  O364  1  0.54531387  0.41518224  0.19627763  1
  O  O365  1  0.54377919  0.41974475  0.69131580  1
  O  O366  1  0.54249665  0.91893130  0.19375413  1
  O  O367  1  0.53561189  0.91625297  0.69730557  1
  O  O368  1  0.87424620  0.41463158  0.19355279  1
  O  O369  1  0.88045737  0.41851229  0.69064213  1
  O  O370  1  0.87648490  0.91902799  0.19559210  1
  O  O371  1  0.87951568  0.91362684  0.69627714  1
  O  O372  1  0.04147451  0.16867495  0.19815081  1
  O  O373  1  0.04251852  0.16601994  0.69660555  1
  O  O374  1  0.03307442  0.66791686  0.19412938  1
  O  O375  1  0.04232928  0.66759608  0.69195598  1
  O  O376  1  0.37714005  0.16080093  0.19563481  1
  O  O377  1  0.37403223  0.16841024  0.69754646  1
  O  O378  1  0.37466624  0.66869976  0.19305307  1
  O  O379  1  0.37435527  0.66521534  0.69131770  1
  O  O380  1  0.71039846  0.16502410  0.19413069  1
  O  O381  1  0.71369187  0.17050419  0.69213544  1
  O  O382  1  0.71206231  0.66730044  0.19589217  1
  O  O383  1  0.71227571  0.66291977  0.69113430  1
  O  O384  1  0.12260123  0.08558594  0.30384528  1
  O  O385  1  0.11512593  0.09176570  0.80800136  1
  O  O386  1  0.12182801  0.57627630  0.30744648  1
  O  O387  1  0.12200458  0.58410161  0.80347190  1
  O  O388  1  0.45939000  0.08551154  0.30640755  1
  O  O389  1  0.45684526  0.08103776  0.80935105  1
  O  O390  1  0.46204600  0.58535608  0.30375898  1
  O  O391  1  0.45422011  0.58852709  0.80186980  1
  O  O392  1  0.78721002  0.08338958  0.30378203  1
  O  O393  1  0.78930847  0.08582493  0.80970086  1
  O  O394  1  0.79003197  0.58128378  0.30068994  1
  O  O395  1  0.79369666  0.58399779  0.80137612  1
  O  O396  1  0.28895928  0.33795563  0.30738140  1
  O  O397  1  0.28823051  0.33340274  0.80060660  1
  O  O398  1  0.29167558  0.83239798  0.30872890  1
  O  O399  1  0.29048255  0.82906897  0.80808048  1
  O  O400  1  0.62424726  0.33147729  0.30186215  1
  O  O401  1  0.62562043  0.33927878  0.80575917  1
  O  O402  1  0.62236673  0.83268710  0.30101291  1
  O  O403  1  0.62022961  0.82251782  0.80922297  1
  O  O404  1  0.95064257  0.32986167  0.30790052  1
  O  O405  1  0.95575950  0.33739286  0.80494411  1
  O  O406  1  0.95146500  0.83418041  0.29974754  1
  O  O407  1  0.95761972  0.82806525  0.80871148  1
  O  O408  1  0.12359186  0.41609293  0.29974891  1
  O  O409  1  0.12322426  0.41806496  0.80523076  1
  O  O410  1  0.12146878  0.91851537  0.30274756  1
  O  O411  1  0.11751389  0.90512090  0.81085210  1
  O  O412  1  0.45502888  0.41803731  0.29751091  1
  O  O413  1  0.46134164  0.41776617  0.80545319  1
  O  O414  1  0.45537844  0.91737167  0.29886269  1
  O  O415  1  0.45424997  0.91377536  0.80100305  1
  O  O416  1  0.78629563  0.41627367  0.30094289  1
  O  O417  1  0.79440637  0.42125225  0.80238682  1
  O  O418  1  0.78587834  0.91783513  0.30451852  1
  O  O419  1  0.80015314  0.91455445  0.80229750  1
  O  O420  1  0.29112792  0.16428955  0.30897499  1
  O  O421  1  0.29087857  0.16794052  0.81136934  1
  O  O422  1  0.30361555  0.66625853  0.30532822  1
  O  O423  1  0.29086892  0.66607823  0.80382425  1
  O  O424  1  0.62339366  0.16652689  0.30136033  1
  O  O425  1  0.62417195  0.17276308  0.79646385  1
  O  O426  1  0.62403268  0.66701575  0.29963209  1
  O  O427  1  0.62609216  0.66444208  0.80195198  1
  O  O428  1  0.95355095  0.16659361  0.30917051  1
  O  O429  1  0.95227450  0.16866268  0.80139649  1
  O  O430  1  0.95510031  0.66439767  0.30545088  1
  O  O431  1  0.95895365  0.66334830  0.80303637  1
  F  F432  1  0.04132110  0.00138635  0.20255427  1
  F  F433  1  0.03266473  -0.00114785  0.70200735  1
  F  F434  1  0.04786443  0.50750007  0.19542160  1
  F  F435  1  0.04594225  0.49948882  0.70081730  1
  F  F436  1  0.37572755  0.00189020  0.20238670  1
  F  F437  1  0.37581816  0.00315666  0.70138742  1
  F  F438  1  0.37779620  0.50319318  0.19914453  1
  F  F439  1  0.37353872  0.50035266  0.69734601  1
  F  F440  1  0.71156266  0.00091078  0.20052043  1
  F  F441  1  0.71755872  0.01242017  0.69945103  1
  F  F442  1  0.71287625  0.49913299  0.19665611  1
  F  F443  1  0.71494854  0.50255591  0.69666941  1
  F  F444  1  0.20643144  0.24927578  0.20485886  1
  F  F445  1  0.21026629  0.24734467  0.70399865  1
  F  F446  1  0.21554652  0.76150603  0.20011439  1
  F  F447  1  0.21033493  0.74993754  0.70225983  1
  F  F448  1  0.54536216  0.24803659  0.19742734  1
  F  F449  1  0.54813565  0.26378551  0.69473595  1
  F  F450  1  0.54358129  0.75226455  0.19771994  1
  F  F451  1  0.54610468  0.74901927  0.70031896  1
  F  F452  1  0.87946596  0.24846041  0.20251180  1
  F  F453  1  0.87884462  0.25289515  0.70049286  1
  F  F454  1  0.87631754  0.74992704  0.19924891  1
  F  F455  1  0.88231078  0.74859443  0.70228510  1
  F  F456  1  0.28938567  0.00038594  0.29991162  1
  F  F457  1  0.30121950  -0.00126723  0.80415734  1
  F  F458  1  0.28986977  0.50038244  0.29687024  1
  F  F459  1  0.28630593  0.50491312  0.80262601  1
  F  F460  1  0.62099393  0.00123932  0.29519232  1
  F  F461  1  0.61813200  0.01055725  0.80299418  1
  F  F462  1  0.62396385  0.50327353  0.29234890  1
  F  F463  1  0.63332376  0.50216385  0.79794611  1
  F  F464  1  0.95165303  0.00180334  0.29964851  1
  F  F465  1  0.95375014  -0.00057681  0.80202061  1
  F  F466  1  0.95038682  0.50342277  0.29641119  1
  F  F467  1  0.95512431  0.50146883  0.79427383  1
  F  F468  1  0.11970979  0.24982173  0.30248344  1
  F  F469  1  0.12003001  0.25342619  0.79941454  1
  F  F470  1  0.11467179  0.75767430  0.30266449  1
  F  F471  1  0.12195237  0.74499872  0.79704580  1
  F  F472  1  0.46023578  0.25128090  0.29540426  1
  F  F473  1  0.45771001  0.25576082  0.79985358  1
  F  F474  1  0.45669557  0.74981702  0.29371921  1
  F  F475  1  0.45335874  0.74695612  0.79428639  1
  F  F476  1  0.78540078  0.24999976  0.29486973  1
  F  F477  1  0.78845605  0.25385183  0.79704817  1
  F  F478  1  0.78718239  0.75076015  0.29504486  1
  F  F479  1  0.78945424  0.74506098  0.79668851  1
