# generated using pymatgen
data_K24Na3Li5Mg64Fe17Si79(O5F)48
_symmetry_space_group_name_H-M   'P 1'
_cell_length_a   16.08151462
_cell_length_b   18.58502761
_cell_length_c   20.55012987
_cell_angle_alpha   89.99629130
_cell_angle_beta   100.01549040
_cell_angle_gamma   90.00380656
_symmetry_Int_Tables_number   1
_chemical_formula_structural   K24Na3Li5Mg64Fe17Si79(O5F)48
_chemical_formula_sum   'K24 Na3 Li5 Mg64 Fe17 Si79 O240 F48'
_cell_volume   6048.32986749
_cell_formula_units_Z   1
loop_
 _symmetry_equiv_pos_site_id
 _symmetry_equiv_pos_as_xyz
  1  'x, y, z'
loop_
 _atom_site_type_symbol
 _atom_site_label
 _atom_site_symmetry_multiplicity
 _atom_site_fract_x
 _atom_site_fract_y
 _atom_site_fract_z
 _atom_site_occupancy
  K  K0  1  -0.00397678  -0.00692252  -0.00546090  1
  K  K1  1  -0.02027919  0.00842957  0.49605398  1
  K  K2  1  0.00718017  0.48957260  0.00371726  1
  K  K3  1  0.00245155  0.48455432  0.50173079  1
  K  K4  1  0.33127935  -0.00497625  0.00020775  1
  K  K5  1  0.33926391  -0.00185663  0.49940334  1
  K  K6  1  0.33139141  0.50263762  -0.00508596  1
  K  K7  1  0.32590655  0.50140786  0.50246083  1
  K  K8  1  0.67573858  0.00495738  0.00624457  1
  K  K9  1  0.66873497  0.00060312  0.50351219  1
  K  K10  1  0.66937019  0.49494370  -0.00307935  1
  K  K11  1  0.67167566  0.49999830  0.50205279  1
  K  K12  1  0.15231807  0.25532083  0.00126055  1
  K  K13  1  0.15863816  0.25683393  0.49369089  1
  K  K14  1  0.16005976  0.75394110  -0.00636192  1
  K  K15  1  0.16656573  0.74721364  0.50460244  1
  K  K16  1  0.51229393  0.24844345  0.00462042  1
  K  K17  1  0.49687996  0.24547751  0.50153410  1
  K  K18  1  0.50335517  0.75010885  -0.00434270  1
  K  K19  1  0.51402375  0.75782737  0.50921997  1
  K  K20  1  0.83734857  0.25568407  0.00925539  1
  K  K21  1  0.84045450  0.24648255  0.49759960  1
  K  K22  1  0.82995352  0.75628033  -0.00718673  1
  K  K23  1  0.82945200  0.74450244  0.50424405  1
  Na  Na24  1  0.83226624  0.00294091  0.24940283  1
  Na  Na25  1  0.33356306  0.58071063  0.74918634  1
  Na  Na26  1  0.00123210  0.41565425  0.25401168  1
  Li  Li27  1  0.50203773  0.00273029  0.25270259  1
  Li  Li28  1  -0.00407529  0.25259099  0.25719256  1
  Li  Li29  1  0.83280889  0.33237364  0.74944931  1
  Li  Li30  1  0.49751714  0.66550564  0.74824406  1
  Li  Li31  1  0.83424622  0.83726372  0.74813992  1
  Mg  Mg32  1  -0.00202270  0.25141762  0.75231356  1
  Mg  Mg33  1  0.33686144  0.74947190  0.24683093  1
  Mg  Mg34  1  0.16793624  0.49800288  0.75307786  1
  Mg  Mg35  1  -0.00498629  0.75258637  0.75251564  1
  Mg  Mg36  1  0.50090895  0.50044312  0.24534732  1
  Mg  Mg37  1  0.83292951  -0.00194747  0.75034387  1
  Mg  Mg38  1  0.66802248  0.74967823  0.74785731  1
  Mg  Mg39  1  0.00157161  0.75146469  0.25008402  1
  Mg  Mg40  1  0.16664291  -0.00187959  0.75600318  1
  Mg  Mg41  1  0.50200297  -0.00216888  0.74506939  1
  Mg  Mg42  1  0.66854496  0.25212448  0.74600912  1
  Mg  Mg43  1  0.83539272  0.50216819  0.24721300  1
  Mg  Mg44  1  0.33413989  0.25113844  0.74963126  1
  Mg  Mg45  1  0.49756423  0.50161971  0.74763695  1
  Mg  Mg46  1  0.66754154  0.24867692  0.24646186  1
  Mg  Mg47  1  0.16729586  0.00137101  0.25231306  1
  Mg  Mg48  1  0.33636351  0.74816496  0.75138599  1
  Mg  Mg49  1  0.33351623  0.24681886  0.25445273  1
  Mg  Mg50  1  0.83268571  0.49674187  0.75062545  1
  Mg  Mg51  1  0.66654796  0.75000761  0.24509335  1
  Mg  Mg52  1  0.16816615  0.49857203  0.24967164  1
  Mg  Mg53  1  0.66522861  0.08418292  0.24872108  1
  Mg  Mg54  1  -0.00005224  0.41425760  0.75299200  1
  Mg  Mg55  1  0.50009023  0.83610097  0.24880845  1
  Mg  Mg56  1  0.33386317  0.08259239  0.75028604  1
  Mg  Mg57  1  0.16708022  0.33570790  0.75224205  1
  Mg  Mg58  1  0.33156850  0.41516890  0.74984177  1
  Mg  Mg59  1  0.66625119  0.41571915  0.74610329  1
  Mg  Mg60  1  0.16318948  0.16716475  0.25313716  1
  Mg  Mg61  1  0.00261519  0.58500671  0.25117076  1
  Mg  Mg62  1  0.50089929  0.16322085  0.25047694  1
  Mg  Mg63  1  0.66335627  0.91983099  0.24776460  1
  Mg  Mg64  1  -0.00216360  0.91485512  0.75431616  1
  Mg  Mg65  1  0.66670501  0.41667343  0.24521419  1
  Mg  Mg66  1  0.66452563  0.58563777  0.24321687  1
  Mg  Mg67  1  0.83165815  0.66658006  0.75101118  1
  Mg  Mg68  1  0.66556734  0.08532106  0.74443173  1
  Mg  Mg69  1  0.49947406  0.33305804  0.24867040  1
  Mg  Mg70  1  0.50207933  0.83050680  0.74625120  1
  Mg  Mg71  1  0.49686509  0.33508360  0.74643232  1
  Mg  Mg72  1  0.16767881  0.16570762  0.75401419  1
  Mg  Mg73  1  -0.00191981  0.08377973  0.75230950  1
  Mg  Mg74  1  0.17050573  0.66515423  0.25054813  1
  Mg  Mg75  1  0.33772044  0.91802649  0.25062455  1
  Mg  Mg76  1  0.16386069  0.33112150  0.25526401  1
  Mg  Mg77  1  -0.00023059  0.91771104  0.25005499  1
  Mg  Mg78  1  0.83642051  0.33380814  0.24692108  1
  Mg  Mg79  1  0.33637271  0.58450340  0.24663163  1
  Mg  Mg80  1  0.83166408  0.66770691  0.24572930  1
  Mg  Mg81  1  0.16922909  0.83414127  0.25086156  1
  Mg  Mg82  1  0.33499036  0.91349951  0.75123043  1
  Mg  Mg83  1  0.33715593  0.08173946  0.25217341  1
  Mg  Mg84  1  0.83435938  0.16730987  0.24737604  1
  Mg  Mg85  1  0.49870738  0.16614396  0.74495391  1
  Mg  Mg86  1  0.16548453  0.83469834  0.75536400  1
  Mg  Mg87  1  -0.00186437  0.08617867  0.24944231  1
  Mg  Mg88  1  0.00115261  0.58396158  0.75468169  1
  Mg  Mg89  1  0.33193958  0.41402358  0.25200939  1
  Mg  Mg90  1  0.83062587  0.83573284  0.24737495  1
  Mg  Mg91  1  0.49961809  0.66494386  0.24426628  1
  Mg  Mg92  1  0.16709338  0.66678471  0.75252239  1
  Mg  Mg93  1  0.66170580  0.58433237  0.74835948  1
  Mg  Mg94  1  0.82980605  0.16959081  0.74727060  1
  Mg  Mg95  1  0.66883707  0.91350846  0.74741326  1
  Fe  Fe96  1  0.52570845  0.91575996  0.60739891  1
  Fe  Fe97  1  0.86461992  0.92000986  0.61038699  1
  Fe  Fe98  1  0.96816458  0.83261809  0.89422882  1
  Fe  Fe99  1  0.52711313  0.57916208  0.10294272  1
  Fe  Fe100  1  0.14551031  0.41355567  0.89399678  1
  Fe  Fe101  1  0.69678923  0.16477917  0.10665400  1
  Fe  Fe102  1  0.35769588  0.33305331  0.60810542  1
  Fe  Fe103  1  0.02079562  0.32854012  0.11388860  1
  Fe  Fe104  1  0.18712183  0.42092811  0.60952107  1
  Fe  Fe105  1  0.97065987  0.16407046  0.39017027  1
  Fe  Fe106  1  0.35994444  0.67080865  0.10521952  1
  Fe  Fe107  1  0.68987694  0.17513933  0.60615924  1
  Fe  Fe108  1  0.14482800  0.41949520  0.39316861  1
  Fe  Fe109  1  0.69604084  0.66856727  0.10451399  1
  Fe  Fe110  1  0.47832716  0.08252539  0.39018693  1
  Fe  Fe111  1  0.14357497  0.91966294  0.89642236  1
  Fe  Fe112  1  0.70001814  0.82822723  0.60790902  1
  Si  Si113  1  0.85280021  0.42436898  0.11120276  1
  Si  Si114  1  0.80510689  0.57860052  0.88508368  1
  Si  Si115  1  0.97288509  0.83818584  0.38560889  1
  Si  Si116  1  0.64034540  0.17372901  0.38668778  1
  Si  Si117  1  0.80186338  0.41416434  0.88304634  1
  Si  Si118  1  0.47567674  0.58061701  0.38484143  1
  Si  Si119  1  0.03011519  0.16170921  0.61921078  1
  Si  Si120  1  0.68650788  0.83930324  0.10978154  1
  Si  Si121  1  0.52242934  0.92126778  0.11531553  1
  Si  Si122  1  0.19271594  0.07712500  0.61849051  1
  Si  Si123  1  0.47880858  0.58348735  0.88411214  1
  Si  Si124  1  0.31203300  0.66867082  0.88567724  1
  Si  Si125  1  0.68960721  0.33823164  0.10945837  1
  Si  Si126  1  0.14600529  0.58663314  0.89045001  1
  Si  Si127  1  0.30632277  0.16208193  0.38874011  1
  Si  Si128  1  0.02847454  0.16025998  0.11197346  1
  Si  Si129  1  0.47559171  0.41476038  0.38472519  1
  Si  Si130  1  0.19689492  0.57893961  0.11421434  1
  Si  Si131  1  0.80086795  0.91434119  0.38340350  1
  Si  Si132  1  0.02833086  0.83066400  0.11527983  1
  Si  Si133  1  0.86162326  0.91154252  0.11344701  1
  Si  Si134  1  0.14518533  0.09200468  0.89163467  1
  Si  Si135  1  0.96967365  0.33268789  0.88817175  1
  Si  Si136  1  0.85974165  0.08833746  0.61336161  1
  Si  Si137  1  0.51828765  0.08568287  0.60929003  1
  Si  Si138  1  0.18133841  0.58884704  0.61451444  1
  Si  Si139  1  0.97423785  0.67232162  0.38496892  1
  Si  Si140  1  0.31222618  0.32885345  0.38920892  1
  Si  Si141  1  0.31689999  0.32971488  0.89052033  1
  Si  Si142  1  0.14100994  0.07978713  0.38866066  1
  Si  Si143  1  0.02326624  0.32621670  0.61452527  1
  Si  Si144  1  0.03542993  0.66501604  0.11646491  1
  Si  Si145  1  0.19427712  0.41328946  0.11503592  1
  Si  Si146  1  0.52270034  0.08644820  0.11130192  1
  Si  Si147  1  0.80591345  0.42067014  0.38333560  1
  Si  Si148  1  0.86782406  0.07856805  0.10909100  1
  Si  Si149  1  0.64055187  0.82701044  0.38352026  1
  Si  Si150  1  0.47629007  0.91522129  0.88423228  1
  Si  Si151  1  0.64294776  0.66650860  0.88398460  1
  Si  Si152  1  0.31348268  0.83208398  0.88963459  1
  Si  Si153  1  0.02080204  0.67340284  0.61772371  1
  Si  Si154  1  0.14431816  0.59159121  0.38931906  1
  Si  Si155  1  0.47691644  0.41950206  0.88596246  1
  Si  Si156  1  0.52558759  0.41935888  0.61160182  1
  Si  Si157  1  0.97230072  0.66064153  0.89035490  1
  Si  Si158  1  0.79826003  0.92241645  0.88917560  1
  Si  Si159  1  0.68964516  0.34409795  0.61070973  1
  Si  Si160  1  0.64161373  0.66277304  0.38339995  1
  Si  Si161  1  0.80387168  0.08599312  0.88459374  1
  Si  Si162  1  0.51717923  0.41073316  0.11111753  1
  Si  Si163  1  0.86145505  0.58034934  0.61657744  1
  Si  Si164  1  0.79785051  0.08279534  0.38746566  1
  Si  Si165  1  0.81031866  0.58517799  0.38283917  1
  Si  Si166  1  0.68827816  0.65647768  0.61090611  1
  Si  Si167  1  0.96690531  0.33374954  0.39094009  1
  Si  Si168  1  0.51738791  0.58227919  0.61338300  1
  Si  Si169  1  0.19303657  0.08327832  0.11696723  1
  Si  Si170  1  0.64349917  0.33762045  0.38230127  1
  Si  Si171  1  0.86763879  0.58981451  0.11178938  1
  Si  Si172  1  0.35312640  0.66767130  0.61536530  1
  Si  Si173  1  0.35523197  0.83946355  0.11209871  1
  Si  Si174  1  0.63909883  0.83177339  0.88514531  1
  Si  Si175  1  0.97097465  0.16694223  0.88634646  1
  Si  Si176  1  0.63735592  0.33279181  0.88262502  1
  Si  Si177  1  0.03075507  0.83679475  0.61491813  1
  Si  Si178  1  0.35700764  0.82989451  0.61188351  1
  Si  Si179  1  0.14453932  0.91408035  0.38613451  1
  Si  Si180  1  0.31281604  0.66854707  0.38558031  1
  Si  Si181  1  0.19127562  0.91989672  0.11752422  1
  Si  Si182  1  0.47837404  0.91241268  0.38658559  1
  Si  Si183  1  0.86333937  0.41583921  0.61668141  1
  Si  Si184  1  0.35116640  0.16447395  0.61344700  1
  Si  Si185  1  0.35566353  0.16523499  0.11535827  1
  Si  Si186  1  0.35624281  0.32860000  0.11640856  1
  Si  Si187  1  0.63761524  0.16823479  0.88203799  1
  Si  Si188  1  0.19561246  0.91322032  0.61772534  1
  Si  Si189  1  0.31481070  0.16707466  0.88667880  1
  Si  Si190  1  0.31154002  0.83273105  0.38529758  1
  Si  Si191  1  0.47632257  0.07991504  0.88344287  1
  O  O192  1  0.27617227  0.11133736  0.08695824  1
  O  O193  1  0.27733897  0.10201327  0.59003747  1
  O  O194  1  0.27391492  0.60210842  0.07845524  1
  O  O195  1  0.26724099  0.61952021  0.58783476  1
  O  O196  1  0.59468223  0.11518998  0.07113124  1
  O  O197  1  0.59745101  0.11374029  0.57671457  1
  O  O198  1  0.62594476  0.59454385  0.07013523  1
  O  O199  1  0.60068464  0.60959018  0.58264788  1
  O  O200  1  0.95513789  0.10056007  0.08141635  1
  O  O201  1  0.95268927  0.10782010  0.59099634  1
  O  O202  1  0.95787763  0.61097673  0.08756422  1
  O  O203  1  0.93508194  0.62620396  0.58735744  1
  O  O204  1  0.11780644  0.36307109  0.08077768  1
  O  O205  1  0.09597035  0.35761533  0.57797767  1
  O  O206  1  0.10927266  0.86830978  0.08904710  1
  O  O207  1  0.12171818  0.85478287  0.58959377  1
  O  O208  1  0.44260782  0.34917362  0.08821657  1
  O  O209  1  0.45932647  0.35943493  0.57812436  1
  O  O210  1  0.43868358  0.87218189  0.08437019  1
  O  O211  1  0.43362983  0.85309218  0.57584683  1
  O  O212  1  0.76164316  0.38538609  0.07989563  1
  O  O213  1  0.77278553  0.37956738  0.58456173  1
  O  O214  1  0.77135785  0.87205777  0.08322435  1
  O  O215  1  0.79178556  0.85108390  0.56929566  1
  O  O216  1  0.28137934  0.38605609  0.08776587  1
  O  O217  1  0.27907932  0.39940846  0.57117207  1
  O  O218  1  0.27583344  0.89654249  0.08853913  1
  O  O219  1  0.27692309  0.88585485  0.58591891  1
  O  O220  1  0.59992368  0.38110091  0.08197489  1
  O  O221  1  0.61631906  0.40586437  0.58589192  1
  O  O222  1  0.60586332  0.89473114  0.08425649  1
  O  O223  1  0.61281515  0.88699843  0.56595187  1
  O  O224  1  0.92666151  0.38790650  0.07820176  1
  O  O225  1  0.93481983  0.37042730  0.58593452  1
  O  O226  1  0.93989778  0.87166167  0.08369213  1
  O  O227  1  0.96622819  0.89605025  0.57898074  1
  O  O228  1  0.11501861  0.13436752  0.08320442  1
  O  O229  1  0.11353964  0.13114654  0.59066053  1
  O  O230  1  0.11679257  0.63387712  0.08775505  1
  O  O231  1  0.10320775  0.64663357  0.58669669  1
  O  O232  1  0.43591200  0.13535870  0.08363176  1
  O  O233  1  0.43761317  0.14181726  0.58643980  1
  O  O234  1  0.45168001  0.64961334  0.06644891  1
  O  O235  1  0.43331503  0.63226146  0.58397646  1
  O  O236  1  0.78677049  0.12286496  0.07037066  1
  O  O237  1  0.79387855  0.15085384  0.58218423  1
  O  O238  1  0.80141913  0.64959407  0.07812159  1
  O  O239  1  0.76748764  0.61220670  0.58483584  1
  O  O240  1  0.06396814  0.10349205  0.42419887  1
  O  O241  1  0.06446423  0.13303950  0.91690827  1
  O  O242  1  0.06536950  0.63549156  0.41537549  1
  O  O243  1  0.06550070  0.62377938  0.91828210  1
  O  O244  1  0.38092842  0.10997976  0.42396685  1
  O  O245  1  0.39521635  0.11256093  0.91380298  1
  O  O246  1  0.39736763  0.61962224  0.41432732  1
  O  O247  1  0.39660900  0.61891642  0.91108614  1
  O  O248  1  0.71837862  0.11956634  0.41728516  1
  O  O249  1  0.72977097  0.13302128  0.91229398  1
  O  O250  1  0.73022458  0.61980303  0.41318497  1
  O  O251  1  0.73189986  0.62387435  0.91516573  1
  O  O252  1  0.23976047  0.36131181  0.42542629  1
  O  O253  1  0.24184095  0.35628726  0.92751763  1
  O  O254  1  0.22780246  0.86304373  0.41397779  1
  O  O255  1  0.24184062  0.86403467  0.92716829  1
  O  O256  1  0.56301651  0.37048340  0.41291210  1
  O  O257  1  0.56515758  0.37577145  0.91500011  1
  O  O258  1  0.55767315  0.85591582  0.41184616  1
  O  O259  1  0.55876252  0.86641639  0.91470085  1
  O  O260  1  0.88417780  0.37184819  0.41926356  1
  O  O261  1  0.88948368  0.37308613  0.91418147  1
  O  O262  1  0.89534306  0.87889804  0.41323368  1
  O  O263  1  0.88149669  0.88283893  0.92753421  1
  O  O264  1  0.04623414  0.38590605  0.41985188  1
  O  O265  1  0.05396189  0.37136643  0.92716236  1
  O  O266  1  0.06327332  0.87905674  0.41509226  1
  O  O267  1  0.06375156  0.87939632  0.93915867  1
  O  O268  1  0.40075609  0.37513282  0.41537899  1
  O  O269  1  0.40198778  0.37925753  0.91713402  1
  O  O270  1  0.39415158  0.88072766  0.41568118  1
  O  O271  1  0.39910361  0.88111936  0.91640223  1
  O  O272  1  0.72114952  0.39291536  0.41120392  1
  O  O273  1  0.72761663  0.37067893  0.91347310  1
  O  O274  1  0.72797992  0.86981256  0.41469023  1
  O  O275  1  0.71853115  0.88279040  0.91746456  1
  O  O276  1  0.22095609  0.13379851  0.41597935  1
  O  O277  1  0.23039504  0.14329567  0.91642131  1
  O  O278  1  0.23086697  0.64049017  0.41611531  1
  O  O279  1  0.23119816  0.63691365  0.91669530  1
  O  O280  1  0.56031940  0.15348591  0.42058464  1
  O  O281  1  0.56235207  0.12594497  0.91263055  1
  O  O282  1  0.56502342  0.62279521  0.41429336  1
  O  O283  1  0.56529965  0.62923417  0.91552368  1
  O  O284  1  0.88333096  0.11894496  0.42696214  1
  O  O285  1  0.89713747  0.12101555  0.91494383  1
  O  O286  1  0.89602255  0.63189092  0.41318497  1
  O  O287  1  0.89945653  0.60894413  0.91569779  1
  O  O288  1  0.16890140  0.00125105  0.08911883  1
  O  O289  1  0.16970176  -0.00482426  0.58977325  1
  O  O290  1  0.17070133  0.49645657  0.08914777  1
  O  O291  1  0.15263687  0.51414668  0.57793301  1
  O  O292  1  0.49839109  0.00260948  0.08635199  1
  O  O293  1  0.48519983  0.00808153  0.58025849  1
  O  O294  1  0.48394403  0.48524141  0.07670325  1
  O  O295  1  0.49498139  0.50079498  0.58328964  1
  O  O296  1  0.85358441  -0.00681080  0.08398064  1
  O  O297  1  0.83041978  0.01272154  0.57764277  1
  O  O298  1  0.84163836  0.50863523  0.08352075  1
  O  O299  1  0.86380182  0.49852410  0.58586440  1
  O  O300  1  -0.00015001  0.23573389  0.07585630  1
  O  O301  1  0.00634516  0.24199286  0.58920985  1
  O  O302  1  0.01943675  0.74767444  0.08728438  1
  O  O303  1  0.00216194  0.75472638  0.58712256  1
  O  O304  1  0.33020760  0.24714577  0.08714669  1
  O  O305  1  0.31702936  0.23938886  0.58001346  1
  O  O306  1  0.32437807  0.76490923  0.07649361  1
  O  O307  1  0.32853887  0.74829441  0.58259022  1
  O  O308  1  0.68255165  0.26036448  0.07351841  1
  O  O309  1  0.66366835  0.26936522  0.57237103  1
  O  O310  1  0.66268571  0.76325512  0.07375952  1
  O  O311  1  0.67675988  0.73209460  0.57305655  1
  O  O312  1  0.16695029  -0.00473722  0.41461582  1
  O  O313  1  0.16369633  0.01622925  0.92906538  1
  O  O314  1  0.15876287  0.51569634  0.42606522  1
  O  O315  1  0.16317799  0.50899857  0.92583486  1
  O  O316  1  0.50464056  -0.01191640  0.42188472  1
  O  O317  1  0.49213827  -0.00193098  0.91347099  1
  O  O318  1  0.48611248  0.49794951  0.41440500  1
  O  O319  1  0.48893393  0.50123111  0.91683116  1
  O  O320  1  0.80056825  -0.00357695  0.41139425  1
  O  O321  1  0.79993191  0.00654778  0.91837668  1
  O  O322  1  0.82314792  0.50352244  0.41310700  1
  O  O323  1  0.80270186  0.49600523  0.91438969  1
  O  O324  1  0.32977599  0.24511732  0.41488844  1
  O  O325  1  0.34524744  0.24646713  0.91617827  1
  O  O326  1  0.33094488  0.75066455  0.41446607  1
  O  O327  1  0.33589120  0.74926723  0.91683089  1
  O  O328  1  0.66910959  0.25739492  0.41125631  1
  O  O329  1  0.63835961  0.25039598  0.91180318  1
  O  O330  1  0.65389262  0.74435116  0.41332147  1
  O  O331  1  0.65354835  0.74924475  0.91475187  1
  O  O332  1  0.98212224  0.25643081  0.42874205  1
  O  O333  1  0.96821237  0.24857731  0.91575650  1
  O  O334  1  0.97892193  0.75513469  0.41498319  1
  O  O335  1  0.96951360  0.73660135  0.92744162  1
  O  O336  1  0.21174768  0.08297942  0.19738642  1
  O  O337  1  0.21015777  0.08008169  0.69933399  1
  O  O338  1  0.21371571  0.58343746  0.19561719  1
  O  O339  1  0.19560432  0.58498647  0.69440786  1
  O  O340  1  0.54535842  0.09060572  0.19087889  1
  O  O341  1  0.54015868  0.08490549  0.69143541  1
  O  O342  1  0.54366525  0.58228416  0.19683985  1
  O  O343  1  0.54166287  0.58056126  0.69269754  1
  O  O344  1  0.88144153  0.08707839  0.18833305  1
  O  O345  1  0.87626190  0.08584170  0.69516936  1
  O  O346  1  0.88077787  0.58830970  0.19312681  1
  O  O347  1  0.87748054  0.58117058  0.69684685  1
  O  O348  1  0.04884411  0.32249199  0.20132299  1
  O  O349  1  0.04200501  0.33019914  0.69529078  1
  O  O350  1  0.04557532  0.83252016  0.19595052  1
  O  O351  1  0.04575570  0.83394176  0.69543624  1
  O  O352  1  0.37532369  0.33025697  0.19707539  1
  O  O353  1  0.37713468  0.33153047  0.70101350  1
  O  O354  1  0.37555013  0.83521243  0.19330578  1
  O  O355  1  0.37510343  0.83299337  0.69294187  1
  O  O356  1  0.70708033  0.33577911  0.19046528  1
  O  O357  1  0.70489138  0.33615374  0.69081049  1
  O  O358  1  0.70739855  0.83549000  0.19085935  1
  O  O359  1  0.71101954  0.83134308  0.69909699  1
  O  O360  1  0.21424984  0.41422764  0.19573421  1
  O  O361  1  0.21065665  0.41548733  0.70144956  1
  O  O362  1  0.20963376  0.91673149  0.19794902  1
  O  O363  1  0.21360915  0.91578394  0.69815582  1
  O  O364  1  0.54038711  0.41453982  0.19244047  1
  O  O365  1  0.54275753  0.41755624  0.69283251  1
  O  O366  1  0.54232109  0.91488324  0.19478370  1
  O  O367  1  0.54582865  0.91508926  0.69994031  1
  O  O368  1  0.86611558  0.42120662  0.19118319  1
  O  O369  1  0.88009457  0.41868985  0.69630376  1
  O  O370  1  0.88248844  0.90796824  0.19290769  1
  O  O371  1  0.88100786  0.92157062  0.70137391  1
  O  O372  1  0.05008085  0.15726503  0.19180421  1
  O  O373  1  0.04714613  0.16469758  0.69983982  1
  O  O374  1  0.04859946  0.66914330  0.19715023  1
  O  O375  1  0.03987742  0.66837904  0.69799800  1
  O  O376  1  0.37489691  0.16704599  0.19545446  1
  O  O377  1  0.37268185  0.16496040  0.69505802  1
  O  O378  1  0.37863741  0.66719926  0.19864387  1
  O  O379  1  0.37663810  0.67377107  0.69355447  1
  O  O380  1  0.71078230  0.16635049  0.19772475  1
  O  O381  1  0.70891314  0.16909026  0.69812387  1
  O  O382  1  0.71195016  0.66863402  0.19771216  1
  O  O383  1  0.70829652  0.66069221  0.69153722  1
  O  O384  1  0.12447638  0.08042194  0.30760276  1
  O  O385  1  0.12643816  0.08620380  0.81077780  1
  O  O386  1  0.12643640  0.58902711  0.30846268  1
  O  O387  1  0.12476313  0.58458147  0.80938151  1
  O  O388  1  0.45533103  0.08433600  0.29944259  1
  O  O389  1  0.45715767  0.08203628  0.80319287  1
  O  O390  1  0.45788881  0.58144641  0.30496435  1
  O  O391  1  0.46737411  0.58017593  0.80584098  1
  O  O392  1  0.78341792  0.09050034  0.30806311  1
  O  O393  1  0.78868601  0.08501022  0.80460009  1
  O  O394  1  0.79088338  0.58581263  0.30289626  1
  O  O395  1  0.78797986  0.58016544  0.80467662  1
  O  O396  1  0.29471538  0.33147200  0.30818054  1
  O  O397  1  0.29295344  0.32921847  0.81009074  1
  O  O398  1  0.29190223  0.83239220  0.30474977  1
  O  O399  1  0.29234693  0.83434649  0.80861798  1
  O  O400  1  0.62301377  0.33674852  0.30179693  1
  O  O401  1  0.62054427  0.33401975  0.80248919  1
  O  O402  1  0.62371605  0.83008955  0.30315972  1
  O  O403  1  0.62289156  0.83176213  0.80561748  1
  O  O404  1  0.94452295  0.32974920  0.31169548  1
  O  O405  1  0.95987008  0.33291799  0.80836737  1
  O  O406  1  0.95782331  0.83492911  0.30535782  1
  O  O407  1  0.95802622  0.83229475  0.80376932  1
  O  O408  1  0.13750661  0.41967464  0.30367907  1
  O  O409  1  0.11991644  0.41493345  0.80281349  1
  O  O410  1  0.12514158  0.91353531  0.30572294  1
  O  O411  1  0.12275362  0.91738125  0.80385711  1
  O  O412  1  0.45789860  0.41638057  0.30418450  1
  O  O413  1  0.45931801  0.41710319  0.80599506  1
  O  O414  1  0.45525469  0.91132648  0.30644405  1
  O  O415  1  0.45667518  0.91678033  0.80425245  1
  O  O416  1  0.78887626  0.42031635  0.30311358  1
  O  O417  1  0.78483232  0.41748330  0.80357792  1
  O  O418  1  0.78330775  0.90846751  0.30410522  1
  O  O419  1  0.78340527  0.92432428  0.80960341  1
  O  O420  1  0.29041009  0.16253064  0.30753921  1
  O  O421  1  0.29361244  0.16521815  0.80618999  1
  O  O422  1  0.29280482  0.66739937  0.30534190  1
  O  O423  1  0.28648829  0.67334141  0.80673107  1
  O  O424  1  0.62181488  0.17081902  0.30583114  1
  O  O425  1  0.61912516  0.16715053  0.80222557  1
  O  O426  1  0.62259879  0.66502421  0.30358615  1
  O  O427  1  0.62780924  0.66579900  0.80459821  1
  O  O428  1  0.95227351  0.16365532  0.29946118  1
  O  O429  1  0.95541339  0.16649129  0.80605769  1
  O  O430  1  0.95715050  0.67136218  0.30462261  1
  O  O431  1  0.95546191  0.66323100  0.80932123  1
  F  F432  1  0.04898844  -0.00352739  0.20160585  1
  F  F433  1  0.04728556  0.00341072  0.70669862  1
  F  F434  1  0.05192401  0.51273916  0.20055383  1
  F  F435  1  0.04202350  0.50149598  0.70545093  1
  F  F436  1  0.36944111  -0.00122152  0.19914310  1
  F  F437  1  0.37696532  -0.00126757  0.70308057  1
  F  F438  1  0.37852014  0.49696114  0.20256412  1
  F  F439  1  0.38172513  0.48974695  0.69835752  1
  F  F440  1  0.69923192  0.00028102  0.19548366  1
  F  F441  1  0.71147860  0.00112786  0.70134081  1
  F  F442  1  0.71242554  0.50142565  0.20070691  1
  F  F443  1  0.71226625  0.50080026  0.70056302  1
  F  F444  1  0.21517661  0.24769489  0.20607341  1
  F  F445  1  0.21108568  0.24801379  0.70625036  1
  F  F446  1  0.21255456  0.75052956  0.20317485  1
  F  F447  1  0.21105074  0.75250789  0.70530003  1
  F  F448  1  0.54379213  0.25073473  0.20136979  1
  F  F449  1  0.54419182  0.25099206  0.70071697  1
  F  F450  1  0.54466851  0.75151730  0.20075187  1
  F  F451  1  0.54829157  0.75055880  0.69980129  1
  F  F452  1  0.86748414  0.25220179  0.19567123  1
  F  F453  1  0.88166819  0.24896119  0.70284760  1
  F  F454  1  0.88135419  0.75200873  0.20202878  1
  F  F455  1  0.88006569  0.73983800  0.70004589  1
  F  F456  1  0.28765109  -0.00279363  0.30043564  1
  F  F457  1  0.29140900  -0.00053091  0.80110605  1
  F  F458  1  0.29267735  0.50251403  0.29820763  1
  F  F459  1  0.28598372  0.49096230  0.80537624  1
  F  F460  1  0.62487707  0.00060514  0.29856304  1
  F  F461  1  0.62050069  0.00495460  0.79679316  1
  F  F462  1  0.62260593  0.49880653  0.29614596  1
  F  F463  1  0.62191061  0.49797218  0.79592903  1
  F  F464  1  0.96723418  -0.00179842  0.30076897  1
  F  F465  1  0.95519714  0.00492273  0.80345177  1
  F  F466  1  0.94949931  0.51366918  0.30183683  1
  F  F467  1  0.95306977  0.49956685  0.80125967  1
  F  F468  1  0.13296987  0.24634899  0.30737097  1
  F  F469  1  0.12136724  0.24944128  0.80073309  1
  F  F470  1  0.12367189  0.75102551  0.29964228  1
  F  F471  1  0.11938501  0.74949297  0.80008924  1
  F  F472  1  0.45626248  0.25066482  0.29815157  1
  F  F473  1  0.45759302  0.24669193  0.79843044  1
  F  F474  1  0.45723786  0.75026812  0.29742838  1
  F  F475  1  0.45380209  0.75728732  0.80067763  1
  F  F476  1  0.78429657  0.25548975  0.29641944  1
  F  F477  1  0.78497781  0.24977398  0.79988860  1
  F  F478  1  0.78960275  0.75153468  0.29703146  1
  F  F479  1  0.78444694  0.74011456  0.80157556  1
