# generated using pymatgen
data_K24Na3Li5Mg64Fe17Si79(O5F)48
_symmetry_space_group_name_H-M   'P 1'
_cell_length_a   16.09219771
_cell_length_b   18.60009121
_cell_length_c   20.57780789
_cell_angle_alpha   90.00077636
_cell_angle_beta   100.02599684
_cell_angle_gamma   89.99809943
_symmetry_Int_Tables_number   1
_chemical_formula_structural   K24Na3Li5Mg64Fe17Si79(O5F)48
_chemical_formula_sum   'K24 Na3 Li5 Mg64 Fe17 Si79 O240 F48'
_cell_volume   6065.21511920
_cell_formula_units_Z   1
loop_
 _symmetry_equiv_pos_site_id
 _symmetry_equiv_pos_as_xyz
  1  'x, y, z'
loop_
 _atom_site_type_symbol
 _atom_site_label
 _atom_site_symmetry_multiplicity
 _atom_site_fract_x
 _atom_site_fract_y
 _atom_site_fract_z
 _atom_site_occupancy
  K  K0  1  -0.00551894  -0.01420854  0.00763214  1
  K  K1  1  0.00495482  -0.00836652  0.49534472  1
  K  K2  1  -0.00390909  0.49913834  0.00188319  1
  K  K3  1  0.00491165  0.51267382  0.50311990  1
  K  K4  1  0.33492664  -0.00318269  0.00456816  1
  K  K5  1  0.32737849  -0.01040166  0.50140785  1
  K  K6  1  0.32475449  0.50579940  0.00249458  1
  K  K7  1  0.33891233  0.50806764  0.50551723  1
  K  K8  1  0.66259008  -0.00721613  0.00682465  1
  K  K9  1  0.66053040  -0.00987094  0.49603360  1
  K  K10  1  0.66600380  0.49954768  0.00233980  1
  K  K11  1  0.66268141  0.51190646  0.50818514  1
  K  K12  1  0.17463389  0.25089152  0.00556311  1
  K  K13  1  0.16331115  0.24762246  0.49203906  1
  K  K14  1  0.16780960  0.75299098  0.00138214  1
  K  K15  1  0.18067347  0.76408101  0.50864960  1
  K  K16  1  0.49757019  0.24633089  -0.00275941  1
  K  K17  1  0.50253559  0.24418220  0.50234149  1
  K  K18  1  0.50371265  0.75182182  -0.00130660  1
  K  K19  1  0.49383889  0.76359112  0.49903743  1
  K  K20  1  0.82549060  0.24589312  0.00168536  1
  K  K21  1  0.83526556  0.24058958  0.49649096  1
  K  K22  1  0.82828763  0.75682016  0.00110324  1
  K  K23  1  0.82850465  0.75403822  0.50272219  1
  Na  Na24  1  0.83478110  -0.00153053  0.25087008  1
  Na  Na25  1  -0.00248358  0.92059516  0.24993442  1
  Na  Na26  1  0.50079682  0.66999462  0.25906888  1
  Li  Li27  1  0.50069927  -0.00154090  0.25447200  1
  Li  Li28  1  0.50153969  -0.00326322  0.75168168  1
  Li  Li29  1  0.50301124  0.33415439  0.75012436  1
  Li  Li30  1  0.16667446  0.16405733  0.24856518  1
  Li  Li31  1  0.66929721  0.58855259  0.76306188  1
  Mg  Mg32  1  0.16642302  0.00283110  0.24933727  1
  Mg  Mg33  1  0.00132156  0.25082558  0.74373035  1
  Mg  Mg34  1  0.50102685  0.49998709  0.25074323  1
  Mg  Mg35  1  0.83521179  0.49860467  0.24696102  1
  Mg  Mg36  1  0.33200240  0.24805300  0.24808360  1
  Mg  Mg37  1  -0.00180441  0.74933181  0.74934984  1
  Mg  Mg38  1  0.82822244  0.50248268  0.75016820  1
  Mg  Mg39  1  0.16560295  0.50248811  0.74765224  1
  Mg  Mg40  1  0.66453226  0.74939464  0.75674099  1
  Mg  Mg41  1  0.33358533  0.75193023  0.25592230  1
  Mg  Mg42  1  0.66926709  0.24757386  0.24757639  1
  Mg  Mg43  1  0.33358417  0.75076890  0.75021685  1
  Mg  Mg44  1  0.33855318  0.25142007  0.74713905  1
  Mg  Mg45  1  0.16761861  0.49771409  0.24721289  1
  Mg  Mg46  1  0.50379785  0.49913451  0.75380453  1
  Mg  Mg47  1  0.66383765  0.75100596  0.25443541  1
  Mg  Mg48  1  0.83344035  -0.00001902  0.75198458  1
  Mg  Mg49  1  0.00250157  0.24705751  0.24750451  1
  Mg  Mg50  1  0.66510220  0.25072628  0.74880036  1
  Mg  Mg51  1  0.16909075  0.00159066  0.74399249  1
  Mg  Mg52  1  -0.00029975  0.75176335  0.24788970  1
  Mg  Mg53  1  0.33420643  0.58326343  0.25185331  1
  Mg  Mg54  1  -0.00183440  0.58339559  0.24642631  1
  Mg  Mg55  1  0.66480075  0.08108943  0.24825353  1
  Mg  Mg56  1  0.00045740  0.91653831  0.74828686  1
  Mg  Mg57  1  0.33721868  0.08343785  0.74459918  1
  Mg  Mg58  1  0.83329070  0.83535534  0.75625277  1
  Mg  Mg59  1  0.66735677  0.41474343  0.24798358  1
  Mg  Mg60  1  -0.00312461  0.58752093  0.75045329  1
  Mg  Mg61  1  0.33461364  0.08396858  0.25129155  1
  Mg  Mg62  1  0.66634211  0.41687526  0.75154491  1
  Mg  Mg63  1  0.16643138  0.33047384  0.24603051  1
  Mg  Mg64  1  0.83098295  0.16358421  0.24652043  1
  Mg  Mg65  1  0.83001087  0.66618116  0.75363749  1
  Mg  Mg66  1  0.83125098  0.83394654  0.25135197  1
  Mg  Mg67  1  0.33178357  0.41431457  0.24795701  1
  Mg  Mg68  1  0.33561945  0.91837381  0.25468021  1
  Mg  Mg69  1  -0.00124679  0.41781695  0.74569500  1
  Mg  Mg70  1  0.16622618  0.66628808  0.24966424  1
  Mg  Mg71  1  -0.00068976  0.41308063  0.24433857  1
  Mg  Mg72  1  0.66605046  0.91635372  0.75634144  1
  Mg  Mg73  1  0.50080466  0.83616908  0.75362077  1
  Mg  Mg74  1  0.33392259  0.58520952  0.75108517  1
  Mg  Mg75  1  0.66674720  0.58439945  0.25243957  1
  Mg  Mg76  1  0.83254805  0.66448425  0.24874775  1
  Mg  Mg77  1  0.33754378  0.41585962  0.74741793  1
  Mg  Mg78  1  0.16748802  0.33524788  0.74445369  1
  Mg  Mg79  1  0.16675556  0.16766854  0.74222075  1
  Mg  Mg80  1  0.00173565  0.08380381  0.24841170  1
  Mg  Mg81  1  0.83104507  0.33188655  0.24567078  1
  Mg  Mg82  1  0.50300985  0.66477425  0.75374085  1
  Mg  Mg83  1  0.16639510  0.83631812  0.25074075  1
  Mg  Mg84  1  0.83337683  0.33458383  0.74905089  1
  Mg  Mg85  1  0.16718112  0.83633699  0.74551278  1
  Mg  Mg86  1  0.66682505  0.08261825  0.75173635  1
  Mg  Mg87  1  0.50072500  0.83626780  0.25905458  1
  Mg  Mg88  1  0.66344506  0.91723050  0.25671648  1
  Mg  Mg89  1  0.50274043  0.16735963  0.74890302  1
  Mg  Mg90  1  0.16510507  0.66737927  0.74814852  1
  Mg  Mg91  1  0.83475940  0.16609194  0.74763915  1
  Mg  Mg92  1  0.50085631  0.33334052  0.24722392  1
  Mg  Mg93  1  0.00127338  0.08616986  0.74382095  1
  Mg  Mg94  1  0.33550052  0.91713506  0.74875309  1
  Mg  Mg95  1  0.50120255  0.16378332  0.24926813  1
  Fe  Fe96  1  0.68494932  0.16075623  0.10630658  1
  Fe  Fe97  1  0.80721046  0.57983921  0.89300825  1
  Fe  Fe98  1  0.36688005  0.83193427  0.61158532  1
  Fe  Fe99  1  0.02116197  0.17063129  0.60389622  1
  Fe  Fe100  1  0.64269528  0.83093030  0.39814206  1
  Fe  Fe101  1  0.18978508  0.92177161  0.60715282  1
  Fe  Fe102  1  0.02020248  0.66593914  0.60736916  1
  Fe  Fe103  1  0.30075499  0.66836002  0.88872477  1
  Fe  Fe104  1  0.63677522  0.83746979  0.89705186  1
  Fe  Fe105  1  0.02330761  0.83360605  0.10925686  1
  Fe  Fe106  1  0.97347121  0.66857769  0.89167612  1
  Fe  Fe107  1  0.30632578  0.83260445  0.39180162  1
  Fe  Fe108  1  0.63433039  0.66335270  0.89607658  1
  Fe  Fe109  1  0.19129437  0.41445347  0.10806565  1
  Fe  Fe110  1  0.81255306  0.92205506  0.89374026  1
  Fe  Fe111  1  0.85754839  0.58099929  0.10897759  1
  Fe  Fe112  1  0.68555981  0.33162461  0.10815507  1
  Si  Si113  1  0.02902229  0.66381864  0.11265296  1
  Si  Si114  1  0.81128961  0.41536585  0.38491500  1
  Si  Si115  1  0.14393806  0.41617992  0.88070671  1
  Si  Si116  1  0.46469698  0.57732643  0.89011197  1
  Si  Si117  1  0.80892865  0.91610347  0.39173504  1
  Si  Si118  1  0.46487288  0.92206572  0.88836549  1
  Si  Si119  1  0.80840372  0.08420991  0.38531328  1
  Si  Si120  1  0.19530789  0.58611866  0.11410387  1
  Si  Si121  1  0.36088311  0.16636317  0.11412594  1
  Si  Si122  1  0.97431022  0.16594803  0.38326237  1
  Si  Si123  1  0.47662675  0.41376110  0.88355510  1
  Si  Si124  1  0.51997215  0.07544406  0.11424878  1
  Si  Si125  1  0.69327932  0.16744433  0.61381741  1
  Si  Si126  1  0.81612135  0.09177414  0.88667320  1
  Si  Si127  1  0.14015587  0.08364526  0.38363814  1
  Si  Si128  1  0.19503091  0.08667190  0.11542877  1
  Si  Si129  1  0.01776591  0.83650170  0.60945811  1
  Si  Si130  1  0.98264046  0.83516052  0.88711239  1
  Si  Si131  1  0.97667611  0.66705815  0.38560853  1
  Si  Si132  1  0.81392805  0.40902585  0.88680512  1
  Si  Si133  1  0.30670406  0.16696295  0.38550221  1
  Si  Si134  1  0.47538292  0.57352045  0.38816991  1
  Si  Si135  1  0.36048584  0.33399396  0.61214258  1
  Si  Si136  1  0.52311596  0.58640671  0.11917951  1
  Si  Si137  1  0.68942847  0.67011265  0.61834086  1
  Si  Si138  1  0.52495477  0.42437000  0.11359488  1
  Si  Si139  1  0.13960212  0.92209522  0.88221331  1
  Si  Si140  1  0.84983109  0.91446702  0.11296463  1
  Si  Si141  1  0.98019724  0.33195096  0.88082389  1
  Si  Si142  1  0.47482042  0.09071080  0.38710314  1
  Si  Si143  1  0.02435559  0.16134503  0.11408480  1
  Si  Si144  1  0.85281508  0.41980513  0.61333709  1
  Si  Si145  1  0.64398974  0.16716396  0.38655819  1
  Si  Si146  1  0.30903566  0.33309546  0.88173591  1
  Si  Si147  1  0.14416824  0.08528774  0.88040159  1
  Si  Si148  1  0.47457910  0.08689861  0.88249504  1
  Si  Si149  1  0.64335162  0.16674917  0.88452062  1
  Si  Si150  1  0.13801857  0.91855031  0.38636026  1
  Si  Si151  1  0.35927436  0.83298373  0.11922546  1
  Si  Si152  1  0.85605919  0.91757400  0.61664402  1
  Si  Si153  1  0.86038948  0.08278858  0.11160729  1
  Si  Si154  1  0.98060965  0.17016490  0.88115117  1
  Si  Si155  1  0.68725638  0.66934140  0.11585358  1
  Si  Si156  1  0.30356062  0.83840869  0.88730932  1
  Si  Si157  1  0.68583749  0.83478721  0.11876802  1
  Si  Si158  1  0.14028089  0.58007742  0.38430841  1
  Si  Si159  1  0.69225478  0.33204875  0.61380942  1
  Si  Si160  1  0.97479421  0.33084659  0.38293877  1
  Si  Si161  1  0.52101137  0.91276458  0.12193963  1
  Si  Si162  1  0.19433253  0.58029922  0.61027103  1
  Si  Si163  1  0.13919744  0.41458473  0.38306927  1
  Si  Si164  1  0.52876359  0.58035875  0.61835460  1
  Si  Si165  1  0.53115512  0.08486796  0.61526606  1
  Si  Si166  1  0.52814700  0.41625457  0.61558936  1
  Si  Si167  1  0.19534961  0.09331263  0.60635442  1
  Si  Si168  1  0.81206561  0.57999635  0.38760835  1
  Si  Si169  1  0.64612973  0.65844063  0.39270160  1
  Si  Si170  1  0.13455891  0.57906166  0.88649334  1
  Si  Si171  1  0.30890273  0.16855423  0.88060427  1
  Si  Si172  1  0.19263666  0.41422477  0.61038711  1
  Si  Si173  1  0.69598333  0.83274912  0.61905101  1
  Si  Si174  1  0.36627833  0.16820691  0.61151368  1
  Si  Si175  1  0.02449993  0.32594782  0.10986015  1
  Si  Si176  1  0.19653041  0.92134886  0.11274491  1
  Si  Si177  1  0.36573217  0.33259553  0.11126573  1
  Si  Si178  1  0.31035792  0.65897906  0.38994895  1
  Si  Si179  1  0.47549116  0.40998232  0.38640714  1
  Si  Si180  1  0.53597269  0.91937308  0.61596510  1
  Si  Si181  1  0.85424227  0.08020047  0.61074932  1
  Si  Si182  1  0.30661717  0.33161110  0.38504880  1
  Si  Si183  1  0.47283953  0.92415486  0.39314813  1
  Si  Si184  1  0.64421019  0.33254639  0.38545557  1
  Si  Si185  1  0.64355752  0.33178918  0.88363144  1
  Si  Si186  1  0.85900706  0.40868104  0.10991245  1
  Si  Si187  1  0.01868062  0.34126536  0.60778648  1
  Si  Si188  1  0.84986808  0.58265038  0.61138412  1
  Si  Si189  1  0.97136832  0.83134635  0.38564609  1
  Si  Si190  1  0.35806539  0.66965679  0.12049025  1
  Si  Si191  1  0.36307561  0.65996275  0.61342421  1
  O  O192  1  0.26937347  0.12950306  0.08356964  1
  O  O193  1  0.28285222  0.12227944  0.58053918  1
  O  O194  1  0.28020044  0.61682692  0.08752411  1
  O  O195  1  0.27980341  0.60920253  0.58499577  1
  O  O196  1  0.59440269  0.09707453  0.07466458  1
  O  O197  1  0.60686046  0.12421168  0.58244831  1
  O  O198  1  0.60294964  0.61857508  0.08841148  1
  O  O199  1  0.60442485  0.62217562  0.58865521  1
  O  O200  1  0.94753398  0.10677967  0.08231929  1
  O  O201  1  0.93017620  0.10655240  0.57420990  1
  O  O202  1  0.96243444  0.60070434  0.08498891  1
  O  O203  1  0.92519212  0.60707754  0.57359959  1
  O  O204  1  0.10309343  0.35035116  0.07529219  1
  O  O205  1  0.10275079  0.37385238  0.58046675  1
  O  O206  1  0.11464520  0.87861051  0.07564723  1
  O  O207  1  0.09399563  0.86534178  0.57448511  1
  O  O208  1  0.44830964  0.36732527  0.08539695  1
  O  O209  1  0.43720901  0.37656593  0.58354779  1
  O  O210  1  0.44211563  0.85967392  0.08934087  1
  O  O211  1  0.45934654  0.87130480  0.57852397  1
  O  O212  1  0.78933120  0.34872792  0.08126403  1
  O  O213  1  0.77229815  0.36638329  0.58355422  1
  O  O214  1  0.76102864  0.86930668  0.08411427  1
  O  O215  1  0.78005130  0.86033437  0.59006197  1
  O  O216  1  0.28371709  0.37526437  0.07416507  1
  O  O217  1  0.26944802  0.37299362  0.58026383  1
  O  O218  1  0.28086330  0.88610700  0.08743011  1
  O  O219  1  0.27621206  0.88469703  0.57022119  1
  O  O220  1  0.60599878  0.40616907  0.08097466  1
  O  O221  1  0.60351040  0.37431655  0.58385030  1
  O  O222  1  0.60221170  0.88421928  0.09049799  1
  O  O223  1  0.62160358  0.88978399  0.58881106  1
  O  O224  1  0.94641544  0.38135163  0.08402338  1
  O  O225  1  0.93817524  0.39711585  0.58349766  1
  O  O226  1  0.92370038  0.88482120  0.07559562  1
  O  O227  1  0.93828898  0.89428312  0.58536322  1
  O  O228  1  0.10833699  0.13176815  0.08531126  1
  O  O229  1  0.12461720  0.15330673  0.57722299  1
  O  O230  1  0.12107814  0.64496785  0.08982304  1
  O  O231  1  0.11288240  0.62420784  0.57360750  1
  O  O232  1  0.43325813  0.12275166  0.08356605  1
  O  O233  1  0.44604602  0.13170387  0.58339118  1
  O  O234  1  0.44308650  0.64082857  0.09419247  1
  O  O235  1  0.43938161  0.61726335  0.58387647  1
  O  O236  1  0.78488964  0.13390600  0.07497453  1
  O  O237  1  0.77125659  0.13205989  0.58320949  1
  O  O238  1  0.76501954  0.64307285  0.08200543  1
  O  O239  1  0.76478743  0.63201371  0.58461476  1
  O  O240  1  0.06466065  0.12706192  0.41378435  1
  O  O241  1  0.06244989  0.11842423  0.90923073  1
  O  O242  1  0.06457361  0.62194350  0.41389138  1
  O  O243  1  0.04745621  0.58923626  0.91421887  1
  O  O244  1  0.39895330  0.13193181  0.41895184  1
  O  O245  1  0.39671685  0.12736980  0.91259806  1
  O  O246  1  0.39739003  0.61101091  0.41805483  1
  O  O247  1  0.37662311  0.59309857  0.91646393  1
  O  O248  1  0.73076123  0.12277390  0.41821711  1
  O  O249  1  0.73248147  0.12585137  0.91322838  1
  O  O250  1  0.73404602  0.61133042  0.42143828  1
  O  O251  1  0.70981467  0.59148727  0.92635349  1
  O  O252  1  0.23098451  0.37609638  0.41311549  1
  O  O253  1  0.22654909  0.36530487  0.90948646  1
  O  O254  1  0.21603388  0.87296112  0.42589446  1
  O  O255  1  0.21820400  0.86992136  0.91377036  1
  O  O256  1  0.56435271  0.36728446  0.41621460  1
  O  O257  1  0.56229991  0.36646832  0.91177244  1
  O  O258  1  0.55758026  0.88241102  0.42943205  1
  O  O259  1  0.53852946  0.87266214  0.92823779  1
  O  O260  1  0.89753704  0.36923361  0.41396437  1
  O  O261  1  0.89501588  0.35223980  0.90992710  1
  O  O262  1  0.89784280  0.87128775  0.41920779  1
  O  O263  1  0.90251987  0.85746230  0.92054287  1
  O  O264  1  0.06481958  0.37150613  0.41360012  1
  O  O265  1  0.06098244  0.38461561  0.90897004  1
  O  O266  1  0.05415487  0.88200663  0.41026109  1
  O  O267  1  0.05564382  0.89894564  0.91100714  1
  O  O268  1  0.39853174  0.36897927  0.41590446  1
  O  O269  1  0.39626010  0.37572273  0.91265975  1
  O  O270  1  0.39483887  0.89446309  0.42623838  1
  O  O271  1  0.37533155  0.90027894  0.91355303  1
  O  O272  1  0.73123843  0.37830683  0.41402376  1
  O  O273  1  0.73190399  0.37332658  0.91484726  1
  O  O274  1  0.74083001  0.88413124  0.43372661  1
  O  O275  1  0.72076168  0.90197895  0.93168599  1
  O  O276  1  0.23032471  0.12552794  0.41457150  1
  O  O277  1  0.22850124  0.13382941  0.91003403  1
  O  O278  1  0.23264696  0.61374039  0.41619218  1
  O  O279  1  0.20471198  0.63614909  0.92123957  1
  O  O280  1  0.56323952  0.13548589  0.41744067  1
  O  O281  1  0.56339082  0.12976338  0.91233648  1
  O  O282  1  0.56717882  0.61123321  0.41602435  1
  O  O283  1  0.53493434  0.63244865  0.92644672  1
  O  O284  1  0.89617793  0.12977964  0.41447945  1
  O  O285  1  0.89562035  0.14950457  0.91055208  1
  O  O286  1  0.89983235  0.62498468  0.41516539  1
  O  O287  1  0.88079142  0.65120428  0.93067192  1
  O  O288  1  0.19066041  0.00540121  0.08315533  1
  O  O289  1  0.16915053  0.01650763  0.57297745  1
  O  O290  1  0.17202238  0.50957830  0.07773464  1
  O  O291  1  0.18539823  0.49596253  0.58078081  1
  O  O292  1  0.49224544  -0.00769805  0.09115484  1
  O  O293  1  0.52337492  0.00320032  0.58615916  1
  O  O294  1  0.49315399  0.50637236  0.08846725  1
  O  O295  1  0.52486445  0.49820529  0.58470121  1
  O  O296  1  0.83509109  -0.00044717  0.08823590  1
  O  O297  1  0.82514792  -0.00230636  0.58725926  1
  O  O298  1  0.83095693  0.48671206  0.07909620  1
  O  O299  1  0.82286155  0.49931810  0.58456372  1
  O  O300  1  0.00003556  0.24279529  0.08345007  1
  O  O301  1  -0.00849825  0.26543862  0.57243063  1
  O  O302  1  -0.00047440  0.73964647  0.07791306  1
  O  O303  1  -0.01421077  0.75872707  0.57841239  1
  O  O304  1  0.35872243  0.24842398  0.08392650  1
  O  O305  1  0.35788464  0.25151244  0.58164213  1
  O  O306  1  0.33727062  0.75107681  0.09043252  1
  O  O307  1  0.35038836  0.73682834  0.57787407  1
  O  O308  1  0.64375629  0.24725308  0.06884024  1
  O  O309  1  0.68045519  0.24988497  0.58347719  1
  O  O310  1  0.66258512  0.75260546  0.09177795  1
  O  O311  1  0.67397309  0.75202004  0.58684962  1
  O  O312  1  0.14423631  0.00272758  0.41567509  1
  O  O313  1  0.16353443  0.00455680  0.91069005  1
  O  O314  1  0.14140984  0.49662061  0.41323581  1
  O  O315  1  0.16833434  0.49562689  0.91028463  1
  O  O316  1  0.48693141  0.01030350  0.41810702  1
  O  O317  1  0.48138778  0.00681755  0.91486856  1
  O  O318  1  0.48394181  0.49063901  0.41954599  1
  O  O319  1  0.49200552  0.49343972  0.91608590  1
  O  O320  1  0.82430483  0.00241122  0.41484182  1
  O  O321  1  0.84641532  0.01761117  0.92224150  1
  O  O322  1  0.82719095  0.49660060  0.41639864  1
  O  O323  1  0.84260119  0.48382626  0.92147121  1
  O  O324  1  0.30810986  0.25020698  0.41629921  1
  O  O325  1  0.31960182  0.25062889  0.91097267  1
  O  O326  1  0.32186832  0.73644305  0.42445330  1
  O  O327  1  0.32903913  0.76216640  0.92348293  1
  O  O328  1  0.65880341  0.25062149  0.41615856  1
  O  O329  1  0.65254312  0.24915259  0.91337061  1
  O  O330  1  0.65236330  0.73431910  0.43106474  1
  O  O331  1  0.66482687  0.75007524  0.93777113  1
  O  O332  1  0.98323563  0.24910193  0.41344745  1
  O  O333  1  1.01011470  0.25115453  0.90836715  1
  O  O334  1  0.98603684  0.74846838  0.41747061  1
  O  O335  1  1.02371349  0.75947239  0.91531147  1
  O  O336  1  0.21549180  0.08441979  0.19468030  1
  O  O337  1  0.21309293  0.08925222  0.68816934  1
  O  O338  1  0.21208752  0.58124468  0.19549940  1
  O  O339  1  0.20809574  0.58004890  0.69083567  1
  O  O340  1  0.54192045  0.08667635  0.19363111  1
  O  O341  1  0.54907152  0.08982468  0.69432165  1
  O  O342  1  0.54717698  0.57819706  0.19837742  1
  O  O343  1  0.54000613  0.57936792  0.69721695  1
  O  O344  1  0.88136378  0.09098415  0.19119508  1
  O  O345  1  0.87575130  0.08509456  0.69166114  1
  O  O346  1  0.87726569  0.58164557  0.20163038  1
  O  O347  1  0.87355687  0.58176740  0.69129467  1
  O  O348  1  0.04391507  0.32980047  0.19118930  1
  O  O349  1  0.04171448  0.33685475  0.68873976  1
  O  O350  1  0.05096563  0.82686430  0.19920822  1
  O  O351  1  0.04041930  0.83620375  0.69105610  1
  O  O352  1  0.37829715  0.33319362  0.19243961  1
  O  O353  1  0.37335647  0.33383917  0.69133736  1
  O  O354  1  0.37725037  0.83416954  0.19911423  1
  O  O355  1  0.37981903  0.83324805  0.70316494  1
  O  O356  1  0.70941283  0.33270864  0.20118903  1
  O  O357  1  0.71083600  0.33151017  0.69361997  1
  O  O358  1  0.70779203  0.83348043  0.19884957  1
  O  O359  1  0.71164141  0.83269205  0.69864727  1
  O  O360  1  0.21202832  0.41444392  0.19999094  1
  O  O361  1  0.21093869  0.41474125  0.69062425  1
  O  O362  1  0.21118567  0.92114189  0.19314062  1
  O  O363  1  0.21283448  0.91929720  0.69932282  1
  O  O364  1  0.54213037  0.41810034  0.19506110  1
  O  O365  1  0.54529649  0.41596813  0.69452465  1
  O  O366  1  0.54039986  0.91414645  0.20114605  1
  O  O367  1  0.54852937  0.91804652  0.69562592  1
  O  O368  1  0.87763969  0.41271529  0.19222564  1
  O  O369  1  0.87468142  0.41506940  0.69328324  1
  O  O370  1  0.86805966  0.90671397  0.19143522  1
  O  O371  1  0.87767431  0.91920321  0.69674992  1
  O  O372  1  0.04184365  0.16681256  0.19356786  1
  O  O373  1  0.04446929  0.16930632  0.69580348  1
  O  O374  1  0.04489494  0.66442443  0.19479339  1
  O  O375  1  0.04482559  0.66555179  0.69847157  1
  O  O376  1  0.37758350  0.16724760  0.19433596  1
  O  O377  1  0.38023209  0.16918392  0.69161907  1
  O  O378  1  0.36812455  0.66804878  0.19975830  1
  O  O379  1  0.37996690  0.66237645  0.69394170  1
  O  O380  1  0.70929992  0.16531616  0.19892212  1
  O  O381  1  0.71157897  0.16760006  0.69392755  1
  O  O382  1  0.70693685  0.66563119  0.19705076  1
  O  O383  1  0.71103094  0.67224732  0.69707653  1
  O  O384  1  0.12493196  0.08501834  0.30452370  1
  O  O385  1  0.12645022  0.08625255  0.80019028  1
  O  O386  1  0.12348169  0.58031680  0.30406331  1
  O  O387  1  0.12309186  0.58041634  0.80483956  1
  O  O388  1  0.45473445  0.09250448  0.30778489  1
  O  O389  1  0.45505927  0.08990449  0.80307802  1
  O  O390  1  0.45309779  0.57119374  0.30909042  1
  O  O391  1  0.45400221  0.57913060  0.80849599  1
  O  O392  1  0.78514242  0.09040574  0.30684155  1
  O  O393  1  0.79447808  0.08838323  0.80546076  1
  O  O394  1  0.79134333  0.58011912  0.30770701  1
  O  O395  1  0.79143317  0.58127051  0.80115571  1
  O  O396  1  0.29218869  0.33173793  0.30530159  1
  O  O397  1  0.29110061  0.33363787  0.80142905  1
  O  O398  1  0.28653537  0.83486738  0.30051406  1
  O  O399  1  0.28660902  0.83443083  0.80680012  1
  O  O400  1  0.62258359  0.33338120  0.30574281  1
  O  O401  1  0.62917913  0.33151857  0.80400725  1
  O  O402  1  0.62253941  0.83192782  0.30730983  1
  O  O403  1  0.62058054  0.83480077  0.80410618  1
  O  O404  1  0.95723551  0.33309454  0.30303250  1
  O  O405  1  0.96021084  0.33302973  0.80009168  1
  O  O406  1  0.94885699  0.82411518  0.30705440  1
  O  O407  1  0.96031339  0.83670430  0.80528263  1
  O  O408  1  0.12177684  0.41410760  0.30330248  1
  O  O409  1  0.12412036  0.41486037  0.79999751  1
  O  O410  1  0.13367051  0.92031627  0.30745336  1
  O  O411  1  0.12260697  0.92158799  0.80189166  1
  O  O412  1  0.45729202  0.41190754  0.30625707  1
  O  O413  1  0.45506302  0.41574569  0.80394253  1
  O  O414  1  0.45484469  0.91855695  0.31295066  1
  O  O415  1  0.45329616  0.91828637  0.80854840  1
  O  O416  1  0.79278858  0.41631702  0.30502944  1
  O  O417  1  0.79240570  0.41172649  0.80572691  1
  O  O418  1  0.78452835  0.90851872  0.31262456  1
  O  O419  1  0.78980535  0.92053272  0.80123446  1
  O  O420  1  0.29490080  0.16871291  0.30626093  1
  O  O421  1  0.29067068  0.16876489  0.80040375  1
  O  O422  1  0.29063928  0.66129070  0.30930832  1
  O  O423  1  0.28539671  0.66689895  0.79659461  1
  O  O424  1  0.62283633  0.16841509  0.30686656  1
  O  O425  1  0.62588929  0.16742865  0.80416859  1
  O  O426  1  0.63567858  0.66298935  0.31331737  1
  O  O427  1  0.61920969  0.66862417  0.80486417  1
  O  O428  1  0.95645898  0.16899030  0.30366292  1
  O  O429  1  0.95920103  0.16871821  0.80078201  1
  O  O430  1  0.95844966  0.66514937  0.30574020  1
  O  O431  1  0.95220362  0.66772467  0.79892898  1
  F  F432  1  0.05230211  0.01051253  0.19603613  1
  F  F433  1  0.04586363  0.00242947  0.69862433  1
  F  F434  1  0.04656584  0.49755440  0.20162952  1
  F  F435  1  0.04523872  0.49941081  0.69881531  1
  F  F436  1  0.37625142  0.00134052  0.20546794  1
  F  F437  1  0.37718236  0.00143148  0.69959181  1
  F  F438  1  0.37880400  0.49787614  0.20336702  1
  F  F439  1  0.38005717  0.49906340  0.70104378  1
  F  F440  1  0.69777707  -0.00322366  0.20129642  1
  F  F441  1  0.71339389  0.00521577  0.70166229  1
  F  F442  1  0.71225871  0.50000567  0.20496953  1
  F  F443  1  0.71380171  0.48761451  0.69679136  1
  F  F444  1  0.21598659  0.25281103  0.19896249  1
  F  F445  1  0.21537371  0.25288267  0.69816209  1
  F  F446  1  0.21330258  0.74742210  0.20495178  1
  F  F447  1  0.21104881  0.75208640  0.69787271  1
  F  F448  1  0.54474349  0.24976314  0.20300594  1
  F  F449  1  0.54849048  0.24707704  0.69796130  1
  F  F450  1  0.54595626  0.75727239  0.20481467  1
  F  F451  1  0.54261259  0.74978743  0.70256308  1
  F  F452  1  0.87991166  0.24990133  0.20250635  1
  F  F453  1  0.87775119  0.25118667  0.69888546  1
  F  F454  1  0.87659382  0.74653003  0.20249398  1
  F  F455  1  0.87513190  0.75436255  0.70334865  1
  F  F456  1  0.28776382  0.00396421  0.30052060  1
  F  F457  1  0.28777846  0.00805109  0.79647144  1
  F  F458  1  0.28864490  0.49740228  0.30014424  1
  F  F459  1  0.28606557  0.49628412  0.79342905  1
  F  F460  1  0.62428611  0.00397951  0.30433106  1
  F  F461  1  0.62601809  0.00416838  0.80060890  1
  F  F462  1  0.62283043  0.49613534  0.30087517  1
  F  F463  1  0.62051058  0.49184519  0.80143213  1
  F  F464  1  0.96487362  0.01504780  0.30854738  1
  F  F465  1  0.95801033  0.00527379  0.79447214  1
  F  F466  1  0.95780819  0.49470767  0.29763727  1
  F  F467  1  0.95379279  0.49724253  0.79279460  1
  F  F468  1  0.12012109  0.25555166  0.29940456  1
  F  F469  1  0.12417780  0.25338768  0.79334593  1
  F  F470  1  0.12204667  0.74479612  0.30160519  1
  F  F471  1  0.12212729  0.75442888  0.79366389  1
  F  F472  1  0.45458007  0.25176715  0.29670672  1
  F  F473  1  0.45460804  0.24798655  0.79725722  1
  F  F474  1  0.44888976  0.75925067  0.30946586  1
  F  F475  1  0.45353137  0.74679917  0.79994708  1
  F  F476  1  0.79134641  0.25092764  0.30066870  1
  F  F477  1  0.78964178  0.24951464  0.79508047  1
  F  F478  1  0.78789771  0.74585985  0.29873355  1
  F  F479  1  0.78834272  0.75175738  0.80143249  1
