# generated using pymatgen
data_K24Na3Li5Mg64Fe17Si79(O5F)48
_symmetry_space_group_name_H-M   'P 1'
_cell_length_a   16.09489556
_cell_length_b   18.59916613
_cell_length_c   20.57295690
_cell_angle_alpha   89.99744842
_cell_angle_beta   100.01400944
_cell_angle_gamma   89.99667125
_symmetry_Int_Tables_number   1
_chemical_formula_structural   K24Na3Li5Mg64Fe17Si79(O5F)48
_chemical_formula_sum   'K24 Na3 Li5 Mg64 Fe17 Si79 O240 F48'
_cell_volume   6064.72444145
_cell_formula_units_Z   1
loop_
 _symmetry_equiv_pos_site_id
 _symmetry_equiv_pos_as_xyz
  1  'x, y, z'
loop_
 _atom_site_type_symbol
 _atom_site_label
 _atom_site_symmetry_multiplicity
 _atom_site_fract_x
 _atom_site_fract_y
 _atom_site_fract_z
 _atom_site_occupancy
  K  K0  1  0.00338485  -0.00615684  0.00468159  1
  K  K1  1  0.01205965  -0.01965150  0.50223703  1
  K  K2  1  0.00190394  0.50919027  -0.00005617  1
  K  K3  1  0.00904994  0.50427748  0.50257320  1
  K  K4  1  0.33278696  -0.00424574  0.00130243  1
  K  K5  1  0.32976496  -0.00424760  0.48947769  1
  K  K6  1  0.34135314  0.50365050  0.00037325  1
  K  K7  1  0.34044305  0.51445903  0.50525116  1
  K  K8  1  0.66139830  -0.01471506  0.00030547  1
  K  K9  1  0.65445727  -0.00365748  0.49582469  1
  K  K10  1  0.65608533  0.50175259  -0.00342253  1
  K  K11  1  0.66026212  0.49767997  0.50296126  1
  K  K12  1  0.17500836  0.24232609  0.00742640  1
  K  K13  1  0.17696055  0.24838764  0.50035353  1
  K  K14  1  0.18486621  0.74945880  0.00506870  1
  K  K15  1  0.17398395  0.75579093  0.50173904  1
  K  K16  1  0.48851315  0.24841866  0.00616327  1
  K  K17  1  0.49827958  0.24871353  0.49904430  1
  K  K18  1  0.48566683  0.75766677  0.00584213  1
  K  K19  1  0.50055591  0.74914783  0.49820111  1
  K  K20  1  0.83270325  0.25112514  -0.00032005  1
  K  K21  1  0.82372856  0.24318891  0.50393711  1
  K  K22  1  0.82990876  0.75706930  -0.00269905  1
  K  K23  1  0.83382180  0.75979901  0.50790475  1
  Na  Na24  1  0.66546560  0.25064392  0.74443031  1
  Na  Na25  1  0.49718924  0.67262175  0.24466110  1
  Na  Na26  1  0.49833717  0.32974847  0.24563632  1
  Li  Li27  1  0.16799043  -0.00429514  0.75132391  1
  Li  Li28  1  0.16888663  -0.00566148  0.25146226  1
  Li  Li29  1  0.49376290  0.82819135  0.25223328  1
  Li  Li30  1  0.33706942  0.58188253  0.74652617  1
  Li  Li31  1  0.33523795  0.42472559  0.75083450  1
  Mg  Mg32  1  0.17466079  0.49961772  0.75015459  1
  Mg  Mg33  1  0.16686462  0.49945125  0.24433827  1
  Mg  Mg34  1  0.00319315  0.74977705  0.74752345  1
  Mg  Mg35  1  0.00032057  0.25099122  0.75009076  1
  Mg  Mg36  1  0.83257703  0.49947950  0.74662833  1
  Mg  Mg37  1  0.66578663  0.24943925  0.25119702  1
  Mg  Mg38  1  0.83423766  -0.00025789  0.74924187  1
  Mg  Mg39  1  0.66590377  0.74880285  0.75105334  1
  Mg  Mg40  1  0.49778234  -0.00435717  0.25217986  1
  Mg  Mg41  1  0.00073323  0.25058193  0.24902283  1
  Mg  Mg42  1  0.33299263  0.25254055  0.75071175  1
  Mg  Mg43  1  0.33320126  0.24826089  0.24931369  1
  Mg  Mg44  1  0.33390765  0.74874235  0.75102226  1
  Mg  Mg45  1  0.83449377  0.50103745  0.25126374  1
  Mg  Mg46  1  0.83426284  -0.00146387  0.25068632  1
  Mg  Mg47  1  0.66356458  0.75190770  0.25028512  1
  Mg  Mg48  1  0.49852662  0.50002649  0.24555087  1
  Mg  Mg49  1  0.33760161  0.75090295  0.25149414  1
  Mg  Mg50  1  0.49492289  0.50081377  0.74432573  1
  Mg  Mg51  1  0.00092316  0.75164472  0.24933233  1
  Mg  Mg52  1  0.49960812  0.00031201  0.75530776  1
  Mg  Mg53  1  0.16801130  0.83601654  0.25150196  1
  Mg  Mg54  1  0.33346108  0.91457969  0.25505250  1
  Mg  Mg55  1  0.49980635  0.83365326  0.75376794  1
  Mg  Mg56  1  0.66331457  0.58533526  0.74749608  1
  Mg  Mg57  1  0.83225611  0.16737894  0.74793093  1
  Mg  Mg58  1  0.16611198  0.16525543  0.75016338  1
  Mg  Mg59  1  0.00126506  0.08239927  0.25083467  1
  Mg  Mg60  1  0.16816566  0.83592619  0.75025264  1
  Mg  Mg61  1  0.83242251  0.66716714  0.25273052  1
  Mg  Mg62  1  0.66615257  0.08441509  0.74965502  1
  Mg  Mg63  1  0.16540862  0.16310968  0.25145650  1
  Mg  Mg64  1  0.17016979  0.33535604  0.75098918  1
  Mg  Mg65  1  0.00077519  0.58514304  0.24943563  1
  Mg  Mg66  1  0.49692982  0.66348009  0.75028418  1
  Mg  Mg67  1  0.66387567  0.91430905  0.25042368  1
  Mg  Mg68  1  0.83469816  0.83497228  0.25181197  1
  Mg  Mg69  1  0.66407682  0.58440896  0.24968223  1
  Mg  Mg70  1  0.17257611  0.66389883  0.74830032  1
  Mg  Mg71  1  0.16533955  0.33334708  0.24557516  1
  Mg  Mg72  1  0.00150813  0.41669633  0.74895231  1
  Mg  Mg73  1  0.66514571  0.08324381  0.25246591  1
  Mg  Mg74  1  0.66293807  0.41587154  0.74399011  1
  Mg  Mg75  1  0.66606902  0.91457852  0.75282724  1
  Mg  Mg76  1  0.16860876  0.66558578  0.24697171  1
  Mg  Mg77  1  0.83357181  0.83454212  0.74827690  1
  Mg  Mg78  1  0.32847925  0.08309729  0.75054527  1
  Mg  Mg79  1  0.49701582  0.16349181  0.25044085  1
  Mg  Mg80  1  0.49903522  0.16788213  0.75019843  1
  Mg  Mg81  1  0.33151599  0.58404557  0.24625074  1
  Mg  Mg82  1  0.00455614  0.91561769  0.74742574  1
  Mg  Mg83  1  0.83331866  0.16568482  0.25051659  1
  Mg  Mg84  1  0.00190597  0.58337958  0.74763890  1
  Mg  Mg85  1  0.32980540  0.91688694  0.75371276  1
  Mg  Mg86  1  0.00065082  0.41576272  0.24853060  1
  Mg  Mg87  1  0.83383162  0.33524717  0.24995142  1
  Mg  Mg88  1  0.49728422  0.33530502  0.74673485  1
  Mg  Mg89  1  0.00234513  0.91704805  0.24928689  1
  Mg  Mg90  1  0.33080815  0.08010380  0.25108615  1
  Mg  Mg91  1  0.83163700  0.66610387  0.74768068  1
  Mg  Mg92  1  0.00279549  0.08254516  0.74923747  1
  Mg  Mg93  1  0.83132090  0.33406594  0.74723787  1
  Mg  Mg94  1  0.66495377  0.41665845  0.24896333  1
  Mg  Mg95  1  0.33261738  0.41484616  0.24476729  1
  Fe  Fe96  1  0.69738639  0.67061891  0.60810563  1
  Fe  Fe97  1  0.35549988  0.67423050  0.61019558  1
  Fe  Fe98  1  0.18376293  0.58050391  0.10582783  1
  Fe  Fe99  1  0.52425587  0.58572552  0.60602734  1
  Fe  Fe100  1  0.36374280  0.83974838  0.11291114  1
  Fe  Fe101  1  0.35783647  0.66294649  0.10543855  1
  Fe  Fe102  1  0.19558850  0.92371841  0.61176068  1
  Fe  Fe103  1  0.63905568  0.83031874  0.89242191  1
  Fe  Fe104  1  0.02818609  0.82487188  0.60836901  1
  Fe  Fe105  1  0.14488754  0.91750764  0.39149523  1
  Fe  Fe106  1  0.85902852  0.91565631  0.11219414  1
  Fe  Fe107  1  0.02226053  0.33309085  0.10869176  1
  Fe  Fe108  1  0.47261132  0.08110367  0.39122291  1
  Fe  Fe109  1  0.69157139  0.33163111  0.60569331  1
  Fe  Fe110  1  0.30524734  0.83213805  0.89158540  1
  Fe  Fe111  1  0.35774513  0.33370682  0.10705605  1
  Fe  Fe112  1  0.18843153  0.91613308  0.11262920  1
  Si  Si113  1  0.47556306  0.41227668  0.88401467  1
  Si  Si114  1  0.35686115  0.16615427  0.61575319  1
  Si  Si115  1  0.13844559  0.09113483  0.38869785  1
  Si  Si116  1  0.47608612  0.57644792  0.88508554  1
  Si  Si117  1  0.64388354  0.83118339  0.38699589  1
  Si  Si118  1  0.30593595  0.16774616  0.88656407  1
  Si  Si119  1  0.47600984  0.09026548  0.88727520  1
  Si  Si120  1  0.02727929  0.33694782  0.61493959  1
  Si  Si121  1  0.53328756  0.41759220  0.11036822  1
  Si  Si122  1  0.51774928  0.41481394  0.60764191  1
  Si  Si123  1  0.68988972  0.15758542  0.61110986  1
  Si  Si124  1  0.86383594  0.58061266  0.61321068  1
  Si  Si125  1  0.18719724  0.09153629  0.61315726  1
  Si  Si126  1  0.69294732  0.17139533  0.11635925  1
  Si  Si127  1  0.86092702  0.91920083  0.61251139  1
  Si  Si128  1  0.13369709  0.91731416  0.88822020  1
  Si  Si129  1  0.36187364  0.84296368  0.61545355  1
  Si  Si130  1  0.97496181  0.66694840  0.88335767  1
  Si  Si131  1  0.80976829  0.08589046  0.88488989  1
  Si  Si132  1  0.53619445  0.92099175  0.11489947  1
  Si  Si133  1  0.19331622  0.57776503  0.61223360  1
  Si  Si134  1  0.80534191  0.91653931  0.38723989  1
  Si  Si135  1  0.97525047  0.33380740  0.88428417  1
  Si  Si136  1  0.13925626  0.08413556  0.88526270  1
  Si  Si137  1  0.86139738  0.08452988  0.61402241  1
  Si  Si138  1  0.85381706  0.08346150  0.11420848  1
  Si  Si139  1  0.97387297  0.66547838  0.38660182  1
  Si  Si140  1  0.86198192  0.41636422  0.61153549  1
  Si  Si141  1  0.97347138  0.33503332  0.38635891  1
  Si  Si142  1  0.64447478  0.33450105  0.38448316  1
  Si  Si143  1  0.01764968  0.66802249  0.11241738  1
  Si  Si144  1  0.35535620  0.16070649  0.11179220  1
  Si  Si145  1  0.30782991  0.33872049  0.38452329  1
  Si  Si146  1  0.80860047  0.41794611  0.38689766  1
  Si  Si147  1  0.64292213  0.65969134  0.89033902  1
  Si  Si148  1  0.02393660  0.82895228  0.11176124  1
  Si  Si149  1  0.35753858  0.33006988  0.61566494  1
  Si  Si150  1  0.69459863  0.82889133  0.11622905  1
  Si  Si151  1  0.02331472  0.17368427  0.61473930  1
  Si  Si152  1  0.01833219  0.16541243  0.11396220  1
  Si  Si153  1  0.69313276  0.66677418  0.11691236  1
  Si  Si154  1  0.47709867  0.91088822  0.39006062  1
  Si  Si155  1  0.97540139  0.16840964  0.88461988  1
  Si  Si156  1  0.02726799  0.65646561  0.61210069  1
  Si  Si157  1  0.64118731  0.33532559  0.88348460  1
  Si  Si158  1  0.47592533  0.58046237  0.38272446  1
  Si  Si159  1  0.97039871  0.83352063  0.88434337  1
  Si  Si160  1  0.80955295  0.41603375  0.88434719  1
  Si  Si161  1  0.69110378  0.84245115  0.61328053  1
  Si  Si162  1  0.85814069  0.42284318  0.11330297  1
  Si  Si163  1  0.85499612  0.58591005  0.11678873  1
  Si  Si164  1  0.52924270  0.08448099  0.11561216  1
  Si  Si165  1  0.47220248  0.92386336  0.89192231  1
  Si  Si166  1  0.97135842  0.83113179  0.38834080  1
  Si  Si167  1  0.31075314  0.66082993  0.88576189  1
  Si  Si168  1  0.14067788  0.41794672  0.38480277  1
  Si  Si169  1  0.80809419  0.58291028  0.38757107  1
  Si  Si170  1  0.97192791  0.16936191  0.38657211  1
  Si  Si171  1  0.52127254  0.08103970  0.61681051  1
  Si  Si172  1  0.31215891  0.82622268  0.39102493  1
  Si  Si173  1  0.14125996  0.58233128  0.88382891  1
  Si  Si174  1  0.14027645  0.58312602  0.38536585  1
  Si  Si175  1  0.19316688  0.41295795  0.61514812  1
  Si  Si176  1  0.47559635  0.41844754  0.38292504  1
  Si  Si177  1  0.64458831  0.16819852  0.38925240  1
  Si  Si178  1  0.30937024  0.66131367  0.38584976  1
  Si  Si179  1  0.80895233  0.08307160  0.38677363  1
  Si  Si180  1  0.14131257  0.41674260  0.88543184  1
  Si  Si181  1  0.69780937  0.33595704  0.11517946  1
  Si  Si182  1  0.64228708  0.16805767  0.88491460  1
  Si  Si183  1  0.64379644  0.66587687  0.38531649  1
  Si  Si184  1  0.52518691  0.91850631  0.61868255  1
  Si  Si185  1  0.80829572  0.91982622  0.88673732  1
  Si  Si186  1  0.30443966  0.17262334  0.38797410  1
  Si  Si187  1  0.30665494  0.33286817  0.88539036  1
  Si  Si188  1  0.18819721  0.41337137  0.10780884  1
  Si  Si189  1  0.81065264  0.58039903  0.88490978  1
  Si  Si190  1  0.18535867  0.08506913  0.11564049  1
  Si  Si191  1  0.53389408  0.58001104  0.11082796  1
  O  O192  1  0.26923574  0.11311009  0.08451497  1
  O  O193  1  0.27097136  0.12239143  0.58375892  1
  O  O194  1  0.27265996  0.60179381  0.06419309  1
  O  O195  1  0.26754420  0.60775660  0.57683444  1
  O  O196  1  0.60470612  0.12940680  0.08650631  1
  O  O197  1  0.60523892  0.10607482  0.58675972  1
  O  O198  1  0.62264937  0.60732437  0.08641565  1
  O  O199  1  0.61908805  0.60569484  0.56845181  1
  O  O200  1  0.94069579  0.10776355  0.08733720  1
  O  O201  1  0.93854346  0.12611696  0.58525874  1
  O  O202  1  0.93788154  0.61095730  0.08692331  1
  O  O203  1  0.95562350  0.59301021  0.59009591  1
  O  O204  1  0.12478522  0.34634368  0.08030382  1
  O  O205  1  0.11046629  0.36169727  0.58419113  1
  O  O206  1  0.10954640  0.84118623  0.08223385  1
  O  O207  1  0.11621790  0.85794369  0.57081129  1
  O  O208  1  0.45803591  0.36484620  0.07782513  1
  O  O209  1  0.43647305  0.35914947  0.58315004  1
  O  O210  1  0.45687019  0.87655719  0.07818223  1
  O  O211  1  0.45386496  0.85963369  0.58966246  1
  O  O212  1  0.77994595  0.36635072  0.08608791  1
  O  O213  1  0.79111905  0.36222104  0.57426091  1
  O  O214  1  0.77458412  0.84739832  0.08142213  1
  O  O215  1  0.76806203  0.88354036  0.58438486  1
  O  O216  1  0.27378331  0.40177459  0.07617114  1
  O  O217  1  0.27183041  0.37655873  0.58513878  1
  O  O218  1  0.28043421  0.90149142  0.07357955  1
  O  O219  1  0.30263675  0.91083335  0.58769959  1
  O  O220  1  0.61970360  0.38776714  0.08380089  1
  O  O221  1  0.59433889  0.38502221  0.57219453  1
  O  O222  1  0.62015951  0.88695899  0.08916856  1
  O  O223  1  0.61100789  0.89815617  0.59000315  1
  O  O224  1  0.93650613  0.40255910  0.07788785  1
  O  O225  1  0.95226518  0.39424489  0.58660838  1
  O  O226  1  0.95419969  0.88778046  0.07791131  1
  O  O227  1  0.92911249  0.87977530  0.57652316  1
  O  O228  1  0.10625406  0.14251170  0.08831124  1
  O  O229  1  0.10802478  0.14957211  0.58649417  1
  O  O230  1  0.09274496  0.64520888  0.07465895  1
  O  O231  1  0.10734611  0.62386612  0.58155248  1
  O  O232  1  0.43749943  0.12134326  0.08568455  1
  O  O233  1  0.43958056  0.13264450  0.58830597  1
  O  O234  1  0.45930629  0.63148406  0.07691653  1
  O  O235  1  0.44203635  0.64861584  0.56616900  1
  O  O236  1  0.77584816  0.14188419  0.08754971  1
  O  O237  1  0.77172464  0.12306182  0.58156883  1
  O  O238  1  0.77942379  0.64300913  0.08866318  1
  O  O239  1  0.79870717  0.64041741  0.57906420  1
  O  O240  1  0.06060352  0.13210426  0.41909069  1
  O  O241  1  0.06337119  0.12667444  0.91585933  1
  O  O242  1  0.06431628  0.62505562  0.41545420  1
  O  O243  1  0.06270869  0.62311245  0.91201343  1
  O  O244  1  0.38584114  0.12938386  0.42561412  1
  O  O245  1  0.39719932  0.12924221  0.91636453  1
  O  O246  1  0.39675948  0.61604571  0.41338265  1
  O  O247  1  0.39592977  0.61140189  0.91335145  1
  O  O248  1  0.73511394  0.12568545  0.41726047  1
  O  O249  1  0.73045939  0.12331436  0.91448886  1
  O  O250  1  0.73129512  0.62130523  0.41763759  1
  O  O251  1  0.73103618  0.61158778  0.91607599  1
  O  O252  1  0.23118431  0.37963899  0.41540364  1
  O  O253  1  0.23041892  0.37515384  0.91481750  1
  O  O254  1  0.24389496  0.86625250  0.42775458  1
  O  O255  1  0.21258816  0.87126506  0.92430021  1
  O  O256  1  0.56277179  0.37116565  0.41024798  1
  O  O257  1  0.56402829  0.36915140  0.91764252  1
  O  O258  1  0.56699178  0.86718636  0.41796692  1
  O  O259  1  0.55418582  0.87840706  0.92688009  1
  O  O260  1  0.89896166  0.37788456  0.41685758  1
  O  O261  1  0.89578058  0.36975169  0.91374888  1
  O  O262  1  0.89036377  0.87002882  0.41537919  1
  O  O263  1  0.89128254  0.86908784  0.91394767  1
  O  O264  1  0.06492343  0.37412732  0.41439747  1
  O  O265  1  0.06299156  0.37658065  0.91397265  1
  O  O266  1  0.05439799  0.87187195  0.42397742  1
  O  O267  1  0.05019648  0.88392162  0.91589110  1
  O  O268  1  0.39749202  0.37994944  0.41346335  1
  O  O269  1  0.39811855  0.37129869  0.91359830  1
  O  O270  1  0.40539721  0.86241470  0.41865201  1
  O  O271  1  0.39045805  0.89935565  0.92165257  1
  O  O272  1  0.73112920  0.37968384  0.41648795  1
  O  O273  1  0.73013195  0.37917386  0.91374343  1
  O  O274  1  0.72937420  0.87837138  0.41928744  1
  O  O275  1  0.73345245  0.89062375  0.92199198  1
  O  O276  1  0.22002266  0.14403573  0.41576904  1
  O  O277  1  0.22953022  0.12553888  0.91526282  1
  O  O278  1  0.23148963  0.61992634  0.41540212  1
  O  O279  1  0.23054694  0.62044741  0.91347685  1
  O  O280  1  0.57355333  0.13308930  0.42531820  1
  O  O281  1  0.56249842  0.13667469  0.91747777  1
  O  O282  1  0.56300569  0.62692731  0.41049048  1
  O  O283  1  0.56646897  0.61552987  0.91820405  1
  O  O284  1  0.89625876  0.12722134  0.41596851  1
  O  O285  1  0.89527454  0.13312900  0.91379344  1
  O  O286  1  0.89946054  0.62121723  0.41630323  1
  O  O287  1  0.89772852  0.62646125  0.91348702  1
  O  O288  1  0.15273310  0.00987630  0.08177162  1
  O  O289  1  0.15775556  0.01654819  0.57896365  1
  O  O290  1  0.14100791  0.48788102  0.08098980  1
  O  O291  1  0.17323497  0.49337237  0.58372602  1
  O  O292  1  0.53078274  0.00442444  0.08360098  1
  O  O293  1  0.49730592  -0.00043959  0.58955227  1
  O  O294  1  0.51923315  0.49852008  0.07757933  1
  O  O295  1  0.48738269  0.49221558  0.57744125  1
  O  O296  1  0.82208849  0.00809851  0.08013917  1
  O  O297  1  0.85565969  0.00315402  0.58495053  1
  O  O298  1  0.82507102  0.50504013  0.08928479  1
  O  O299  1  0.83675664  0.49863499  0.58553411  1
  O  O300  1  -0.01607822  0.24062842  0.07941865  1
  O  O301  1  0.00004972  0.25584450  0.58637293  1
  O  O302  1  -0.01802386  0.74837407  0.08867887  1
  O  O303  1  -0.00388695  0.73083738  0.57606516  1
  O  O304  1  0.34253890  0.23738792  0.07377053  1
  O  O305  1  0.34058117  0.24766931  0.58515871  1
  O  O306  1  0.34116109  0.75337183  0.06924362  1
  O  O307  1  0.32379949  0.76884788  0.58154292  1
  O  O308  1  0.67931164  0.25386588  0.08681951  1
  O  O309  1  0.67066467  0.23480619  0.57635943  1
  O  O310  1  0.66355224  0.74693568  0.09018107  1
  O  O311  1  0.67247282  0.76644185  0.57631639  1
  O  O312  1  0.15361041  0.01371013  0.42354263  1
  O  O313  1  0.14240057  0.00264874  0.91488690  1
  O  O314  1  0.14115770  0.50007787  0.41518041  1
  O  O315  1  0.14412632  0.49937090  0.91355791  1
  O  O316  1  0.48620634  -0.01213953  0.42899470  1
  O  O317  1  0.49115893  0.00958494  0.91705745  1
  O  O318  1  0.49140597  0.49909145  0.41662157  1
  O  O319  1  0.48495818  0.49348678  0.91613018  1
  O  O320  1  0.81666299  0.00020182  0.41589871  1
  O  O321  1  0.82834058  0.00412345  0.91315632  1
  O  O322  1  0.81704837  0.50005925  0.41642620  1
  O  O323  1  0.82604701  0.49773270  0.91512292  1
  O  O324  1  0.31456701  0.25737162  0.41555059  1
  O  O325  1  0.31111331  0.25018441  0.91683382  1
  O  O326  1  0.31936836  0.74147730  0.41853497  1
  O  O327  1  0.32663908  0.73748041  0.92268317  1
  O  O328  1  0.65967545  0.25291744  0.41508281  1
  O  O329  1  0.65828892  0.25174692  0.91135836  1
  O  O330  1  0.65611590  0.74794980  0.41611684  1
  O  O331  1  0.65859881  0.73632554  0.92756646  1
  O  O332  1  0.97496070  0.25280529  0.41567859  1
  O  O333  1  0.98506091  0.25125708  0.91305450  1
  O  O334  1  0.97381930  0.74676170  0.41599633  1
  O  O335  1  0.98193558  0.74967574  0.91237009  1
  O  O336  1  0.20921951  0.08727777  0.19577696  1
  O  O337  1  0.20983891  0.09220980  0.69323697  1
  O  O338  1  0.20702293  0.58220615  0.19863917  1
  O  O339  1  0.20574767  0.57955371  0.69214279  1
  O  O340  1  0.54715149  0.08404242  0.19574771  1
  O  O341  1  0.54158476  0.08364146  0.69722695  1
  O  O342  1  0.55041622  0.57556372  0.19081976  1
  O  O343  1  0.54507743  0.58443652  0.69887594  1
  O  O344  1  0.87283030  0.08481360  0.19544786  1
  O  O345  1  0.87823090  0.08539585  0.69456145  1
  O  O346  1  0.87532374  0.58439967  0.19754892  1
  O  O347  1  0.87788798  0.58156714  0.69461273  1
  O  O348  1  0.04156669  0.33382055  0.20107155  1
  O  O349  1  0.04476887  0.33398575  0.69539408  1
  O  O350  1  0.03927808  0.83118637  0.19332801  1
  O  O351  1  0.04526555  0.83171268  0.70046048  1
  O  O352  1  0.36519267  0.32993386  0.19675476  1
  O  O353  1  0.37506830  0.32929961  0.69508234  1
  O  O354  1  0.37605159  0.83504237  0.20313391  1
  O  O355  1  0.38156257  0.83846323  0.69692580  1
  O  O356  1  0.71347982  0.33456515  0.19566802  1
  O  O357  1  0.71715604  0.34156594  0.69567089  1
  O  O358  1  0.71451019  0.83235752  0.19713202  1
  O  O359  1  0.71232743  0.83699061  0.69416852  1
  O  O360  1  0.20625483  0.41445659  0.19055413  1
  O  O361  1  0.20547618  0.41384214  0.69437169  1
  O  O362  1  0.21448352  0.91452486  0.20271954  1
  O  O363  1  0.21112359  0.91911342  0.70222676  1
  O  O364  1  0.55100668  0.42156733  0.19031369  1
  O  O365  1  0.54054768  0.41405478  0.68921932  1
  O  O366  1  0.54961156  0.92498472  0.19466014  1
  O  O367  1  0.54356794  0.92060684  0.69915847  1
  O  O368  1  0.87597802  0.41882514  0.19465697  1
  O  O369  1  0.87995674  0.41560292  0.69286210  1
  O  O370  1  0.87852655  0.91672680  0.20412588  1
  O  O371  1  0.87737255  0.91825207  0.69375839  1
  O  O372  1  0.03761179  0.16693773  0.19517260  1
  O  O373  1  0.04121687  0.16986826  0.69509390  1
  O  O374  1  0.03963024  0.66533393  0.19380749  1
  O  O375  1  0.04525938  0.66291653  0.69318024  1
  O  O376  1  0.37405428  0.16433391  0.19240529  1
  O  O377  1  0.37397915  0.16612980  0.69622302  1
  O  O378  1  0.36340887  0.66633148  0.19551332  1
  O  O379  1  0.37922226  0.66997400  0.70084473  1
  O  O380  1  0.71144434  0.16805807  0.19686807  1
  O  O381  1  0.71411093  0.15653687  0.69107263  1
  O  O382  1  0.71268737  0.66528209  0.19739565  1
  O  O383  1  0.71230928  0.66803496  0.70108891  1
  O  O384  1  0.11676301  0.09126170  0.30878573  1
  O  O385  1  0.12019628  0.08914487  0.80575555  1
  O  O386  1  0.12030253  0.58231006  0.30547721  1
  O  O387  1  0.12214085  0.58144488  0.80363026  1
  O  O388  1  0.45579980  0.08178674  0.29995970  1
  O  O389  1  0.45656720  0.08887041  0.80705516  1
  O  O390  1  0.45406942  0.57552233  0.30387387  1
  O  O391  1  0.46370527  0.57861938  0.80624474  1
  O  O392  1  0.79040194  0.08422528  0.30643155  1
  O  O393  1  0.79120977  0.08565694  0.80453691  1
  O  O394  1  0.79173571  0.58245856  0.30720811  1
  O  O395  1  0.79351547  0.58080740  0.80494879  1
  O  O396  1  0.28603411  0.33630268  0.30484308  1
  O  O397  1  0.28681239  0.32861879  0.80628190  1
  O  O398  1  0.28879578  0.82929226  0.31111792  1
  O  O399  1  0.28900436  0.83129945  0.80035497  1
  O  O400  1  0.63484862  0.33367106  0.30530348  1
  O  O401  1  0.61912831  0.33996126  0.80464647  1
  O  O402  1  0.63186114  0.83331341  0.30797238  1
  O  O403  1  0.62356057  0.83278769  0.80077689  1
  O  O404  1  0.95401874  0.33550743  0.30630285  1
  O  O405  1  0.95780974  0.33448981  0.80383617  1
  O  O406  1  0.95553210  0.83009063  0.30783663  1
  O  O407  1  0.95379023  0.83305994  0.80412850  1
  O  O408  1  0.12272097  0.41809069  0.30490833  1
  O  O409  1  0.12250373  0.41474853  0.80523952  1
  O  O410  1  0.11768805  0.91288234  0.30174552  1
  O  O411  1  0.11771301  0.91557515  0.80847998  1
  O  O412  1  0.45406967  0.42188518  0.30400510  1
  O  O413  1  0.46164289  0.41392524  0.80485990  1
  O  O414  1  0.45835454  0.91926485  0.31078091  1
  O  O415  1  0.45873886  0.92060016  0.81052601  1
  O  O416  1  0.79265352  0.41715468  0.30651735  1
  O  O417  1  0.79338426  0.41741763  0.80462057  1
  O  O418  1  0.78727403  0.91765846  0.30726569  1
  O  O419  1  0.79133635  0.91886513  0.80565881  1
  O  O420  1  0.28877176  0.16830301  0.30740432  1
  O  O421  1  0.28893112  0.16807048  0.80639067  1
  O  O422  1  0.28736546  0.66274803  0.30646769  1
  O  O423  1  0.28856988  0.66574349  0.80620554  1
  O  O424  1  0.62699788  0.16628072  0.30850953  1
  O  O425  1  0.62042931  0.16100880  0.80590997  1
  O  O426  1  0.63484817  0.66615921  0.30635228  1
  O  O427  1  0.62582557  0.66479266  0.81005631  1
  O  O428  1  0.95382338  0.16941977  0.30622233  1
  O  O429  1  0.95786265  0.16678404  0.80428158  1
  O  O430  1  0.95611040  0.66435355  0.30622393  1
  O  O431  1  0.95636667  0.66554049  0.80295559  1
  F  F432  1  0.03584505  0.00236447  0.20159176  1
  F  F433  1  0.03854700  0.00219732  0.70013137  1
  F  F434  1  0.04153233  0.50049907  0.20310560  1
  F  F435  1  0.04780486  0.49768518  0.70323220  1
  F  F436  1  0.37828980  -0.00157353  0.20268394  1
  F  F437  1  0.38127943  0.00364437  0.70696304  1
  F  F438  1  0.37797988  0.49864676  0.19845714  1
  F  F439  1  0.37817749  0.49696796  0.69961074  1
  F  F440  1  0.71268535  0.00183635  0.20518302  1
  F  F441  1  0.71248717  -0.00033228  0.70421136  1
  F  F442  1  0.71606411  0.49973333  0.20467379  1
  F  F443  1  0.71358322  0.50106909  0.70103708  1
  F  F444  1  0.20925564  0.24703839  0.20470928  1
  F  F445  1  0.21026322  0.25016172  0.70261081  1
  F  F446  1  0.21047465  0.75064391  0.20578407  1
  F  F447  1  0.21019382  0.74779601  0.70137327  1
  F  F448  1  0.55229293  0.23754744  0.19947139  1
  F  F449  1  0.53065255  0.24866600  0.69827956  1
  F  F450  1  0.55408242  0.76024676  0.19745515  1
  F  F451  1  0.54543128  0.74930556  0.70454610  1
  F  F452  1  0.87678502  0.25125143  0.20337653  1
  F  F453  1  0.88125301  0.24963093  0.70000115  1
  F  F454  1  0.87817883  0.74825707  0.20530916  1
  F  F455  1  0.87923883  0.75011778  0.70189404  1
  F  F456  1  0.29440252  0.00122258  0.30392524  1
  F  F457  1  0.29241591  0.00559476  0.80286308  1
  F  F458  1  0.28602539  0.49593310  0.29557524  1
  F  F459  1  0.28409607  0.49462948  0.80419317  1
  F  F460  1  0.62389524  0.00059733  0.30160065  1
  F  F461  1  0.62366673  0.00211249  0.80038072  1
  F  F462  1  0.62337658  0.49913872  0.29906003  1
  F  F463  1  0.62362066  0.49726497  0.79532234  1
  F  F464  1  0.95234488  0.00485504  0.30273254  1
  F  F465  1  0.95327445  0.00168877  0.79779318  1
  F  F466  1  0.95507869  0.49962986  0.29956395  1
  F  F467  1  0.95501175  0.49916663  0.79707732  1
  F  F468  1  0.12020027  0.25075312  0.29994375  1
  F  F469  1  0.12049675  0.25088275  0.79860429  1
  F  F470  1  0.11864139  0.74564788  0.29811900  1
  F  F471  1  0.12116541  0.74407313  0.79858384  1
  F  F472  1  0.45077052  0.23943714  0.30204090  1
  F  F473  1  0.45379245  0.24986359  0.80047180  1
  F  F474  1  0.44991477  0.75252577  0.30914225  1
  F  F475  1  0.45785306  0.75113977  0.80201772  1
  F  F476  1  0.78976032  0.25073251  0.29912828  1
  F  F477  1  0.80240918  0.24931764  0.80105101  1
  F  F478  1  0.78973866  0.74978055  0.30058397  1
  F  F479  1  0.79176478  0.75203256  0.79918680  1
