# generated using pymatgen
data_K24Na3Li5Mg64Fe17Si79(O5F)48
_symmetry_space_group_name_H-M   'P 1'
_cell_length_a   16.12192964
_cell_length_b   18.62350809
_cell_length_c   20.58977492
_cell_angle_alpha   89.99521145
_cell_angle_beta   100.02336118
_cell_angle_gamma   90.00898332
_symmetry_Int_Tables_number   1
_chemical_formula_structural   K24Na3Li5Mg64Fe17Si79(O5F)48
_chemical_formula_sum   'K24 Na3 Li5 Mg64 Fe17 Si79 O240 F48'
_cell_volume   6087.65882666
_cell_formula_units_Z   1
loop_
 _symmetry_equiv_pos_site_id
 _symmetry_equiv_pos_as_xyz
  1  'x, y, z'
loop_
 _atom_site_type_symbol
 _atom_site_label
 _atom_site_symmetry_multiplicity
 _atom_site_fract_x
 _atom_site_fract_y
 _atom_site_fract_z
 _atom_site_occupancy
  K  K0  1  -0.00945877  -0.00578337  0.00779413  1
  K  K1  1  0.01262362  -0.01167607  0.49121348  1
  K  K2  1  0.00523471  0.49423928  0.01885986  1
  K  K3  1  -0.00590605  0.51045341  0.48237779  1
  K  K4  1  0.34956461  -0.00431882  0.01566884  1
  K  K5  1  0.34059501  -0.01726267  0.48680204  1
  K  K6  1  0.34658511  0.50571541  0.02131237  1
  K  K7  1  0.34032071  0.50423614  0.48518747  1
  K  K8  1  0.64967514  -0.00777869  0.00898360  1
  K  K9  1  0.65255988  -0.00710141  0.49159622  1
  K  K10  1  0.65907176  0.49441410  0.01828897  1
  K  K11  1  0.65906697  0.51606038  0.48340262  1
  K  K12  1  0.16770034  0.25441353  0.01181248  1
  K  K13  1  0.17218890  0.24880435  0.48499705  1
  K  K14  1  0.18165707  0.75540934  0.00978035  1
  K  K15  1  0.16611599  0.75558416  0.48948168  1
  K  K16  1  0.51646784  0.24787391  0.01557633  1
  K  K17  1  0.49716386  0.24532041  0.48366491  1
  K  K18  1  0.49841939  0.75172586  0.01238039  1
  K  K19  1  0.49654861  0.74891651  0.48897294  1
  K  K20  1  0.82955137  0.25182949  0.01664311  1
  K  K21  1  0.82913889  0.24676227  0.48020714  1
  K  K22  1  0.82670156  0.75407704  0.00869680  1
  K  K23  1  0.82924130  0.74392148  0.48808636  1
  Na  Na24  1  0.33292182  0.75044690  0.74432899  1
  Na  Na25  1  0.33241535  0.08015622  0.24306517  1
  Na  Na26  1  0.83565834  0.16879132  0.24886921  1
  Li  Li27  1  0.83039637  0.50122839  0.25464561  1
  Li  Li28  1  0.17647425  0.50048645  0.25015816  1
  Li  Li29  1  0.66036851  0.91368061  0.25144747  1
  Li  Li30  1  0.50630713  0.83376042  0.24861392  1
  Li  Li31  1  0.32993473  0.42133164  0.24655524  1
  Mg  Mg32  1  0.16662339  0.00045481  0.74804271  1
  Mg  Mg33  1  0.16408461  0.50005264  0.74877009  1
  Mg  Mg34  1  0.66419522  0.75159083  0.25144239  1
  Mg  Mg35  1  0.83288257  0.50051748  0.75289180  1
  Mg  Mg36  1  0.16999720  -0.00282432  0.24909649  1
  Mg  Mg37  1  0.66757963  0.75122186  0.74928807  1
  Mg  Mg38  1  -0.00474537  0.24926467  0.75217506  1
  Mg  Mg39  1  0.00218181  0.25265282  0.24980744  1
  Mg  Mg40  1  -0.00020152  0.74880488  0.25252488  1
  Mg  Mg41  1  0.83194580  -0.00136951  0.74898797  1
  Mg  Mg42  1  0.00318499  0.75128287  0.74532571  1
  Mg  Mg43  1  0.66341690  0.25188875  0.75522596  1
  Mg  Mg44  1  0.33086373  0.25173579  0.75222413  1
  Mg  Mg45  1  0.66986540  0.24803286  0.25044891  1
  Mg  Mg46  1  0.49832372  -0.00325989  0.74920592  1
  Mg  Mg47  1  0.33413482  0.25268894  0.24553026  1
  Mg  Mg48  1  0.33687600  0.74875949  0.24808091  1
  Mg  Mg49  1  0.83406768  0.00040977  0.25082012  1
  Mg  Mg50  1  0.49784202  0.50304465  0.74948980  1
  Mg  Mg51  1  0.49964218  0.49872724  0.24940166  1
  Mg  Mg52  1  0.50339105  -0.00304204  0.24542548  1
  Mg  Mg53  1  0.16428675  0.16695253  0.75202898  1
  Mg  Mg54  1  -0.00228270  0.08383452  0.75149402  1
  Mg  Mg55  1  0.00115664  0.91573620  0.74669515  1
  Mg  Mg56  1  0.49930573  0.16449573  0.24614472  1
  Mg  Mg57  1  0.66425506  0.91485236  0.74821557  1
  Mg  Mg58  1  0.16887769  0.83420047  0.24885701  1
  Mg  Mg59  1  0.49663207  0.33483204  0.24803963  1
  Mg  Mg60  1  0.49725290  0.83605005  0.74772514  1
  Mg  Mg61  1  0.33473177  0.91473908  0.74748367  1
  Mg  Mg62  1  0.66607375  0.58499541  0.74834709  1
  Mg  Mg63  1  0.82918984  0.16541548  0.75167598  1
  Mg  Mg64  1  0.66451285  0.41634571  0.75469142  1
  Mg  Mg65  1  0.82949625  0.33487588  0.75393588  1
  Mg  Mg66  1  0.83498766  0.66698178  0.74965809  1
  Mg  Mg67  1  0.83473459  0.83443274  0.74648693  1
  Mg  Mg68  1  0.50296956  0.66582216  0.24889065  1
  Mg  Mg69  1  0.66750254  0.58263024  0.25144327  1
  Mg  Mg70  1  0.16291093  0.33399843  0.75203488  1
  Mg  Mg71  1  0.16700577  0.83516480  0.74526110  1
  Mg  Mg72  1  0.83201391  0.66315230  0.25292530  1
  Mg  Mg73  1  0.33372419  0.57922853  0.24711035  1
  Mg  Mg74  1  0.66794145  0.41703438  0.25306444  1
  Mg  Mg75  1  0.16775642  0.66306020  0.24934044  1
  Mg  Mg76  1  0.33152825  0.41651549  0.75250053  1
  Mg  Mg77  1  0.00207920  0.91538991  0.25103683  1
  Mg  Mg78  1  0.17062632  0.33796170  0.25009961  1
  Mg  Mg79  1  0.16943711  0.16655236  0.24832584  1
  Mg  Mg80  1  0.00506486  0.08412590  0.25198698  1
  Mg  Mg81  1  0.66253703  0.08373510  0.74998075  1
  Mg  Mg82  1  0.66691214  0.07918177  0.24737439  1
  Mg  Mg83  1  -0.00346998  0.41522050  0.75160510  1
  Mg  Mg84  1  0.49626580  0.66859816  0.74417969  1
  Mg  Mg85  1  0.49892981  0.16635734  0.75277915  1
  Mg  Mg86  1  0.33129167  0.58512564  0.74501985  1
  Mg  Mg87  1  0.50054053  0.33618044  0.75551508  1
  Mg  Mg88  1  0.33468043  0.91533350  0.24582526  1
  Mg  Mg89  1  0.00000648  0.58005055  0.25286685  1
  Mg  Mg90  1  0.16603469  0.66591673  0.74458271  1
  Mg  Mg91  1  0.33326871  0.08565633  0.75272254  1
  Mg  Mg92  1  0.00321214  0.42042114  0.25225016  1
  Mg  Mg93  1  0.83164892  0.83401953  0.25337091  1
  Mg  Mg94  1  -0.00009096  0.58438182  0.74897368  1
  Mg  Mg95  1  0.83504808  0.33656628  0.25440409  1
  Fe  Fe96  1  0.52909040  0.08128117  0.10604417  1
  Fe  Fe97  1  0.35492569  0.16606108  0.10503828  1
  Fe  Fe98  1  0.19120330  0.42229761  0.11168343  1
  Fe  Fe99  1  0.52772127  0.58565028  0.10795248  1
  Fe  Fe100  1  0.17999341  0.08176929  0.10504721  1
  Fe  Fe101  1  0.47663478  0.57901162  0.38872056  1
  Fe  Fe102  1  0.02970621  0.83373583  0.60712781  1
  Fe  Fe103  1  0.52744409  0.41095116  0.11110097  1
  Fe  Fe104  1  0.52823969  0.91580297  0.60658597  1
  Fe  Fe105  1  0.35239173  0.65993010  0.60264277  1
  Fe  Fe106  1  0.64241812  0.33670107  0.89531589  1
  Fe  Fe107  1  0.18331139  0.91203397  0.10523563  1
  Fe  Fe108  1  0.64296947  0.67621806  0.39397947  1
  Fe  Fe109  1  0.35554990  0.83470775  0.60302682  1
  Fe  Fe110  1  0.47316248  0.91418173  0.89198670  1
  Fe  Fe111  1  0.14655277  0.91693943  0.38943870  1
  Fe  Fe112  1  0.80701699  0.57916760  0.39201966  1
  Si  Si113  1  0.97056356  0.16493673  0.88681200  1
  Si  Si114  1  0.47470194  0.91988506  0.38061834  1
  Si  Si115  1  0.86220681  0.58154350  0.11848731  1
  Si  Si116  1  0.19665488  0.92676029  0.61047948  1
  Si  Si117  1  0.30487803  0.17078169  0.88618217  1
  Si  Si118  1  0.80955935  0.91330144  0.88394923  1
  Si  Si119  1  0.69923101  0.16363696  0.11394240  1
  Si  Si120  1  0.69807669  0.66608102  0.61592632  1
  Si  Si121  1  0.18695429  0.59134304  0.11111014  1
  Si  Si122  1  0.13948775  0.08534000  0.88561711  1
  Si  Si123  1  0.31508063  0.82908891  0.38429647  1
  Si  Si124  1  0.30929517  0.33347328  0.38541667  1
  Si  Si125  1  0.70115088  0.83237111  0.61251185  1
  Si  Si126  1  0.46702048  0.42104465  0.88857833  1
  Si  Si127  1  0.29828798  0.83201315  0.88521719  1
  Si  Si128  1  0.85848584  0.91780021  0.11615147  1
  Si  Si129  1  0.70080970  0.66913844  0.11207357  1
  Si  Si130  1  0.18599603  0.57313198  0.60984525  1
  Si  Si131  1  0.48006632  0.40964394  0.38840106  1
  Si  Si132  1  0.30200083  0.33655709  0.88638946  1
  Si  Si133  1  0.35464554  0.66911799  0.11035431  1
  Si  Si134  1  0.01793223  0.33042167  0.61655415  1
  Si  Si135  1  0.64608317  0.82929667  0.88709437  1
  Si  Si136  1  0.01775924  0.16667930  0.61625249  1
  Si  Si137  1  0.86719013  0.08041653  0.11762230  1
  Si  Si138  1  0.02041869  0.66497647  0.11684115  1
  Si  Si139  1  0.86077507  0.58064916  0.61665539  1
  Si  Si140  1  0.97941894  0.33373210  0.38874993  1
  Si  Si141  1  0.85238750  0.08296395  0.61582304  1
  Si  Si142  1  0.81261631  0.58663263  0.88541209  1
  Si  Si143  1  0.52862092  0.90955156  0.11491204  1
  Si  Si144  1  0.35575866  0.33331641  0.11028280  1
  Si  Si145  1  0.80815917  0.40907160  0.39136264  1
  Si  Si146  1  0.97593663  0.83503176  0.88320262  1
  Si  Si147  1  0.98146789  0.16853675  0.38684049  1
  Si  Si148  1  0.68961846  0.16981862  0.61686966  1
  Si  Si149  1  0.02190240  0.17276081  0.11390938  1
  Si  Si150  1  0.97288875  0.83219469  0.38780787  1
  Si  Si151  1  0.81213424  0.91985679  0.38603957  1
  Si  Si152  1  0.14350825  0.41738764  0.38657944  1
  Si  Si153  1  0.85470443  0.41635820  0.61714983  1
  Si  Si154  1  0.81171495  0.42281014  0.89032405  1
  Si  Si155  1  0.47248854  0.58745629  0.88334656  1
  Si  Si156  1  0.97716550  0.66541878  0.38820676  1
  Si  Si157  1  0.70158750  0.33024970  0.11648161  1
  Si  Si158  1  0.14689299  0.08699124  0.39005386  1
  Si  Si159  1  0.47318853  0.08794504  0.88759889  1
  Si  Si160  1  0.52352034  0.41702771  0.61661270  1
  Si  Si161  1  0.13881821  0.58131919  0.88453692  1
  Si  Si162  1  0.13896317  0.91991926  0.88404015  1
  Si  Si163  1  0.35842170  0.83386773  0.11253411  1
  Si  Si164  1  0.02277789  0.33541265  0.11579483  1
  Si  Si165  1  0.69684647  0.83239736  0.11737349  1
  Si  Si166  1  0.31041811  0.17123960  0.38441124  1
  Si  Si167  1  0.14123569  0.58391619  0.38315749  1
  Si  Si168  1  0.35494484  0.17171162  0.61657428  1
  Si  Si169  1  0.86201050  0.91913125  0.61288426  1
  Si  Si170  1  0.64388477  0.16485847  0.88828538  1
  Si  Si171  1  0.97706989  0.67028425  0.88391110  1
  Si  Si172  1  0.52059878  0.08909112  0.61321575  1
  Si  Si173  1  0.30683623  0.66365744  0.38344465  1
  Si  Si174  1  0.64335161  0.32432576  0.38721586  1
  Si  Si175  1  0.53152700  0.58310592  0.61170347  1
  Si  Si176  1  0.64534504  0.15935624  0.38614302  1
  Si  Si177  1  0.68988385  0.33413517  0.61752257  1
  Si  Si178  1  0.64328920  0.66365093  0.88359513  1
  Si  Si179  1  0.01604019  0.82573711  0.11264229  1
  Si  Si180  1  0.02414099  0.66142022  0.61102062  1
  Si  Si181  1  0.47577888  0.08376391  0.38329798  1
  Si  Si182  1  0.80573133  0.07880551  0.88529369  1
  Si  Si183  1  0.97064492  0.33129320  0.88728306  1
  Si  Si184  1  0.86229625  0.41878492  0.12218124  1
  Si  Si185  1  0.30146039  0.66372951  0.88168001  1
  Si  Si186  1  0.18319257  0.41081682  0.61579871  1
  Si  Si187  1  0.18707951  0.09107864  0.61587138  1
  Si  Si188  1  0.13471211  0.41581890  0.88557950  1
  Si  Si189  1  0.64514905  0.84322641  0.38680424  1
  Si  Si190  1  0.81427775  0.08184327  0.38613114  1
  Si  Si191  1  0.35503135  0.33721914  0.61704333  1
  O  O192  1  0.27285943  0.10277657  0.06643820  1
  O  O193  1  0.26624380  0.12939013  0.58753932  1
  O  O194  1  0.26413130  0.62894967  0.07969167  1
  O  O195  1  0.26570876  0.58897243  0.57563971  1
  O  O196  1  0.62190639  0.12036135  0.07118180  1
  O  O197  1  0.60029274  0.13149927  0.58703648  1
  O  O198  1  0.61690424  0.63141800  0.07282849  1
  O  O199  1  0.62025025  0.61163093  0.58946185  1
  O  O200  1  0.94294448  0.11737802  0.08495172  1
  O  O201  1  0.93458517  0.11701015  0.58781252  1
  O  O202  1  0.94487810  0.60803053  0.08632927  1
  O  O203  1  0.94374737  0.60564675  0.58771576  1
  O  O204  1  0.09664782  0.36070011  0.07690681  1
  O  O205  1  0.10254513  0.35691943  0.58894737  1
  O  O206  1  0.09193504  0.84620335  0.07482472  1
  O  O207  1  0.12216875  0.87316505  0.57640539  1
  O  O208  1  0.44064028  0.34711097  0.07820417  1
  O  O209  1  0.43348177  0.37532978  0.58860252  1
  O  O210  1  0.44490978  0.86009220  0.08648406  1
  O  O211  1  0.44816087  0.85551051  0.56283431  1
  O  O212  1  0.78320422  0.36743778  0.09022184  1
  O  O213  1  0.76843650  0.37162142  0.58863914  1
  O  O214  1  0.76813756  0.87975567  0.08594885  1
  O  O215  1  0.78945241  0.85841835  0.58835834  1
  O  O216  1  0.28683154  0.39445890  0.07818705  1
  O  O217  1  0.26638848  0.37985888  0.58813581  1
  O  O218  1  0.28088209  0.88139471  0.07328756  1
  O  O219  1  0.28182808  0.91530907  0.58157534  1
  O  O220  1  0.61985214  0.37051303  0.07778895  1
  O  O221  1  0.59995492  0.37351318  0.58935971  1
  O  O222  1  0.60566095  0.86645753  0.08553597  1
  O  O223  1  0.62966899  0.88628338  0.57817253  1
  O  O224  1  0.94179597  0.38928034  0.08915762  1
  O  O225  1  0.93506295  0.38026400  0.58888789  1
  O  O226  1  0.93162511  0.87588672  0.08376339  1
  O  O227  1  0.94353865  0.90282454  0.58058045  1
  O  O228  1  0.09733726  0.15432129  0.07508975  1
  O  O229  1  0.10201153  0.14042565  0.58845612  1
  O  O230  1  0.10389134  0.64507268  0.08518276  1
  O  O231  1  0.10337921  0.62390931  0.58302059  1
  O  O232  1  0.44220431  0.13775568  0.06324230  1
  O  O233  1  0.43583485  0.14005411  0.58790487  1
  O  O234  1  0.42620482  0.63491493  0.07357931  1
  O  O235  1  0.45458806  0.62959473  0.57450660  1
  O  O236  1  0.78469498  0.12953996  0.09038489  1
  O  O237  1  0.76934295  0.13302371  0.58850421  1
  O  O238  1  0.78289530  0.63221792  0.08466420  1
  O  O239  1  0.78130344  0.63313857  0.58985866  1
  O  O240  1  0.06991377  0.12897878  0.42102740  1
  O  O241  1  0.05848863  0.12174794  0.91324491  1
  O  O242  1  0.06601487  0.62176510  0.41592724  1
  O  O243  1  0.06182977  0.62323654  0.91271392  1
  O  O244  1  0.40209130  0.13084176  0.41261731  1
  O  O245  1  0.39262902  0.12917625  0.91196632  1
  O  O246  1  0.38115276  0.61300911  0.41972747  1
  O  O247  1  0.39592995  0.63053812  0.91041466  1
  O  O248  1  0.73572597  0.11877683  0.41807680  1
  O  O249  1  0.72369230  0.10858458  0.91334006  1
  O  O250  1  0.73664314  0.62681461  0.43852170  1
  O  O251  1  0.72949421  0.61646563  0.91301030  1
  O  O252  1  0.23282372  0.37476038  0.41729954  1
  O  O253  1  0.22039405  0.37094499  0.91330703  1
  O  O254  1  0.24503344  0.86533187  0.42183827  1
  O  O255  1  0.21841924  0.86959760  0.91478603  1
  O  O256  1  0.56410383  0.35788946  0.41820941  1
  O  O257  1  0.54599487  0.37384921  0.92307689  1
  O  O258  1  0.56772425  0.88848208  0.41252090  1
  O  O259  1  0.57536199  0.86391863  0.92327842  1
  O  O260  1  0.89905608  0.36520285  0.41941071  1
  O  O261  1  0.89550310  0.37186687  0.91654319  1
  O  O262  1  0.89065395  0.86562072  0.41663874  1
  O  O263  1  0.89670778  0.86948054  0.91329188  1
  O  O264  1  0.06719765  0.37783600  0.42046179  1
  O  O265  1  0.05847479  0.37443381  0.91413153  1
  O  O266  1  0.05425746  0.87700652  0.42249314  1
  O  O267  1  0.05689436  0.88572072  0.91143586  1
  O  O268  1  0.39972132  0.37084789  0.41733784  1
  O  O269  1  0.38152882  0.38856974  0.91278197  1
  O  O270  1  0.40490358  0.87174033  0.41089987  1
  O  O271  1  0.38459374  0.86681138  0.92358650  1
  O  O272  1  0.73366894  0.36217365  0.42063375  1
  O  O273  1  0.73498714  0.39864299  0.92526139  1
  O  O274  1  0.72879705  0.89509491  0.41526954  1
  O  O275  1  0.73623812  0.87261086  0.91512796  1
  O  O276  1  0.23468991  0.13312776  0.41731894  1
  O  O277  1  0.22377484  0.13352286  0.91201638  1
  O  O278  1  0.22305510  0.63342184  0.41221127  1
  O  O279  1  0.22953814  0.61824904  0.91427035  1
  O  O280  1  0.56865999  0.12005918  0.41763858  1
  O  O281  1  0.55859751  0.13653294  0.91331507  1
  O  O282  1  0.56099668  0.63529149  0.43470456  1
  O  O283  1  0.56303110  0.62787422  0.91139329  1
  O  O284  1  0.89977903  0.13138787  0.41398694  1
  O  O285  1  0.89181158  0.12568744  0.91417115  1
  O  O286  1  0.90978763  0.62715616  0.42589457  1
  O  O287  1  0.89481818  0.63828020  0.91240803  1
  O  O288  1  0.14007827  -0.00397224  0.06557309  1
  O  O289  1  0.16476150  0.01111379  0.58784291  1
  O  O290  1  0.16348678  0.51537719  0.07434898  1
  O  O291  1  0.15403422  0.48965584  0.58686625  1
  O  O292  1  0.51762491  -0.01486381  0.07483421  1
  O  O293  1  0.50735878  0.01357514  0.57641106  1
  O  O294  1  0.51192667  0.49747773  0.06580368  1
  O  O295  1  0.52016832  0.49778598  0.58651564  1
  O  O296  1  0.85347367  -0.00075550  0.08424052  1
  O  O297  1  0.82947957  0.00189894  0.58855587  1
  O  O298  1  0.84185538  0.49957572  0.08993222  1
  O  O299  1  0.83979206  0.49826273  0.58991597  1
  O  O300  1  -0.01204539  0.25446966  0.09020268  1
  O  O301  1  -0.00456420  0.24876989  0.58838406  1
  O  O302  1  -0.01571384  0.74352940  0.08807010  1
  O  O303  1  0.00128664  0.73863746  0.57785507  1
  O  O304  1  0.31466333  0.25752926  0.07899875  1
  O  O305  1  0.34178515  0.25487212  0.58822774  1
  O  O306  1  0.34085166  0.75178725  0.08169500  1
  O  O307  1  0.30859992  0.74716943  0.57155052  1
  O  O308  1  0.69973646  0.24757025  0.08705732  1
  O  O309  1  0.68317171  0.25222169  0.58826645  1
  O  O310  1  0.70200888  0.75270614  0.08359378  1
  O  O311  1  0.68403657  0.74788330  0.58793454  1
  O  O312  1  0.15827834  0.01030322  0.42669118  1
  O  O313  1  0.15147874  0.00281203  0.91227076  1
  O  O314  1  0.15286334  0.50091279  0.41475079  1
  O  O315  1  0.13972789  0.49837128  0.91275941  1
  O  O316  1  0.47348784  0.00205140  0.41384452  1
  O  O317  1  0.48584813  0.01062750  0.92200207  1
  O  O318  1  0.49573013  0.48507200  0.42698077  1
  O  O319  1  0.47613880  0.50549283  0.91286416  1
  O  O320  1  0.83521712  0.00134815  0.41866264  1
  O  O321  1  0.82340118  -0.00386619  0.91246608  1
  O  O322  1  0.81814696  0.48463558  0.42985237  1
  O  O323  1  0.83941870  0.50598925  0.91351747  1
  O  O324  1  0.31766343  0.25196602  0.41999253  1
  O  O325  1  0.31323304  0.25392023  0.91368623  1
  O  O326  1  0.32668250  0.74594877  0.41184670  1
  O  O327  1  0.29650450  0.74611629  0.90803690  1
  O  O328  1  0.65345951  0.24118137  0.41819432  1
  O  O329  1  0.67240642  0.24136148  0.92148739  1
  O  O330  1  0.65962526  0.77028022  0.42994244  1
  O  O331  1  0.66335025  0.74488992  0.91293972  1
  O  O332  1  0.99073084  0.25077370  0.41888498  1
  O  O333  1  0.97884144  0.24806948  0.91460357  1
  O  O334  1  0.98734141  0.74912599  0.41520698  1
  O  O335  1  0.99180488  0.75269866  0.91212472  1
  O  O336  1  0.19571826  0.08243156  0.19624210  1
  O  O337  1  0.20694972  0.09034360  0.69649174  1
  O  O338  1  0.20958628  0.58877019  0.19068528  1
  O  O339  1  0.20439592  0.57750246  0.69133361  1
  O  O340  1  0.54600889  0.08310450  0.19756163  1
  O  O341  1  0.54099375  0.08763952  0.69455819  1
  O  O342  1  0.54849480  0.58143650  0.19880324  1
  O  O343  1  0.54641106  0.58210514  0.69323320  1
  O  O344  1  0.88761721  0.07526147  0.19642735  1
  O  O345  1  0.87383572  0.08533724  0.69655302  1
  O  O346  1  0.88105142  0.58692815  0.19736107  1
  O  O347  1  0.87770201  0.58093870  0.69761657  1
  O  O348  1  0.04479005  0.33613510  0.19624002  1
  O  O349  1  0.03733564  0.33163396  0.69724862  1
  O  O350  1  0.03739774  0.83000493  0.19302353  1
  O  O351  1  0.04433690  0.83477280  0.69959134  1
  O  O352  1  0.37719911  0.33273389  0.19125883  1
  O  O353  1  0.37343643  0.33523973  0.69755685  1
  O  O354  1  0.36922440  0.83149843  0.19187145  1
  O  O355  1  0.38223079  0.84153485  0.69420638  1
  O  O356  1  0.71402768  0.33200368  0.19687758  1
  O  O357  1  0.70993230  0.33436506  0.69804292  1
  O  O358  1  0.71603495  0.83014565  0.19643160  1
  O  O359  1  0.71470740  0.83304591  0.69418668  1
  O  O360  1  0.20855021  0.41780167  0.19967834  1
  O  O361  1  0.20413785  0.41257565  0.69641569  1
  O  O362  1  0.20982439  0.91420238  0.19666168  1
  O  O363  1  0.20861166  0.92255966  0.69233662  1
  O  O364  1  0.54814229  0.41483524  0.20286520  1
  O  O365  1  0.54069681  0.41712578  0.69713416  1
  O  O366  1  0.54734913  0.91603079  0.19351206  1
  O  O367  1  0.54839261  0.91818063  0.69952122  1
  O  O368  1  0.88039272  0.41755011  0.20145170  1
  O  O369  1  0.87429623  0.41485749  0.69799703  1
  O  O370  1  0.87848322  0.91575885  0.19599026  1
  O  O371  1  0.87797757  0.91952119  0.69455954  1
  O  O372  1  0.04183512  0.16888225  0.19466623  1
  O  O373  1  0.03715360  0.16771946  0.69692709  1
  O  O374  1  0.04095122  0.66549400  0.19680149  1
  O  O375  1  0.04145474  0.66269635  0.69267640  1
  O  O376  1  0.38270453  0.17457750  0.19492669  1
  O  O377  1  0.37299737  0.17074961  0.69711487  1
  O  O378  1  0.37389385  0.66636267  0.19046909  1
  O  O379  1  0.38113400  0.65588283  0.69402854  1
  O  O380  1  0.70270042  0.16496453  0.19287764  1
  O  O381  1  0.70832931  0.16870725  0.69755435  1
  O  O382  1  0.71391795  0.66795957  0.19197280  1
  O  O383  1  0.71459959  0.66622777  0.69687834  1
  O  O384  1  0.12541187  0.08540163  0.30991586  1
  O  O385  1  0.11958645  0.08646026  0.80473519  1
  O  O386  1  0.12140644  0.58462728  0.30395749  1
  O  O387  1  0.11964479  0.58068335  0.80385533  1
  O  O388  1  0.46625970  0.08385963  0.30511624  1
  O  O389  1  0.45550372  0.08715101  0.80606061  1
  O  O390  1  0.45569824  0.58248942  0.29784819  1
  O  O391  1  0.45673556  0.58381154  0.80314808  1
  O  O392  1  0.79018585  0.07801002  0.30767196  1
  O  O393  1  0.78965575  0.08222532  0.80469813  1
  O  O394  1  0.78744330  0.58414736  0.30191198  1
  O  O395  1  0.79282295  0.58490541  0.80476653  1
  O  O396  1  0.28949484  0.33029073  0.30678721  1
  O  O397  1  0.28447551  0.33449254  0.80524720  1
  O  O398  1  0.29232984  0.83001520  0.30420324  1
  O  O399  1  0.28055447  0.84125675  0.80561003  1
  O  O400  1  0.62680527  0.32810116  0.30788225  1
  O  O401  1  0.62157486  0.33502446  0.80237836  1
  O  O402  1  0.63033003  0.83251776  0.30843250  1
  O  O403  1  0.63055305  0.83217867  0.80643839  1
  O  O404  1  0.96154678  0.33447296  0.30921906  1
  O  O405  1  0.95300062  0.33206131  0.80637111  1
  O  O406  1  0.95654495  0.83309715  0.30698421  1
  O  O407  1  0.95521666  0.83390682  0.80306277  1
  O  O408  1  0.12161277  0.41216526  0.30815344  1
  O  O409  1  0.11759647  0.41521885  0.80476325  1
  O  O410  1  0.12072210  0.91453194  0.29874678  1
  O  O411  1  0.12085221  0.92141402  0.80355641  1
  O  O412  1  0.46391098  0.41342961  0.30923117  1
  O  O413  1  0.45313925  0.41822624  0.80702504  1
  O  O414  1  0.45551434  0.92103234  0.30185062  1
  O  O415  1  0.45428472  0.91880474  0.80092545  1
  O  O416  1  0.78888040  0.41139680  0.31180368  1
  O  O417  1  0.79169576  0.41835518  0.80882095  1
  O  O418  1  0.80001292  0.91901387  0.30686997  1
  O  O419  1  0.79149309  0.91567625  0.80348267  1
  O  O420  1  0.28793988  0.17488627  0.30599993  1
  O  O421  1  0.28580474  0.17059976  0.80510467  1
  O  O422  1  0.28923284  0.66518884  0.30300726  1
  O  O423  1  0.28045479  0.65609260  0.80257521  1
  O  O424  1  0.62902625  0.16349118  0.30693505  1
  O  O425  1  0.62482002  0.16634294  0.80657279  1
  O  O426  1  0.62596010  0.66791956  0.30237275  1
  O  O427  1  0.62727817  0.66454584  0.80325567  1
  O  O428  1  0.96987206  0.16867260  0.30801543  1
  O  O429  1  0.95228249  0.16641787  0.80590723  1
  O  O430  1  0.95798852  0.66571013  0.30768323  1
  O  O431  1  0.95805811  0.66734679  0.80343954  1
  F  F432  1  0.04326972  -0.00008569  0.20304682  1
  F  F433  1  0.04298668  0.00514048  0.70202899  1
  F  F434  1  0.03638121  0.50075239  0.19937474  1
  F  F435  1  0.04102739  0.49640819  0.70239819  1
  F  F436  1  0.38473562  -0.01016302  0.19392670  1
  F  F437  1  0.37696700  0.00878923  0.70244086  1
  F  F438  1  0.38088715  0.50086764  0.19739682  1
  F  F439  1  0.37660493  0.49513900  0.70256687  1
  F  F440  1  0.72036846  0.00502313  0.19748186  1
  F  F441  1  0.71257162  0.00258940  0.70255941  1
  F  F442  1  0.70913791  0.49694412  0.20283320  1
  F  F443  1  0.71317761  0.49777646  0.70463705  1
  F  F444  1  0.21015639  0.25195004  0.20180026  1
  F  F445  1  0.20704587  0.25173439  0.70291183  1
  F  F446  1  0.21034022  0.74850850  0.20226802  1
  F  F447  1  0.19562611  0.74950402  0.69682688  1
  F  F448  1  0.54973535  0.25010311  0.20468679  1
  F  F449  1  0.54223929  0.25062260  0.70385480  1
  F  F450  1  0.54841373  0.74678237  0.19862573  1
  F  F451  1  0.55152377  0.74950622  0.70050508  1
  F  F452  1  0.88490503  0.26196431  0.20254837  1
  F  F453  1  0.87455252  0.25058765  0.70359400  1
  F  F454  1  0.87931764  0.74996173  0.20585495  1
  F  F455  1  0.87986754  0.74878960  0.70145536  1
  F  F456  1  0.28666357  -0.01023375  0.30222511  1
  F  F457  1  0.28441989  0.00490873  0.79711260  1
  F  F458  1  0.29093722  0.50517070  0.30082696  1
  F  F459  1  0.28338566  0.49808235  0.79632830  1
  F  F460  1  0.62347438  0.00091107  0.29895678  1
  F  F461  1  0.62405119  0.00233131  0.79875605  1
  F  F462  1  0.62545005  0.49852965  0.30453550  1
  F  F463  1  0.62083609  0.50220356  0.79810295  1
  F  F464  1  0.95819841  -0.00020879  0.30117380  1
  F  F465  1  0.95300764  0.00081986  0.79822192  1
  F  F466  1  0.96525390  0.49962309  0.30707809  1
  F  F467  1  0.95477107  0.49940963  0.79979594  1
  F  F468  1  0.12269377  0.25121012  0.29798122  1
  F  F469  1  0.11637299  0.25047364  0.79945727  1
  F  F470  1  0.12112763  0.74927334  0.29709276  1
  F  F471  1  0.11923784  0.74540833  0.79841027  1
  F  F472  1  0.45731167  0.25086456  0.29933706  1
  F  F473  1  0.45149190  0.25180397  0.79899109  1
  F  F474  1  0.45352017  0.74528652  0.29656882  1
  F  F475  1  0.47139802  0.74949238  0.80013601  1
  F  F476  1  0.78701943  0.25685878  0.30475919  1
  F  F477  1  0.78794983  0.24966610  0.80050035  1
  F  F478  1  0.79009240  0.74934468  0.30019377  1
  F  F479  1  0.79183875  0.75073510  0.79787018  1
