# generated using pymatgen
data_K24Na3Li5Mg64Fe17Si79(O5F)48
_symmetry_space_group_name_H-M   'P 1'
_cell_length_a   16.08097986
_cell_length_b   18.58228433
_cell_length_c   20.55241186
_cell_angle_alpha   89.98519580
_cell_angle_beta   100.03012282
_cell_angle_gamma   90.02197911
_symmetry_Int_Tables_number   1
_chemical_formula_structural   K24Na3Li5Mg64Fe17Si79(O5F)48
_chemical_formula_sum   'K24 Na3 Li5 Mg64 Fe17 Si79 O240 F48'
_cell_volume   6047.63399944
_cell_formula_units_Z   1
loop_
 _symmetry_equiv_pos_site_id
 _symmetry_equiv_pos_as_xyz
  1  'x, y, z'
loop_
 _atom_site_type_symbol
 _atom_site_label
 _atom_site_symmetry_multiplicity
 _atom_site_fract_x
 _atom_site_fract_y
 _atom_site_fract_z
 _atom_site_occupancy
  K  K0  1  0.00041774  -0.00836505  0.01159938  1
  K  K1  1  -0.00157660  -0.00273351  0.49111798  1
  K  K2  1  -0.00104719  0.50085876  0.01403272  1
  K  K3  1  -0.00164077  0.49592077  0.48662541  1
  K  K4  1  0.33502292  -0.00265339  0.01158869  1
  K  K5  1  0.32001156  -0.00118615  0.49094007  1
  K  K6  1  0.33281139  0.50199088  0.00882758  1
  K  K7  1  0.33209027  0.51108725  0.49795427  1
  K  K8  1  0.66087281  0.00299898  0.00602124  1
  K  K9  1  0.67504871  -0.00752727  0.49448797  1
  K  K10  1  0.66356141  0.50346774  0.00687835  1
  K  K11  1  0.66004747  0.50346098  0.49355558  1
  K  K12  1  0.15663375  0.24701086  0.01189819  1
  K  K13  1  0.15450700  0.24532481  0.48454498  1
  K  K14  1  0.16530194  0.75581405  0.00729995  1
  K  K15  1  0.17169859  0.75126059  0.49075295  1
  K  K16  1  0.50347808  0.25034612  0.00991446  1
  K  K17  1  0.49408546  0.24976516  0.49236565  1
  K  K18  1  0.49422834  0.74704104  0.00364374  1
  K  K19  1  0.49754622  0.74153052  0.49957961  1
  K  K20  1  0.83737382  0.25937029  0.01684363  1
  K  K21  1  0.83943331  0.24593649  0.48528606  1
  K  K22  1  0.84472974  0.75169694  0.00542206  1
  K  K23  1  0.83747018  0.75524850  0.49839704  1
  Na  Na24  1  0.50009126  0.49781604  0.25332821  1
  Na  Na25  1  -0.00053162  0.41812330  0.25311095  1
  Na  Na26  1  0.33058461  0.08200940  0.24875946  1
  Li  Li27  1  0.00000274  0.75734930  0.24831540  1
  Li  Li28  1  0.66623073  0.24988419  0.24831633  1
  Li  Li29  1  0.16758499  0.16445850  0.74149333  1
  Li  Li30  1  0.16679549  0.16475400  0.24976596  1
  Li  Li31  1  -0.00159122  0.91161713  0.24492389  1
  Mg  Mg32  1  0.83657282  -0.00039100  0.74456407  1
  Mg  Mg33  1  0.16564134  0.49992959  0.25641670  1
  Mg  Mg34  1  0.49946058  0.50180022  0.75182731  1
  Mg  Mg35  1  0.00495368  0.25033471  0.74576763  1
  Mg  Mg36  1  0.33250343  0.74883578  0.75336588  1
  Mg  Mg37  1  0.66730416  0.75035681  0.24793460  1
  Mg  Mg38  1  0.66872293  0.24928329  0.74696485  1
  Mg  Mg39  1  0.83581552  -0.00110151  0.24889776  1
  Mg  Mg40  1  0.83449237  0.50195675  0.25174261  1
  Mg  Mg41  1  0.16358427  -0.00011741  0.24894599  1
  Mg  Mg42  1  -0.00143129  0.74780736  0.75192373  1
  Mg  Mg43  1  0.50131731  -0.00128408  0.74978133  1
  Mg  Mg44  1  0.33164702  0.24631712  0.74614571  1
  Mg  Mg45  1  0.50103084  0.00127500  0.24742500  1
  Mg  Mg46  1  0.16686551  0.00313491  0.74450166  1
  Mg  Mg47  1  0.33431977  0.75009664  0.25296205  1
  Mg  Mg48  1  0.66458571  0.75023465  0.75053606  1
  Mg  Mg49  1  0.00079813  0.24831930  0.25142547  1
  Mg  Mg50  1  0.83288090  0.50106156  0.75189948  1
  Mg  Mg51  1  0.33042511  0.24745735  0.25140508  1
  Mg  Mg52  1  0.16845360  0.50127714  0.75485600  1
  Mg  Mg53  1  0.66339468  0.08667093  0.24588513  1
  Mg  Mg54  1  0.00221574  0.58477048  0.75578378  1
  Mg  Mg55  1  0.00019217  0.58845758  0.25369024  1
  Mg  Mg56  1  0.66593591  0.41562688  0.74697172  1
  Mg  Mg57  1  0.33580806  0.41458441  0.75200687  1
  Mg  Mg58  1  0.16713502  0.66967395  0.25682350  1
  Mg  Mg59  1  0.83195107  0.33312535  0.24965899  1
  Mg  Mg60  1  -0.00052165  0.08101265  0.24843530  1
  Mg  Mg61  1  0.00389905  0.41715870  0.75184538  1
  Mg  Mg62  1  0.49841495  0.83555818  0.24906769  1
  Mg  Mg63  1  0.33496615  0.58585292  0.75468621  1
  Mg  Mg64  1  0.16333906  0.83456824  0.25085847  1
  Mg  Mg65  1  0.49955896  0.16573992  0.24736527  1
  Mg  Mg66  1  0.50146991  0.66344357  0.75266396  1
  Mg  Mg67  1  0.33335721  0.91648810  0.74970643  1
  Mg  Mg68  1  0.83748272  0.16634287  0.74426283  1
  Mg  Mg69  1  0.66669203  0.41564892  0.25337721  1
  Mg  Mg70  1  0.16950167  0.33155174  0.75011257  1
  Mg  Mg71  1  0.16351341  0.32984144  0.25573978  1
  Mg  Mg72  1  0.66426280  0.58533602  0.75243817  1
  Mg  Mg73  1  0.50046050  0.33291402  0.74830164  1
  Mg  Mg74  1  0.49890252  0.66487330  0.25126385  1
  Mg  Mg75  1  -0.00062067  0.91559228  0.74621034  1
  Mg  Mg76  1  0.16814800  0.66446828  0.75613184  1
  Mg  Mg77  1  0.50308028  0.83318031  0.75251313  1
  Mg  Mg78  1  0.83743987  0.83352934  0.24726544  1
  Mg  Mg79  1  0.83326760  0.66580832  0.75298264  1
  Mg  Mg80  1  0.66993548  0.08336283  0.74644880  1
  Mg  Mg81  1  0.33177582  0.41534056  0.25459910  1
  Mg  Mg82  1  0.83574289  0.33443319  0.74806124  1
  Mg  Mg83  1  0.16627826  0.83402248  0.74877563  1
  Mg  Mg84  1  0.50134354  0.32986464  0.25211902  1
  Mg  Mg85  1  0.50037017  0.16442092  0.74564729  1
  Mg  Mg86  1  0.83400333  0.66959468  0.25004082  1
  Mg  Mg87  1  0.00448516  0.08640807  0.74152675  1
  Mg  Mg88  1  0.83016543  0.16774703  0.24829902  1
  Mg  Mg89  1  0.33306262  0.91603249  0.24945390  1
  Mg  Mg90  1  0.83461672  0.83569552  0.74809271  1
  Mg  Mg91  1  0.66565331  0.91669340  0.24629697  1
  Mg  Mg92  1  0.66890465  0.91456245  0.74988509  1
  Mg  Mg93  1  0.66618065  0.58443928  0.25101948  1
  Mg  Mg94  1  0.33359549  0.58369968  0.25516740  1
  Mg  Mg95  1  0.32962897  0.08390111  0.74458583  1
  Fe  Fe96  1  0.18666567  0.08171223  0.60438514  1
  Fe  Fe97  1  0.52711790  0.92112702  0.10784332  1
  Fe  Fe98  1  0.64168646  0.66686499  0.89288849  1
  Fe  Fe99  1  0.51908481  0.09358499  0.10471633  1
  Fe  Fe100  1  0.35943976  0.82791539  0.11088643  1
  Fe  Fe101  1  0.86229731  0.91648915  0.60516637  1
  Fe  Fe102  1  0.97340191  0.33063815  0.39227141  1
  Fe  Fe103  1  0.64659457  0.83654754  0.89256402  1
  Fe  Fe104  1  0.52487802  0.58232476  0.60866518  1
  Fe  Fe105  1  0.31247740  0.66883654  0.39487904  1
  Fe  Fe106  1  0.13626397  0.58054806  0.89645314  1
  Fe  Fe107  1  0.02174978  0.33018217  0.11128366  1
  Fe  Fe108  1  0.68680527  0.66684712  0.11114528  1
  Fe  Fe109  1  0.96535070  0.66463846  0.89369722  1
  Fe  Fe110  1  0.30169534  0.67229445  0.89532643  1
  Fe  Fe111  1  0.46868664  0.57965159  0.89470763  1
  Fe  Fe112  1  0.85763531  0.91290931  0.11025791  1
  Si  Si113  1  0.64325044  0.16691859  0.38535589  1
  Si  Si114  1  0.52365178  0.57728555  0.11598457  1
  Si  Si115  1  0.47814663  0.08736143  0.38705366  1
  Si  Si116  1  0.97425644  0.83290515  0.38500716  1
  Si  Si117  1  0.80480523  0.07893989  0.38335699  1
  Si  Si118  1  0.80442808  0.42079216  0.39046611  1
  Si  Si119  1  0.81139352  0.92480094  0.88439383  1
  Si  Si120  1  0.85156427  0.42403228  0.11325295  1
  Si  Si121  1  0.31215916  0.16288113  0.88169409  1
  Si  Si122  1  0.97562101  0.83685830  0.88605107  1
  Si  Si123  1  0.19368246  0.91861352  0.11246109  1
  Si  Si124  1  0.02484404  0.34188444  0.61372424  1
  Si  Si125  1  0.63864210  0.83310469  0.38620079  1
  Si  Si126  1  0.69085252  0.34031012  0.11552124  1
  Si  Si127  1  0.85652894  0.42021065  0.61422717  1
  Si  Si128  1  0.69635147  0.66645698  0.61265015  1
  Si  Si129  1  0.14114151  0.08098852  0.38398020  1
  Si  Si130  1  0.52904581  0.08316215  0.61153058  1
  Si  Si131  1  0.14831473  0.41751897  0.39347417  1
  Si  Si132  1  0.63959949  0.66788106  0.38754859  1
  Si  Si133  1  0.18563559  0.08353633  0.11558287  1
  Si  Si134  1  0.52200223  0.41010473  0.11816126  1
  Si  Si135  1  0.19221255  0.58011439  0.12252864  1
  Si  Si136  1  0.19608680  0.41700438  0.61594262  1
  Si  Si137  1  0.64625232  0.16407805  0.88129414  1
  Si  Si138  1  0.47850273  0.08409248  0.88168744  1
  Si  Si139  1  0.30763040  0.84242869  0.88532864  1
  Si  Si140  1  0.64528417  0.32846468  0.88270657  1
  Si  Si141  1  0.14039998  0.91629147  0.38485707  1
  Si  Si142  1  0.81478309  0.08694337  0.88001701  1
  Si  Si143  1  0.79808922  0.57591481  0.88778166  1
  Si  Si144  1  0.47594053  0.41032070  0.38873944  1
  Si  Si145  1  0.85987049  0.08950210  0.60610860  1
  Si  Si146  1  0.47796431  0.57960994  0.39056014  1
  Si  Si147  1  0.52228295  0.41190202  0.61082485  1
  Si  Si148  1  0.81098953  0.41236340  0.88371323  1
  Si  Si149  1  0.02259777  0.17662899  0.60715766  1
  Si  Si150  1  0.80599777  0.58741751  0.38778194  1
  Si  Si151  1  0.03101646  0.83314158  0.11385010  1
  Si  Si152  1  0.35802789  0.32840802  0.61390921  1
  Si  Si153  1  0.18961578  0.91194288  0.61129065  1
  Si  Si154  1  0.35611427  0.67155278  0.61385119  1
  Si  Si155  1  0.30740033  0.16730355  0.38703366  1
  Si  Si156  1  0.69227047  0.33331017  0.61204233  1
  Si  Si157  1  0.02787592  0.65966914  0.61577633  1
  Si  Si158  1  0.35655799  0.65865729  0.11618649  1
  Si  Si159  1  0.01902705  0.16158490  0.11209282  1
  Si  Si160  1  0.36155165  0.16287120  0.60872241  1
  Si  Si161  1  0.35370030  0.33609608  0.11869057  1
  Si  Si162  1  0.03070600  0.82460369  0.61125150  1
  Si  Si163  1  0.31113874  0.32607160  0.88494038  1
  Si  Si164  1  0.13871792  0.92075385  0.88151800  1
  Si  Si165  1  0.31021410  0.33241501  0.39183391  1
  Si  Si166  1  0.34864795  0.17457334  0.11171746  1
  Si  Si167  1  0.52470773  0.91711154  0.61305596  1
  Si  Si168  1  0.85993836  0.58413068  0.61581367  1
  Si  Si169  1  0.69312203  0.16787181  0.61070794  1
  Si  Si170  1  0.14258800  0.08459190  0.87954105  1
  Si  Si171  1  0.97817366  0.33254666  0.88285733  1
  Si  Si172  1  0.19141139  0.41676773  0.11885583  1
  Si  Si173  1  0.80617970  0.91295351  0.38434802  1
  Si  Si174  1  0.03308472  0.66810200  0.12058758  1
  Si  Si175  1  0.47181938  0.91962497  0.88529502  1
  Si  Si176  1  0.97284165  0.15974029  0.38646906  1
  Si  Si177  1  0.47950474  0.40863151  0.88753689  1
  Si  Si178  1  0.47677678  0.92288672  0.38774278  1
  Si  Si179  1  0.68973188  0.83280700  0.61024452  1
  Si  Si180  1  0.97148185  0.66769770  0.38800162  1
  Si  Si181  1  0.14865240  0.41120866  0.88819035  1
  Si  Si182  1  0.31112833  0.83959369  0.39010281  1
  Si  Si183  1  0.97895513  0.16853085  0.88010395  1
  Si  Si184  1  0.69629561  0.17351260  0.11130427  1
  Si  Si185  1  0.64185805  0.33238570  0.38737785  1
  Si  Si186  1  0.19547232  0.58210663  0.61630539  1
  Si  Si187  1  0.86316742  0.58988547  0.11499891  1
  Si  Si188  1  0.85383209  0.08256917  0.11170881  1
  Si  Si189  1  0.35846187  0.83662138  0.61560965  1
  Si  Si190  1  0.69152775  0.83273401  0.11331521  1
  Si  Si191  1  0.13908843  0.58505768  0.39337158  1
  O  O192  1  0.26324599  0.12451779  0.08625356  1
  O  O193  1  0.28676880  0.11179848  0.57332427  1
  O  O194  1  0.27709989  0.60218376  0.09352601  1
  O  O195  1  0.26799057  0.62609144  0.58585416  1
  O  O196  1  0.61219923  0.13517823  0.07146030  1
  O  O197  1  0.60994638  0.11811383  0.58278186  1
  O  O198  1  0.59999104  0.60036669  0.07875381  1
  O  O199  1  0.62183254  0.61466010  0.57629125  1
  O  O200  1  0.93894005  0.10776027  0.08266400  1
  O  O201  1  0.93262013  0.13562542  0.57728163  1
  O  O202  1  0.95036910  0.61848415  0.09021327  1
  O  O203  1  0.94366438  0.61098062  0.58664360  1
  O  O204  1  0.11784736  0.36607643  0.07922598  1
  O  O205  1  0.10493450  0.37852429  0.58580015  1
  O  O206  1  0.11126356  0.86818956  0.08300681  1
  O  O207  1  0.11967507  0.84787552  0.58695199  1
  O  O208  1  0.43823454  0.36062860  0.08843248  1
  O  O209  1  0.44038394  0.35853802  0.58490576  1
  O  O210  1  0.44783357  0.85479823  0.07059607  1
  O  O211  1  0.43793034  0.87201829  0.58501542  1
  O  O212  1  0.75941808  0.38610173  0.08095790  1
  O  O213  1  0.77281019  0.37044178  0.58456102  1
  O  O214  1  0.77894594  0.83996225  0.08404278  1
  O  O215  1  0.76068641  0.86702652  0.57231759  1
  O  O216  1  0.28027341  0.39554671  0.09213408  1
  O  O217  1  0.27234265  0.37553766  0.58642882  1
  O  O218  1  0.26954321  0.89047033  0.07710542  1
  O  O219  1  0.27698313  0.88658759  0.58501488  1
  O  O220  1  0.59853173  0.37664763  0.08307334  1
  O  O221  1  0.60497645  0.37606663  0.58327110  1
  O  O222  1  0.63314709  0.90167677  0.08610626  1
  O  O223  1  0.60072070  0.87795269  0.58275395  1
  O  O224  1  0.92264858  0.38433064  0.07891025  1
  O  O225  1  0.93986567  0.39049121  0.58611318  1
  O  O226  1  0.95080775  0.87787261  0.07525214  1
  O  O227  1  0.95335372  0.87260850  0.57297340  1
  O  O228  1  0.09957462  0.12692517  0.08164441  1
  O  O229  1  0.09728562  0.14593552  0.57207328  1
  O  O230  1  0.11376022  0.63309113  0.09136225  1
  O  O231  1  0.10478730  0.62046112  0.58590351  1
  O  O232  1  0.42174910  0.15049768  0.07125757  1
  O  O233  1  0.44929918  0.13563247  0.58271633  1
  O  O234  1  0.43662440  0.62254622  0.08749899  1
  O  O235  1  0.42986484  0.64040002  0.57778597  1
  O  O236  1  0.78019545  0.14289583  0.08312547  1
  O  O237  1  0.77202997  0.13621635  0.58008121  1
  O  O238  1  0.78649488  0.64019260  0.08014720  1
  O  O239  1  0.78399801  0.63993341  0.58595438  1
  O  O240  1  0.06359658  0.11825221  0.41502169  1
  O  O241  1  0.06352438  0.12165773  0.90982693  1
  O  O242  1  0.05605095  0.62077344  0.42026937  1
  O  O243  1  0.03661723  0.59147605  0.92841684  1
  O  O244  1  0.39881311  0.12565733  0.41698247  1
  O  O245  1  0.39781164  0.11622169  0.91151100  1
  O  O246  1  0.40885204  0.61296224  0.43055607  1
  O  O247  1  0.37176653  0.59727745  0.92859429  1
  O  O248  1  0.73105415  0.12199391  0.41600624  1
  O  O249  1  0.73035500  0.11518424  0.90834463  1
  O  O250  1  0.73218459  0.63218141  0.41789828  1
  O  O251  1  0.70832084  0.58193504  0.91204144  1
  O  O252  1  0.24020763  0.37789970  0.42473536  1
  O  O253  1  0.22684212  0.35319356  0.91266276  1
  O  O254  1  0.23071554  0.87775132  0.41869739  1
  O  O255  1  0.22122579  0.87201425  0.91086267  1
  O  O256  1  0.56253672  0.36503759  0.42036383  1
  O  O257  1  0.56090848  0.35250101  0.91127250  1
  O  O258  1  0.56533827  0.87806514  0.41739293  1
  O  O259  1  0.54302607  0.86483952  0.91949789  1
  O  O260  1  0.88919254  0.38245585  0.42880705  1
  O  O261  1  0.89393959  0.36116938  0.91069738  1
  O  O262  1  0.89692634  0.87434116  0.41629292  1
  O  O263  1  0.89380396  0.87403489  0.91165670  1
  O  O264  1  0.07744463  0.37667876  0.42694010  1
  O  O265  1  0.06223915  0.37895150  0.91279369  1
  O  O266  1  0.06382024  0.87530074  0.41619074  1
  O  O267  1  0.05639149  0.89218545  0.91079143  1
  O  O268  1  0.40134485  0.37168527  0.42319018  1
  O  O269  1  0.39712164  0.37164215  0.91417125  1
  O  O270  1  0.39662475  0.88976847  0.41810297  1
  O  O271  1  0.37894436  0.90636033  0.90695930  1
  O  O272  1  0.72421151  0.38171164  0.41884903  1
  O  O273  1  0.72918280  0.37722255  0.91174998  1
  O  O274  1  0.73113486  0.87054094  0.41602026  1
  O  O275  1  0.73062365  0.90892589  0.91801573  1
  O  O276  1  0.23095796  0.12326548  0.41564304  1
  O  O277  1  0.22991081  0.12906557  0.90886851  1
  O  O278  1  0.22052571  0.62969348  0.42979386  1
  O  O279  1  0.20235934  0.65833549  0.92741267  1
  O  O280  1  0.56546737  0.13224519  0.41973275  1
  O  O281  1  0.56346552  0.13342619  0.90909144  1
  O  O282  1  0.57001805  0.62032907  0.41892809  1
  O  O283  1  0.54392411  0.65090912  0.92619901  1
  O  O284  1  0.89735685  0.11307667  0.41472152  1
  O  O285  1  0.89482771  0.14009894  0.90786767  1
  O  O286  1  0.89439756  0.62902066  0.42039024  1
  O  O287  1  0.86397086  0.63626103  0.92121229  1
  O  O288  1  0.17373136  0.00179114  0.08324352  1
  O  O289  1  0.15792678  -0.01380658  0.57438422  1
  O  O290  1  0.16751096  0.49952009  0.09293060  1
  O  O291  1  0.19223132  0.49931803  0.58622777  1
  O  O292  1  0.49621507  0.00651384  0.06302853  1
  O  O293  1  0.51402646  0.00052155  0.58299200  1
  O  O294  1  0.49982507  0.49245575  0.09286926  1
  O  O295  1  0.50183296  0.48780190  0.57454982  1
  O  O296  1  0.82481863  0.00636850  0.07695937  1
  O  O297  1  0.84823948  0.01173024  0.57123209  1
  O  O298  1  0.84576657  0.50749675  0.08503478  1
  O  O299  1  0.83651639  0.50222438  0.58560781  1
  O  O300  1  -0.00007752  0.23773676  0.07304355  1
  O  O301  1  0.00598228  0.26174943  0.58266588  1
  O  O302  1  0.02093008  0.74825425  0.08680673  1
  O  O303  1  0.01338825  0.74063673  0.58430825  1
  O  O304  1  0.32083676  0.25833171  0.08594144  1
  O  O305  1  0.34386934  0.24693921  0.58339986  1
  O  O306  1  0.32935235  0.73369762  0.07991598  1
  O  O307  1  0.33804230  0.75534194  0.58661017  1
  O  O308  1  0.69028174  0.25869410  0.08495515  1
  O  O309  1  0.67776978  0.25074985  0.58283832  1
  O  O310  1  0.64411419  0.75793530  0.08649867  1
  O  O311  1  0.67436471  0.74895241  0.58448520  1
  O  O312  1  0.14905152  -0.00116499  0.41617086  1
  O  O313  1  0.15630151  0.00314831  0.91044287  1
  O  O314  1  0.15124250  0.50153700  0.42234188  1
  O  O315  1  0.17691603  0.48574549  0.92383976  1
  O  O316  1  0.49072114  0.00510421  0.41916780  1
  O  O317  1  0.49951773  0.00310649  0.90919666  1
  O  O318  1  0.49275078  0.49383786  0.41457721  1
  O  O319  1  0.50456298  0.48336504  0.92354723  1
  O  O320  1  0.80635506  -0.00394661  0.41348682  1
  O  O321  1  0.84341530  0.00768231  0.90808970  1
  O  O322  1  0.80670131  0.50544931  0.41866975  1
  O  O323  1  0.83366098  0.49269146  0.91178976  1
  O  O324  1  0.31525081  0.24907012  0.42229487  1
  O  O325  1  0.32895236  0.24385388  0.91341088  1
  O  O326  1  0.32901996  0.76355625  0.42872600  1
  O  O327  1  0.33915191  0.76804728  0.92012203  1
  O  O328  1  0.65787913  0.24939776  0.41683627  1
  O  O329  1  0.66730541  0.24586531  0.90982881  1
  O  O330  1  0.64021456  0.75085216  0.41759120  1
  O  O331  1  0.69247828  0.75161616  0.92724847  1
  O  O332  1  0.97820133  0.23529249  0.42640848  1
  O  O333  1  0.99644979  0.25001725  0.90983363  1
  O  O334  1  0.98197108  0.75070134  0.41891005  1
  O  O335  1  0.99601113  0.76062490  0.92216243  1
  O  O336  1  0.19886016  0.08132980  0.19391962  1
  O  O337  1  0.21219974  0.08198102  0.69482604  1
  O  O338  1  0.20923738  0.58241816  0.20277163  1
  O  O339  1  0.21192099  0.58041978  0.69619576  1
  O  O340  1  0.54291544  0.08482356  0.19698560  1
  O  O341  1  0.54673365  0.08350969  0.69206620  1
  O  O342  1  0.54680485  0.58772633  0.19553235  1
  O  O343  1  0.54563487  0.57960088  0.69957837  1
  O  O344  1  0.87260637  0.08378863  0.19273889  1
  O  O345  1  0.87734440  0.08686082  0.68743704  1
  O  O346  1  0.87739337  0.58635150  0.19591179  1
  O  O347  1  0.87665142  0.58086254  0.69592776  1
  O  O348  1  0.04844806  0.32570410  0.20045717  1
  O  O349  1  0.04404697  0.33791216  0.69411265  1
  O  O350  1  0.04843585  0.83388275  0.19312674  1
  O  O351  1  0.04270448  0.83031136  0.69206645  1
  O  O352  1  0.37494639  0.33390621  0.19889116  1
  O  O353  1  0.37755590  0.33039700  0.69452380  1
  O  O354  1  0.37789570  0.83129052  0.20356492  1
  O  O355  1  0.37774458  0.83615649  0.69591943  1
  O  O356  1  0.71062791  0.34010754  0.19502017  1
  O  O357  1  0.71146417  0.33207396  0.69264883  1
  O  O358  1  0.70994032  0.83302289  0.19580141  1
  O  O359  1  0.71101623  0.83606707  0.69086161  1
  O  O360  1  0.20801460  0.41500663  0.19973509  1
  O  O361  1  0.21222108  0.41551016  0.69626857  1
  O  O362  1  0.21044130  0.91662600  0.19328921  1
  O  O363  1  0.20911236  0.91598243  0.69239084  1
  O  O364  1  0.54713506  0.40632422  0.19708525  1
  O  O365  1  0.54305144  0.41201976  0.69194031  1
  O  O366  1  0.54492159  0.91665835  0.20090275  1
  O  O367  1  0.54353653  0.91981112  0.69316916  1
  O  O368  1  0.86396452  0.42064922  0.19296893  1
  O  O369  1  0.87549148  0.41725230  0.69455936  1
  O  O370  1  0.87593040  0.91775237  0.20053633  1
  O  O371  1  0.87940605  0.91723316  0.69699464  1
  O  O372  1  0.03356502  0.16496342  0.19201663  1
  O  O373  1  0.03837274  0.17117085  0.68749777  1
  O  O374  1  0.04869811  0.66751142  0.20032466  1
  O  O375  1  0.04492901  0.66385028  0.69562815  1
  O  O376  1  0.37760039  0.17495537  0.19104078  1
  O  O377  1  0.37956987  0.16421634  0.68987796  1
  O  O378  1  0.37792060  0.66384266  0.19710527  1
  O  O379  1  0.37551878  0.66876398  0.69412771  1
  O  O380  1  0.71044128  0.16600534  0.19111014  1
  O  O381  1  0.71146081  0.16758771  0.69134656  1
  O  O382  1  0.71177830  0.66606998  0.20322368  1
  O  O383  1  0.71307957  0.66544462  0.69336138  1
  O  O384  1  0.12143796  0.08023698  0.30516462  1
  O  O385  1  0.12092081  0.08303989  0.79996990  1
  O  O386  1  0.12397465  0.58548256  0.31308165  1
  O  O387  1  0.12210204  0.58087128  0.80235221  1
  O  O388  1  0.46564292  0.08468231  0.30828252  1
  O  O389  1  0.45944065  0.08489135  0.80084315  1
  O  O390  1  0.45434492  0.58894863  0.31156132  1
  O  O391  1  0.45368594  0.58070704  0.80114393  1
  O  O392  1  0.78641245  0.08329546  0.30374535  1
  O  O393  1  0.79346076  0.08699758  0.79899345  1
  O  O394  1  0.79060001  0.58581299  0.30815927  1
  O  O395  1  0.78813395  0.57916633  0.80549447  1
  O  O396  1  0.29167616  0.33274851  0.31191660  1
  O  O397  1  0.29362974  0.32951566  0.80417104  1
  O  O398  1  0.29176509  0.83466574  0.31004814  1
  O  O399  1  0.28801357  0.83712060  0.80369359  1
  O  O400  1  0.62199152  0.33543855  0.30837020  1
  O  O401  1  0.62644714  0.33006772  0.80179180  1
  O  O402  1  0.62259049  0.83263504  0.30664849  1
  O  O403  1  0.62374899  0.83571428  0.79845176  1
  O  O404  1  0.94759343  0.32496135  0.30326300  1
  O  O405  1  0.95818960  0.33315239  0.80200084  1
  O  O406  1  0.95395551  0.83192449  0.30685291  1
  O  O407  1  0.95847222  0.83454815  0.80455960  1
  O  O408  1  0.13599658  0.41728906  0.31401467  1
  O  O409  1  0.12739279  0.41329719  0.80657971  1
  O  O410  1  0.12536536  0.91592101  0.30591349  1
  O  O411  1  0.12167955  0.91944607  0.80053359  1
  O  O412  1  0.45258094  0.40516706  0.30997733  1
  O  O413  1  0.45953848  0.41083710  0.80588736  1
  O  O414  1  0.45908552  0.92039730  0.30835037  1
  O  O415  1  0.45737489  0.91858850  0.80350384  1
  O  O416  1  0.79051554  0.41824791  0.31011111  1
  O  O417  1  0.79016434  0.41197645  0.80279893  1
  O  O418  1  0.78738199  0.91444075  0.30501688  1
  O  O419  1  0.79160586  0.92141596  0.80282593  1
  O  O420  1  0.29043969  0.17326716  0.30917730  1
  O  O421  1  0.29832752  0.16573153  0.80208711  1
  O  O422  1  0.29055841  0.66751862  0.30395456  1
  O  O423  1  0.28817631  0.66767596  0.80148050  1
  O  O424  1  0.62315030  0.16529365  0.30641099  1
  O  O425  1  0.62663664  0.16565821  0.80041512  1
  O  O426  1  0.62180799  0.66751038  0.30790910  1
  O  O427  1  0.62297055  0.66877059  0.79914587  1
  O  O428  1  0.95393162  0.16377179  0.30616568  1
  O  O429  1  0.95919812  0.16806027  0.79939383  1
  O  O430  1  0.95289817  0.66584255  0.30901029  1
  O  O431  1  0.95317403  0.66639497  0.80033175  1
  F  F432  1  0.04343035  0.00071822  0.20143244  1
  F  F433  1  0.04436083  -0.00025046  0.69603695  1
  F  F434  1  0.05042406  0.51101940  0.20536286  1
  F  F435  1  0.04551183  0.49762532  0.70208294  1
  F  F436  1  0.38303883  -0.00870401  0.19895780  1
  F  F437  1  0.38116086  -0.00003583  0.70017536  1
  F  F438  1  0.36586409  0.49863160  0.20539937  1
  F  F439  1  0.37753686  0.49477184  0.70138297  1
  F  F440  1  0.71250781  0.00160217  0.20310001  1
  F  F441  1  0.71273926  0.00166972  0.69794805  1
  F  F442  1  0.71206783  0.50048234  0.20484093  1
  F  F443  1  0.71330052  0.49693807  0.70073799  1
  F  F444  1  0.21368428  0.25501953  0.20413722  1
  F  F445  1  0.21483579  0.25534305  0.69729927  1
  F  F446  1  0.21255482  0.75150906  0.20499451  1
  F  F447  1  0.21045131  0.75046069  0.70179287  1
  F  F448  1  0.54222625  0.24964268  0.20209123  1
  F  F449  1  0.54772154  0.24873201  0.69858686  1
  F  F450  1  0.54402745  0.74933776  0.20559071  1
  F  F451  1  0.54198983  0.75153145  0.69811404  1
  F  F452  1  0.87451606  0.24898797  0.19879262  1
  F  F453  1  0.87957973  0.25266477  0.69817142  1
  F  F454  1  0.87663961  0.74887116  0.20222989  1
  F  F455  1  0.87818966  0.75093020  0.69974392  1
  F  F456  1  0.28283863  -0.00970735  0.30212706  1
  F  F457  1  0.28869047  0.00052018  0.79548852  1
  F  F458  1  0.28896839  0.49893739  0.30579603  1
  F  F459  1  0.29010474  0.49563414  0.79845622  1
  F  F460  1  0.62502494  0.00097681  0.29984927  1
  F  F461  1  0.62386834  0.00344893  0.79467073  1
  F  F462  1  0.63441139  0.50072615  0.30514208  1
  F  F463  1  0.62219891  0.49201021  0.79661644  1
  F  F464  1  0.94949790  0.00922903  0.30405519  1
  F  F465  1  0.95721110  0.00609287  0.79254450  1
  F  F466  1  0.94946369  0.51113370  0.30476203  1
  F  F467  1  0.95395702  0.49598704  0.79781447  1
  F  F468  1  0.11895210  0.24975331  0.30658513  1
  F  F469  1  0.12045513  0.25257794  0.79587676  1
  F  F470  1  0.12952123  0.75289460  0.30572100  1
  F  F471  1  0.11994160  0.75257042  0.79640686  1
  F  F472  1  0.45472198  0.24719271  0.30060994  1
  F  F473  1  0.45721901  0.24714405  0.79385668  1
  F  F474  1  0.45799790  0.74927322  0.30267309  1
  F  F475  1  0.45423928  0.75126870  0.79592115  1
  F  F476  1  0.78776131  0.24932680  0.29774734  1
  F  F477  1  0.79049571  0.24876587  0.79415019  1
  F  F478  1  0.78809053  0.75281353  0.30159121  1
  F  F479  1  0.78837090  0.75297334  0.79383242  1
