# generated using pymatgen
data_K24Na3Li5Mg64Fe17Si79(O5F)48
_symmetry_space_group_name_H-M   'P 1'
_cell_length_a   16.10476588
_cell_length_b   18.59155227
_cell_length_c   20.56051404
_cell_angle_alpha   90.01049550
_cell_angle_beta   100.00141895
_cell_angle_gamma   89.97480255
_symmetry_Int_Tables_number   1
_chemical_formula_structural   K24Na3Li5Mg64Fe17Si79(O5F)48
_chemical_formula_sum   'K24 Na3 Li5 Mg64 Fe17 Si79 O240 F48'
_cell_volume   6062.52516051
_cell_formula_units_Z   1
loop_
 _symmetry_equiv_pos_site_id
 _symmetry_equiv_pos_as_xyz
  1  'x, y, z'
loop_
 _atom_site_type_symbol
 _atom_site_label
 _atom_site_symmetry_multiplicity
 _atom_site_fract_x
 _atom_site_fract_y
 _atom_site_fract_z
 _atom_site_occupancy
  K  K0  1  -0.00079473  -0.00529560  0.00571779  1
  K  K1  1  0.00359922  -0.01234819  0.48679460  1
  K  K2  1  0.00598246  0.51230155  0.00780860  1
  K  K3  1  -0.00000984  0.51449072  0.49442548  1
  K  K4  1  0.33822903  -0.00189881  0.00701164  1
  K  K5  1  0.33742553  -0.00325100  0.49198728  1
  K  K6  1  0.34243048  0.50246639  -0.00358905  1
  K  K7  1  0.33018304  0.51259615  0.49418764  1
  K  K8  1  0.65988064  -0.00425880  0.00135349  1
  K  K9  1  0.64851577  0.00172517  0.49839585  1
  K  K10  1  0.66185724  0.50506392  0.00104900  1
  K  K11  1  0.66472891  0.50646298  0.49862043  1
  K  K12  1  0.18370637  0.25330798  0.01066876  1
  K  K13  1  0.17272469  0.24695144  0.49232467  1
  K  K14  1  0.17476114  0.75319339  0.00767200  1
  K  K15  1  0.16425608  0.74667749  0.48408764  1
  K  K16  1  0.50860669  0.24442672  0.00291918  1
  K  K17  1  0.49710893  0.24497598  0.49306101  1
  K  K18  1  0.48753461  0.74286762  -0.00327620  1
  K  K19  1  0.49998644  0.74886823  0.50271507  1
  K  K20  1  0.83193822  0.25798777  0.00450641  1
  K  K21  1  0.82228218  0.25175194  0.49438899  1
  K  K22  1  0.82889160  0.74227782  0.00742646  1
  K  K23  1  0.82176953  0.74094361  0.49554718  1
  Na  Na24  1  0.17102714  0.49999817  0.75564997  1
  Na  Na25  1  0.66303131  0.58250767  0.74957839  1
  Na  Na26  1  0.33376290  0.57875020  0.76013031  1
  Li  Li27  1  0.50110611  -0.00103433  0.74044466  1
  Li  Li28  1  0.00186632  0.75437151  0.24219300  1
  Li  Li29  1  0.66596902  0.41788689  0.25642959  1
  Li  Li30  1  0.84348636  0.82769184  0.24385948  1
  Li  Li31  1  0.15930341  0.82972735  0.23987313  1
  Mg  Mg32  1  0.66537814  0.25157218  0.25129109  1
  Mg  Mg33  1  0.00051894  0.25154948  0.75091810  1
  Mg  Mg34  1  -0.00126242  0.24820320  0.25046739  1
  Mg  Mg35  1  0.50182076  0.49922014  0.25704988  1
  Mg  Mg36  1  0.67313979  0.74924084  0.25234331  1
  Mg  Mg37  1  0.33286201  0.24937740  0.25132906  1
  Mg  Mg38  1  0.50195934  -0.00166362  0.24498708  1
  Mg  Mg39  1  0.49982052  0.49916044  0.75299012  1
  Mg  Mg40  1  0.33089124  0.75157692  0.24634456  1
  Mg  Mg41  1  0.83238359  0.00009787  0.74630205  1
  Mg  Mg42  1  0.16797163  -0.00360156  0.24571737  1
  Mg  Mg43  1  0.83666005  -0.00305295  0.24603317  1
  Mg  Mg44  1  0.16824253  -0.00058565  0.75071688  1
  Mg  Mg45  1  0.82982205  0.49946756  0.25497151  1
  Mg  Mg46  1  0.33223291  0.74841537  0.75270316  1
  Mg  Mg47  1  0.66524487  0.74960718  0.74673758  1
  Mg  Mg48  1  -0.00028565  0.75060189  0.74888579  1
  Mg  Mg49  1  0.83238104  0.50198458  0.75003912  1
  Mg  Mg50  1  0.66612860  0.24916346  0.74950545  1
  Mg  Mg51  1  0.33435536  0.24890546  0.74991327  1
  Mg  Mg52  1  0.16417992  0.50370250  0.25177572  1
  Mg  Mg53  1  0.82921392  0.33414486  0.25461983  1
  Mg  Mg54  1  0.66935946  0.58063336  0.25524125  1
  Mg  Mg55  1  -0.00075022  0.58846227  0.25394796  1
  Mg  Mg56  1  0.50158738  0.33601984  0.25575267  1
  Mg  Mg57  1  0.49912760  0.66439350  0.75004095  1
  Mg  Mg58  1  0.83027009  0.66696360  0.74659515  1
  Mg  Mg59  1  0.50316137  0.33258153  0.75397981  1
  Mg  Mg60  1  0.49926556  0.16432390  0.24696958  1
  Mg  Mg61  1  0.33731494  0.91487172  0.74934896  1
  Mg  Mg62  1  0.16651272  0.33460322  0.25570022  1
  Mg  Mg63  1  0.00066558  0.08536420  0.74951734  1
  Mg  Mg64  1  0.33099423  0.08352794  0.24661414  1
  Mg  Mg65  1  0.67182534  0.91410456  0.24570521  1
  Mg  Mg66  1  0.00113547  0.41742948  0.75059137  1
  Mg  Mg67  1  0.16834588  0.66674936  0.75462534  1
  Mg  Mg68  1  -0.00053289  0.08185005  0.24730684  1
  Mg  Mg69  1  0.33523173  0.41482900  0.75676289  1
  Mg  Mg70  1  0.83174933  0.16427780  0.24670475  1
  Mg  Mg71  1  0.83223842  0.16675392  0.74718093  1
  Mg  Mg72  1  0.50016287  0.83274726  0.24463513  1
  Mg  Mg73  1  0.32962540  0.91352677  0.24334714  1
  Mg  Mg74  1  0.33409887  0.41721560  0.25609275  1
  Mg  Mg75  1  0.16987628  0.83487236  0.75250496  1
  Mg  Mg76  1  0.66276435  0.08216634  0.74491186  1
  Mg  Mg77  1  0.16190194  0.67009188  0.25088197  1
  Mg  Mg78  1  0.00068033  0.58386038  0.74858283  1
  Mg  Mg79  1  0.66139565  0.91756811  0.74252844  1
  Mg  Mg80  1  0.66629496  0.08294043  0.24611053  1
  Mg  Mg81  1  0.83728649  0.66703194  0.25621069  1
  Mg  Mg82  1  0.83021663  0.83388161  0.74284040  1
  Mg  Mg83  1  0.00053287  0.91679075  0.74900539  1
  Mg  Mg84  1  0.16884440  0.16514752  0.75022408  1
  Mg  Mg85  1  0.66639961  0.41494187  0.75255017  1
  Mg  Mg86  1  0.49895750  0.83636813  0.74715283  1
  Mg  Mg87  1  0.16780228  0.33380988  0.75187923  1
  Mg  Mg88  1  0.00099202  0.91123795  0.24341266  1
  Mg  Mg89  1  0.33727303  0.08180111  0.74764008  1
  Mg  Mg90  1  0.33053392  0.58565278  0.25259356  1
  Mg  Mg91  1  0.50130030  0.16259265  0.74711543  1
  Mg  Mg92  1  0.83264064  0.33606761  0.75277668  1
  Mg  Mg93  1  -0.00184670  0.41676828  0.25548335  1
  Mg  Mg94  1  0.50058921  0.66608570  0.25144166  1
  Mg  Mg95  1  0.16782332  0.16398794  0.24883503  1
  Fe  Fe96  1  0.47649798  0.42224151  0.39646911  1
  Fe  Fe97  1  0.51864915  0.91716380  0.60477554  1
  Fe  Fe98  1  0.53102695  0.08012433  0.10774809  1
  Fe  Fe99  1  0.64768736  0.32988453  0.89201428  1
  Fe  Fe100  1  0.14161695  0.58407242  0.39402789  1
  Fe  Fe101  1  0.85921841  0.08364438  0.10790827  1
  Fe  Fe102  1  0.30830910  0.16492347  0.39011534  1
  Fe  Fe103  1  0.18591981  0.91781794  0.10283395  1
  Fe  Fe104  1  0.19034436  0.09066085  0.10656315  1
  Fe  Fe105  1  0.52085456  0.08996554  0.60452781  1
  Fe  Fe106  1  0.80678505  0.58036768  0.39493900  1
  Fe  Fe107  1  0.02073176  0.66864390  0.10894752  1
  Fe  Fe108  1  0.30769367  0.83522502  0.89126489  1
  Fe  Fe109  1  0.68771169  0.66533621  0.60658284  1
  Fe  Fe110  1  0.48176072  0.58110710  0.89448464  1
  Fe  Fe111  1  0.19255287  0.58093039  0.11072592  1
  Fe  Fe112  1  0.36115235  0.82788536  0.10621182  1
  Si  Si113  1  0.18536638  0.41158065  0.11736261  1
  Si  Si114  1  0.80618434  0.08232091  0.38422940  1
  Si  Si115  1  0.35344520  0.82716374  0.60997491  1
  Si  Si116  1  0.97177541  0.16276131  0.38540651  1
  Si  Si117  1  0.97533048  0.83578634  0.38049043  1
  Si  Si118  1  0.63940993  0.67157878  0.38692605  1
  Si  Si119  1  0.69503281  0.83816530  0.60537400  1
  Si  Si120  1  0.85362760  0.41579720  0.11988288  1
  Si  Si121  1  0.14143858  0.91574843  0.38126913  1
  Si  Si122  1  0.02777540  0.83541208  0.61378142  1
  Si  Si123  1  0.97174212  0.16878164  0.88442937  1
  Si  Si124  1  0.47642667  0.59320812  0.38928899  1
  Si  Si125  1  0.13814318  0.41319070  0.88683522  1
  Si  Si126  1  0.97333038  0.32697242  0.38876695  1
  Si  Si127  1  0.47897057  0.91477286  0.38083398  1
  Si  Si128  1  0.97534154  0.66940360  0.88393296  1
  Si  Si129  1  0.52438301  0.41980356  0.12021110  1
  Si  Si130  1  0.81257113  0.58951910  0.88464278  1
  Si  Si131  1  0.86411093  0.58149120  0.61281061  1
  Si  Si132  1  0.86340280  0.92006718  0.61143219  1
  Si  Si133  1  0.19207520  0.41848174  0.61771068  1
  Si  Si134  1  0.13260715  0.92062052  0.88552447  1
  Si  Si135  1  0.86324800  0.41582141  0.61642592  1
  Si  Si136  1  0.18842615  0.58500704  0.61828582  1
  Si  Si137  1  0.01616814  0.83459569  0.10490750  1
  Si  Si138  1  0.68788044  0.33528480  0.11991547  1
  Si  Si139  1  0.64465899  0.67397341  0.88825308  1
  Si  Si140  1  0.30445218  0.33076982  0.88740301  1
  Si  Si141  1  0.69728803  0.17156474  0.60981360  1
  Si  Si142  1  0.02948444  0.16658310  0.61406106  1
  Si  Si143  1  0.53362318  0.90830770  0.10859587  1
  Si  Si144  1  0.47499266  0.40759289  0.89318450  1
  Si  Si145  1  0.01846359  0.33398086  0.11987759  1
  Si  Si146  1  0.64217046  0.16326919  0.38472908  1
  Si  Si147  1  0.19283823  0.91678860  0.61369560  1
  Si  Si148  1  0.64606539  0.83596953  0.38264063  1
  Si  Si149  1  0.02812767  0.33191498  0.61502310  1
  Si  Si150  1  0.64157750  0.32770475  0.39092799  1
  Si  Si151  1  0.13761082  0.41197878  0.39143200  1
  Si  Si152  1  0.64374634  0.83762393  0.88247491  1
  Si  Si153  1  0.47685418  0.07926025  0.38404814  1
  Si  Si154  1  0.69417111  0.33809025  0.61533812  1
  Si  Si155  1  0.35387900  0.33673905  0.61753351  1
  Si  Si156  1  0.35225971  0.17373661  0.61206565  1
  Si  Si157  1  0.81074356  0.91909204  0.38242813  1
  Si  Si158  1  0.69960762  0.82828419  0.11595867  1
  Si  Si159  1  0.51428087  0.57911379  0.61083143  1
  Si  Si160  1  0.31118857  0.83759397  0.38207656  1
  Si  Si161  1  0.97116917  0.67001711  0.39428508  1
  Si  Si162  1  0.13521879  0.58248813  0.88666190  1
  Si  Si163  1  0.81226055  0.42404526  0.89015479  1
  Si  Si164  1  0.30262724  0.66557690  0.89346876  1
  Si  Si165  1  0.86301199  0.08630132  0.61246785  1
  Si  Si166  1  0.02553498  0.17242718  0.11241486  1
  Si  Si167  1  0.85630847  0.57874791  0.11643044  1
  Si  Si168  1  0.97056776  0.83356840  0.88094471  1
  Si  Si169  1  0.53094384  0.58370349  0.11982149  1
  Si  Si170  1  0.52138909  0.41330375  0.61597970  1
  Si  Si171  1  0.31010964  0.67353204  0.38843231  1
  Si  Si172  1  0.13594277  0.08027031  0.38706819  1
  Si  Si173  1  0.69453729  0.66449619  0.11849585  1
  Si  Si174  1  0.02738782  0.66949020  0.61489081  1
  Si  Si175  1  0.30649714  0.33587440  0.39213615  1
  Si  Si176  1  0.30884447  0.16478922  0.88536169  1
  Si  Si177  1  0.35215202  0.66420798  0.61539189  1
  Si  Si178  1  0.36516311  0.17176891  0.10911795  1
  Si  Si179  1  0.47691401  0.91946761  0.88492289  1
  Si  Si180  1  0.81019154  0.07852112  0.88093236  1
  Si  Si181  1  0.35821921  0.33761009  0.11818249  1
  Si  Si182  1  0.85563936  0.91699279  0.10930804  1
  Si  Si183  1  0.80803662  0.91518225  0.87911021  1
  Si  Si184  1  0.69635389  0.17242719  0.11119262  1
  Si  Si185  1  0.13895639  0.08660543  0.88449595  1
  Si  Si186  1  0.47622504  0.08561622  0.88232063  1
  Si  Si187  1  0.97352683  0.33463935  0.88759971  1
  Si  Si188  1  0.64815838  0.16073142  0.88549855  1
  Si  Si189  1  0.81021379  0.40940534  0.39241387  1
  Si  Si190  1  0.19344561  0.08223938  0.61399947  1
  Si  Si191  1  0.36213312  0.65732902  0.11444331  1
  O  O192  1  0.28496552  0.12599103  0.07285399  1
  O  O193  1  0.26887108  0.12209951  0.58443536  1
  O  O194  1  0.29868666  0.59292846  0.08510106  1
  O  O195  1  0.26846195  0.61463092  0.58653067  1
  O  O196  1  0.62515230  0.11681278  0.07541789  1
  O  O197  1  0.61621527  0.13025825  0.57180195  1
  O  O198  1  0.61226778  0.61405772  0.08968086  1
  O  O199  1  0.58803983  0.61230866  0.57550657  1
  O  O200  1  0.95722481  0.11408730  0.07710113  1
  O  O201  1  0.94280981  0.12282297  0.58401998  1
  O  O202  1  0.92990155  0.60311324  0.07758367  1
  O  O203  1  0.94269157  0.62322227  0.58609910  1
  O  O204  1  0.10420776  0.35621166  0.09147527  1
  O  O205  1  0.10560568  0.37159440  0.58670473  1
  O  O206  1  0.09418705  0.85758645  0.06809914  1
  O  O207  1  0.10483538  0.87354549  0.58348270  1
  O  O208  1  0.43561854  0.37777835  0.08870531  1
  O  O209  1  0.43850964  0.36203187  0.58841499  1
  O  O210  1  0.46576457  0.84725308  0.08011050  1
  O  O211  1  0.42777143  0.85349566  0.57250211  1
  O  O212  1  0.77151343  0.36480810  0.09050545  1
  O  O213  1  0.77026027  0.38101240  0.58647998  1
  O  O214  1  0.78238292  0.85441814  0.08570934  1
  O  O215  1  0.78138352  0.87340353  0.58097223  1
  O  O216  1  0.26830427  0.37803183  0.08923239  1
  O  O217  1  0.27382218  0.38938670  0.58647290  1
  O  O218  1  0.28041768  0.89178517  0.06750889  1
  O  O219  1  0.26784885  0.87759049  0.58330109  1
  O  O220  1  0.60483247  0.38522468  0.09056445  1
  O  O221  1  0.60376165  0.37837248  0.58794212  1
  O  O222  1  0.62310534  0.88290033  0.08438306  1
  O  O223  1  0.61865558  0.89038385  0.57352019  1
  O  O224  1  0.93791110  0.38752749  0.09092023  1
  O  O225  1  0.93591893  0.36856712  0.58708876  1
  O  O226  1  0.93804732  0.89310901  0.07739271  1
  O  O227  1  0.94466711  0.88471933  0.58389261  1
  O  O228  1  0.11172929  0.16665034  0.08267387  1
  O  O229  1  0.10577785  0.12647993  0.58489227  1
  O  O230  1  0.11008966  0.64158800  0.06742306  1
  O  O231  1  0.10465687  0.63263690  0.58433968  1
  O  O232  1  0.44665699  0.14755553  0.07760166  1
  O  O233  1  0.42949382  0.15437559  0.57600524  1
  O  O234  1  0.45326536  0.63648091  0.08987902  1
  O  O235  1  0.42666540  0.62509414  0.58183099  1
  O  O236  1  0.78293346  0.15951276  0.08255476  1
  O  O237  1  0.78153485  0.13621094  0.58372315  1
  O  O238  1  0.77191410  0.62829678  0.08754544  1
  O  O239  1  0.77744194  0.61588912  0.57599114  1
  O  O240  1  0.05060331  0.11008095  0.41564458  1
  O  O241  1  0.06276061  0.13006549  0.91207109  1
  O  O242  1  0.05767976  0.63072660  0.43114109  1
  O  O243  1  0.05451836  0.61749168  0.91557229  1
  O  O244  1  0.40336276  0.10748259  0.42166395  1
  O  O245  1  0.39712237  0.12232877  0.91411743  1
  O  O246  1  0.39633820  0.62788226  0.41842239  1
  O  O247  1  0.38341212  0.61550481  0.92216546  1
  O  O248  1  0.72748816  0.11653321  0.41552513  1
  O  O249  1  0.72635550  0.10257965  0.91010700  1
  O  O250  1  0.71125154  0.61870060  0.42474925  1
  O  O251  1  0.73344091  0.62675654  0.91236864  1
  O  O252  1  0.21562665  0.35586940  0.41625311  1
  O  O253  1  0.22503329  0.36828381  0.91633597  1
  O  O254  1  0.23226285  0.87593446  0.41180807  1
  O  O255  1  0.21170250  0.87482355  0.91953459  1
  O  O256  1  0.56926749  0.36057035  0.42809592  1
  O  O257  1  0.54866257  0.35087025  0.92400824  1
  O  O258  1  0.56452962  0.86848044  0.41180771  1
  O  O259  1  0.56622879  0.87527566  0.91207612  1
  O  O260  1  0.89276498  0.35582095  0.42013441  1
  O  O261  1  0.89996993  0.37743736  0.91743873  1
  O  O262  1  0.90010442  0.87857770  0.41307356  1
  O  O263  1  0.88613382  0.86085140  0.90836831  1
  O  O264  1  0.05640349  0.37433103  0.41927834  1
  O  O265  1  0.06323467  0.37300763  0.91933342  1
  O  O266  1  0.06589570  0.87611938  0.41395491  1
  O  O267  1  0.04554186  0.89045989  0.90847447  1
  O  O268  1  0.37532570  0.39560506  0.42449404  1
  O  O269  1  0.38816533  0.37559139  0.91850535  1
  O  O270  1  0.39845084  0.88361490  0.41198226  1
  O  O271  1  0.40506588  0.88916775  0.92353864  1
  O  O272  1  0.73218649  0.36778448  0.41975310  1
  O  O273  1  0.73865766  0.39248335  0.92597716  1
  O  O274  1  0.73161243  0.88268975  0.41292374  1
  O  O275  1  0.72655531  0.88885492  0.91000428  1
  O  O276  1  0.21401539  0.12802351  0.42404526  1
  O  O277  1  0.22929956  0.12589872  0.91262043  1
  O  O278  1  0.23837412  0.63963102  0.42540526  1
  O  O279  1  0.22041635  0.62507891  0.91896621  1
  O  O280  1  0.56401817  0.12535360  0.41289576  1
  O  O281  1  0.56233430  0.13147723  0.91148895  1
  O  O282  1  0.55070761  0.65352214  0.41276817  1
  O  O283  1  0.57669965  0.64005547  0.92905204  1
  O  O284  1  0.88937828  0.13179770  0.41465277  1
  O  O285  1  0.89357878  0.12811808  0.91089584  1
  O  O286  1  0.89620560  0.64027401  0.43197915  1
  O  O287  1  0.89461451  0.64001347  0.91508406  1
  O  O288  1  0.15370072  0.00694715  0.06411467  1
  O  O289  1  0.18087053  -0.00006606  0.58452383  1
  O  O290  1  0.15905590  0.48606075  0.08028446  1
  O  O291  1  0.17139800  0.50102859  0.59169734  1
  O  O292  1  0.50890473  -0.01362224  0.07428643  1
  O  O293  1  0.49101529  0.00419488  0.56223866  1
  O  O294  1  0.51289367  0.50188024  0.08971803  1
  O  O295  1  0.50005372  0.49358205  0.58462542  1
  O  O296  1  0.82096600  -0.00740376  0.07389500  1
  O  O297  1  0.85299001  0.00375421  0.58349132  1
  O  O298  1  0.82861841  0.49562754  0.08987332  1
  O  O299  1  0.86910571  0.49686178  0.58787102  1
  O  O300  1  -0.01338919  0.25476159  0.09138152  1
  O  O301  1  0.02225686  0.24909831  0.58532134  1
  O  O302  1  -0.02042480  0.75762629  0.07407166  1
  O  O303  1  0.01454169  0.75280641  0.58579562  1
  O  O304  1  0.34811913  0.25752630  0.08530363  1
  O  O305  1  0.32205398  0.25669973  0.58933179  1
  O  O306  1  0.33120190  0.73295007  0.08013325  1
  O  O307  1  0.32852735  0.74457453  0.58278776  1
  O  O308  1  0.66470442  0.25565499  0.08785735  1
  O  O309  1  0.69437267  0.25658099  0.58412365  1
  O  O310  1  0.67845775  0.74572746  0.08673527  1
  O  O311  1  0.68332790  0.75937879  0.57115073  1
  O  O312  1  0.14811022  -0.00303427  0.41580574  1
  O  O313  1  0.14039210  0.00480684  0.91163129  1
  O  O314  1  0.15530956  0.48833244  0.42843709  1
  O  O315  1  0.14425774  0.49723699  0.91191255  1
  O  O316  1  0.49954131  -0.00381911  0.40968483  1
  O  O317  1  0.49432490  0.00405899  0.91059593  1
  O  O318  1  0.50288010  0.51746935  0.42601066  1
  O  O319  1  0.49567887  0.48544341  0.92769895  1
  O  O320  1  0.82331139  0.00123066  0.41545424  1
  O  O321  1  0.83480789  -0.00351293  0.90702283  1
  O  O322  1  0.82712555  0.48562979  0.43007643  1
  O  O323  1  0.83110810  0.50795550  0.91585147  1
  O  O324  1  0.33316301  0.25765183  0.42488215  1
  O  O325  1  0.31350833  0.24704441  0.91590723  1
  O  O326  1  0.32562163  0.75743558  0.41628918  1
  O  O327  1  0.31583054  0.74364054  0.92940147  1
  O  O328  1  0.65779768  0.24305993  0.41840357  1
  O  O329  1  0.67835982  0.23538800  0.92200829  1
  O  O330  1  0.66324690  0.75488751  0.41264840  1
  O  O331  1  0.66559334  0.75804108  0.91591369  1
  O  O332  1  0.99129691  0.24382602  0.41714693  1
  O  O333  1  0.97609308  0.25084924  0.91433706  1
  O  O334  1  0.98240837  0.75664190  0.41547678  1
  O  O335  1  0.99498062  0.75263870  0.90965173  1
  O  O336  1  0.20961029  0.08299055  0.19878690  1
  O  O337  1  0.20858901  0.08322408  0.69452198  1
  O  O338  1  0.21158528  0.58316465  0.20274146  1
  O  O339  1  0.20318617  0.59142586  0.69629032  1
  O  O340  1  0.54645271  0.08274927  0.19953221  1
  O  O341  1  0.54614798  0.08633008  0.69598844  1
  O  O342  1  0.54650686  0.58211204  0.20007579  1
  O  O343  1  0.53129371  0.58054617  0.69041722  1
  O  O344  1  0.87806221  0.08372690  0.19991910  1
  O  O345  1  0.88025534  0.08551631  0.69306650  1
  O  O346  1  0.87626010  0.57953371  0.19680097  1
  O  O347  1  0.87844530  0.58332197  0.69379465  1
  O  O348  1  0.03939314  0.33464077  0.20039039  1
  O  O349  1  0.04403350  0.33122390  0.69555087  1
  O  O350  1  0.03825227  0.83708024  0.18462830  1
  O  O351  1  0.04429657  0.83629123  0.69416476  1
  O  O352  1  0.37569354  0.33486562  0.19842685  1
  O  O353  1  0.37543876  0.33263962  0.69795941  1
  O  O354  1  0.38046779  0.83230669  0.19797823  1
  O  O355  1  0.37377855  0.83230711  0.69057167  1
  O  O356  1  0.70956858  0.33234742  0.19951734  1
  O  O357  1  0.71399043  0.33335511  0.69557551  1
  O  O358  1  0.71171938  0.82963174  0.19552451  1
  O  O359  1  0.71180576  0.83709996  0.68729208  1
  O  O360  1  0.20673678  0.41476206  0.19839948  1
  O  O361  1  0.21283621  0.40787332  0.69651194  1
  O  O362  1  0.21159938  0.91879497  0.19387758  1
  O  O363  1  0.20663568  0.91855682  0.69379255  1
  O  O364  1  0.54006408  0.41739156  0.19946940  1
  O  O365  1  0.54228723  0.41374994  0.69612249  1
  O  O366  1  0.54859251  0.91428654  0.19028842  1
  O  O367  1  0.54338893  0.91480548  0.69615594  1
  O  O368  1  0.87414781  0.41433801  0.20014908  1
  O  O369  1  0.87919123  0.41370387  0.69693268  1
  O  O370  1  0.87770202  0.92100172  0.18927666  1
  O  O371  1  0.88037805  0.91992074  0.69204832  1
  O  O372  1  0.04155247  0.16815703  0.19434942  1
  O  O373  1  0.04433374  0.16698579  0.69460011  1
  O  O374  1  0.04232635  0.66388889  0.19903439  1
  O  O375  1  0.04273804  0.66983810  0.69520465  1
  O  O376  1  0.37884881  0.16854450  0.19058975  1
  O  O377  1  0.37207308  0.16757714  0.69293477  1
  O  O378  1  0.37985726  0.66292174  0.19596556  1
  O  O379  1  0.37617230  0.67172073  0.69436181  1
  O  O380  1  0.70941022  0.16854195  0.19298513  1
  O  O381  1  0.71318307  0.16857550  0.69098557  1
  O  O382  1  0.71039765  0.66506755  0.19824034  1
  O  O383  1  0.71480376  0.67419134  0.69645052  1
  O  O384  1  0.11979947  0.08402518  0.30680797  1
  O  O385  1  0.12185834  0.08600372  0.80351007  1
  O  O386  1  0.11977328  0.58198868  0.30368398  1
  O  O387  1  0.11502128  0.58985769  0.80740584  1
  O  O388  1  0.45671419  0.08291766  0.30361757  1
  O  O389  1  0.45280998  0.08855567  0.80297212  1
  O  O390  1  0.45676029  0.58600398  0.30860391  1
  O  O391  1  0.47020941  0.58239141  0.80472080  1
  O  O392  1  0.78813866  0.08361892  0.30441512  1
  O  O393  1  0.79369618  0.08357918  0.80036014  1
  O  O394  1  0.78881497  0.58144935  0.30383312  1
  O  O395  1  0.80152516  0.58483402  0.80542284  1
  O  O396  1  0.28990189  0.33422049  0.31029679  1
  O  O397  1  0.28764866  0.32705093  0.80704303  1
  O  O398  1  0.29683156  0.83453007  0.30345199  1
  O  O399  1  0.28858378  0.83594331  0.79878084  1
  O  O400  1  0.62136345  0.32780556  0.31095993  1
  O  O401  1  0.62600186  0.32996143  0.80001883  1
  O  O402  1  0.62645826  0.83530762  0.30261853  1
  O  O403  1  0.62683187  0.83501255  0.80219357  1
  O  O404  1  0.95533865  0.32970692  0.30856286  1
  O  O405  1  0.95658620  0.33341718  0.80676160  1
  O  O406  1  0.95807499  0.83812275  0.30215993  1
  O  O407  1  0.95406554  0.83456360  0.80006824  1
  O  O408  1  0.11977817  0.41488558  0.31041767  1
  O  O409  1  0.11637081  0.40597416  0.80763186  1
  O  O410  1  0.12071824  0.92057871  0.30260806  1
  O  O411  1  0.11973545  0.92010884  0.80392432  1
  O  O412  1  0.45566539  0.41640910  0.30520987  1
  O  O413  1  0.45830226  0.40892533  0.81170662  1
  O  O414  1  0.46167925  0.91585229  0.30095218  1
  O  O415  1  0.45448437  0.91451177  0.80496171  1
  O  O416  1  0.79579243  0.41347166  0.31253711  1
  O  O417  1  0.79408344  0.41797640  0.80914986  1
  O  O418  1  0.78964230  0.92224871  0.30347300  1
  O  O419  1  0.79151014  0.91635465  0.79857410  1
  O  O420  1  0.28975149  0.16702273  0.29886940  1
  O  O421  1  0.28984879  0.16542919  0.80466619  1
  O  O422  1  0.29316465  0.67014674  0.30818716  1
  O  O423  1  0.28270455  0.67468441  0.81320019  1
  O  O424  1  0.62616274  0.16568395  0.30472082  1
  O  O425  1  0.62916335  0.16506211  0.80456851  1
  O  O426  1  0.62426533  0.66745093  0.30648185  1
  O  O427  1  0.62009530  0.67673115  0.80872757  1
  O  O428  1  0.95538648  0.16626926  0.30557560  1
  O  O429  1  0.95630915  0.16816013  0.80349279  1
  O  O430  1  0.95208973  0.65827932  0.31522498  1
  O  O431  1  0.95622758  0.66855396  0.80324594  1
  F  F432  1  0.04497790  0.00155135  0.20066348  1
  F  F433  1  0.04548541  0.00253809  0.70038509  1
  F  F434  1  0.04167971  0.49553397  0.20503484  1
  F  F435  1  0.03448298  0.49827841  0.69924855  1
  F  F436  1  0.38075636  0.00071149  0.20028297  1
  F  F437  1  0.36823113  -0.00081596  0.69789733  1
  F  F438  1  0.37895006  0.50046106  0.20767679  1
  F  F439  1  0.38162728  0.48638452  0.70356474  1
  F  F440  1  0.71331376  0.00058452  0.19955316  1
  F  F441  1  0.71655054  0.00248483  0.69553384  1
  F  F442  1  0.71115277  0.49820267  0.20468807  1
  F  F443  1  0.71824499  0.48786113  0.69985001  1
  F  F444  1  0.21056556  0.25487553  0.20449348  1
  F  F445  1  0.20976143  0.24790253  0.70248692  1
  F  F446  1  0.21468191  0.74420460  0.19907570  1
  F  F447  1  0.20732511  0.75067066  0.70232434  1
  F  F448  1  0.54479117  0.25211873  0.20417632  1
  F  F449  1  0.54493641  0.24856340  0.70098664  1
  F  F450  1  0.55033889  0.74731318  0.20360292  1
  F  F451  1  0.54418960  0.75025890  0.70091980  1
  F  F452  1  0.87696740  0.25216157  0.20534714  1
  F  F453  1  0.88087150  0.25160889  0.70171570  1
  F  F454  1  0.87517385  0.74192213  0.20297561  1
  F  F455  1  0.88129763  0.75145068  0.69808137  1
  F  F456  1  0.29188714  -0.00124317  0.29782156  1
  F  F457  1  0.28640991  0.00235523  0.79780471  1
  F  F458  1  0.28682612  0.49909225  0.30237298  1
  F  F459  1  0.29498194  0.48179960  0.81585476  1
  F  F460  1  0.62455082  -0.00281470  0.29605795  1
  F  F461  1  0.63690435  -0.00017621  0.79802625  1
  F  F462  1  0.62025579  0.50265084  0.30521767  1
  F  F463  1  0.61925624  0.48890587  0.80223236  1
  F  F464  1  0.95617951  -0.00092130  0.29815162  1
  F  F465  1  0.95462511  0.00219100  0.79553218  1
  F  F466  1  0.95278089  0.49737940  0.30208797  1
  F  F467  1  0.95464094  0.49945234  0.79871257  1
  F  F468  1  0.11940731  0.24840505  0.29927080  1
  F  F469  1  0.12063433  0.24709311  0.79881912  1
  F  F470  1  0.12606510  0.75172452  0.30008654  1
  F  F471  1  0.11730869  0.75429131  0.79820612  1
  F  F472  1  0.45507344  0.24758745  0.29802198  1
  F  F473  1  0.45462812  0.24648266  0.79662878  1
  F  F474  1  0.45787365  0.74999341  0.29734244  1
  F  F475  1  0.45427221  0.75259050  0.79640776  1
  F  F476  1  0.78747251  0.24662983  0.30015531  1
  F  F477  1  0.79118900  0.24891236  0.79693840  1
  F  F478  1  0.78615639  0.74498159  0.30580386  1
  F  F479  1  0.79128452  0.75488392  0.79579575  1
