# generated using pymatgen
data_K24Na3Li5Mg64Fe17Si79(O5F)48
_symmetry_space_group_name_H-M   'P 1'
_cell_length_a   16.10919586
_cell_length_b   18.59852039
_cell_length_c   20.57800695
_cell_angle_alpha   90.00078364
_cell_angle_beta   100.00614240
_cell_angle_gamma   89.98194762
_symmetry_Int_Tables_number   1
_chemical_formula_structural   K24Na3Li5Mg64Fe17Si79(O5F)48
_chemical_formula_sum   'K24 Na3 Li5 Mg64 Fe17 Si79 O240 F48'
_cell_volume   6071.53903137
_cell_formula_units_Z   1
loop_
 _symmetry_equiv_pos_site_id
 _symmetry_equiv_pos_as_xyz
  1  'x, y, z'
loop_
 _atom_site_type_symbol
 _atom_site_label
 _atom_site_symmetry_multiplicity
 _atom_site_fract_x
 _atom_site_fract_y
 _atom_site_fract_z
 _atom_site_occupancy
  K  K0  1  0.00229898  -0.00993805  0.01639588  1
  K  K1  1  -0.01106936  -0.00148899  0.47796721  1
  K  K2  1  -0.00991787  0.50043640  0.00555843  1
  K  K3  1  -0.02545281  0.49805790  0.48969214  1
  K  K4  1  0.33037308  -0.00371436  0.01482288  1
  K  K5  1  0.33366445  -0.00978376  0.48942876  1
  K  K6  1  0.34507552  0.49448720  0.00032197  1
  K  K7  1  0.33982143  0.50028175  0.49977769  1
  K  K8  1  0.66939753  0.00009733  0.00950901  1
  K  K9  1  0.66693265  -0.00647509  0.48381628  1
  K  K10  1  0.66318342  0.50634680  -0.00220912  1
  K  K11  1  0.67536474  0.50651384  0.49864711  1
  K  K12  1  0.17431438  0.25408674  0.00484465  1
  K  K13  1  0.16082494  0.25910104  0.49246989  1
  K  K14  1  0.17052561  0.75876020  0.01479721  1
  K  K15  1  0.16592666  0.74570111  0.48987733  1
  K  K16  1  0.51014597  0.25328863  0.00165759  1
  K  K17  1  0.49926610  0.25525980  0.49792500  1
  K  K18  1  0.50214882  0.74578200  0.00308753  1
  K  K19  1  0.50415431  0.74256414  0.49274444  1
  K  K20  1  0.83058530  0.24761283  0.00798392  1
  K  K21  1  0.83012565  0.25860798  0.48866162  1
  K  K22  1  0.83016546  0.75438612  0.00847190  1
  K  K23  1  0.82504526  0.74925210  0.48568557  1
  Na  Na24  1  0.33119628  0.74967637  0.24439429  1
  Na  Na25  1  0.00103631  0.91819395  0.25670430  1
  Na  Na26  1  0.66527371  0.42039606  0.75131541  1
  Li  Li27  1  0.33660292  0.25275953  0.75248989  1
  Li  Li28  1  0.50842722  0.49424640  0.75511926  1
  Li  Li29  1  0.66484715  0.08273384  0.24832759  1
  Li  Li30  1  0.33055297  0.41786211  0.24750260  1
  Li  Li31  1  0.83920125  0.66690084  0.25403206  1
  Mg  Mg32  1  0.50180271  0.00046488  0.24739157  1
  Mg  Mg33  1  0.66664330  0.75040018  0.25012376  1
  Mg  Mg34  1  0.66730655  0.75044043  0.75177400  1
  Mg  Mg35  1  0.33171319  0.25307498  0.24558906  1
  Mg  Mg36  1  -0.00281733  0.75137554  0.25328685  1
  Mg  Mg37  1  0.83117425  0.00030359  0.25394479  1
  Mg  Mg38  1  0.16749475  0.49960198  0.25188325  1
  Mg  Mg39  1  0.33626092  0.74822280  0.75120756  1
  Mg  Mg40  1  0.16568692  -0.00020006  0.75005882  1
  Mg  Mg41  1  0.66628757  0.24615291  0.25052231  1
  Mg  Mg42  1  -0.00074236  0.74788135  0.74887701  1
  Mg  Mg43  1  0.66600772  0.25174416  0.75111979  1
  Mg  Mg44  1  0.83080714  0.50304432  0.25326399  1
  Mg  Mg45  1  0.49920923  -0.00004374  0.75436582  1
  Mg  Mg46  1  0.17117526  0.49895100  0.74988657  1
  Mg  Mg47  1  0.16876463  0.00108991  0.24608667  1
  Mg  Mg48  1  0.00209363  0.25164973  0.74750383  1
  Mg  Mg49  1  0.83539464  0.49970580  0.74377248  1
  Mg  Mg50  1  0.83254011  -0.00026218  0.75318161  1
  Mg  Mg51  1  -0.00093039  0.25093919  0.25062734  1
  Mg  Mg52  1  0.49604858  0.49873536  0.24696589  1
  Mg  Mg53  1  0.17288134  0.33231559  0.74970738  1
  Mg  Mg54  1  0.83102016  0.83480334  0.75148128  1
  Mg  Mg55  1  0.83257708  0.16396963  0.25143329  1
  Mg  Mg56  1  0.16579381  0.83336330  0.74922009  1
  Mg  Mg57  1  0.33395464  0.91538715  0.75192811  1
  Mg  Mg58  1  0.83389081  0.33505119  0.25216072  1
  Mg  Mg59  1  0.17009862  0.16717911  0.74984814  1
  Mg  Mg60  1  0.33331165  0.08594058  0.75123015  1
  Mg  Mg61  1  -0.00041118  0.58318928  0.74507727  1
  Mg  Mg62  1  0.83438573  0.83229660  0.25739551  1
  Mg  Mg63  1  0.00177104  0.08483983  0.25160823  1
  Mg  Mg64  1  0.49740067  0.83420293  0.24706200  1
  Mg  Mg65  1  0.49729100  0.16853510  0.75287869  1
  Mg  Mg66  1  0.16479031  0.16605955  0.24740993  1
  Mg  Mg67  1  -0.00237569  0.91452062  0.75098761  1
  Mg  Mg68  1  -0.00314136  0.41650643  0.25026364  1
  Mg  Mg69  1  0.66735667  0.58337602  0.74802602  1
  Mg  Mg70  1  0.66891828  0.91520414  0.75455734  1
  Mg  Mg71  1  0.83151527  0.33597099  0.74489515  1
  Mg  Mg72  1  0.33221457  0.08603573  0.24433518  1
  Mg  Mg73  1  -0.00010284  0.41607296  0.74493042  1
  Mg  Mg74  1  0.66794669  0.58553418  0.24882389  1
  Mg  Mg75  1  0.49625605  0.66682991  0.24542757  1
  Mg  Mg76  1  0.66697538  0.08412208  0.75347572  1
  Mg  Mg77  1  0.83075846  0.66397276  0.74523733  1
  Mg  Mg78  1  0.16882157  0.66524444  0.74862584  1
  Mg  Mg79  1  0.50588779  0.66085660  0.75266066  1
  Mg  Mg80  1  0.16533546  0.33559335  0.24828584  1
  Mg  Mg81  1  0.66675447  0.91979757  0.25132358  1
  Mg  Mg82  1  0.33089544  0.58018088  0.24556795  1
  Mg  Mg83  1  0.49672270  0.33465698  0.24994158  1
  Mg  Mg84  1  0.34041301  0.58051027  0.75296196  1
  Mg  Mg85  1  0.50072476  0.16579384  0.24723499  1
  Mg  Mg86  1  0.50365078  0.83309079  0.75531094  1
  Mg  Mg87  1  0.33042361  0.91566043  0.24697474  1
  Mg  Mg88  1  0.16622051  0.83538581  0.24697953  1
  Mg  Mg89  1  0.34073408  0.41468222  0.75276411  1
  Mg  Mg90  1  0.16404768  0.66701259  0.24891863  1
  Mg  Mg91  1  0.83372454  0.16722945  0.75023438  1
  Mg  Mg92  1  0.66689427  0.41546530  0.25185497  1
  Mg  Mg93  1  0.00034993  0.08464214  0.75008377  1
  Mg  Mg94  1  -0.00425032  0.58463152  0.25056595  1
  Mg  Mg95  1  0.50044394  0.33479854  0.75418032  1
  Fe  Fe96  1  0.85142880  0.58698243  0.11139953  1
  Fe  Fe97  1  0.98110879  0.66476604  0.39230126  1
  Fe  Fe98  1  0.97912507  0.33572794  0.39124479  1
  Fe  Fe99  1  0.18891766  0.91513726  0.10344934  1
  Fe  Fe100  1  0.02255918  0.17031194  0.10953363  1
  Fe  Fe101  1  0.19498823  0.09013602  0.10477879  1
  Fe  Fe102  1  0.81190909  0.92079308  0.89413885  1
  Fe  Fe103  1  0.36300584  0.82527981  0.10531942  1
  Fe  Fe104  1  0.47878139  0.41544970  0.89405427  1
  Fe  Fe105  1  0.68769515  0.67477758  0.60788079  1
  Fe  Fe106  1  0.79900987  0.41774115  0.39063978  1
  Fe  Fe107  1  0.52720919  0.08549525  0.11107375  1
  Fe  Fe108  1  0.63997291  0.83441265  0.89467243  1
  Fe  Fe109  1  0.85998225  0.58777483  0.60470248  1
  Fe  Fe110  1  0.85420461  0.41001559  0.60480263  1
  Fe  Fe111  1  0.15171722  0.91873836  0.39136541  1
  Fe  Fe112  1  0.80720763  0.91611797  0.39370855  1
  Si  Si113  1  0.19808174  0.41781492  0.61597998  1
  Si  Si114  1  0.81561513  0.08953682  0.88796615  1
  Si  Si115  1  0.85917897  0.08513374  0.61545712  1
  Si  Si116  1  0.19425227  0.08075910  0.61440564  1
  Si  Si117  1  0.52075073  0.92119517  0.61763422  1
  Si  Si118  1  0.19983967  0.58391235  0.61656654  1
  Si  Si119  1  0.14539807  0.58284204  0.88362020  1
  Si  Si120  1  0.63340186  0.83344420  0.38557213  1
  Si  Si121  1  0.02875932  0.16403091  0.61451712  1
  Si  Si122  1  0.31031747  0.82949484  0.38741604  1
  Si  Si123  1  0.63691288  0.16716470  0.38543420  1
  Si  Si124  1  0.69909224  0.16358551  0.11415952  1
  Si  Si125  1  0.14796740  0.41859957  0.38713918  1
  Si  Si126  1  0.79988290  0.58979230  0.38774875  1
  Si  Si127  1  0.03464017  0.33062570  0.61233693  1
  Si  Si128  1  0.14847612  0.08719690  0.38839474  1
  Si  Si129  1  0.46819854  0.41696491  0.38212075  1
  Si  Si130  1  0.13447151  0.91524472  0.88354045  1
  Si  Si131  1  0.02514843  0.66361887  0.11222683  1
  Si  Si132  1  0.62923900  0.33104907  0.38805806  1
  Si  Si133  1  0.14864136  0.58011155  0.38758659  1
  Si  Si134  1  0.68290872  0.67315703  0.11265375  1
  Si  Si135  1  0.97425304  0.82635791  0.88709704  1
  Si  Si136  1  0.85443697  0.91233915  0.11995766  1
  Si  Si137  1  0.47066591  0.57996579  0.38202440  1
  Si  Si138  1  0.36514640  0.66373131  0.61646196  1
  Si  Si139  1  0.52764420  0.57838377  0.61256825  1
  Si  Si140  1  0.30562419  0.33000789  0.88815261  1
  Si  Si141  1  0.85151478  0.41990301  0.11292932  1
  Si  Si142  1  0.30691534  0.33361676  0.38178708  1
  Si  Si143  1  0.13877346  0.08124317  0.88466283  1
  Si  Si144  1  0.97911442  0.83214343  0.39633299  1
  Si  Si145  1  0.97825176  0.66166181  0.88383626  1
  Si  Si146  1  0.01777451  0.33892406  0.11142487  1
  Si  Si147  1  0.35726448  0.16859881  0.61620499  1
  Si  Si148  1  0.64858613  0.32903552  0.88991399  1
  Si  Si149  1  0.30111964  0.83611098  0.88427664  1
  Si  Si150  1  0.68625175  0.84380606  0.61220215  1
  Si  Si151  1  0.30925474  0.67033073  0.88574576  1
  Si  Si152  1  0.36009112  0.33327969  0.61571047  1
  Si  Si153  1  0.97879553  0.16542299  0.38877632  1
  Si  Si154  1  0.31037177  0.17173057  0.38374192  1
  Si  Si155  1  0.68716999  0.16001731  0.61571956  1
  Si  Si156  1  0.18851668  0.58124749  0.11278806  1
  Si  Si157  1  0.47122343  0.08323641  0.38404738  1
  Si  Si158  1  0.85941474  0.91859829  0.61508248  1
  Si  Si159  1  0.51957214  0.08359275  0.61738357  1
  Si  Si160  1  0.68984512  0.83637118  0.11774382  1
  Si  Si161  1  0.35805547  0.65229309  0.10827842  1
  Si  Si162  1  0.52301323  0.41164757  0.61522686  1
  Si  Si163  1  0.30849848  0.66349043  0.38191593  1
  Si  Si164  1  0.98065838  0.33551165  0.88352461  1
  Si  Si165  1  0.47380686  0.08472672  0.88723078  1
  Si  Si166  1  0.02576502  0.83460143  0.61474783  1
  Si  Si167  1  0.46994489  0.91772483  0.38336406  1
  Si  Si168  1  0.52711593  0.57851566  0.11264597  1
  Si  Si169  1  0.01989535  0.82791696  0.11462774  1
  Si  Si170  1  0.47619325  0.58787222  0.88952773  1
  Si  Si171  1  0.97789533  0.17210076  0.88393100  1
  Si  Si172  1  0.36106672  0.83022396  0.61692672  1
  Si  Si173  1  0.68590856  0.32336392  0.61127109  1
  Si  Si174  1  0.35521748  0.34073748  0.11479996  1
  Si  Si175  1  0.64376472  0.16428499  0.88720579  1
  Si  Si176  1  0.52664860  0.91586326  0.11108014  1
  Si  Si177  1  0.14384505  0.41760984  0.88340683  1
  Si  Si178  1  0.18499981  0.41810590  0.11397415  1
  Si  Si179  1  0.80768869  0.08891013  0.38881146  1
  Si  Si180  1  0.36540125  0.17677703  0.10879791  1
  Si  Si181  1  0.46639329  0.91780335  0.88920781  1
  Si  Si182  1  0.30432504  0.16337311  0.88560530  1
  Si  Si183  1  0.03541482  0.66776649  0.61211252  1
  Si  Si184  1  0.52840283  0.41319845  0.11509587  1
  Si  Si185  1  0.19452365  0.91507030  0.61536693  1
  Si  Si186  1  0.86133384  0.07742955  0.11525377  1
  Si  Si187  1  0.81525844  0.41308454  0.88388948  1
  Si  Si188  1  0.63052778  0.66784663  0.38175716  1
  Si  Si189  1  0.81153336  0.57837993  0.88396294  1
  Si  Si190  1  0.64802566  0.66371229  0.88863244  1
  Si  Si191  1  0.69290804  0.32772083  0.11590227  1
  O  O192  1  0.29249652  0.12339828  0.07323719  1
  O  O193  1  0.27058276  0.12275924  0.58607203  1
  O  O194  1  0.27233001  0.60324474  0.08194994  1
  O  O195  1  0.28045620  0.61676532  0.58710925  1
  O  O196  1  0.62246423  0.11534354  0.07647164  1
  O  O197  1  0.60454775  0.10835334  0.58872178  1
  O  O198  1  0.59723647  0.62471518  0.08140136  1
  O  O199  1  0.59803011  0.61049594  0.57356085  1
  O  O200  1  0.93813275  0.10127185  0.07895765  1
  O  O201  1  0.93584894  0.12725465  0.58720012  1
  O  O202  1  0.95011579  0.61144618  0.07700632  1
  O  O203  1  0.96258945  0.61613313  0.57694447  1
  O  O204  1  0.10162698  0.37017277  0.08178164  1
  O  O205  1  0.11689463  0.36753029  0.58676073  1
  O  O206  1  0.08923221  0.86085738  0.07483118  1
  O  O207  1  0.10405952  0.87612768  0.58763026  1
  O  O208  1  0.43510842  0.37829992  0.08540778  1
  O  O209  1  0.43695867  0.36574954  0.58101660  1
  O  O210  1  0.46254443  0.85409199  0.07648089  1
  O  O211  1  0.43906876  0.86933020  0.58788376  1
  O  O212  1  0.77283777  0.36249426  0.08688515  1
  O  O213  1  0.76226903  0.34720818  0.57535094  1
  O  O214  1  0.77379743  0.86102274  0.08800637  1
  O  O215  1  0.76860735  0.88135378  0.58567805  1
  O  O216  1  0.26933849  0.38829476  0.08567389  1
  O  O217  1  0.27696416  0.38298279  0.58529735  1
  O  O218  1  0.27070666  0.87449390  0.06031981  1
  O  O219  1  0.27204997  0.87285179  0.58853576  1
  O  O220  1  0.60263196  0.36893850  0.08621166  1
  O  O221  1  0.59982904  0.37175454  0.58454071  1
  O  O222  1  0.61860705  0.89599978  0.08843431  1
  O  O223  1  0.60613555  0.90112691  0.58880035  1
  O  O224  1  0.93857654  0.39512562  0.08565643  1
  O  O225  1  0.95136055  0.37044907  0.57726065  1
  O  O226  1  0.93287717  0.87630109  0.08977644  1
  O  O227  1  0.93735915  0.87777006  0.58746017  1
  O  O228  1  0.11365846  0.15567734  0.06844600  1
  O  O229  1  0.10208733  0.11737136  0.58594760  1
  O  O230  1  0.11176797  0.63661017  0.08339413  1
  O  O231  1  0.12378659  0.63985664  0.58899180  1
  O  O232  1  0.45175699  0.16114775  0.08084276  1
  O  O233  1  0.43860795  0.13487432  0.58628097  1
  O  O234  1  0.43377481  0.60836374  0.07883729  1
  O  O235  1  0.43939932  0.62549884  0.58439329  1
  O  O236  1  0.78279759  0.13277775  0.08649595  1
  O  O237  1  0.76887846  0.12562458  0.58723302  1
  O  O238  1  0.75893635  0.64672666  0.07655954  1
  O  O239  1  0.78188673  0.65734509  0.57160961  1
  O  O240  1  0.06215009  0.11347682  0.41562536  1
  O  O241  1  0.05899902  0.11978000  0.91116486  1
  O  O242  1  0.07263855  0.60054216  0.42566058  1
  O  O243  1  0.06386928  0.61420649  0.91268850  1
  O  O244  1  0.39464639  0.12314570  0.41530957  1
  O  O245  1  0.39581944  0.12490514  0.91495180  1
  O  O246  1  0.39133888  0.61315811  0.41296575  1
  O  O247  1  0.39884976  0.63319251  0.91729227  1
  O  O248  1  0.72928446  0.13257038  0.41632539  1
  O  O249  1  0.72947417  0.11750626  0.91469806  1
  O  O250  1  0.71738975  0.62806422  0.41403247  1
  O  O251  1  0.73127019  0.61082233  0.91374924  1
  O  O252  1  0.22701870  0.36222883  0.41415007  1
  O  O253  1  0.22423339  0.36819178  0.91575022  1
  O  O254  1  0.24139687  0.85648132  0.43089977  1
  O  O255  1  0.21816035  0.86721425  0.91048802  1
  O  O256  1  0.54424212  0.36268731  0.41423154  1
  O  O257  1  0.58169095  0.36777215  0.92849248  1
  O  O258  1  0.55665770  0.87548205  0.41494421  1
  O  O259  1  0.53828798  0.86388022  0.92294384  1
  O  O260  1  0.89096488  0.36555859  0.43024886  1
  O  O261  1  0.90254694  0.36874565  0.91540460  1
  O  O262  1  0.90029836  0.86113640  0.43083650  1
  O  O263  1  0.89855226  0.85249105  0.92248922  1
  O  O264  1  0.07278654  0.39610541  0.42521293  1
  O  O265  1  0.06220745  0.38649535  0.91264040  1
  O  O266  1  0.05416512  0.89086070  0.42142801  1
  O  O267  1  0.05789906  0.87737636  0.91276465  1
  O  O268  1  0.38545995  0.38778122  0.41125497  1
  O  O269  1  0.39005234  0.36718432  0.92728831  1
  O  O270  1  0.39703442  0.87709588  0.41640449  1
  O  O271  1  0.37737908  0.89144578  0.91209834  1
  O  O272  1  0.70729909  0.37709336  0.42456991  1
  O  O273  1  0.74070419  0.37026830  0.91329998  1
  O  O274  1  0.71753355  0.87024364  0.42565601  1
  O  O275  1  0.71829303  0.90204993  0.93101315  1
  O  O276  1  0.22718224  0.14583827  0.41400284  1
  O  O277  1  0.22803633  0.12099519  0.91459605  1
  O  O278  1  0.23010484  0.63397176  0.41637955  1
  O  O279  1  0.23027912  0.63024668  0.91312870  1
  O  O280  1  0.56249927  0.12131057  0.41510086  1
  O  O281  1  0.56247346  0.12795028  0.91453685  1
  O  O282  1  0.55425992  0.62702976  0.41185529  1
  O  O283  1  0.56615022  0.62959917  0.91713433  1
  O  O284  1  0.89682401  0.13246367  0.41846179  1
  O  O285  1  0.89132241  0.15014473  0.91076575  1
  O  O286  1  0.88034847  0.63791149  0.41967609  1
  O  O287  1  0.89925857  0.62422979  0.91274479  1
  O  O288  1  0.16628467  0.00359119  0.06272446  1
  O  O289  1  0.19249488  -0.00237456  0.58681953  1
  O  O290  1  0.16415044  0.49966070  0.08337384  1
  O  O291  1  0.18388328  0.50120456  0.58822851  1
  O  O292  1  0.49593624  -0.00697326  0.07774289  1
  O  O293  1  0.49318723  0.00239769  0.58915300  1
  O  O294  1  0.53004996  0.49500653  0.08533560  1
  O  O295  1  0.50785268  0.49430461  0.58576852  1
  O  O296  1  0.83520185  -0.00576570  0.08908730  1
  O  O297  1  0.85535025  0.00229969  0.58736825  1
  O  O298  1  0.82137211  0.49421957  0.07578135  1
  O  O299  1  0.82851445  0.49867817  0.56859393  1
  O  O300  1  -0.01232925  0.26372772  0.07655741  1
  O  O301  1  0.03281580  0.24554649  0.58636393  1
  O  O302  1  0.00115082  0.74531800  0.08385968  1
  O  O303  1  0.02225412  0.75255871  0.58693767  1
  O  O304  1  0.33742693  0.26072632  0.08277646  1
  O  O305  1  0.34244179  0.25034366  0.58607545  1
  O  O306  1  0.34436532  0.72896035  0.07219260  1
  O  O307  1  0.35213326  0.74749584  0.58830735  1
  O  O308  1  0.68348811  0.24698855  0.08389102  1
  O  O309  1  0.66095251  0.23911451  0.58452275  1
  O  O310  1  0.65954430  0.75679230  0.08713492  1
  O  O311  1  0.65663712  0.76991983  0.57540151  1
  O  O312  1  0.17925123  0.01317169  0.42602309  1
  O  O313  1  0.14625833  -0.00211603  0.91068365  1
  O  O314  1  0.18537846  0.49885438  0.41134828  1
  O  O315  1  0.16198065  0.50026269  0.91165489  1
  O  O316  1  0.47677891  0.00069923  0.41433571  1
  O  O317  1  0.48215328  0.00207513  0.91491525  1
  O  O318  1  0.48616496  0.49843575  0.41306397  1
  O  O319  1  0.48063394  0.51103934  0.92658735  1
  O  O320  1  0.81432552  0.01210584  0.42701803  1
  O  O321  1  0.84965939  0.01514345  0.92146405  1
  O  O322  1  0.80898268  0.51147361  0.42287756  1
  O  O323  1  0.82658405  0.49581272  0.91410564  1
  O  O324  1  0.33277182  0.25332632  0.41408046  1
  O  O325  1  0.30446856  0.24532560  0.91393821  1
  O  O326  1  0.33399651  0.74460023  0.41048502  1
  O  O327  1  0.31565225  0.75391358  0.91273318  1
  O  O328  1  0.63531033  0.24792308  0.41804283  1
  O  O329  1  0.66125168  0.24465610  0.91913589  1
  O  O330  1  0.63023573  0.74938385  0.41172686  1
  O  O331  1  0.67020902  0.74003923  0.92477576  1
  O  O332  1  1.00369887  0.24161098  0.42468568  1
  O  O333  1  1.00264009  0.25350851  0.91191020  1
  O  O334  1  1.01117996  0.75498409  0.43036239  1
  O  O335  1  0.99859008  0.74311956  0.91279134  1
  O  O336  1  0.21292487  0.08742358  0.19787156  1
  O  O337  1  0.21031363  0.08162279  0.69486999  1
  O  O338  1  0.20714163  0.58128077  0.19291136  1
  O  O339  1  0.21562682  0.58351610  0.69714857  1
  O  O340  1  0.54265888  0.08418339  0.20138480  1
  O  O341  1  0.53977895  0.08410276  0.69775208  1
  O  O342  1  0.54238170  0.58089358  0.19271835  1
  O  O343  1  0.54592418  0.58555980  0.69228916  1
  O  O344  1  0.87721461  0.08234400  0.19585734  1
  O  O345  1  0.87726576  0.08462191  0.69609608  1
  O  O346  1  0.87553044  0.58038735  0.20110888  1
  O  O347  1  0.88180392  0.58494850  0.69817207  1
  O  O348  1  0.04165642  0.33687435  0.19205017  1
  O  O349  1  0.04926116  0.33149611  0.69363628  1
  O  O350  1  0.04388200  0.82544966  0.19395493  1
  O  O351  1  0.04374420  0.83446899  0.69560849  1
  O  O352  1  0.37675601  0.33569985  0.19407621  1
  O  O353  1  0.37714511  0.33278660  0.69487967  1
  O  O354  1  0.38169299  0.84091350  0.19479533  1
  O  O355  1  0.37768223  0.83282225  0.69735745  1
  O  O356  1  0.70713705  0.33033134  0.19589914  1
  O  O357  1  0.71095242  0.32263873  0.69117597  1
  O  O358  1  0.70675428  0.83359313  0.19758966  1
  O  O359  1  0.70842950  0.83798969  0.69278330  1
  O  O360  1  0.20178154  0.41764735  0.19336617  1
  O  O361  1  0.21434927  0.41664279  0.69636863  1
  O  O362  1  0.21286650  0.91736668  0.19546724  1
  O  O363  1  0.21096120  0.91597442  0.69598614  1
  O  O364  1  0.54392774  0.41425747  0.19514207  1
  O  O365  1  0.53578189  0.40928874  0.69347354  1
  O  O366  1  0.54318491  0.91693816  0.19259749  1
  O  O367  1  0.53814020  0.91934758  0.69781371  1
  O  O368  1  0.87239058  0.41870541  0.19324602  1
  O  O369  1  0.88088760  0.41451507  0.69746825  1
  O  O370  1  0.86777327  0.91570591  0.19875964  1
  O  O371  1  0.87835100  0.91821367  0.69555006  1
  O  O372  1  0.04345941  0.16994297  0.20185523  1
  O  O373  1  0.04579605  0.16406333  0.69512258  1
  O  O374  1  0.04397137  0.66160911  0.19252481  1
  O  O375  1  0.04867487  0.66782847  0.69368550  1
  O  O376  1  0.37738420  0.17270114  0.19047229  1
  O  O377  1  0.37719012  0.16305495  0.69556098  1
  O  O378  1  0.37959495  0.65427497  0.18810193  1
  O  O379  1  0.37975994  0.66572931  0.69672919  1
  O  O380  1  0.71295775  0.16881953  0.19404176  1
  O  O381  1  0.70885309  0.16253132  0.69617382  1
  O  O382  1  0.69870900  0.66786975  0.19223861  1
  O  O383  1  0.70977282  0.67019558  0.70052966  1
  O  O384  1  0.12872918  0.08590811  0.30826937  1
  O  O385  1  0.12280437  0.08280041  0.80374864  1
  O  O386  1  0.12612501  0.58249688  0.30686127  1
  O  O387  1  0.12710052  0.58378045  0.80317890  1
  O  O388  1  0.45312578  0.08614568  0.30456907  1
  O  O389  1  0.45559365  0.08394984  0.80645516  1
  O  O390  1  0.45408696  0.58103611  0.30208225  1
  O  O391  1  0.45511717  0.58883251  0.80945792  1
  O  O392  1  0.79173698  0.08649329  0.30912198  1
  O  O393  1  0.79292854  0.08662018  0.80648873  1
  O  O394  1  0.78180282  0.58274014  0.30753965  1
  O  O395  1  0.79481035  0.58087843  0.80431358  1
  O  O396  1  0.28741227  0.33126258  0.30257033  1
  O  O397  1  0.28891460  0.33529208  0.80805420  1
  O  O398  1  0.28742607  0.83776971  0.30866056  1
  O  O399  1  0.28738304  0.83350245  0.80347238  1
  O  O400  1  0.61833425  0.33223931  0.30733736  1
  O  O401  1  0.62273326  0.32428139  0.81048941  1
  O  O402  1  0.61964584  0.83434057  0.30529802  1
  O  O403  1  0.62258412  0.83431857  0.80122192  1
  O  O404  1  0.95564424  0.33440427  0.29898741  1
  O  O405  1  0.96221809  0.33271215  0.80335503  1
  O  O406  1  0.95330706  0.82581302  0.31618069  1
  O  O407  1  0.95758137  0.83101829  0.80570976  1
  O  O408  1  0.12469942  0.41599816  0.30643387  1
  O  O409  1  0.12581951  0.41622811  0.80301342  1
  O  O410  1  0.13616078  0.91973524  0.30228957  1
  O  O411  1  0.12038161  0.91603061  0.80265283  1
  O  O412  1  0.45756687  0.41761875  0.30296552  1
  O  O413  1  0.45609894  0.41371293  0.80402854  1
  O  O414  1  0.45429300  0.91861608  0.30388169  1
  O  O415  1  0.45315860  0.91769317  0.80755249  1
  O  O416  1  0.78527971  0.41631258  0.29868755  1
  O  O417  1  0.80232203  0.41513299  0.80486397  1
  O  O418  1  0.78670189  0.91728760  0.30322531  1
  O  O419  1  0.79035140  0.91819791  0.80068343  1
  O  O420  1  0.29359492  0.17076250  0.30386458  1
  O  O421  1  0.28664136  0.16051196  0.80586467  1
  O  O422  1  0.28640506  0.65738484  0.30300469  1
  O  O423  1  0.29067302  0.66779689  0.80509657  1
  O  O424  1  0.61875005  0.17101033  0.30634461  1
  O  O425  1  0.62399690  0.16485822  0.80655232  1
  O  O426  1  0.61666843  0.66546335  0.30180007  1
  O  O427  1  0.62571660  0.66781967  0.80799079  1
  O  O428  1  0.95684983  0.16841969  0.30832073  1
  O  O429  1  0.95949892  0.16862645  0.80311928  1
  O  O430  1  0.96403613  0.66612902  0.30235020  1
  O  O431  1  0.96134390  0.66487232  0.80360189  1
  F  F432  1  0.04913744  0.01095718  0.19996266  1
  F  F433  1  0.04483158  -0.00032470  0.70112505  1
  F  F434  1  0.04550082  0.49950710  0.20524266  1
  F  F435  1  0.05204178  0.49979559  0.70055125  1
  F  F436  1  0.38002974  0.00306607  0.20040203  1
  F  F437  1  0.37723295  -0.00029704  0.70376614  1
  F  F438  1  0.37943116  0.49983593  0.19680434  1
  F  F439  1  0.37007407  0.50028891  0.70070394  1
  F  F440  1  0.71125509  0.00142456  0.20409981  1
  F  F441  1  0.71039554  0.00345956  0.70340296  1
  F  F442  1  0.70610132  0.50024312  0.20050787  1
  F  F443  1  0.71755119  0.50824363  0.69715270  1
  F  F444  1  0.21056246  0.25283268  0.19986288  1
  F  F445  1  0.20968393  0.24810669  0.70111834  1
  F  F446  1  0.19910684  0.74801281  0.19703766  1
  F  F447  1  0.21455098  0.75071418  0.70146345  1
  F  F448  1  0.54520463  0.25303841  0.20233152  1
  F  F449  1  0.54504883  0.24661499  0.70314056  1
  F  F450  1  0.54433244  0.74963694  0.19968992  1
  F  F451  1  0.54160803  0.74928135  0.70372754  1
  F  F452  1  0.87543815  0.24879307  0.20312871  1
  F  F453  1  0.88121698  0.24763151  0.70079266  1
  F  F454  1  0.87854762  0.75596691  0.20425495  1
  F  F455  1  0.88048747  0.75308539  0.70234401  1
  F  F456  1  0.29452258  0.00368771  0.29767650  1
  F  F457  1  0.28619819  -0.00056631  0.79785122  1
  F  F458  1  0.28783126  0.50026558  0.29579632  1
  F  F459  1  0.28848951  0.50069289  0.80168802  1
  F  F460  1  0.61546479  -0.00687898  0.30466915  1
  F  F461  1  0.61992667  0.00197317  0.79939633  1
  F  F462  1  0.61667198  0.49996900  0.29624015  1
  F  F463  1  0.62282451  0.51244291  0.80373792  1
  F  F464  1  0.94980270  0.01228640  0.30466522  1
  F  F465  1  0.95667376  0.00117828  0.79723168  1
  F  F466  1  0.95457249  0.49759138  0.30065035  1
  F  F467  1  0.96374457  0.49951945  0.79753061  1
  F  F468  1  0.12367216  0.25364062  0.29803303  1
  F  F469  1  0.12219377  0.24897894  0.79780788  1
  F  F470  1  0.12281905  0.74929091  0.29883315  1
  F  F471  1  0.12296214  0.74952751  0.79662612  1
  F  F472  1  0.45249301  0.25077797  0.29649954  1
  F  F473  1  0.45720543  0.24800368  0.80095078  1
  F  F474  1  0.46487893  0.74774583  0.29898210  1
  F  F475  1  0.45374582  0.74983857  0.79979166  1
  F  F476  1  0.78637452  0.24968296  0.29947580  1
  F  F477  1  0.79008549  0.24982772  0.79649256  1
  F  F478  1  0.78067324  0.75223196  0.30203220  1
  F  F479  1  0.79176109  0.75091448  0.79802973  1
