# generated using pymatgen
data_K24Na3Li5Mg64Fe17Si79(O5F)48
_symmetry_space_group_name_H-M   'P 1'
_cell_length_a   16.08796958
_cell_length_b   18.58235803
_cell_length_c   20.55620232
_cell_angle_alpha   89.98940384
_cell_angle_beta   100.00458593
_cell_angle_gamma   90.01171649
_symmetry_Int_Tables_number   1
_chemical_formula_structural   K24Na3Li5Mg64Fe17Si79(O5F)48
_chemical_formula_sum   'K24 Na3 Li5 Mg64 Fe17 Si79 O240 F48'
_cell_volume   6051.87929664
_cell_formula_units_Z   1
loop_
 _symmetry_equiv_pos_site_id
 _symmetry_equiv_pos_as_xyz
  1  'x, y, z'
loop_
 _atom_site_type_symbol
 _atom_site_label
 _atom_site_symmetry_multiplicity
 _atom_site_fract_x
 _atom_site_fract_y
 _atom_site_fract_z
 _atom_site_occupancy
  K  K0  1  -0.00089689  0.00313177  0.00276263  1
  K  K1  1  0.00330011  0.00220121  0.49505493  1
  K  K2  1  -0.00091101  0.50349642  0.00257129  1
  K  K3  1  -0.00263012  0.50152647  0.49572032  1
  K  K4  1  0.33164725  0.00212324  0.00600849  1
  K  K5  1  0.33051872  0.00017901  0.49654575  1
  K  K6  1  0.32868565  0.50767443  -0.00420978  1
  K  K7  1  0.32762503  0.49797812  0.49707795  1
  K  K8  1  0.66860977  -0.00031604  0.00804793  1
  K  K9  1  0.66347209  -0.00682593  0.49435943  1
  K  K10  1  0.67373579  0.50851655  0.00067062  1
  K  K11  1  0.67230414  0.49946314  0.50105936  1
  K  K12  1  0.15900831  0.23857093  0.00490430  1
  K  K13  1  0.15387558  0.23672242  0.48822524  1
  K  K14  1  0.16553266  0.75399177  0.00067199  1
  K  K15  1  0.17686609  0.73879847  0.49973275  1
  K  K16  1  0.49975477  0.24017383  0.00614787  1
  K  K17  1  0.49574822  0.24584998  0.49822121  1
  K  K18  1  0.50176516  0.74976734  0.00110958  1
  K  K19  1  0.48979550  0.75875937  0.50157259  1
  K  K20  1  0.84973153  0.24402946  0.01173013  1
  K  K21  1  0.84476601  0.25700942  0.49327687  1
  K  K22  1  0.83003260  0.75012227  0.00522522  1
  K  K23  1  0.83522735  0.75361734  0.49618295  1
  Na  Na24  1  0.33182462  0.25230082  0.74600176  1
  Na  Na25  1  0.16329173  0.16939701  0.25681178  1
  Na  Na26  1  0.83020354  0.82897584  0.24672262  1
  Li  Li27  1  0.66447927  0.75085755  0.75223759  1
  Li  Li28  1  0.00457233  0.24394002  0.25595741  1
  Li  Li29  1  0.49816627  0.16180101  0.24881212  1
  Li  Li30  1  0.16765755  0.66817463  0.24893174  1
  Li  Li31  1  0.49684212  0.66901736  0.25114356  1
  Mg  Mg32  1  0.00060244  0.25148078  0.75219256  1
  Mg  Mg33  1  0.33494127  0.24919241  0.25040950  1
  Mg  Mg34  1  0.83167402  -0.00182878  0.75854180  1
  Mg  Mg35  1  0.00105378  0.74783910  0.24627783  1
  Mg  Mg36  1  0.16578531  -0.00024508  0.25460680  1
  Mg  Mg37  1  0.49788581  0.00165685  0.25176599  1
  Mg  Mg38  1  0.66402116  0.24775554  0.24365110  1
  Mg  Mg39  1  0.50166228  0.50071162  0.74730085  1
  Mg  Mg40  1  0.16564434  0.00050655  0.75570085  1
  Mg  Mg41  1  0.83604732  0.50226855  0.74638051  1
  Mg  Mg42  1  0.50002715  0.50151928  0.24811040  1
  Mg  Mg43  1  0.66103376  0.74747377  0.24948546  1
  Mg  Mg44  1  0.00121060  0.75183200  0.75259525  1
  Mg  Mg45  1  0.16630399  0.50362055  0.24845740  1
  Mg  Mg46  1  0.83441534  0.49971918  0.24487986  1
  Mg  Mg47  1  0.33227619  0.74809401  0.25268856  1
  Mg  Mg48  1  0.17037005  0.49937791  0.74631756  1
  Mg  Mg49  1  0.83164233  -0.00147204  0.24905528  1
  Mg  Mg50  1  0.33606045  0.74900524  0.74909066  1
  Mg  Mg51  1  0.66887740  0.25043291  0.74830244  1
  Mg  Mg52  1  0.49887327  -0.00009021  0.74941928  1
  Mg  Mg53  1  0.33253251  0.91520170  0.75071614  1
  Mg  Mg54  1  -0.00102743  0.91519943  0.25109180  1
  Mg  Mg55  1  0.50107298  0.33371069  0.74667582  1
  Mg  Mg56  1  0.33474691  0.08596610  0.25348298  1
  Mg  Mg57  1  0.49692537  0.83209993  0.25201993  1
  Mg  Mg58  1  0.33228564  0.58594144  0.74707923  1
  Mg  Mg59  1  0.83780790  0.33710175  0.74967013  1
  Mg  Mg60  1  0.33448060  0.58533313  0.25011769  1
  Mg  Mg61  1  0.16452458  0.16745827  0.75419645  1
  Mg  Mg62  1  -0.00168008  0.08504228  0.25106322  1
  Mg  Mg63  1  0.66769219  0.08326933  0.75292755  1
  Mg  Mg64  1  0.66679977  0.91323038  0.75504115  1
  Mg  Mg65  1  0.16522519  0.33304060  0.25080042  1
  Mg  Mg66  1  -0.00026408  0.08531078  0.75852989  1
  Mg  Mg67  1  0.66245911  0.91475331  0.24884158  1
  Mg  Mg68  1  0.16885855  0.82949650  0.25354826  1
  Mg  Mg69  1  0.00139044  0.91608540  0.75832371  1
  Mg  Mg70  1  0.00079149  0.41363790  0.24815692  1
  Mg  Mg71  1  0.33419647  0.91520227  0.25417737  1
  Mg  Mg72  1  0.66695320  0.41602502  0.24684853  1
  Mg  Mg73  1  0.66285838  0.08411977  0.24796575  1
  Mg  Mg74  1  0.49967033  0.83278649  0.75026516  1
  Mg  Mg75  1  0.67016669  0.41674561  0.74690748  1
  Mg  Mg76  1  0.33161480  0.08582427  0.75039154  1
  Mg  Mg77  1  0.49926265  0.16755461  0.74933793  1
  Mg  Mg78  1  0.83113119  0.83277656  0.75889077  1
  Mg  Mg79  1  0.00024217  0.58490218  0.24542405  1
  Mg  Mg80  1  0.16547312  0.33475288  0.74689350  1
  Mg  Mg81  1  0.00267486  0.58631017  0.74716864  1
  Mg  Mg82  1  0.83209660  0.66466886  0.24462192  1
  Mg  Mg83  1  0.83212953  0.66907053  0.75006949  1
  Mg  Mg84  1  0.66671543  0.58737614  0.74802563  1
  Mg  Mg85  1  0.83582123  0.16650701  0.75569555  1
  Mg  Mg86  1  0.50038743  0.33170787  0.24686967  1
  Mg  Mg87  1  0.50063343  0.66744607  0.74787776  1
  Mg  Mg88  1  0.17087029  0.66604108  0.74776153  1
  Mg  Mg89  1  0.33287822  0.41667459  0.24856480  1
  Mg  Mg90  1  0.16859693  0.83616348  0.75378371  1
  Mg  Mg91  1  0.00113035  0.41695654  0.74886278  1
  Mg  Mg92  1  0.33188191  0.41585509  0.74492345  1
  Mg  Mg93  1  0.66368029  0.58455963  0.24654562  1
  Mg  Mg94  1  0.83628745  0.33100061  0.24710553  1
  Mg  Mg95  1  0.83520435  0.16549843  0.24696523  1
  Fe  Fe96  1  0.31571443  0.66812015  0.89076990  1
  Fe  Fe97  1  0.80443230  0.91335154  0.89683365  1
  Fe  Fe98  1  0.14334383  0.91487128  0.89546966  1
  Fe  Fe99  1  0.85997142  0.58332121  0.10554770  1
  Fe  Fe100  1  0.36150696  0.66042771  0.60596939  1
  Fe  Fe101  1  0.86251282  0.42319980  0.60721729  1
  Fe  Fe102  1  0.14554011  0.07612446  0.39518457  1
  Fe  Fe103  1  0.02561279  0.32623473  0.60890259  1
  Fe  Fe104  1  0.85943402  0.08177829  0.10822488  1
  Fe  Fe105  1  0.97414388  0.17430801  0.89478459  1
  Fe  Fe106  1  0.19228604  0.40595408  0.60383291  1
  Fe  Fe107  1  0.30835698  0.82730848  0.39267538  1
  Fe  Fe108  1  0.47631394  0.92375103  0.39301480  1
  Fe  Fe109  1  0.35616931  0.83628264  0.61026839  1
  Fe  Fe110  1  0.97124471  0.16450077  0.39245129  1
  Fe  Fe111  1  0.52103199  0.08197860  0.11046121  1
  Fe  Fe112  1  0.18410890  0.57744642  0.60494052  1
  Si  Si113  1  0.52292246  0.41769891  0.11188083  1
  Si  Si114  1  0.14142426  0.42013621  0.38294029  1
  Si  Si115  1  0.47881130  0.41188367  0.88335548  1
  Si  Si116  1  0.97079426  0.83244530  0.38316533  1
  Si  Si117  1  0.36902724  0.33365356  0.60890346  1
  Si  Si118  1  0.51981989  0.91191928  0.11117610  1
  Si  Si119  1  0.69336447  0.16459785  0.61654315  1
  Si  Si120  1  0.14041617  0.58478317  0.38186207  1
  Si  Si121  1  0.64493878  0.33117250  0.88332245  1
  Si  Si122  1  0.02415154  0.67544958  0.61219565  1
  Si  Si123  1  0.85679217  0.91452432  0.62101053  1
  Si  Si124  1  0.47011357  0.92332710  0.88636396  1
  Si  Si125  1  0.19071058  0.41905160  0.11324565  1
  Si  Si126  1  0.47921304  0.41409971  0.38327554  1
  Si  Si127  1  0.80470473  0.58743454  0.88331871  1
  Si  Si128  1  0.97420775  0.66735679  0.38310585  1
  Si  Si129  1  0.68900192  0.33497230  0.11224373  1
  Si  Si130  1  0.52112658  0.58225601  0.11285863  1
  Si  Si131  1  0.68507000  0.66520865  0.10893191  1
  Si  Si132  1  0.68534658  0.83038590  0.11471493  1
  Si  Si133  1  0.03000865  0.66903589  0.10988852  1
  Si  Si134  1  0.53417166  0.41431880  0.61224741  1
  Si  Si135  1  0.02307037  0.84004102  0.61783725  1
  Si  Si136  1  0.14591892  0.42075061  0.88588083  1
  Si  Si137  1  0.14244495  0.58515463  0.88645864  1
  Si  Si138  1  0.97277271  0.82612150  0.89334753  1
  Si  Si139  1  0.18822964  0.92399593  0.61499960  1
  Si  Si140  1  0.31401397  0.17215721  0.38966304  1
  Si  Si141  1  0.85553322  0.07681901  0.62046805  1
  Si  Si142  1  0.80254199  0.91491448  0.38345076  1
  Si  Si143  1  0.97439181  0.33801932  0.38439898  1
  Si  Si144  1  0.80768937  0.42009974  0.38140073  1
  Si  Si145  1  0.53565836  0.58140524  0.61016812  1
  Si  Si146  1  0.35461989  0.17072700  0.11323033  1
  Si  Si147  1  0.64076950  0.66356382  0.38327205  1
  Si  Si148  1  0.64505544  0.33296379  0.38193402  1
  Si  Si149  1  0.97574860  0.66123922  0.88447586  1
  Si  Si150  1  0.02998095  0.33112078  0.11461460  1
  Si  Si151  1  0.02715691  0.83461098  0.11468490  1
  Si  Si152  1  0.85619457  0.91216446  0.11253803  1
  Si  Si153  1  0.80403919  0.08652529  0.89142471  1
  Si  Si154  1  0.63848051  0.16674982  0.88431246  1
  Si  Si155  1  0.47783810  0.57712696  0.38396580  1
  Si  Si156  1  0.30892003  0.33674385  0.88478225  1
  Si  Si157  1  0.85725029  0.59363790  0.61141714  1
  Si  Si158  1  0.35665055  0.66508861  0.11536555  1
  Si  Si159  1  0.35566776  0.82899505  0.11509104  1
  Si  Si160  1  0.53276426  0.91740369  0.61550562  1
  Si  Si161  1  0.63794260  0.66738922  0.88392181  1
  Si  Si162  1  0.85945253  0.41047178  0.10917175  1
  Si  Si163  1  0.19403807  0.58297368  0.11406615  1
  Si  Si164  1  0.30947337  0.33809266  0.38469409  1
  Si  Si165  1  0.13862559  0.90603209  0.39003014  1
  Si  Si166  1  0.47852458  0.09243548  0.38885171  1
  Si  Si167  1  0.52621079  0.08275608  0.61512133  1
  Si  Si168  1  0.69826024  0.32995396  0.61166810  1
  Si  Si169  1  0.35593325  0.33616421  0.11320662  1
  Si  Si170  1  0.30731153  0.16992916  0.88642405  1
  Si  Si171  1  0.69443294  0.83282772  0.62008807  1
  Si  Si172  1  0.97734686  0.34414282  0.89117631  1
  Si  Si173  1  0.01690846  0.16013427  0.61806923  1
  Si  Si174  1  0.64055465  0.82898887  0.38829261  1
  Si  Si175  1  0.31461995  0.65831197  0.38658094  1
  Si  Si176  1  0.69494896  0.67090258  0.61638310  1
  Si  Si177  1  0.48131186  0.57580760  0.88701088  1
  Si  Si178  1  0.80601319  0.42175315  0.88516304  1
  Si  Si179  1  0.62928972  0.83437070  0.89009101  1
  Si  Si180  1  0.14674167  0.08600257  0.89451433  1
  Si  Si181  1  0.80687539  0.58442231  0.38195259  1
  Si  Si182  1  0.69054225  0.16922850  0.10820842  1
  Si  Si183  1  0.64186641  0.17030394  0.38170988  1
  Si  Si184  1  0.36030441  0.16435258  0.61426416  1
  Si  Si185  1  0.18804347  0.08887077  0.61799590  1
  Si  Si186  1  0.79892887  0.08004116  0.38764961  1
  Si  Si187  1  0.19309656  0.91759762  0.11703664  1
  Si  Si188  1  0.31381106  0.83517258  0.89077612  1
  Si  Si189  1  0.02898173  0.16436397  0.11401172  1
  Si  Si190  1  0.47268971  0.08771038  0.88527129  1
  Si  Si191  1  0.19673898  0.08140457  0.11803051  1
  O  O192  1  0.26887511  0.12357882  0.08419935  1
  O  O193  1  0.26941415  0.12301253  0.58802337  1
  O  O194  1  0.27394699  0.61619319  0.08325274  1
  O  O195  1  0.27918778  0.59636320  0.56886991  1
  O  O196  1  0.60965005  0.12244671  0.07342140  1
  O  O197  1  0.60616168  0.12018088  0.58701645  1
  O  O198  1  0.59648969  0.62049504  0.08062440  1
  O  O199  1  0.62358111  0.61075558  0.58602420  1
  O  O200  1  0.94757710  0.12448488  0.07147137  1
  O  O201  1  0.94233372  0.09809673  0.59363237  1
  O  O202  1  0.94653071  0.62923000  0.06975008  1
  O  O203  1  0.93839166  0.62818964  0.58332595  1
  O  O204  1  0.10398948  0.37501583  0.08246040  1
  O  O205  1  0.12441645  0.32817725  0.57529636  1
  O  O206  1  0.10191992  0.87964469  0.08633094  1
  O  O207  1  0.10117360  0.87652819  0.58824631  1
  O  O208  1  0.43708282  0.37047603  0.08307154  1
  O  O209  1  0.45553724  0.36171898  0.58131483  1
  O  O210  1  0.43599098  0.86023330  0.08399196  1
  O  O211  1  0.45581507  0.86875262  0.58114239  1
  O  O212  1  0.76996749  0.36629923  0.08194871  1
  O  O213  1  0.77271599  0.35769022  0.57546146  1
  O  O214  1  0.77037703  0.86099593  0.08963447  1
  O  O215  1  0.77957714  0.85906594  0.59075174  1
  O  O216  1  0.27201201  0.38511302  0.08403570  1
  O  O217  1  0.29361400  0.38196447  0.57084712  1
  O  O218  1  0.26867444  0.87490220  0.08681862  1
  O  O219  1  0.26462022  0.89886009  0.57976062  1
  O  O220  1  0.60443288  0.38466488  0.08295372  1
  O  O221  1  0.61438885  0.37959712  0.58361337  1
  O  O222  1  0.60072632  0.87608484  0.08147272  1
  O  O223  1  0.61994875  0.88999177  0.59000350  1
  O  O224  1  0.93682305  0.36583284  0.08306637  1
  O  O225  1  0.95178686  0.39680090  0.56846325  1
  O  O226  1  0.93445182  0.86923379  0.08455625  1
  O  O227  1  0.93931339  0.88975736  0.58936385  1
  O  O228  1  0.11074657  0.12581305  0.08828076  1
  O  O229  1  0.10374808  0.13642631  0.59030214  1
  O  O230  1  0.11159545  0.63119814  0.08315575  1
  O  O231  1  0.09961219  0.64946876  0.57646423  1
  O  O232  1  0.42790151  0.14125403  0.07569573  1
  O  O233  1  0.43779396  0.12454340  0.58347543  1
  O  O234  1  0.43515157  0.62825406  0.08481148  1
  O  O235  1  0.46069046  0.63033531  0.57297296  1
  O  O236  1  0.77088303  0.14570527  0.07555498  1
  O  O237  1  0.77405698  0.12835129  0.58902571  1
  O  O238  1  0.75637688  0.63005145  0.07220145  1
  O  O239  1  0.78078765  0.65273511  0.58625193  1
  O  O240  1  0.06175469  0.11331641  0.43767784  1
  O  O241  1  0.06905346  0.11720871  0.92740324  1
  O  O242  1  0.06257559  0.62437265  0.41225318  1
  O  O243  1  0.05386783  0.60690662  0.91329425  1
  O  O244  1  0.40332673  0.13172027  0.42195912  1
  O  O245  1  0.39344434  0.12260234  0.91557231  1
  O  O246  1  0.39412977  0.60142598  0.41366158  1
  O  O247  1  0.40536403  0.60315778  0.92276072  1
  O  O248  1  0.71353103  0.11164214  0.41424246  1
  O  O249  1  0.71285037  0.11069586  0.91414265  1
  O  O250  1  0.72911493  0.61978510  0.41382480  1
  O  O251  1  0.73124767  0.63117664  0.91316569  1
  O  O252  1  0.23098530  0.37812906  0.41212381  1
  O  O253  1  0.23098873  0.37283683  0.91728369  1
  O  O254  1  0.20277893  0.84134184  0.41727159  1
  O  O255  1  0.23350569  0.85258766  0.92632610  1
  O  O256  1  0.56254621  0.36370512  0.41182490  1
  O  O257  1  0.56240777  0.36184439  0.91211690  1
  O  O258  1  0.57088264  0.86344150  0.42628703  1
  O  O259  1  0.54552554  0.86758736  0.91764566  1
  O  O260  1  0.89529316  0.38001900  0.41245063  1
  O  O261  1  0.89806649  0.38788994  0.91710612  1
  O  O262  1  0.88879046  0.86777122  0.41021266  1
  O  O263  1  0.88837214  0.84382357  0.92349845  1
  O  O264  1  0.06163978  0.38515610  0.41113631  1
  O  O265  1  0.06334080  0.39322395  0.91650215  1
  O  O266  1  0.04928709  0.88291778  0.41687255  1
  O  O267  1  0.04923390  0.87771857  0.92790611  1
  O  O268  1  0.39746056  0.38356691  0.41317130  1
  O  O269  1  0.39794253  0.38036214  0.91432286  1
  O  O270  1  0.38663758  0.89445202  0.43119482  1
  O  O271  1  0.38480834  0.90045250  0.91419209  1
  O  O272  1  0.72721798  0.38406547  0.41027904  1
  O  O273  1  0.72911675  0.37934623  0.91368783  1
  O  O274  1  0.73094899  0.87089260  0.41622219  1
  O  O275  1  0.70908452  0.87848178  0.92945632  1
  O  O276  1  0.24119651  0.13676052  0.42372595  1
  O  O277  1  0.22913109  0.14061991  0.92024403  1
  O  O278  1  0.22898050  0.62569611  0.41165256  1
  O  O279  1  0.21689574  0.63715176  0.92279239  1
  O  O280  1  0.55647426  0.15130709  0.41097795  1
  O  O281  1  0.55355643  0.14050103  0.91234635  1
  O  O282  1  0.56276946  0.62517470  0.41346144  1
  O  O283  1  0.56930674  0.62016330  0.91707862  1
  O  O284  1  0.87654090  0.12657046  0.42598028  1
  O  O285  1  0.87204326  0.14762529  0.92024224  1
  O  O286  1  0.89522974  0.62738000  0.41161547  1
  O  O287  1  0.89411554  0.62728436  0.91290414  1
  O  O288  1  0.18908237  -0.00073782  0.08561774  1
  O  O289  1  0.16583136  0.00765309  0.58944812  1
  O  O290  1  0.17807954  0.50094981  0.08221411  1
  O  O291  1  0.14359691  0.49062817  0.56855216  1
  O  O292  1  0.49971864  -0.01170433  0.07446146  1
  O  O293  1  0.51926271  0.00086264  0.58700533  1
  O  O294  1  0.50672767  0.49968580  0.08140813  1
  O  O295  1  0.52366392  0.49664397  0.58308592  1
  O  O296  1  0.83849282  -0.01259244  0.07303201  1
  O  O297  1  0.82894373  -0.00463172  0.59209050  1
  O  O298  1  0.85079460  0.48756823  0.07198182  1
  O  O299  1  0.82848667  0.51805771  0.57611969  1
  O  O300  1  0.03103990  0.24920941  0.08598383  1
  O  O301  1  -0.02124049  0.23356183  0.58464020  1
  O  O302  1  0.02923664  0.75332845  0.08339492  1
  O  O303  1  0.00035823  0.75955019  0.58723686  1
  O  O304  1  0.33611444  0.25502328  0.08436959  1
  O  O305  1  0.35749910  0.24717455  0.58608363  1
  O  O306  1  0.34035900  0.74667966  0.08453653  1
  O  O307  1  0.32785157  0.74943990  0.57093564  1
  O  O308  1  0.66706892  0.25450366  0.08342744  1
  O  O309  1  0.67574007  0.24596582  0.58688238  1
  O  O310  1  0.66920954  0.74882379  0.08269484  1
  O  O311  1  0.66738334  0.75255806  0.58883617  1
  O  O312  1  0.16947306  -0.01887623  0.42668038  1
  O  O313  1  0.17544167  0.00792885  0.92597557  1
  O  O314  1  0.15108386  0.50255878  0.41249901  1
  O  O315  1  0.16576794  0.50252097  0.91512451  1
  O  O316  1  0.50671205  0.01788829  0.42705520  1
  O  O317  1  0.49347482  0.00613725  0.91453461  1
  O  O318  1  0.50160633  0.49489379  0.41370952  1
  O  O319  1  0.50272221  0.49199298  0.91398142  1
  O  O320  1  0.81000726  -0.00421797  0.41698465  1
  O  O321  1  0.83153001  0.00877090  0.92349006  1
  O  O322  1  0.81637501  0.50218704  0.41170664  1
  O  O323  1  0.80554863  0.50491848  0.91331361  1
  O  O324  1  0.32519986  0.25775566  0.41650836  1
  O  O325  1  0.32530500  0.25365333  0.91309215  1
  O  O326  1  0.34120211  0.73323289  0.42293171  1
  O  O327  1  0.35560137  0.75972159  0.92057764  1
  O  O328  1  0.66815647  0.25225478  0.41171140  1
  O  O329  1  0.66135459  0.24895717  0.91222726  1
  O  O330  1  0.65607931  0.74446267  0.41453678  1
  O  O331  1  0.63668904  0.74872058  0.91465435  1
  O  O332  1  0.98386479  0.26197956  0.42177484  1
  O  O333  1  0.99183556  0.26873119  0.93007139  1
  O  O334  1  0.97988880  0.74919499  0.41437178  1
  O  O335  1  0.99869342  0.74098812  0.91564806  1
  O  O336  1  0.21698616  0.07716469  0.19699028  1
  O  O337  1  0.20875906  0.08602179  0.69852885  1
  O  O338  1  0.21358047  0.57962238  0.19345754  1
  O  O339  1  0.20961358  0.58251993  0.69797919  1
  O  O340  1  0.54341149  0.08066597  0.20079654  1
  O  O341  1  0.54413817  0.08467032  0.69570749  1
  O  O342  1  0.54389639  0.57822604  0.19210834  1
  O  O343  1  0.54740016  0.58160606  0.69135726  1
  O  O344  1  0.87437014  0.08002977  0.19951015  1
  O  O345  1  0.87142628  0.08008615  0.70078231  1
  O  O346  1  0.87733811  0.58134736  0.19693593  1
  O  O347  1  0.87694175  0.58858143  0.69266703  1
  O  O348  1  0.04803039  0.33860675  0.19354609  1
  O  O349  1  0.04220434  0.33324922  0.70254181  1
  O  O350  1  0.04420878  0.83309858  0.19475832  1
  O  O351  1  0.04087331  0.83634180  0.69815588  1
  O  O352  1  0.37725980  0.33772709  0.19326035  1
  O  O353  1  0.38584656  0.34043983  0.68891970  1
  O  O354  1  0.37542453  0.83048016  0.19467316  1
  O  O355  1  0.37851097  0.83502530  0.70311279  1
  O  O356  1  0.70842000  0.33656336  0.19252678  1
  O  O357  1  0.71338802  0.33304674  0.69295235  1
  O  O358  1  0.69525221  0.82989994  0.19389168  1
  O  O359  1  0.71217306  0.83375539  0.69955212  1
  O  O360  1  0.21019308  0.41913037  0.19341591  1
  O  O361  1  0.21247634  0.41519647  0.69716608  1
  O  O362  1  0.20962163  0.91654730  0.19690044  1
  O  O363  1  0.20844768  0.92018552  0.69606506  1
  O  O364  1  0.54197985  0.41775312  0.19226111  1
  O  O365  1  0.54897183  0.41572894  0.69305540  1
  O  O366  1  0.53996138  0.91415478  0.19181376  1
  O  O367  1  0.54618188  0.91855417  0.69651120  1
  O  O368  1  0.87588254  0.41488840  0.18998034  1
  O  O369  1  0.87881910  0.41925699  0.70028217  1
  O  O370  1  0.87932347  0.92031287  0.19179683  1
  O  O371  1  0.87762571  0.91525921  0.70119394  1
  O  O372  1  0.03427290  0.16383728  0.19216999  1
  O  O373  1  0.04029650  0.16259249  0.69896267  1
  O  O374  1  0.03961378  0.66499578  0.18942806  1
  O  O375  1  0.04254262  0.67101566  0.69344436  1
  O  O376  1  0.37209927  0.16961175  0.19318718  1
  O  O377  1  0.38227042  0.15961868  0.69363618  1
  O  O378  1  0.37316833  0.66486005  0.19461035  1
  O  O379  1  0.38242872  0.66500230  0.69902058  1
  O  O380  1  0.70755565  0.16680260  0.18972772  1
  O  O381  1  0.71079471  0.16538968  0.69716895  1
  O  O382  1  0.70548701  0.66324240  0.18956301  1
  O  O383  1  0.71312013  0.66641594  0.69595759  1
  O  O384  1  0.11496285  0.07371642  0.30519308  1
  O  O385  1  0.12519898  0.08489324  0.81268425  1
  O  O386  1  0.11956808  0.58186556  0.30219304  1
  O  O387  1  0.12377779  0.58537759  0.80577178  1
  O  O388  1  0.45428377  0.08311554  0.30939933  1
  O  O389  1  0.45591708  0.08596977  0.80492568  1
  O  O390  1  0.45771407  0.57712095  0.30428767  1
  O  O391  1  0.46316211  0.57923617  0.80642377  1
  O  O392  1  0.78427922  0.08191635  0.30690256  1
  O  O393  1  0.78724305  0.08499796  0.80940214  1
  O  O394  1  0.78757090  0.58183589  0.30185618  1
  O  O395  1  0.78950555  0.58432530  0.80318705  1
  O  O396  1  0.29268620  0.33751876  0.30445753  1
  O  O397  1  0.28822490  0.34079082  0.80590189  1
  O  O398  1  0.28972904  0.83176668  0.30063674  1
  O  O399  1  0.29047493  0.83590667  0.80937186  1
  O  O400  1  0.62424037  0.33490352  0.30172983  1
  O  O401  1  0.62755032  0.33387707  0.80278724  1
  O  O402  1  0.62162370  0.83104909  0.30752261  1
  O  O403  1  0.61693848  0.83870465  0.81018395  1
  O  O404  1  0.95273624  0.33929099  0.30425475  1
  O  O405  1  0.95655428  0.33754469  0.81080914  1
  O  O406  1  0.96254540  0.82902214  0.30421857  1
  O  O407  1  0.95758286  0.83113663  0.81157857  1
  O  O408  1  0.12512866  0.42060956  0.30254695  1
  O  O409  1  0.12547732  0.41954510  0.80602115  1
  O  O410  1  0.12188177  0.91162884  0.30843902  1
  O  O411  1  0.12267158  0.91670441  0.80338589  1
  O  O412  1  0.45949730  0.41584536  0.30288551  1
  O  O413  1  0.46059369  0.41400064  0.80306583  1
  O  O414  1  0.45652337  0.91699459  0.30062455  1
  O  O415  1  0.45649856  0.92203864  0.80608706  1
  O  O416  1  0.78901625  0.41837092  0.30094405  1
  O  O417  1  0.78901712  0.41930744  0.80494587  1
  O  O418  1  0.78144470  0.92036307  0.30444106  1
  O  O419  1  0.78613637  0.91609949  0.80480121  1
  O  O420  1  0.30217843  0.17083117  0.30989734  1
  O  O421  1  0.28695584  0.16227156  0.80741570  1
  O  O422  1  0.29713079  0.66220737  0.30660584  1
  O  O423  1  0.29043224  0.66787655  0.79988404  1
  O  O424  1  0.62849089  0.17061610  0.30228915  1
  O  O425  1  0.62285455  0.16768305  0.80364738  1
  O  O426  1  0.62441562  0.66250821  0.30366499  1
  O  O427  1  0.62061460  0.66301323  0.80444666  1
  O  O428  1  0.95096378  0.16493404  0.30227999  1
  O  O429  1  0.95504712  0.16966994  0.80299652  1
  O  O430  1  0.95585521  0.66601365  0.30318861  1
  O  O431  1  0.95704465  0.66503834  0.80396923  1
  F  F432  1  0.04528455  -0.00470270  0.20196782  1
  F  F433  1  0.04238597  0.00263771  0.70847504  1
  F  F434  1  0.04492077  0.49941705  0.19842358  1
  F  F435  1  0.04560405  0.50228320  0.70320930  1
  F  F436  1  0.37618828  0.00135977  0.20287958  1
  F  F437  1  0.37816662  0.00171685  0.70246266  1
  F  F438  1  0.37873807  0.49895061  0.19997165  1
  F  F439  1  0.38311330  0.49989627  0.70177888  1
  F  F440  1  0.70824038  -0.00147807  0.20045740  1
  F  F441  1  0.71068198  0.00121832  0.70495490  1
  F  F442  1  0.71030285  0.49963369  0.19820315  1
  F  F443  1  0.71339701  0.50141026  0.70077015  1
  F  F444  1  0.21835199  0.26120378  0.19967758  1
  F  F445  1  0.19887316  0.24712719  0.70201828  1
  F  F446  1  0.21317126  0.75007668  0.19980058  1
  F  F447  1  0.21066820  0.75540672  0.70262580  1
  F  F448  1  0.54713023  0.25894491  0.19418075  1
  F  F449  1  0.54881452  0.24956219  0.69884409  1
  F  F450  1  0.54266901  0.75059041  0.20201213  1
  F  F451  1  0.54476709  0.75146859  0.70285144  1
  F  F452  1  0.86789410  0.25136689  0.19571876  1
  F  F453  1  0.87591618  0.25093359  0.70449461  1
  F  F454  1  0.88228434  0.73902086  0.19433226  1
  F  F455  1  0.87968312  0.75328344  0.70540948  1
  F  F456  1  0.28889570  0.00004440  0.30096406  1
  F  F457  1  0.28948556  0.00143174  0.79825756  1
  F  F458  1  0.28925118  0.49905147  0.29703314  1
  F  F459  1  0.29368525  0.49976099  0.79810781  1
  F  F460  1  0.62079996  -0.00277361  0.29869859  1
  F  F461  1  0.61871013  0.00237889  0.79941937  1
  F  F462  1  0.62255993  0.49837086  0.29594522  1
  F  F463  1  0.62400042  0.49920680  0.79578043  1
  F  F464  1  0.95074950  -0.00591014  0.30048300  1
  F  F465  1  0.95380874  0.00005127  0.80425854  1
  F  F466  1  0.95501504  0.49849680  0.29529210  1
  F  F467  1  0.95546856  0.50526399  0.79800416  1
  F  F468  1  0.12211323  0.26505497  0.30749724  1
  F  F469  1  0.12179009  0.25050715  0.80361149  1
  F  F470  1  0.11792576  0.74701161  0.29585728  1
  F  F471  1  0.12147137  0.74979338  0.79769566  1
  F  F472  1  0.45463041  0.25717090  0.29702944  1
  F  F473  1  0.46870845  0.25179056  0.79939361  1
  F  F474  1  0.45311753  0.75044549  0.29995566  1
  F  F475  1  0.45917681  0.74893492  0.80122686  1
  F  F476  1  0.78412952  0.25190478  0.29435472  1
  F  F477  1  0.78675146  0.25367709  0.79858538  1
  F  F478  1  0.78053821  0.73633951  0.29773419  1
  F  F479  1  0.79305210  0.74650484  0.80346697  1
