# generated using pymatgen
data_K24Na3Li5Mg64Fe17Si79(O5F)48
_symmetry_space_group_name_H-M   'P 1'
_cell_length_a   16.08354656
_cell_length_b   18.57793625
_cell_length_c   20.55029431
_cell_angle_alpha   90.01355980
_cell_angle_beta   100.00918561
_cell_angle_gamma   89.96622737
_symmetry_Int_Tables_number   1
_chemical_formula_structural   K24Na3Li5Mg64Fe17Si79(O5F)48
_chemical_formula_sum   'K24 Na3 Li5 Mg64 Fe17 Si79 O240 F48'
_cell_volume   6046.95075260
_cell_formula_units_Z   1
loop_
 _symmetry_equiv_pos_site_id
 _symmetry_equiv_pos_as_xyz
  1  'x, y, z'
loop_
 _atom_site_type_symbol
 _atom_site_label
 _atom_site_symmetry_multiplicity
 _atom_site_fract_x
 _atom_site_fract_y
 _atom_site_fract_z
 _atom_site_occupancy
  K  K0  1  0.00343810  0.01859587  0.00610543  1
  K  K1  1  0.00307534  0.00150566  0.49626042  1
  K  K2  1  0.00042792  0.50107206  -0.00039441  1
  K  K3  1  0.00555215  0.49877324  0.49858030  1
  K  K4  1  0.33205019  -0.00497766  0.00490682  1
  K  K5  1  0.32635759  0.00787677  0.49178759  1
  K  K6  1  0.34727899  0.50158951  0.01440516  1
  K  K7  1  0.34048782  0.49206782  0.49263275  1
  K  K8  1  0.67059339  0.01124159  0.00660106  1
  K  K9  1  0.66276467  0.00460045  0.49520001  1
  K  K10  1  0.66544917  0.49135676  0.00907334  1
  K  K11  1  0.66029178  0.50363560  0.49399689  1
  K  K12  1  0.16769027  0.25392873  0.00402472  1
  K  K13  1  0.16473565  0.24764401  0.49775157  1
  K  K14  1  0.17706168  0.74229866  0.00944553  1
  K  K15  1  0.15215573  0.74989916  0.49634205  1
  K  K16  1  0.50583938  0.25013627  0.00401493  1
  K  K17  1  0.49716376  0.24937942  0.49692218  1
  K  K18  1  0.50104024  0.74255479  0.01691620  1
  K  K19  1  0.49881562  0.74234436  0.48843341  1
  K  K20  1  0.83417345  0.24587219  0.00477279  1
  K  K21  1  0.83690677  0.25081701  0.49859686  1
  K  K22  1  0.83390573  0.75668866  0.00280628  1
  K  K23  1  0.83344444  0.74731956  0.49359326  1
  Na  Na24  1  0.66410656  0.75010588  0.24914148  1
  Na  Na25  1  0.16508078  0.16979041  0.74417484  1
  Na  Na26  1  0.50094639  0.33141433  0.75230360  1
  Li  Li27  1  0.84206930  0.49571793  0.74952644  1
  Li  Li28  1  -0.00261600  0.74544351  0.74424958  1
  Li  Li29  1  0.33193387  0.91780813  0.24797222  1
  Li  Li30  1  0.49691832  0.33249282  0.24705777  1
  Li  Li31  1  -0.00619048  0.41972801  0.74924541  1
  Mg  Mg32  1  0.33478420  0.24966947  0.74845622  1
  Mg  Mg33  1  0.66990216  0.74777118  0.75113086  1
  Mg  Mg34  1  0.50037185  0.49960692  0.75229067  1
  Mg  Mg35  1  -0.00047324  0.74883082  0.25212963  1
  Mg  Mg36  1  0.66431452  0.25026840  0.25231223  1
  Mg  Mg37  1  0.16701848  0.49945528  0.25126517  1
  Mg  Mg38  1  0.50123992  0.00060942  0.75160472  1
  Mg  Mg39  1  0.83250427  0.50139198  0.24721347  1
  Mg  Mg40  1  -0.00037189  0.25411457  0.74835792  1
  Mg  Mg41  1  0.66532727  0.25025326  0.75334487  1
  Mg  Mg42  1  0.16792142  0.00049429  0.24929787  1
  Mg  Mg43  1  0.16215020  0.50030248  0.74766840  1
  Mg  Mg44  1  0.33441115  0.75125374  0.24977898  1
  Mg  Mg45  1  0.49673475  -0.00058108  0.25153233  1
  Mg  Mg46  1  0.33147754  0.74972007  0.75012816  1
  Mg  Mg47  1  0.49970571  0.49803559  0.24724566  1
  Mg  Mg48  1  0.33582778  0.24882909  0.25050760  1
  Mg  Mg49  1  0.83475755  0.00130499  0.74863698  1
  Mg  Mg50  1  0.83237552  -0.00076827  0.25215424  1
  Mg  Mg51  1  0.16588698  0.00122910  0.74809441  1
  Mg  Mg52  1  0.00185435  0.25158701  0.25049222  1
  Mg  Mg53  1  0.83417047  0.33569879  0.25092076  1
  Mg  Mg54  1  0.00227738  0.58304791  0.25056025  1
  Mg  Mg55  1  0.33509551  0.58443895  0.25078276  1
  Mg  Mg56  1  0.16861412  0.83496385  0.24980178  1
  Mg  Mg57  1  0.50011391  0.16838623  0.25120241  1
  Mg  Mg58  1  0.66723168  0.08619157  0.75123124  1
  Mg  Mg59  1  0.67167396  0.58170364  0.75192610  1
  Mg  Mg60  1  0.16545795  0.16408215  0.24948680  1
  Mg  Mg61  1  0.50129115  0.66576243  0.75213354  1
  Mg  Mg62  1  0.83484924  0.16606416  0.25351775  1
  Mg  Mg63  1  0.83715810  0.83087675  0.74833517  1
  Mg  Mg64  1  0.16397425  0.33548883  0.74931595  1
  Mg  Mg65  1  -0.00330739  0.58098451  0.74669494  1
  Mg  Mg66  1  0.00198103  0.08579464  0.24952023  1
  Mg  Mg67  1  0.83025493  0.83355785  0.25016293  1
  Mg  Mg68  1  0.33749892  0.41424630  0.25208862  1
  Mg  Mg69  1  0.66344807  0.41418147  0.24745782  1
  Mg  Mg70  1  0.33374639  0.08597153  0.74974497  1
  Mg  Mg71  1  0.00118487  0.41706667  0.25091501  1
  Mg  Mg72  1  0.83412206  0.33700027  0.75168726  1
  Mg  Mg73  1  0.83786851  0.66217102  0.74781851  1
  Mg  Mg74  1  0.50032896  0.16674593  0.75168924  1
  Mg  Mg75  1  0.33123373  0.58432048  0.74902257  1
  Mg  Mg76  1  0.00071385  0.91576593  0.25207548  1
  Mg  Mg77  1  0.83077010  0.66645961  0.24762023  1
  Mg  Mg78  1  -0.00142570  0.91414203  0.74680866  1
  Mg  Mg79  1  0.50061246  0.83359013  0.75070899  1
  Mg  Mg80  1  0.66902746  0.91503319  0.75040440  1
  Mg  Mg81  1  0.49828287  0.66400644  0.24832026  1
  Mg  Mg82  1  0.33156103  0.91628599  0.74970120  1
  Mg  Mg83  1  -0.00128852  0.08576148  0.74664964  1
  Mg  Mg84  1  0.66293789  0.58475151  0.24800356  1
  Mg  Mg85  1  0.83422614  0.16656691  0.74929563  1
  Mg  Mg86  1  0.33066883  0.08070459  0.24815431  1
  Mg  Mg87  1  0.15984635  0.66672148  0.74776528  1
  Mg  Mg88  1  0.66945914  0.41802709  0.75318831  1
  Mg  Mg89  1  0.16104002  0.83158010  0.74760250  1
  Mg  Mg90  1  0.66658644  0.08464708  0.25496277  1
  Mg  Mg91  1  0.16901783  0.66515470  0.25285331  1
  Mg  Mg92  1  0.33253186  0.41586640  0.74899101  1
  Mg  Mg93  1  0.49634792  0.83393002  0.24901921  1
  Mg  Mg94  1  0.16817582  0.33493249  0.24976257  1
  Mg  Mg95  1  0.66641108  0.91608364  0.25102553  1
  Fe  Fe96  1  0.64221460  0.16788474  0.89408540  1
  Fe  Fe97  1  0.19184321  0.07989859  0.10622348  1
  Fe  Fe98  1  0.85837366  0.42201218  0.11069669  1
  Fe  Fe99  1  0.69652186  0.67276300  0.10618644  1
  Fe  Fe100  1  0.01938864  0.66512476  0.60846459  1
  Fe  Fe101  1  0.13795027  0.08384654  0.39156705  1
  Fe  Fe102  1  0.80976810  0.91523658  0.39145472  1
  Fe  Fe103  1  0.35839216  0.66627948  0.10868185  1
  Fe  Fe104  1  0.14596878  0.58424909  0.39214761  1
  Fe  Fe105  1  0.35638299  0.33055388  0.11149828  1
  Fe  Fe106  1  0.53198761  0.57768040  0.10458800  1
  Fe  Fe107  1  0.47327938  0.58143680  0.39152397  1
  Fe  Fe108  1  0.64173447  0.16741280  0.39313623  1
  Fe  Fe109  1  0.14934238  0.41211111  0.39258599  1
  Fe  Fe110  1  0.02533271  0.17483692  0.10808647  1
  Fe  Fe111  1  0.36119946  0.16681249  0.60814269  1
  Fe  Fe112  1  0.85747242  0.08718596  0.60804651  1
  Si  Si113  1  0.63911053  0.66727278  0.38820894  1
  Si  Si114  1  0.47333109  0.91265417  0.88642602  1
  Si  Si115  1  0.96805114  0.17155627  0.38872799  1
  Si  Si116  1  0.35634960  0.83671381  0.11226773  1
  Si  Si117  1  0.69121425  0.17124275  0.61516029  1
  Si  Si118  1  0.30742788  0.16645132  0.88492084  1
  Si  Si119  1  0.81018549  0.58624444  0.88615475  1
  Si  Si120  1  0.47788867  0.41351860  0.38774502  1
  Si  Si121  1  0.64660370  0.33574267  0.38753080  1
  Si  Si122  1  0.53174885  0.07910212  0.61336340  1
  Si  Si123  1  0.47058225  0.07912153  0.89022528  1
  Si  Si124  1  0.02697356  0.16864224  0.61048255  1
  Si  Si125  1  0.30913112  0.83516434  0.38297829  1
  Si  Si126  1  0.30515739  0.83199955  0.88441474  1
  Si  Si127  1  0.30389609  0.66641131  0.88426417  1
  Si  Si128  1  0.35828060  0.83413888  0.61490948  1
  Si  Si129  1  0.13992478  0.08305216  0.88306015  1
  Si  Si130  1  0.19289740  0.41974054  0.11405184  1
  Si  Si131  1  0.30930017  0.33331757  0.88627619  1
  Si  Si132  1  0.36142412  0.66799814  0.61570779  1
  Si  Si133  1  0.64303768  0.83342395  0.88612489  1
  Si  Si134  1  0.47192753  0.91608903  0.38427399  1
  Si  Si135  1  0.68600878  0.33434592  0.61672518  1
  Si  Si136  1  0.85414149  0.91693310  0.61233050  1
  Si  Si137  1  0.52522151  0.42231852  0.61721967  1
  Si  Si138  1  0.81070098  0.08248084  0.38886381  1
  Si  Si139  1  0.18923664  0.91477999  0.61371976  1
  Si  Si140  1  0.86114812  0.58979761  0.11122721  1
  Si  Si141  1  0.35936676  0.16168756  0.11182813  1
  Si  Si142  1  0.19013324  0.42029240  0.61424622  1
  Si  Si143  1  0.81282467  0.08034924  0.88844963  1
  Si  Si144  1  0.85934387  0.91643619  0.11427542  1
  Si  Si145  1  0.97186662  0.66196694  0.38459798  1
  Si  Si146  1  0.52632228  0.58567351  0.61710818  1
  Si  Si147  1  0.52185974  0.92299938  0.11439830  1
  Si  Si148  1  0.69751979  0.32627435  0.11415536  1
  Si  Si149  1  0.14060017  0.91784799  0.88422220  1
  Si  Si150  1  0.64290961  0.66652500  0.88682934  1
  Si  Si151  1  0.52847679  0.91275742  0.61519599  1
  Si  Si152  1  0.31509706  0.32526994  0.38784272  1
  Si  Si153  1  0.02084692  0.83603993  0.61143029  1
  Si  Si154  1  0.85489512  0.57540323  0.61047960  1
  Si  Si155  1  0.30667183  0.67343665  0.39058834  1
  Si  Si156  1  0.80501385  0.58648305  0.38392758  1
  Si  Si157  1  0.14036515  0.58060843  0.88518046  1
  Si  Si158  1  0.97691614  0.83128712  0.88321727  1
  Si  Si159  1  0.81211550  0.91376067  0.88492975  1
  Si  Si160  1  0.18381503  0.91243957  0.11157995  1
  Si  Si161  1  0.97040323  0.33740990  0.38870652  1
  Si  Si162  1  0.81103025  0.41992902  0.88699937  1
  Si  Si163  1  0.30961418  0.16369977  0.38497767  1
  Si  Si164  1  0.02228780  0.82879070  0.11492132  1
  Si  Si165  1  0.19413955  0.07880007  0.61260712  1
  Si  Si166  1  0.69406806  0.82781545  0.61527713  1
  Si  Si167  1  0.47244747  0.42154894  0.88670783  1
  Si  Si168  1  0.80457450  0.42219975  0.38513681  1
  Si  Si169  1  0.85413859  0.41039891  0.61517893  1
  Si  Si170  1  0.63520056  0.83605208  0.38760132  1
  Si  Si171  1  0.47208195  0.08067185  0.38715502  1
  Si  Si172  1  0.68781036  0.84331786  0.10985093  1
  Si  Si173  1  0.02480974  0.33482706  0.61372345  1
  Si  Si174  1  0.52534053  0.08618121  0.11754358  1
  Si  Si175  1  0.47284252  0.58650002  0.88630096  1
  Si  Si176  1  0.14249100  0.41549213  0.88461956  1
  Si  Si177  1  0.18907398  0.58268507  0.11364178  1
  Si  Si178  1  0.97698096  0.82738152  0.38705908  1
  Si  Si179  1  0.35542016  0.33854257  0.61246113  1
  Si  Si180  1  0.19516013  0.58641237  0.61256091  1
  Si  Si181  1  0.69344082  0.66284636  0.61532611  1
  Si  Si182  1  0.97541879  0.66559687  0.88424039  1
  Si  Si183  1  0.02633558  0.66510944  0.11607545  1
  Si  Si184  1  0.97639874  0.16820298  0.88483510  1
  Si  Si185  1  0.14271628  0.91196084  0.38790248  1
  Si  Si186  1  0.69284903  0.16189213  0.11841359  1
  Si  Si187  1  0.52962575  0.40720249  0.11036243  1
  Si  Si188  1  0.97470491  0.33367813  0.88523110  1
  Si  Si189  1  0.85931847  0.08241790  0.11428273  1
  Si  Si190  1  0.02622437  0.34166240  0.11145922  1
  Si  Si191  1  0.64561576  0.34064671  0.89069532  1
  O  O192  1  0.29670531  0.09729014  0.08015833  1
  O  O193  1  0.26951633  0.10564827  0.57616193  1
  O  O194  1  0.26257452  0.60835375  0.07460970  1
  O  O195  1  0.28249249  0.61573160  0.58750640  1
  O  O196  1  0.61013479  0.11231274  0.08920574  1
  O  O197  1  0.61654296  0.11176930  0.58915145  1
  O  O198  1  0.61692923  0.61066538  0.06127804  1
  O  O199  1  0.60522838  0.62022111  0.58729006  1
  O  O200  1  0.92827739  0.11757927  0.07621007  1
  O  O201  1  0.94903336  0.12204332  0.57107587  1
  O  O202  1  0.95319142  0.60732354  0.08659442  1
  O  O203  1  0.92730668  0.60539093  0.57206573  1
  O  O204  1  0.11663443  0.36225654  0.08699140  1
  O  O205  1  0.10145170  0.37771183  0.58509140  1
  O  O206  1  0.10522803  0.85410196  0.08417048  1
  O  O207  1  0.10613018  0.86679556  0.58370674  1
  O  O208  1  0.45520435  0.35169479  0.07868101  1
  O  O209  1  0.43707791  0.38015411  0.58834321  1
  O  O210  1  0.43620436  0.87754157  0.08351482  1
  O  O211  1  0.43927285  0.86977168  0.58713900  1
  O  O212  1  0.77601803  0.35139264  0.07986826  1
  O  O213  1  0.76845990  0.36187202  0.58559521  1
  O  O214  1  0.77100768  0.87649270  0.08047502  1
  O  O215  1  0.77563172  0.85906959  0.58703531  1
  O  O216  1  0.27135936  0.39960016  0.07779505  1
  O  O217  1  0.26961015  0.38686847  0.58388281  1
  O  O218  1  0.26968281  0.88425850  0.08464183  1
  O  O219  1  0.27244365  0.88023042  0.58634898  1
  O  O220  1  0.61542269  0.37528166  0.08412425  1
  O  O221  1  0.60447186  0.38635940  0.58702878  1
  O  O222  1  0.60481205  0.89675478  0.08308618  1
  O  O223  1  0.60565048  0.87142119  0.58687994  1
  O  O224  1  0.96067460  0.40521457  0.08193646  1
  O  O225  1  0.93394111  0.37509354  0.58375308  1
  O  O226  1  0.93788229  0.87764229  0.08431408  1
  O  O227  1  0.94077993  0.89148454  0.58600837  1
  O  O228  1  0.11044202  0.14353512  0.06485388  1
  O  O229  1  0.11343885  0.13327271  0.59017557  1
  O  O230  1  0.10969286  0.63905872  0.08665908  1
  O  O231  1  0.11937072  0.63674762  0.57759788  1
  O  O232  1  0.45135635  0.14266565  0.08709729  1
  O  O233  1  0.45164632  0.12283657  0.57548237  1
  O  O234  1  0.43774943  0.62869923  0.06380302  1
  O  O235  1  0.44469505  0.63702448  0.58864920  1
  O  O236  1  0.76879391  0.12396682  0.08663015  1
  O  O237  1  0.77052616  0.15368927  0.57952399  1
  O  O238  1  0.80220849  0.65658497  0.08049919  1
  O  O239  1  0.76662748  0.62262840  0.58342541  1
  O  O240  1  0.04502470  0.12213793  0.42548167  1
  O  O241  1  0.06421509  0.12421547  0.91302087  1
  O  O242  1  0.04235754  0.60662549  0.41980148  1
  O  O243  1  0.06339883  0.62151375  0.91472797  1
  O  O244  1  0.38373076  0.10381872  0.41212270  1
  O  O245  1  0.39007084  0.11751913  0.91726700  1
  O  O246  1  0.38158968  0.62045448  0.42628037  1
  O  O247  1  0.39594461  0.62975951  0.91289497  1
  O  O248  1  0.72752683  0.09992023  0.42087157  1
  O  O249  1  0.74186916  0.11394264  0.92608696  1
  O  O250  1  0.72707073  0.62065258  0.41593449  1
  O  O251  1  0.73064456  0.62385814  0.91645677  1
  O  O252  1  0.23753024  0.34605622  0.42487408  1
  O  O253  1  0.23118613  0.37256682  0.91564356  1
  O  O254  1  0.22648376  0.86104627  0.41447677  1
  O  O255  1  0.23123542  0.87693003  0.91337008  1
  O  O256  1  0.56133882  0.36266036  0.41484626  1
  O  O257  1  0.56498753  0.38514196  0.91380172  1
  O  O258  1  0.54907692  0.86146504  0.41763322  1
  O  O259  1  0.56478753  0.87308631  0.91445828  1
  O  O260  1  0.88518245  0.37029921  0.41468253  1
  O  O261  1  0.89933648  0.37561398  0.91631028  1
  O  O262  1  0.90130304  0.85373491  0.42357974  1
  O  O263  1  0.89687624  0.86611222  0.91430838  1
  O  O264  1  0.04950081  0.38416107  0.42464030  1
  O  O265  1  0.06498592  0.37498184  0.91373450  1
  O  O266  1  0.06404346  0.87254625  0.41618704  1
  O  O267  1  0.06405193  0.87631350  0.91319584  1
  O  O268  1  0.39849880  0.37503851  0.41651181  1
  O  O269  1  0.39803395  0.37655542  0.91602183  1
  O  O270  1  0.38694967  0.89028847  0.41297364  1
  O  O271  1  0.39816028  0.86743906  0.91391206  1
  O  O272  1  0.72241738  0.39536767  0.41616526  1
  O  O273  1  0.73249859  0.38747425  0.92011597  1
  O  O274  1  0.71226327  0.88579639  0.42471504  1
  O  O275  1  0.73165764  0.87678560  0.91391769  1
  O  O276  1  0.23079118  0.14437152  0.42131285  1
  O  O277  1  0.22656606  0.12818395  0.91142409  1
  O  O278  1  0.22112245  0.66063277  0.42092685  1
  O  O279  1  0.22926241  0.62406271  0.91406674  1
  O  O280  1  0.54612708  0.13207665  0.42519114  1
  O  O281  1  0.55609478  0.11685311  0.92736987  1
  O  O282  1  0.56946230  0.63657319  0.42951725  1
  O  O283  1  0.56170316  0.62981682  0.91286904  1
  O  O284  1  0.87971429  0.14733457  0.41253834  1
  O  O285  1  0.90260505  0.12358438  0.91423978  1
  O  O286  1  0.88406866  0.64011153  0.41152340  1
  O  O287  1  0.89724384  0.63103746  0.91724287  1
  O  O288  1  0.15581696  -0.01327562  0.07334778  1
  O  O289  1  0.16965782  -0.00428655  0.58408544  1
  O  O290  1  0.15698621  0.50106248  0.08882539  1
  O  O291  1  0.17853187  0.50305484  0.58642107  1
  O  O292  1  0.50248623  0.00551319  0.08573830  1
  O  O293  1  0.52352675  -0.00584195  0.58582035  1
  O  O294  1  0.51058325  0.48356722  0.07200325  1
  O  O295  1  0.51079061  0.50478322  0.58634214  1
  O  O296  1  0.84732122  -0.00127661  0.08551670  1
  O  O297  1  0.82317441  -0.00693156  0.57962160  1
  O  O298  1  0.82478787  0.51436121  0.07770578  1
  O  O299  1  0.83354149  0.49171261  0.58419303  1
  O  O300  1  -0.00755404  0.26696232  0.07519802  1
  O  O301  1  0.02115677  0.25299149  0.58197301  1
  O  O302  1  0.00046958  0.74658677  0.08603617  1
  O  O303  1  -0.00363966  0.76000105  0.57591146  1
  O  O304  1  0.32519387  0.23749532  0.07803447  1
  O  O305  1  0.34506661  0.26164367  0.57529377  1
  O  O306  1  0.34120696  0.76107019  0.07278763  1
  O  O307  1  0.34588868  0.75099224  0.58713614  1
  O  O308  1  0.67473374  0.24257021  0.08777215  1
  O  O309  1  0.65812431  0.25302770  0.59020514  1
  O  O310  1  0.66510830  0.76747406  0.07342332  1
  O  O311  1  0.67979359  0.74548751  0.58650241  1
  O  O312  1  0.15926364  -0.01115129  0.42477843  1
  O  O313  1  0.14941664  0.00014300  0.91432939  1
  O  O314  1  0.18554867  0.49883325  0.43180112  1
  O  O315  1  0.14856214  0.49844766  0.91561962  1
  O  O316  1  0.49328301  -0.00270794  0.41510638  1
  O  O317  1  0.47282307  -0.00634097  0.91685834  1
  O  O318  1  0.49529670  0.48880846  0.42832426  1
  O  O319  1  0.47687182  0.50487011  0.91683895  1
  O  O320  1  0.85111804  0.00679719  0.41895351  1
  O  O321  1  0.82855730  -0.00475014  0.91448365  1
  O  O322  1  0.82519180  0.50463063  0.41445642  1
  O  O323  1  0.82426864  0.50367962  0.91460687  1
  O  O324  1  0.34691944  0.24301302  0.41120130  1
  O  O325  1  0.31770962  0.24971802  0.91457930  1
  O  O326  1  0.33927191  0.75648401  0.41462000  1
  O  O327  1  0.30565624  0.74946438  0.91277784  1
  O  O328  1  0.67512451  0.26029421  0.42484722  1
  O  O329  1  0.65212875  0.26306770  0.92750526  1
  O  O330  1  0.65677317  0.75209570  0.41296719  1
  O  O331  1  0.65271029  0.75048528  0.91434670  1
  O  O332  1  0.98221587  0.25450103  0.41734530  1
  O  O333  1  0.98276369  0.25040228  0.91558607  1
  O  O334  1  0.99851670  0.74376181  0.41148828  1
  O  O335  1  0.98932199  0.74894955  0.91293735  1
  O  O336  1  0.20957838  0.08274610  0.19794176  1
  O  O337  1  0.21713450  0.07306103  0.69254568  1
  O  O338  1  0.21111748  0.58475036  0.19430946  1
  O  O339  1  0.21160094  0.58663403  0.69390586  1
  O  O340  1  0.54304975  0.08236351  0.19737936  1
  O  O341  1  0.54405220  0.07794893  0.69454895  1
  O  O342  1  0.54409524  0.58226236  0.19647493  1
  O  O343  1  0.54397314  0.58596226  0.69767840  1
  O  O344  1  0.87690926  0.08303784  0.19517648  1
  O  O345  1  0.87683737  0.08326426  0.70061477  1
  O  O346  1  0.87891387  0.58522619  0.19279903  1
  O  O347  1  0.87570656  0.58319168  0.69035533  1
  O  O348  1  0.04220442  0.33478600  0.19290647  1
  O  O349  1  0.04375387  0.33296389  0.69327740  1
  O  O350  1  0.04046375  0.83220599  0.19515902  1
  O  O351  1  0.04328077  0.83646136  0.69203844  1
  O  O352  1  0.37460921  0.33189006  0.20168686  1
  O  O353  1  0.36858694  0.33603831  0.69247214  1
  O  O354  1  0.37576112  0.83250086  0.19202747  1
  O  O355  1  0.37712861  0.83355907  0.69575428  1
  O  O356  1  0.71322695  0.33000979  0.19499814  1
  O  O357  1  0.70718400  0.33513818  0.69712933  1
  O  O358  1  0.71080698  0.84307988  0.18943637  1
  O  O359  1  0.70949856  0.83089632  0.69605410  1
  O  O360  1  0.21283862  0.41766205  0.19492797  1
  O  O361  1  0.20909953  0.41951148  0.69482323  1
  O  O362  1  0.19878306  0.91535514  0.19154439  1
  O  O363  1  0.20969029  0.91359689  0.69457234  1
  O  O364  1  0.54608654  0.41551845  0.19075595  1
  O  O365  1  0.54781802  0.42582497  0.69659100  1
  O  O366  1  0.54185266  0.91863157  0.19434578  1
  O  O367  1  0.54482130  0.91297202  0.69608924  1
  O  O368  1  0.87831837  0.41746117  0.20225411  1
  O  O369  1  0.87317476  0.41166734  0.69404887  1
  O  O370  1  0.87829997  0.91552479  0.19433586  1
  O  O371  1  0.87330968  0.91561084  0.69380048  1
  O  O372  1  0.04259212  0.16908806  0.20000029  1
  O  O373  1  0.03038653  0.16903408  0.68999560  1
  O  O374  1  0.04350474  0.66858336  0.19614558  1
  O  O375  1  0.04332708  0.66385932  0.69928345  1
  O  O376  1  0.37691269  0.16374864  0.19327389  1
  O  O377  1  0.38031465  0.16493777  0.70007904  1
  O  O378  1  0.37425989  0.66778106  0.20014345  1
  O  O379  1  0.37876610  0.66916152  0.69663947  1
  O  O380  1  0.71334377  0.16412725  0.19829085  1
  O  O381  1  0.71202588  0.16727951  0.69622096  1
  O  O382  1  0.71436621  0.65953964  0.19608933  1
  O  O383  1  0.71022303  0.66542395  0.69584712  1
  O  O384  1  0.12000067  0.08118773  0.30082016  1
  O  O385  1  0.11831903  0.07703181  0.80376121  1
  O  O386  1  0.12351142  0.58339548  0.29961961  1
  O  O387  1  0.12517684  0.58228745  0.80531058  1
  O  O388  1  0.45745323  0.08214389  0.30649871  1
  O  O389  1  0.45789260  0.07795940  0.80929116  1
  O  O390  1  0.45476459  0.58104033  0.30079235  1
  O  O391  1  0.45549841  0.58615299  0.80550093  1
  O  O392  1  0.79142261  0.08258028  0.30698176  1
  O  O393  1  0.79016921  0.08133923  0.80769542  1
  O  O394  1  0.78847673  0.58275721  0.30396241  1
  O  O395  1  0.78897462  0.58999029  0.80671086  1
  O  O396  1  0.29080625  0.33181017  0.30750265  1
  O  O397  1  0.29150465  0.33509513  0.80605007  1
  O  O398  1  0.28817826  0.83243190  0.30340071  1
  O  O399  1  0.28970472  0.83341916  0.80395377  1
  O  O400  1  0.63245312  0.33353649  0.30753802  1
  O  O401  1  0.63468700  0.33571612  0.81090030  1
  O  O402  1  0.61683138  0.84204265  0.30780007  1
  O  O403  1  0.62436802  0.83284705  0.80543948  1
  O  O404  1  0.95665940  0.33478504  0.30785172  1
  O  O405  1  0.95383935  0.33143620  0.80591285  1
  O  O406  1  0.95789921  0.83323007  0.30611961  1
  O  O407  1  0.95598781  0.83520896  0.80366320  1
  O  O408  1  0.12324993  0.41596830  0.30015019  1
  O  O409  1  0.12926853  0.41830803  0.80527613  1
  O  O410  1  0.12298759  0.91478587  0.30688195  1
  O  O411  1  0.12361742  0.91596850  0.80382291  1
  O  O412  1  0.45789653  0.42051380  0.30806578  1
  O  O413  1  0.45027244  0.42594202  0.80729279  1
  O  O414  1  0.45841659  0.91636919  0.30487756  1
  O  O415  1  0.45697939  0.91335317  0.80569836  1
  O  O416  1  0.78773713  0.41928239  0.30505812  1
  O  O417  1  0.79006065  0.41599907  0.80746036  1
  O  O418  1  0.78817240  0.91613692  0.29960045  1
  O  O419  1  0.79132488  0.91370495  0.80445347  1
  O  O420  1  0.28951872  0.16439073  0.30437687  1
  O  O421  1  0.29597679  0.16638537  0.80579451  1
  O  O422  1  0.28997787  0.66870834  0.30915783  1
  O  O423  1  0.28860282  0.66701291  0.80377949  1
  O  O424  1  0.62239758  0.16663180  0.30180401  1
  O  O425  1  0.62260817  0.16463237  0.80239995  1
  O  O426  1  0.61636860  0.65987805  0.30909325  1
  O  O427  1  0.62450900  0.66753126  0.80599967  1
  O  O428  1  0.95598142  0.16840635  0.30779976  1
  O  O429  1  0.95796480  0.16856177  0.80472943  1
  O  O430  1  0.95592180  0.66438438  0.30364848  1
  O  O431  1  0.95431537  0.66303256  0.80504327  1
  F  F432  1  0.04161016  -0.00312909  0.20101302  1
  F  F433  1  0.04447460  -0.00134063  0.70024845  1
  F  F434  1  0.04408457  0.50065320  0.20121621  1
  F  F435  1  0.04750332  0.50338362  0.69749259  1
  F  F436  1  0.38092655  0.00165992  0.20102158  1
  F  F437  1  0.38164198  -0.00396359  0.70369345  1
  F  F438  1  0.37705025  0.49790067  0.20061212  1
  F  F439  1  0.37935414  0.50336410  0.70146209  1
  F  F440  1  0.71054960  0.00365710  0.20219234  1
  F  F441  1  0.71106848  -0.00160678  0.70428421  1
  F  F442  1  0.71136573  0.49782815  0.20093548  1
  F  F443  1  0.70711285  0.50103272  0.70303684  1
  F  F444  1  0.21193789  0.24966143  0.20404560  1
  F  F445  1  0.21645225  0.26170363  0.69879646  1
  F  F446  1  0.21039700  0.74946924  0.20239605  1
  F  F447  1  0.21378092  0.75102790  0.70037574  1
  F  F448  1  0.54774625  0.24676953  0.20078348  1
  F  F449  1  0.54971149  0.24206766  0.69960668  1
  F  F450  1  0.53084994  0.75108491  0.19788563  1
  F  F451  1  0.54617400  0.74993251  0.70354044  1
  F  F452  1  0.87891841  0.24958204  0.20473118  1
  F  F453  1  0.87630298  0.25172998  0.70275547  1
  F  F454  1  0.88052321  0.75256947  0.20153222  1
  F  F455  1  0.87070952  0.74824234  0.69948167  1
  F  F456  1  0.28670431  -0.00081161  0.29830184  1
  F  F457  1  0.28843973  -0.00283221  0.79910533  1
  F  F458  1  0.28906105  0.50014143  0.29751912  1
  F  F459  1  0.28664104  0.50241122  0.79633440  1
  F  F460  1  0.62021696  -0.00006843  0.29832951  1
  F  F461  1  0.62215145  -0.00395477  0.79960611  1
  F  F462  1  0.62253836  0.49732759  0.29680323  1
  F  F463  1  0.62103716  0.50377965  0.80250310  1
  F  F464  1  0.95467154  -0.00012558  0.29706133  1
  F  F465  1  0.95594536  -0.00338290  0.79781373  1
  F  F466  1  0.95399388  0.50271203  0.29886218  1
  F  F467  1  0.95822842  0.50319758  0.79930075  1
  F  F468  1  0.12220196  0.25234198  0.29896222  1
  F  F469  1  0.11650183  0.25918737  0.80097215  1
  F  F470  1  0.12080288  0.75176792  0.29732219  1
  F  F471  1  0.13089377  0.75141742  0.80115364  1
  F  F472  1  0.45317638  0.24300768  0.30122672  1
  F  F473  1  0.45171509  0.24257387  0.80464441  1
  F  F474  1  0.45446455  0.75251619  0.30044823  1
  F  F475  1  0.45488133  0.75096445  0.79928434  1
  F  F476  1  0.78931497  0.25070205  0.29874333  1
  F  F477  1  0.78911254  0.24937830  0.79889279  1
  F  F478  1  0.80005435  0.75024732  0.30066981  1
  F  F479  1  0.78850147  0.75031896  0.79944217  1
