# generated using pymatgen
data_K24Na3Li5Mg64Fe17Si79(O5F)48
_symmetry_space_group_name_H-M   'P 1'
_cell_length_a   16.08926818
_cell_length_b   18.57988762
_cell_length_c   20.54611946
_cell_angle_alpha   90.00788039
_cell_angle_beta   99.99963009
_cell_angle_gamma   89.98850287
_symmetry_Int_Tables_number   1
_chemical_formula_structural   K24Na3Li5Mg64Fe17Si79(O5F)48
_chemical_formula_sum   'K24 Na3 Li5 Mg64 Fe17 Si79 O240 F48'
_cell_volume   6048.68717743
_cell_formula_units_Z   1
loop_
 _symmetry_equiv_pos_site_id
 _symmetry_equiv_pos_as_xyz
  1  'x, y, z'
loop_
 _atom_site_type_symbol
 _atom_site_label
 _atom_site_symmetry_multiplicity
 _atom_site_fract_x
 _atom_site_fract_y
 _atom_site_fract_z
 _atom_site_occupancy
  K  K0  1  -0.00467898  -0.00233846  -0.00779348  1
  K  K1  1  0.00891787  -0.00377347  0.51683025  1
  K  K2  1  -0.00595939  0.50239845  -0.00377968  1
  K  K3  1  -0.00122994  0.49880761  0.50305585  1
  K  K4  1  0.32097119  0.00588882  -0.01361681  1
  K  K5  1  0.32289851  -0.01120405  0.50892850  1
  K  K6  1  0.32772426  0.49931194  -0.00692705  1
  K  K7  1  0.32451645  0.51077457  0.50519166  1
  K  K8  1  0.67186993  0.00286507  -0.00002238  1
  K  K9  1  0.67973589  -0.00664209  0.50503198  1
  K  K10  1  0.67066497  0.50366109  0.00093073  1
  K  K11  1  0.67187354  0.50886401  0.49844776  1
  K  K12  1  0.16392476  0.24570339  -0.01404729  1
  K  K13  1  0.15376913  0.25127025  0.51040011  1
  K  K14  1  0.15899950  0.75147330  -0.00832086  1
  K  K15  1  0.16190718  0.75057739  0.50327613  1
  K  K16  1  0.49873514  0.24394582  -0.00555335  1
  K  K17  1  0.50473793  0.25045540  0.50377336  1
  K  K18  1  0.50416769  0.75429481  -0.00247214  1
  K  K19  1  0.49955672  0.75852112  0.50393228  1
  K  K20  1  0.83636763  0.24677891  0.00202467  1
  K  K21  1  0.84850023  0.25575914  0.50187419  1
  K  K22  1  0.83136764  0.74806647  0.00193240  1
  K  K23  1  0.83764000  0.75058388  0.50711035  1
  Na  Na24  1  0.67191106  0.25033148  0.24632323  1
  Na  Na25  1  0.66658422  0.58228512  0.24719864  1
  Na  Na26  1  0.83180720  0.32663503  0.24603812  1
  Li  Li27  1  -0.00732736  0.25085933  0.24789244  1
  Li  Li28  1  0.16538446  0.00479407  0.74604426  1
  Li  Li29  1  0.82939750  0.83420093  0.74681834  1
  Li  Li30  1  0.83995345  0.16596697  0.74920098  1
  Li  Li31  1  0.16582412  0.15931361  0.75455606  1
  Mg  Mg32  1  0.16811362  0.00085575  0.25349215  1
  Mg  Mg33  1  -0.00459563  0.75107261  0.74754305  1
  Mg  Mg34  1  0.33523908  0.24998588  0.25120422  1
  Mg  Mg35  1  0.50140142  0.00109236  0.24884843  1
  Mg  Mg36  1  0.83345544  0.49866344  0.24892421  1
  Mg  Mg37  1  0.00055082  0.74919340  0.25609227  1
  Mg  Mg38  1  0.66847430  0.24699380  0.74869949  1
  Mg  Mg39  1  0.33351414  0.75344326  0.75123500  1
  Mg  Mg40  1  0.83290651  -0.00030504  0.74658774  1
  Mg  Mg41  1  0.33322242  0.75053489  0.25574450  1
  Mg  Mg42  1  0.32752310  0.25004247  0.75236411  1
  Mg  Mg43  1  0.83356040  0.49712856  0.74770570  1
  Mg  Mg44  1  0.66829771  0.75172175  0.74977990  1
  Mg  Mg45  1  0.83329419  0.00095696  0.24502446  1
  Mg  Mg46  1  0.50026598  0.49940404  0.75387646  1
  Mg  Mg47  1  0.49992222  0.49888379  0.24840711  1
  Mg  Mg48  1  0.16606116  0.49936870  0.25726268  1
  Mg  Mg49  1  0.66873609  0.74949855  0.24606541  1
  Mg  Mg50  1  0.49864232  0.00075877  0.75105894  1
  Mg  Mg51  1  0.16586771  0.49978585  0.75185557  1
  Mg  Mg52  1  0.00111949  0.24768733  0.74855450  1
  Mg  Mg53  1  0.50269178  0.33344774  0.24852311  1
  Mg  Mg54  1  0.66892084  0.91471208  0.74913985  1
  Mg  Mg55  1  0.33630676  0.58527290  0.75516781  1
  Mg  Mg56  1  0.00249208  0.08281451  0.74837857  1
  Mg  Mg57  1  0.32959672  0.91891071  0.75346953  1
  Mg  Mg58  1  0.66768228  0.41291493  0.75055943  1
  Mg  Mg59  1  0.66799713  0.58396917  0.74922191  1
  Mg  Mg60  1  0.16670013  0.66811129  0.75232872  1
  Mg  Mg61  1  0.00008921  0.08700589  0.24742158  1
  Mg  Mg62  1  -0.00174912  0.91590020  0.74820122  1
  Mg  Mg63  1  0.50155242  0.83576623  0.75027219  1
  Mg  Mg64  1  0.16389254  0.33159132  0.25364940  1
  Mg  Mg65  1  0.66601896  0.91568607  0.24616081  1
  Mg  Mg66  1  -0.00113334  0.41275678  0.25092923  1
  Mg  Mg67  1  0.83454973  0.66505184  0.25080963  1
  Mg  Mg68  1  0.33502150  0.08405505  0.25167830  1
  Mg  Mg69  1  0.50014713  0.66567239  0.24725514  1
  Mg  Mg70  1  0.49753526  0.16684769  0.74990606  1
  Mg  Mg71  1  0.33258604  0.41504227  0.25240525  1
  Mg  Mg72  1  0.16500473  0.33189011  0.75284622  1
  Mg  Mg73  1  0.66872202  0.08392105  0.74743933  1
  Mg  Mg74  1  0.83520587  0.16745576  0.24630757  1
  Mg  Mg75  1  0.33566857  0.91518515  0.25503318  1
  Mg  Mg76  1  0.17005865  0.83428099  0.25630018  1
  Mg  Mg77  1  0.50426705  0.66720493  0.75367547  1
  Mg  Mg78  1  0.00123494  0.58370278  0.25510853  1
  Mg  Mg79  1  0.50253448  0.16715171  0.24780549  1
  Mg  Mg80  1  0.66812265  0.08572582  0.24555711  1
  Mg  Mg81  1  0.83067693  0.66614444  0.74606463  1
  Mg  Mg82  1  0.49915534  0.33395841  0.75234603  1
  Mg  Mg83  1  0.33373503  0.41603472  0.75466369  1
  Mg  Mg84  1  0.16780345  0.66440580  0.25890525  1
  Mg  Mg85  1  0.33384306  0.58409283  0.25443229  1
  Mg  Mg86  1  0.16649994  0.16791259  0.25165880  1
  Mg  Mg87  1  -0.00281924  0.58319111  0.74904205  1
  Mg  Mg88  1  0.66849019  0.41681100  0.24685470  1
  Mg  Mg89  1  0.32627172  0.08417720  0.74961029  1
  Mg  Mg90  1  0.00088419  0.41266675  0.74892000  1
  Mg  Mg91  1  0.00053170  0.91662162  0.25120587  1
  Mg  Mg92  1  0.50099393  0.83426720  0.24983030  1
  Mg  Mg93  1  0.83646937  0.32802625  0.74748939  1
  Mg  Mg94  1  0.16660819  0.83763205  0.75139842  1
  Mg  Mg95  1  0.83116866  0.83390287  0.24760215  1
  Fe  Fe96  1  0.97058688  0.66911728  0.39528340  1
  Fe  Fe97  1  0.30647594  0.16160144  0.88949585  1
  Fe  Fe98  1  0.13712094  0.42199872  0.89220955  1
  Fe  Fe99  1  0.19375581  0.91556744  0.61084443  1
  Fe  Fe100  1  0.97212435  0.33050267  0.89065338  1
  Fe  Fe101  1  0.64679052  0.66667785  0.88985913  1
  Fe  Fe102  1  0.30988237  0.83727014  0.89252395  1
  Fe  Fe103  1  0.31078136  0.83601686  0.39512976  1
  Fe  Fe104  1  0.14299354  0.57838268  0.39751743  1
  Fe  Fe105  1  0.64533228  0.83788176  0.89027477  1
  Fe  Fe106  1  0.85332058  0.58320924  0.60869669  1
  Fe  Fe107  1  0.02600392  0.33563529  0.60783747  1
  Fe  Fe108  1  0.69154900  0.16736724  0.10374001  1
  Fe  Fe109  1  0.68660738  0.83614227  0.60849872  1
  Fe  Fe110  1  0.68811834  0.83876087  0.10619833  1
  Fe  Fe111  1  0.68861739  0.66314930  0.10725687  1
  Fe  Fe112  1  0.47627160  0.41705022  0.89208410  1
  Si  Si113  1  0.52590970  0.57596873  0.61504118  1
  Si  Si114  1  0.19397645  0.08239000  0.11615883  1
  Si  Si115  1  0.81072141  0.08548192  0.88047206  1
  Si  Si116  1  0.97671577  0.16348128  0.88486738  1
  Si  Si117  1  0.35426315  0.17256048  0.61315515  1
  Si  Si118  1  0.47498447  0.58688609  0.88976523  1
  Si  Si119  1  0.51814124  0.41572221  0.11155156  1
  Si  Si120  1  0.51430039  0.57855986  0.11136190  1
  Si  Si121  1  0.31129648  0.66837436  0.88779522  1
  Si  Si122  1  0.64304242  0.33484021  0.38425940  1
  Si  Si123  1  0.86791950  0.91661148  0.11159550  1
  Si  Si124  1  0.14245779  0.59186545  0.88825551  1
  Si  Si125  1  0.19467805  0.58321209  0.11911243  1
  Si  Si126  1  0.02736726  0.66467453  0.61491311  1
  Si  Si127  1  0.68747048  0.34287444  0.10729170  1
  Si  Si128  1  0.63560654  0.66766538  0.38286002  1
  Si  Si129  1  0.47572505  0.92128607  0.88742474  1
  Si  Si130  1  0.03360878  0.83212153  0.11853852  1
  Si  Si131  1  0.64700267  0.16611560  0.88253095  1
  Si  Si132  1  0.19152900  0.08497030  0.61069951  1
  Si  Si133  1  0.51746825  0.08394515  0.11116863  1
  Si  Si134  1  0.35669176  0.66747768  0.11621087  1
  Si  Si135  1  0.97282181  0.84177877  0.38793371  1
  Si  Si136  1  0.31523264  0.66530524  0.39333413  1
  Si  Si137  1  0.64249412  0.16825977  0.38362170  1
  Si  Si138  1  0.97435004  0.33179195  0.38424449  1
  Si  Si139  1  0.80408172  0.91908408  0.38372372  1
  Si  Si140  1  0.13688255  0.92301774  0.38880881  1
  Si  Si141  1  0.19130002  0.41752091  0.11824320  1
  Si  Si142  1  0.03227075  0.16757388  0.11531001  1
  Si  Si143  1  0.30578094  0.33328413  0.89242140  1
  Si  Si144  1  0.48114605  0.08532830  0.38580397  1
  Si  Si145  1  0.47569444  0.58019032  0.38587226  1
  Si  Si146  1  0.35600044  0.16826938  0.11615767  1
  Si  Si147  1  0.97027072  0.66695925  0.88452819  1
  Si  Si148  1  0.84930079  0.41400677  0.60825560  1
  Si  Si149  1  0.35966410  0.33643115  0.61586790  1
  Si  Si150  1  0.51749592  0.08754158  0.61258967  1
  Si  Si151  1  0.31290673  0.32879464  0.38755021  1
  Si  Si152  1  0.19749764  0.58936680  0.61872147  1
  Si  Si153  1  0.19813041  0.42304391  0.61422124  1
  Si  Si154  1  0.86617776  0.08328575  0.10959879  1
  Si  Si155  1  0.02716828  0.33308852  0.11630693  1
  Si  Si156  1  0.36538831  0.83049988  0.61342672  1
  Si  Si157  1  0.68349127  0.66701606  0.60779740  1
  Si  Si158  1  0.13139765  0.90920404  0.88895860  1
  Si  Si159  1  0.31329810  0.16419060  0.38666277  1
  Si  Si160  1  0.35947458  0.83282999  0.11678168  1
  Si  Si161  1  0.19622770  0.91726240  0.11789207  1
  Si  Si162  1  0.48076106  0.92142841  0.38843995  1
  Si  Si163  1  0.64071837  0.32946477  0.88493616  1
  Si  Si164  1  0.51749095  0.92226703  0.11250367  1
  Si  Si165  1  0.64091898  0.83181338  0.38439375  1
  Si  Si166  1  0.86627370  0.58233447  0.11207836  1
  Si  Si167  1  0.68735862  0.16144755  0.61174394  1
  Si  Si168  1  0.96429039  0.83211435  0.88305010  1
  Si  Si169  1  0.86185084  0.41820814  0.11318766  1
  Si  Si170  1  0.85944992  0.91654886  0.61086757  1
  Si  Si171  1  0.80399329  0.58341816  0.38762154  1
  Si  Si172  1  0.14589333  0.40661904  0.39199254  1
  Si  Si173  1  0.35538485  0.33268080  0.11606913  1
  Si  Si174  1  0.80812299  0.41861494  0.38541099  1
  Si  Si175  1  0.80737903  0.08361362  0.38368529  1
  Si  Si176  1  0.02158553  0.16456240  0.61070791  1
  Si  Si177  1  0.14252947  0.08896205  0.38648681  1
  Si  Si178  1  0.13325571  0.07494590  0.88622653  1
  Si  Si179  1  0.02393101  0.83080856  0.61247403  1
  Si  Si180  1  0.52759578  0.41189240  0.61430782  1
  Si  Si181  1  0.80319594  0.41004125  0.88391197  1
  Si  Si182  1  0.97217700  0.16601161  0.38363798  1
  Si  Si183  1  0.68976150  0.32620538  0.61232542  1
  Si  Si184  1  0.03164717  0.66733916  0.11830420  1
  Si  Si185  1  0.85745712  0.08182090  0.61291700  1
  Si  Si186  1  0.48221145  0.08409473  0.88600642  1
  Si  Si187  1  0.52206326  0.92458014  0.61171532  1
  Si  Si188  1  0.80759481  0.92517737  0.88455860  1
  Si  Si189  1  0.47746273  0.41440556  0.38609911  1
  Si  Si190  1  0.81016176  0.57450025  0.88514026  1
  Si  Si191  1  0.36668739  0.66509228  0.61810996  1
  O  O192  1  0.27476977  0.11652108  0.08780868  1
  O  O193  1  0.26694116  0.13153749  0.58055331  1
  O  O194  1  0.27167252  0.62001878  0.08779090  1
  O  O195  1  0.27624419  0.62618689  0.58894256  1
  O  O196  1  0.59326283  0.10873384  0.07463648  1
  O  O197  1  0.59881572  0.11771349  0.58045513  1
  O  O198  1  0.59532815  0.59963681  0.08009394  1
  O  O199  1  0.60334928  0.60930868  0.58313064  1
  O  O200  1  0.94779824  0.12230012  0.08389502  1
  O  O201  1  0.93244911  0.12027369  0.57992518  1
  O  O202  1  0.94850027  0.62145507  0.08627601  1
  O  O203  1  0.95410086  0.61111250  0.58035452  1
  O  O204  1  0.10451079  0.37473464  0.08744084  1
  O  O205  1  0.11769941  0.37971510  0.57575304  1
  O  O206  1  0.11372286  0.86755586  0.08927098  1
  O  O207  1  0.09756384  0.86082530  0.57553731  1
  O  O208  1  0.43690030  0.36141665  0.08567011  1
  O  O209  1  0.44224629  0.36542483  0.58509455  1
  O  O210  1  0.43890720  0.86517418  0.08650760  1
  O  O211  1  0.44262648  0.87050189  0.58377624  1
  O  O212  1  0.76895491  0.38400268  0.08137124  1
  O  O213  1  0.76905342  0.35717333  0.58174439  1
  O  O214  1  0.78624517  0.87365230  0.07633945  1
  O  O215  1  0.77852785  0.87255710  0.57249371  1
  O  O216  1  0.27162327  0.38223122  0.08916458  1
  O  O217  1  0.28232568  0.39089425  0.58602156  1
  O  O218  1  0.27588432  0.88243675  0.08887671  1
  O  O219  1  0.27930860  0.86612442  0.57579871  1
  O  O220  1  0.59952048  0.39137838  0.07863859  1
  O  O221  1  0.60366308  0.37310478  0.58239974  1
  O  O222  1  0.59786124  0.90527703  0.07896973  1
  O  O223  1  0.59955350  0.90317705  0.57539482  1
  O  O224  1  0.93630043  0.37063999  0.08525349  1
  O  O225  1  0.92635786  0.38597465  0.57321827  1
  O  O226  1  0.95146431  0.87938196  0.08704816  1
  O  O227  1  0.94058332  0.88033173  0.58303560  1
  O  O228  1  0.11102617  0.12966162  0.08494474  1
  O  O229  1  0.09996516  0.12449511  0.58166525  1
  O  O230  1  0.11078082  0.63056696  0.08894538  1
  O  O231  1  0.11589160  0.63935928  0.58998108  1
  O  O232  1  0.43670651  0.13910919  0.08624806  1
  O  O233  1  0.43593076  0.13956220  0.58269380  1
  O  O234  1  0.43266635  0.63254030  0.08324811  1
  O  O235  1  0.43750156  0.61889248  0.58618618  1
  O  O236  1  0.78244979  0.12223642  0.07084050  1
  O  O237  1  0.76597416  0.12314594  0.58279984  1
  O  O238  1  0.78381605  0.62397315  0.07566931  1
  O  O239  1  0.76113520  0.64163126  0.57187940  1
  O  O240  1  0.06473480  0.12812233  0.41515933  1
  O  O241  1  0.04819547  0.10263775  0.91549059  1
  O  O242  1  0.05525608  0.60900170  0.43666969  1
  O  O243  1  0.06147734  0.62975687  0.91614254  1
  O  O244  1  0.39732144  0.11485184  0.41484030  1
  O  O245  1  0.40657201  0.10821399  0.92347659  1
  O  O246  1  0.39440471  0.60721865  0.41661269  1
  O  O247  1  0.38173952  0.60486706  0.91208474  1
  O  O248  1  0.72968319  0.12379223  0.41334003  1
  O  O249  1  0.72672216  0.11286564  0.91056395  1
  O  O250  1  0.71285692  0.61166368  0.40745549  1
  O  O251  1  0.73291296  0.59850192  0.92048102  1
  O  O252  1  0.22987889  0.35353838  0.41739148  1
  O  O253  1  0.22138324  0.35457489  0.92243751  1
  O  O254  1  0.21272921  0.87192969  0.42366126  1
  O  O255  1  0.21133777  0.86231707  0.92603388  1
  O  O256  1  0.56282940  0.36822380  0.41682943  1
  O  O257  1  0.56006727  0.34644541  0.91914578  1
  O  O258  1  0.56347803  0.86967299  0.41498346  1
  O  O259  1  0.54491492  0.86258950  0.92009943  1
  O  O260  1  0.89676219  0.37396226  0.41295343  1
  O  O261  1  0.86885687  0.35108457  0.91949866  1
  O  O262  1  0.88973647  0.87555870  0.41493906  1
  O  O263  1  0.88647761  0.86946606  0.91307929  1
  O  O264  1  0.06566785  0.36803850  0.41927909  1
  O  O265  1  0.04681289  0.39845774  0.93223080  1
  O  O266  1  0.04750938  0.90216423  0.41230813  1
  O  O267  1  0.04906742  0.87593549  0.91917409  1
  O  O268  1  0.39739580  0.37813703  0.41611832  1
  O  O269  1  0.37792982  0.39243461  0.92292172  1
  O  O270  1  0.40276285  0.89892781  0.42369937  1
  O  O271  1  0.39078281  0.90923317  0.91944085  1
  O  O272  1  0.73062607  0.37739315  0.41569797  1
  O  O273  1  0.71317320  0.39106720  0.90949976  1
  O  O274  1  0.72593973  0.87938718  0.41206611  1
  O  O275  1  0.72812112  0.90815710  0.92007979  1
  O  O276  1  0.23104726  0.13315097  0.41513384  1
  O  O277  1  0.21469474  0.12022496  0.92409997  1
  O  O278  1  0.23851979  0.63741734  0.42784382  1
  O  O279  1  0.22224891  0.64725215  0.91349006  1
  O  O280  1  0.56173994  0.13702388  0.41645256  1
  O  O281  1  0.56458866  0.13802891  0.91233709  1
  O  O282  1  0.55628546  0.63233556  0.41446105  1
  O  O283  1  0.54168350  0.64954428  0.91737431  1
  O  O284  1  0.89724196  0.12334309  0.41468837  1
  O  O285  1  0.88777916  0.13991724  0.91065898  1
  O  O286  1  0.87365705  0.63702052  0.42754935  1
  O  O287  1  0.89675410  0.62235698  0.91393905  1
  O  O288  1  0.18085103  -0.00067776  0.08796823  1
  O  O289  1  0.18646356  0.00831601  0.57193227  1
  O  O290  1  0.18157675  0.50075381  0.09043472  1
  O  O291  1  0.18885815  0.50786371  0.58765526  1
  O  O292  1  0.47997228  0.00292330  0.08907369  1
  O  O293  1  0.49160115  0.00683849  0.58406062  1
  O  O294  1  0.48451633  0.49597317  0.08531607  1
  O  O295  1  0.51273288  0.49360930  0.58396788  1
  O  O296  1  0.86832783  -0.00065386  0.08292962  1
  O  O297  1  0.84855343  0.00030516  0.58026885  1
  O  O298  1  0.86597821  0.49953984  0.08149756  1
  O  O299  1  0.81687277  0.49144601  0.57737262  1
  O  O300  1  0.02434817  0.25034316  0.08693757  1
  O  O301  1  0.01163279  0.24162639  0.57253729  1
  O  O302  1  0.02279896  0.75005014  0.08831408  1
  O  O303  1  0.00454185  0.74683531  0.58674422  1
  O  O304  1  0.33337156  0.25028878  0.08904875  1
  O  O305  1  0.34205759  0.25555038  0.58356021  1
  O  O306  1  0.33965471  0.75051809  0.08871412  1
  O  O307  1  0.36788219  0.74584923  0.58736825  1
  O  O308  1  0.67573499  0.26401066  0.07231504  1
  O  O309  1  0.67237143  0.24413949  0.58123103  1
  O  O310  1  0.65630040  0.75126619  0.06918455  1
  O  O311  1  0.64947380  0.74420680  0.57715440  1
  O  O312  1  0.15649900  0.00690030  0.41503839  1
  O  O313  1  0.14420275  -0.00797591  0.91781486  1
  O  O314  1  0.16975067  0.48249379  0.42789403  1
  O  O315  1  0.16595149  0.51677683  0.92589308  1
  O  O316  1  0.50778886  0.00458761  0.41355320  1
  O  O317  1  0.51468663  0.00264629  0.90969850  1
  O  O318  1  0.49415021  0.49711214  0.41424503  1
  O  O319  1  0.50778662  0.51022670  0.92278427  1
  O  O320  1  0.81050761  0.00124389  0.41471788  1
  O  O321  1  0.84041742  0.00647044  0.91257228  1
  O  O322  1  0.81605990  0.49980933  0.41837001  1
  O  O323  1  0.83470895  0.49121309  0.91048801  1
  O  O324  1  0.33599334  0.24612926  0.41512532  1
  O  O325  1  0.33580207  0.25422920  0.92306113  1
  O  O326  1  0.34825035  0.74348569  0.42239175  1
  O  O327  1  0.34334389  0.74333554  0.92346376  1
  O  O328  1  0.65471744  0.25121527  0.41186050  1
  O  O329  1  0.67450725  0.24753060  0.90967275  1
  O  O330  1  0.65380828  0.74955216  0.41484968  1
  O  O331  1  0.69071817  0.75228559  0.92423339  1
  O  O332  1  0.97599453  0.24832263  0.41374722  1
  O  O333  1  1.00597987  0.23786827  0.92309902  1
  O  O334  1  0.99712291  0.76610856  0.42376652  1
  O  O335  1  0.97297785  0.74935450  0.91471505  1
  O  O336  1  0.21220956  0.08295056  0.19692593  1
  O  O337  1  0.21264600  0.08297670  0.68958729  1
  O  O338  1  0.21317033  0.58326674  0.19944155  1
  O  O339  1  0.21341164  0.58635005  0.69906891  1
  O  O340  1  0.53999980  0.08438151  0.19267683  1
  O  O341  1  0.53957604  0.08707640  0.69266652  1
  O  O342  1  0.52691056  0.58150405  0.19153817  1
  O  O343  1  0.54238934  0.57771778  0.69501846  1
  O  O344  1  0.88030981  0.08117431  0.19069057  1
  O  O345  1  0.87658241  0.08063294  0.69212842  1
  O  O346  1  0.88146444  0.58238482  0.19293847  1
  O  O347  1  0.87620134  0.58160618  0.70027849  1
  O  O348  1  0.04800447  0.33527125  0.19598673  1
  O  O349  1  0.04573282  0.33295180  0.69805540  1
  O  O350  1  0.04907569  0.83346700  0.19908042  1
  O  O351  1  0.04228687  0.83230060  0.69323154  1
  O  O352  1  0.37468619  0.33356588  0.19683044  1
  O  O353  1  0.37761932  0.33435327  0.69571909  1
  O  O354  1  0.37724657  0.83391151  0.19733534  1
  O  O355  1  0.37954826  0.83346044  0.69388902  1
  O  O356  1  0.70032751  0.34212442  0.18611060  1
  O  O357  1  0.70619910  0.32944826  0.69229142  1
  O  O358  1  0.71086941  0.83582505  0.19922371  1
  O  O359  1  0.70960108  0.83374370  0.69829131  1
  O  O360  1  0.21021970  0.41576832  0.19904082  1
  O  O361  1  0.21442858  0.42116502  0.69466716  1
  O  O362  1  0.21192446  0.91883203  0.19825677  1
  O  O363  1  0.21135179  0.91670987  0.70073957  1
  O  O364  1  0.53757071  0.41548835  0.19221092  1
  O  O365  1  0.54607315  0.41352636  0.69417902  1
  O  O366  1  0.53860374  0.91807937  0.19415249  1
  O  O367  1  0.54066037  0.92233104  0.69222767  1
  O  O368  1  0.88262500  0.42194664  0.19246741  1
  O  O369  1  0.87065800  0.41433382  0.68952285  1
  O  O370  1  0.88098901  0.91688725  0.19301491  1
  O  O371  1  0.87619338  0.91874305  0.69073316  1
  O  O372  1  0.05155676  0.16308842  0.19488035  1
  O  O373  1  0.03636648  0.16503862  0.69024125  1
  O  O374  1  0.04856552  0.66880479  0.19825523  1
  O  O375  1  0.04408685  0.66529472  0.69587100  1
  O  O376  1  0.37461504  0.16620906  0.19691630  1
  O  O377  1  0.37618921  0.16940674  0.69287347  1
  O  O378  1  0.37370620  0.66709916  0.19703839  1
  O  O379  1  0.38118807  0.66538219  0.69820311  1
  O  O380  1  0.71698163  0.15772229  0.19352829  1
  O  O381  1  0.70099076  0.16475204  0.69070389  1
  O  O382  1  0.71870013  0.67408606  0.19749404  1
  O  O383  1  0.70730878  0.66360317  0.68884230  1
  O  O384  1  0.12604430  0.08581964  0.30596001  1
  O  O385  1  0.11864188  0.07817629  0.80698067  1
  O  O386  1  0.12347290  0.58185580  0.30439061  1
  O  O387  1  0.12276804  0.58639818  0.80728513  1
  O  O388  1  0.45842906  0.08510722  0.30517945  1
  O  O389  1  0.45915035  0.08619289  0.80487418  1
  O  O390  1  0.45664695  0.58147302  0.30539030  1
  O  O391  1  0.45829100  0.58383469  0.80763701  1
  O  O392  1  0.79115807  0.07967689  0.30373180  1
  O  O393  1  0.78827857  0.08229503  0.80100098  1
  O  O394  1  0.80218047  0.58173735  0.30865197  1
  O  O395  1  0.78994234  0.57915082  0.80441876  1
  O  O396  1  0.29366318  0.33120776  0.30704611  1
  O  O397  1  0.29050562  0.33471200  0.80992144  1
  O  O398  1  0.29028309  0.83486940  0.30272818  1
  O  O399  1  0.28905676  0.83268628  0.80124950  1
  O  O400  1  0.61904104  0.33906930  0.30526188  1
  O  O401  1  0.62233545  0.33030184  0.80359121  1
  O  O402  1  0.62124129  0.83432221  0.30409634  1
  O  O403  1  0.62001060  0.83527365  0.79822448  1
  O  O404  1  0.96552779  0.33352089  0.30601771  1
  O  O405  1  0.95402249  0.33236078  0.79864857  1
  O  O406  1  0.95615292  0.83766231  0.30650176  1
  O  O407  1  0.95455118  0.83155660  0.80367288  1
  O  O408  1  0.12819851  0.41232912  0.31090406  1
  O  O409  1  0.12239366  0.41947261  0.80014780  1
  O  O410  1  0.12405037  0.91994365  0.30738684  1
  O  O411  1  0.11418706  0.90666501  0.80935831  1
  O  O412  1  0.45542383  0.41391771  0.30578449  1
  O  O413  1  0.45633340  0.41660483  0.79971183  1
  O  O414  1  0.45968699  0.91895314  0.30712832  1
  O  O415  1  0.45666722  0.91835840  0.80551446  1
  O  O416  1  0.78622063  0.42188884  0.30636711  1
  O  O417  1  0.78837159  0.41176081  0.80256485  1
  O  O418  1  0.78990513  0.91980628  0.30345844  1
  O  O419  1  0.78820758  0.92392513  0.80465958  1
  O  O420  1  0.29362441  0.16529603  0.30616066  1
  O  O421  1  0.28961565  0.16663138  0.79927795  1
  O  O422  1  0.29360252  0.66536630  0.31106469  1
  O  O423  1  0.29165428  0.66910704  0.80646848  1
  O  O424  1  0.61850702  0.15975163  0.30483214  1
  O  O425  1  0.62386439  0.16565121  0.80205505  1
  O  O426  1  0.61425200  0.67491859  0.30387292  1
  O  O427  1  0.62428714  0.66517511  0.79720365  1
  O  O428  1  0.95719568  0.16065835  0.30444224  1
  O  O429  1  0.96215025  0.16507484  0.80487990  1
  O  O430  1  0.95672522  0.66723897  0.30221086  1
  O  O431  1  0.95614470  0.66674415  0.80462658  1
  F  F432  1  0.04946794  -0.00002860  0.20290494  1
  F  F433  1  0.03959245  -0.00227091  0.69899435  1
  F  F434  1  0.04909681  0.49741701  0.20463847  1
  F  F435  1  0.04586715  0.50291432  0.70061017  1
  F  F436  1  0.37722908  -0.00011852  0.20504311  1
  F  F437  1  0.37899315  0.00194440  0.70237473  1
  F  F438  1  0.37440255  0.49860908  0.20478322  1
  F  F439  1  0.37822393  0.50293187  0.70305939  1
  F  F440  1  0.71179810  -0.00094520  0.19953888  1
  F  F441  1  0.70995240  0.00119130  0.69735899  1
  F  F442  1  0.71775544  0.49355843  0.19700784  1
  F  F443  1  0.70971600  0.49659146  0.70129986  1
  F  F444  1  0.21497178  0.24987750  0.20322809  1
  F  F445  1  0.21677353  0.26312725  0.69617382  1
  F  F446  1  0.21164441  0.74769977  0.20622643  1
  F  F447  1  0.21186509  0.74798529  0.70147460  1
  F  F448  1  0.52986056  0.24993369  0.19712898  1
  F  F449  1  0.54335433  0.25019279  0.70081374  1
  F  F450  1  0.54107308  0.75170071  0.19950017  1
  F  F451  1  0.54032870  0.74938240  0.69900800  1
  F  F452  1  0.88470656  0.23738166  0.19253945  1
  F  F453  1  0.87804461  0.24901805  0.69602589  1
  F  F454  1  0.88395240  0.75391687  0.20224318  1
  F  F455  1  0.88038183  0.74330007  0.69660079  1
  F  F456  1  0.28981555  0.00215944  0.30131974  1
  F  F457  1  0.29483549  0.00300291  0.80212560  1
  F  F458  1  0.29015732  0.49807944  0.30211046  1
  F  F459  1  0.28814266  0.50177842  0.79959076  1
  F  F460  1  0.62204759  0.00036722  0.29495822  1
  F  F461  1  0.62070457  0.00279546  0.79369055  1
  F  F462  1  0.61391613  0.49119849  0.29855101  1
  F  F463  1  0.62268243  0.49742785  0.79670881  1
  F  F464  1  0.95517200  0.00158233  0.29526184  1
  F  F465  1  0.95249686  -0.00139283  0.79609311  1
  F  F466  1  0.95677255  0.49759199  0.29879481  1
  F  F467  1  0.95507859  0.49702069  0.79635439  1
  F  F468  1  0.13364532  0.24777868  0.30354884  1
  F  F469  1  0.12161456  0.24878518  0.79760019  1
  F  F470  1  0.12340681  0.75182326  0.30295641  1
  F  F471  1  0.11830136  0.74961046  0.79686013  1
  F  F472  1  0.45503601  0.24953833  0.30004630  1
  F  F473  1  0.45376115  0.24977770  0.79695083  1
  F  F474  1  0.45523780  0.75037452  0.29772998  1
  F  F475  1  0.45488795  0.75144400  0.79706234  1
  F  F476  1  0.79999634  0.23568111  0.30939719  1
  F  F477  1  0.78510371  0.24990630  0.79469463  1
  F  F478  1  0.79075352  0.75336561  0.30109979  1
  F  F479  1  0.78758532  0.74199637  0.79711214  1
