# generated using pymatgen
data_K24Na3Li5Mg64Fe17Si79(O5F)48
_symmetry_space_group_name_H-M   'P 1'
_cell_length_a   16.12125514
_cell_length_b   18.59059944
_cell_length_c   20.59050195
_cell_angle_alpha   89.99874935
_cell_angle_beta   99.98350791
_cell_angle_gamma   89.99665678
_symmetry_Int_Tables_number   1
_chemical_formula_structural   K24Na3Li5Mg64Fe17Si79(O5F)48
_chemical_formula_sum   'K24 Na3 Li5 Mg64 Fe17 Si79 O240 F48'
_cell_volume   6077.60765713
_cell_formula_units_Z   1
loop_
 _symmetry_equiv_pos_site_id
 _symmetry_equiv_pos_as_xyz
  1  'x, y, z'
loop_
 _atom_site_type_symbol
 _atom_site_label
 _atom_site_symmetry_multiplicity
 _atom_site_fract_x
 _atom_site_fract_y
 _atom_site_fract_z
 _atom_site_occupancy
  K  K0  1  0.01004158  0.00011493  -0.00709416  1
  K  K1  1  0.00188691  0.00082434  0.50199813  1
  K  K2  1  0.00634624  0.50388323  -0.01228455  1
  K  K3  1  0.00005269  0.50353012  0.51046611  1
  K  K4  1  0.31431648  -0.00247526  -0.00844307  1
  K  K5  1  0.33018669  -0.00634674  0.49890605  1
  K  K6  1  0.32857321  0.50072318  -0.01750860  1
  K  K7  1  0.33056095  0.48480796  0.50846790  1
  K  K8  1  0.66922461  0.00238382  0.00463381  1
  K  K9  1  0.66092009  0.00927757  0.50503006  1
  K  K10  1  0.66117893  0.50423542  -0.00248909  1
  K  K11  1  0.67684109  0.49972417  0.50646596  1
  K  K12  1  0.18029261  0.23978044  -0.00600113  1
  K  K13  1  0.16758954  0.24055636  0.50525910  1
  K  K14  1  0.17265253  0.75084898  -0.00481118  1
  K  K15  1  0.16043404  0.75915446  0.50597186  1
  K  K16  1  0.50207448  0.24929534  0.00034247  1
  K  K17  1  0.50811452  0.25032660  0.50588929  1
  K  K18  1  0.49836874  0.75376037  -0.00091463  1
  K  K19  1  0.49846866  0.75314260  0.50210574  1
  K  K20  1  0.83165364  0.23826513  -0.00178707  1
  K  K21  1  0.81580188  0.24726953  0.50593455  1
  K  K22  1  0.83303285  0.76049730  -0.00411488  1
  K  K23  1  0.82988485  0.75263880  0.51156074  1
  Na  Na24  1  0.83796022  0.00178778  0.25041920  1
  Na  Na25  1  0.32968603  0.07667998  0.75716770  1
  Na  Na26  1  0.33382901  0.41814404  0.75059448  1
  Li  Li27  1  0.17079053  -0.00110266  0.76078590  1
  Li  Li28  1  0.16492475  0.00144527  0.23776363  1
  Li  Li29  1  0.67194741  0.07959308  0.25215525  1
  Li  Li30  1  0.00430349  0.07252857  0.25099277  1
  Li  Li31  1  0.32598515  0.92431657  0.24851654  1
  Mg  Mg32  1  0.50153694  -0.00056728  0.25109584  1
  Mg  Mg33  1  0.66806373  0.75308252  0.24884211  1
  Mg  Mg34  1  0.33328386  0.24525950  0.24803485  1
  Mg  Mg35  1  0.33356940  0.75023856  0.74993074  1
  Mg  Mg36  1  0.66732230  0.25182962  0.74638886  1
  Mg  Mg37  1  0.83246832  0.49986202  0.25287322  1
  Mg  Mg38  1  -0.00049210  0.24774890  0.75394798  1
  Mg  Mg39  1  -0.00093936  0.24464351  0.25092288  1
  Mg  Mg40  1  0.33317659  0.75568229  0.24568678  1
  Mg  Mg41  1  0.00181698  0.75178308  0.24938714  1
  Mg  Mg42  1  0.00168678  0.75126969  0.75229022  1
  Mg  Mg43  1  0.50114540  0.50030926  0.24810548  1
  Mg  Mg44  1  0.50038932  0.49993628  0.74590072  1
  Mg  Mg45  1  0.49726468  -0.00151397  0.74695851  1
  Mg  Mg46  1  0.66787468  0.24415104  0.25494990  1
  Mg  Mg47  1  0.16687788  0.49946257  0.25043125  1
  Mg  Mg48  1  0.33234038  0.24907891  0.75312045  1
  Mg  Mg49  1  0.83112586  0.00164425  0.74736070  1
  Mg  Mg50  1  0.83377440  0.50082317  0.74647763  1
  Mg  Mg51  1  0.16908282  0.50080336  0.75357007  1
  Mg  Mg52  1  0.66555928  0.75092419  0.74454851  1
  Mg  Mg53  1  0.83636555  0.16196399  0.25303635  1
  Mg  Mg54  1  0.00050198  0.58382826  0.25176503  1
  Mg  Mg55  1  0.32931379  0.91448402  0.75043574  1
  Mg  Mg56  1  0.00192850  0.91825852  0.75217316  1
  Mg  Mg57  1  0.66446053  0.58479493  0.24733609  1
  Mg  Mg58  1  0.16911873  0.83805563  0.24744293  1
  Mg  Mg59  1  0.66331619  0.41628972  0.74532316  1
  Mg  Mg60  1  0.17016766  0.16236312  0.75821885  1
  Mg  Mg61  1  0.50308554  0.33175635  0.25189932  1
  Mg  Mg62  1  0.83095685  0.33491508  0.74753585  1
  Mg  Mg63  1  0.16223886  0.16145877  0.24637584  1
  Mg  Mg64  1  0.49628199  0.66692290  0.74336295  1
  Mg  Mg65  1  0.00297008  0.41583794  0.75321883  1
  Mg  Mg66  1  0.17035308  0.66435487  0.75232328  1
  Mg  Mg67  1  -0.00121498  0.41468364  0.25220239  1
  Mg  Mg68  1  0.49547648  0.16596927  0.74672176  1
  Mg  Mg69  1  0.50343243  0.16202056  0.25173123  1
  Mg  Mg70  1  0.16967676  0.83713025  0.75192150  1
  Mg  Mg71  1  0.00518024  0.92087036  0.24872280  1
  Mg  Mg72  1  0.49789613  0.33511674  0.74845621  1
  Mg  Mg73  1  0.33425530  0.58578741  0.24831944  1
  Mg  Mg74  1  0.66620806  0.41306228  0.25154029  1
  Mg  Mg75  1  0.49850569  0.83615713  0.24838184  1
  Mg  Mg76  1  0.66452665  0.58574478  0.74336682  1
  Mg  Mg77  1  0.49547327  0.83552693  0.74764327  1
  Mg  Mg78  1  0.16522607  0.33199544  0.24878202  1
  Mg  Mg79  1  0.33445891  0.41474272  0.25094201  1
  Mg  Mg80  1  0.83167020  0.66698270  0.74817948  1
  Mg  Mg81  1  0.00239100  0.58551402  0.74969844  1
  Mg  Mg82  1  0.16964848  0.33216175  0.75604357  1
  Mg  Mg83  1  0.83125643  0.83471253  0.74781718  1
  Mg  Mg84  1  0.66193495  0.91703280  0.74374398  1
  Mg  Mg85  1  0.32982464  0.07711826  0.24829082  1
  Mg  Mg86  1  0.83299081  0.33225483  0.25453000  1
  Mg  Mg87  1  0.49952227  0.66624653  0.24520641  1
  Mg  Mg88  1  0.83707699  0.83689840  0.25060897  1
  Mg  Mg89  1  0.33251388  0.58408914  0.75095085  1
  Mg  Mg90  1  0.00203267  0.08160254  0.75193182  1
  Mg  Mg91  1  0.66092854  0.08616077  0.74381729  1
  Mg  Mg92  1  0.66950346  0.92119360  0.25114603  1
  Mg  Mg93  1  0.16789817  0.66682466  0.25005090  1
  Mg  Mg94  1  0.83337065  0.66739002  0.24944240  1
  Mg  Mg95  1  0.82945110  0.16675211  0.74797491  1
  Fe  Fe96  1  0.68633797  0.16517190  0.60721116  1
  Fe  Fe97  1  0.14157485  0.08744536  0.89419733  1
  Fe  Fe98  1  0.69063569  0.66628620  0.60687689  1
  Fe  Fe99  1  0.35301931  0.66383962  0.60822969  1
  Fe  Fe100  1  0.18930280  0.91408373  0.10889748  1
  Fe  Fe101  1  0.14248639  0.58548192  0.89202900  1
  Fe  Fe102  1  0.14046684  0.91026756  0.89171501  1
  Fe  Fe103  1  0.51895191  0.91683268  0.60717743  1
  Fe  Fe104  1  0.64235519  0.33130295  0.39168393  1
  Fe  Fe105  1  0.51399502  0.41974131  0.60662663  1
  Fe  Fe106  1  0.69246003  0.34151829  0.60695144  1
  Fe  Fe107  1  0.31854098  0.83133125  0.89212511  1
  Fe  Fe108  1  0.19004987  0.57544276  0.60836031  1
  Fe  Fe109  1  0.34751353  0.83439703  0.60651912  1
  Fe  Fe110  1  0.18761650  0.08823967  0.10758971  1
  Fe  Fe111  1  0.31850924  0.33280460  0.89385072  1
  Fe  Fe112  1  0.52753793  0.58273093  0.10658279  1
  Si  Si113  1  0.48824986  0.41996398  0.88874958  1
  Si  Si114  1  0.48156403  0.92022669  0.88927028  1
  Si  Si115  1  0.81237404  0.42063547  0.38902766  1
  Si  Si116  1  0.47387259  0.91478662  0.38327875  1
  Si  Si117  1  0.86793821  0.08568167  0.11646489  1
  Si  Si118  1  0.52784159  0.41086536  0.11265455  1
  Si  Si119  1  0.97780385  0.83457683  0.38601446  1
  Si  Si120  1  0.19132614  0.58354779  0.11527084  1
  Si  Si121  1  0.97374867  0.16657537  0.38897373  1
  Si  Si122  1  0.85831577  0.58213616  0.11690572  1
  Si  Si123  1  0.02334685  0.16587947  0.61788264  1
  Si  Si124  1  0.96359353  0.83235384  0.88648300  1
  Si  Si125  1  0.02065800  0.34057379  0.11493835  1
  Si  Si126  1  0.47209118  0.08053001  0.38533796  1
  Si  Si127  1  0.30702666  0.66857508  0.38429916  1
  Si  Si128  1  0.64180315  0.83430129  0.38559492  1
  Si  Si129  1  0.96646057  0.66693307  0.88721291  1
  Si  Si130  1  0.85412737  0.41863001  0.11722188  1
  Si  Si131  1  0.64258004  0.15883108  0.38836068  1
  Si  Si132  1  0.63952732  0.16841246  0.88386956  1
  Si  Si133  1  0.18508759  0.08550209  0.61910369  1
  Si  Si134  1  0.30582271  0.83331065  0.38309753  1
  Si  Si135  1  0.80055409  0.91906931  0.88190800  1
  Si  Si136  1  0.30486691  0.33201729  0.38423924  1
  Si  Si137  1  0.69892060  0.67325250  0.11174207  1
  Si  Si138  1  0.02234872  0.66035071  0.11574233  1
  Si  Si139  1  0.69957915  0.83982786  0.11514968  1
  Si  Si140  1  0.80152756  0.08306191  0.88304762  1
  Si  Si141  1  0.02341831  0.82460613  0.11174020  1
  Si  Si142  1  0.36512721  0.83558029  0.11237450  1
  Si  Si143  1  0.53182948  0.08306046  0.11808994  1
  Si  Si144  1  0.13973076  0.41107908  0.89332520  1
  Si  Si145  1  0.64615131  0.33220497  0.88579638  1
  Si  Si146  1  0.51086576  0.08524036  0.60838857  1
  Si  Si147  1  0.80925451  0.91347890  0.38666706  1
  Si  Si148  1  0.97694979  0.66872881  0.38534924  1
  Si  Si149  1  0.69999238  0.16207200  0.11784928  1
  Si  Si150  1  0.69290771  0.83919264  0.60851418  1
  Si  Si151  1  0.31984093  0.66252428  0.89092279  1
  Si  Si152  1  0.46925082  0.41890734  0.38591518  1
  Si  Si153  1  0.64033490  0.67007897  0.88206670  1
  Si  Si154  1  0.02878663  0.67147554  0.61323588  1
  Si  Si155  1  0.14216047  0.58240352  0.38555871  1
  Si  Si156  1  0.34930047  0.16703238  0.61651249  1
  Si  Si157  1  0.47288183  0.58580023  0.38348913  1
  Si  Si158  1  0.35251734  0.32720457  0.61289326  1
  Si  Si159  1  0.80964707  0.08097816  0.38733615  1
  Si  Si160  1  0.64136887  0.66761424  0.38368220  1
  Si  Si161  1  0.96815956  0.33456561  0.88590832  1
  Si  Si162  1  0.48333402  0.08182645  0.88482058  1
  Si  Si163  1  0.64054877  0.83360051  0.88279269  1
  Si  Si164  1  0.14015607  0.41549826  0.38569817  1
  Si  Si165  1  0.80650980  0.41933843  0.88412469  1
  Si  Si166  1  0.18575013  0.92310925  0.61247779  1
  Si  Si167  1  0.02747938  0.32707849  0.61944777  1
  Si  Si168  1  0.86180305  0.91667259  0.61596874  1
  Si  Si169  1  0.80168055  0.58271088  0.88326785  1
  Si  Si170  1  0.14103135  0.91796900  0.38364067  1
  Si  Si171  1  0.02499426  0.83554712  0.61601440  1
  Si  Si172  1  0.31948133  0.16571433  0.89292496  1
  Si  Si173  1  0.97522414  0.33237704  0.38808064  1
  Si  Si174  1  0.86114182  0.08182879  0.61331984  1
  Si  Si175  1  0.36611847  0.16449437  0.11387942  1
  Si  Si176  1  0.52162314  0.58715666  0.60835686  1
  Si  Si177  1  0.30689214  0.16550341  0.38478969  1
  Si  Si178  1  0.86792360  0.91762886  0.11495791  1
  Si  Si179  1  0.19221052  0.41634588  0.11556366  1
  Si  Si180  1  0.13862545  0.08513944  0.38327379  1
  Si  Si181  1  0.48341255  0.58235105  0.88322042  1
  Si  Si182  1  0.87043350  0.41777893  0.61404639  1
  Si  Si183  1  0.35534274  0.66911901  0.11076146  1
  Si  Si184  1  0.18379993  0.40853606  0.61579539  1
  Si  Si185  1  0.86555538  0.58513641  0.61224303  1
  Si  Si186  1  0.53110476  0.91719084  0.11536520  1
  Si  Si187  1  0.96476364  0.16958845  0.88761768  1
  Si  Si188  1  0.02283429  0.17799689  0.11028861  1
  Si  Si189  1  0.80973262  0.58740523  0.38473309  1
  Si  Si190  1  0.69527756  0.32643126  0.11656376  1
  Si  Si191  1  0.35926749  0.33180982  0.11637427  1
  O  O192  1  0.28779718  0.11865912  0.07770327  1
  O  O193  1  0.26808501  0.11392332  0.58834301  1
  O  O194  1  0.26419267  0.62676710  0.08611342  1
  O  O195  1  0.28073443  0.59308888  0.56752442  1
  O  O196  1  0.61266468  0.11817130  0.08867581  1
  O  O197  1  0.58955490  0.11083026  0.57419148  1
  O  O198  1  0.61789973  0.63014601  0.07496195  1
  O  O199  1  0.60748918  0.59889726  0.57653184  1
  O  O200  1  0.93705596  0.12968764  0.08103138  1
  O  O201  1  0.94680140  0.11089506  0.58693047  1
  O  O202  1  0.94360652  0.60502704  0.08869514  1
  O  O203  1  0.94628288  0.62067512  0.58455528  1
  O  O204  1  0.10203225  0.37605761  0.08709266  1
  O  O205  1  0.11250741  0.34468099  0.58902549  1
  O  O206  1  0.10265466  0.84380089  0.07837150  1
  O  O207  1  0.10073409  0.87225043  0.58387261  1
  O  O208  1  0.43687320  0.36993680  0.08718977  1
  O  O209  1  0.42488171  0.35419119  0.57280313  1
  O  O210  1  0.45218260  0.86457989  0.08617773  1
  O  O211  1  0.43895346  0.85446672  0.56521151  1
  O  O212  1  0.77149103  0.36950612  0.08709962  1
  O  O213  1  0.79357435  0.37039138  0.57753571  1
  O  O214  1  0.77480901  0.88084567  0.08459283  1
  O  O215  1  0.78244875  0.86566996  0.58481048  1
  O  O216  1  0.27012109  0.37548310  0.08890885  1
  O  O217  1  0.26912703  0.37954788  0.58970938  1
  O  O218  1  0.29028368  0.88700797  0.07923588  1
  O  O219  1  0.25862330  0.90004109  0.57201492  1
  O  O220  1  0.60290837  0.36163177  0.08766871  1
  O  O221  1  0.60913785  0.40409122  0.57011801  1
  O  O222  1  0.61245768  0.88316013  0.08581917  1
  O  O223  1  0.62376945  0.89882594  0.57900772  1
  O  O224  1  0.93831051  0.39305537  0.08828339  1
  O  O225  1  0.95669552  0.38731672  0.58946072  1
  O  O226  1  0.93803113  0.87287844  0.08136082  1
  O  O227  1  0.94135254  0.88361262  0.58571437  1
  O  O228  1  0.10103988  0.15658895  0.07578329  1
  O  O229  1  0.10614142  0.14059925  0.58659661  1
  O  O230  1  0.10200640  0.62483588  0.08699478  1
  O  O231  1  0.10333391  0.64380654  0.57673370  1
  O  O232  1  0.45191634  0.13500007  0.08728135  1
  O  O233  1  0.43099630  0.14189559  0.58419760  1
  O  O234  1  0.42503094  0.62915179  0.07606188  1
  O  O235  1  0.46021471  0.65504169  0.58375847  1
  O  O236  1  0.77411496  0.12168612  0.08487996  1
  O  O237  1  0.78188876  0.12665572  0.57578959  1
  O  O238  1  0.78395889  0.63873618  0.08723119  1
  O  O239  1  0.78473029  0.62834303  0.57422806  1
  O  O240  1  0.06371348  0.12503606  0.41813861  1
  O  O241  1  0.05117054  0.13669129  0.92514201  1
  O  O242  1  0.06212676  0.62070027  0.41283004  1
  O  O243  1  0.05324175  0.63282024  0.92542541  1
  O  O244  1  0.39540290  0.12286886  0.41439029  1
  O  O245  1  0.40002540  0.10767863  0.91337365  1
  O  O246  1  0.39768493  0.62901160  0.41207018  1
  O  O247  1  0.40016283  0.60471751  0.91326774  1
  O  O248  1  0.72816978  0.11068866  0.41811757  1
  O  O249  1  0.72355454  0.11982238  0.91376219  1
  O  O250  1  0.72995900  0.62411767  0.41274630  1
  O  O251  1  0.72506903  0.62275685  0.91287405  1
  O  O252  1  0.22561390  0.36942185  0.41346743  1
  O  O253  1  0.22364817  0.36829621  0.92752723  1
  O  O254  1  0.23114196  0.87668756  0.41335775  1
  O  O255  1  0.22804142  0.85343160  0.93155829  1
  O  O256  1  0.54910026  0.37361233  0.42030490  1
  O  O257  1  0.57400156  0.37159076  0.92028809  1
  O  O258  1  0.56384839  0.87289473  0.41459535  1
  O  O259  1  0.56454497  0.86721487  0.91613396  1
  O  O260  1  0.90194333  0.37787281  0.41636886  1
  O  O261  1  0.89871795  0.38523462  0.91538029  1
  O  O262  1  0.89761341  0.86889728  0.41602334  1
  O  O263  1  0.88379360  0.87321532  0.91296487  1
  O  O264  1  0.06378864  0.37616653  0.41538349  1
  O  O265  1  0.05951874  0.36720241  0.91831867  1
  O  O266  1  0.06454163  0.87825170  0.41690814  1
  O  O267  1  0.04710909  0.86898568  0.92450977  1
  O  O268  1  0.38546069  0.38368648  0.41109275  1
  O  O269  1  0.41232390  0.39448197  0.92507215  1
  O  O270  1  0.39706386  0.87230001  0.41083823  1
  O  O271  1  0.40819187  0.89526091  0.92777798  1
  O  O272  1  0.73872376  0.38853862  0.42309017  1
  O  O273  1  0.73585688  0.37335478  0.91542931  1
  O  O274  1  0.73136077  0.87472874  0.41751297  1
  O  O275  1  0.72392179  0.88210442  0.91349425  1
  O  O276  1  0.22861071  0.12777475  0.41486978  1
  O  O277  1  0.24314092  0.13549993  0.92722606  1
  O  O278  1  0.23003267  0.62531632  0.41169588  1
  O  O279  1  0.24451580  0.63098132  0.92691452  1
  O  O280  1  0.56270371  0.11851672  0.41564519  1
  O  O281  1  0.56208593  0.13637060  0.91739731  1
  O  O282  1  0.56342575  0.62671791  0.41068708  1
  O  O283  1  0.56187915  0.63737976  0.91390203  1
  O  O284  1  0.89785448  0.12534269  0.41996891  1
  O  O285  1  0.88555619  0.12823908  0.91489810  1
  O  O286  1  0.89558566  0.63416438  0.41314470  1
  O  O287  1  0.88979481  0.62230794  0.91513156  1
  O  O288  1  0.15049633  0.00082479  0.07300584  1
  O  O289  1  0.15692347  0.00621923  0.58667856  1
  O  O290  1  0.18421047  0.49982744  0.08781660  1
  O  O291  1  0.15215746  0.48165434  0.57640943  1
  O  O292  1  0.51942621  0.00040140  0.08697411  1
  O  O293  1  0.47782679  0.00813560  0.57799769  1
  O  O294  1  0.52764795  0.48711377  0.07559597  1
  O  O295  1  0.47630338  0.51246674  0.58032129  1
  O  O296  1  0.86320118  0.00144204  0.08841141  1
  O  O297  1  0.84797973  -0.00197281  0.58596226  1
  O  O298  1  0.83145242  0.50085342  0.08919890  1
  O  O299  1  0.86138047  0.50113668  0.58563222  1
  O  O300  1  -0.00509961  0.26200218  0.08326393  1
  O  O301  1  -0.00395494  0.24731031  0.58924954  1
  O  O302  1  -0.00527202  0.74001937  0.08711592  1
  O  O303  1  0.00489152  0.75441542  0.58495778  1
  O  O304  1  0.35210585  0.24989878  0.08803643  1
  O  O305  1  0.32018886  0.24621991  0.58382713  1
  O  O306  1  0.34593786  0.75206928  0.08360713  1
  O  O307  1  0.30410637  0.74761210  0.57255457  1
  O  O308  1  0.69310788  0.24476936  0.08556778  1
  O  O309  1  0.66590562  0.25330874  0.56791047  1
  O  O310  1  0.69499487  0.75737917  0.08501289  1
  O  O311  1  0.67187479  0.76101366  0.57383288  1
  O  O312  1  0.14776490  0.00140170  0.41222251  1
  O  O313  1  0.15075862  -0.00153139  0.93302723  1
  O  O314  1  0.15014119  0.49893519  0.41339083  1
  O  O315  1  0.14043293  0.49099075  0.92633747  1
  O  O316  1  0.47761345  -0.00280214  0.41385430  1
  O  O317  1  0.51368243  0.00218249  0.91560316  1
  O  O318  1  0.47571102  0.50353781  0.41171353  1
  O  O319  1  0.51522024  0.50333794  0.91394920  1
  O  O320  1  0.82376063  -0.00365534  0.41456559  1
  O  O321  1  0.81073807  0.00081359  0.91301526  1
  O  O322  1  0.82857451  0.50591554  0.41351870  1
  O  O323  1  0.80560373  0.50105394  0.91504351  1
  O  O324  1  0.31643678  0.24973873  0.41387534  1
  O  O325  1  0.35268193  0.24141461  0.92897513  1
  O  O326  1  0.31104518  0.75032299  0.41396160  1
  O  O327  1  0.35458320  0.73842366  0.92313771  1
  O  O328  1  0.65777285  0.23689970  0.42309286  1
  O  O329  1  0.65871431  0.24958073  0.91570099  1
  O  O330  1  0.65049842  0.74999192  0.41319881  1
  O  O331  1  0.65923345  0.75156611  0.91305025  1
  O  O332  1  0.98325511  0.25073791  0.41938101  1
  O  O333  1  0.95584616  0.25359913  0.91377350  1
  O  O334  1  0.99077942  0.75064057  0.41477944  1
  O  O335  1  0.95502762  0.74927211  0.91332803  1
  O  O336  1  0.21332732  0.08782991  0.19844463  1
  O  O337  1  0.19941190  0.08628924  0.69716185  1
  O  O338  1  0.20855989  0.58238493  0.19595244  1
  O  O339  1  0.21097150  0.58201282  0.70021151  1
  O  O340  1  0.54462764  0.08200685  0.19733443  1
  O  O341  1  0.53765855  0.08534283  0.68993334  1
  O  O342  1  0.54572131  0.58308562  0.19905145  1
  O  O343  1  0.54522296  0.58535045  0.69070588  1
  O  O344  1  0.88470983  0.09289176  0.19455541  1
  O  O345  1  0.87422612  0.08433489  0.69412104  1
  O  O346  1  0.87679935  0.58241654  0.19754294  1
  O  O347  1  0.87823766  0.58545154  0.69329845  1
  O  O348  1  0.04112674  0.33845843  0.19546346  1
  O  O349  1  0.04194475  0.32965609  0.69968859  1
  O  O350  1  0.04173945  0.82800339  0.19262575  1
  O  O351  1  0.04008539  0.83298745  0.69568837  1
  O  O352  1  0.37690624  0.33361654  0.19702090  1
  O  O353  1  0.38027170  0.32487927  0.69209672  1
  O  O354  1  0.38321739  0.82970935  0.19235087  1
  O  O355  1  0.37734508  0.83292815  0.69879044  1
  O  O356  1  0.71448494  0.33172868  0.19648405  1
  O  O357  1  0.71282855  0.33544055  0.69986847  1
  O  O358  1  0.71465589  0.83487679  0.19525303  1
  O  O359  1  0.71053984  0.83508644  0.69040336  1
  O  O360  1  0.20902347  0.41681183  0.19625740  1
  O  O361  1  0.19426164  0.41488737  0.69523245  1
  O  O362  1  0.21071161  0.91451062  0.19818771  1
  O  O363  1  0.20813452  0.91462065  0.69133590  1
  O  O364  1  0.54401173  0.41582384  0.19358509  1
  O  O365  1  0.54359044  0.41568972  0.69891898  1
  O  O366  1  0.54766934  0.91535405  0.19544602  1
  O  O367  1  0.54364373  0.91602864  0.69950932  1
  O  O368  1  0.87476890  0.41761138  0.19774230  1
  O  O369  1  0.88093492  0.41763487  0.69494907  1
  O  O370  1  0.88491004  0.90841317  0.19370864  1
  O  O371  1  0.87533882  0.91648287  0.69619039  1
  O  O372  1  0.04410623  0.17833420  0.19010930  1
  O  O373  1  0.03836644  0.16735523  0.69755992  1
  O  O374  1  0.04265478  0.66223827  0.19631713  1
  O  O375  1  0.04206200  0.66981414  0.69381806  1
  O  O376  1  0.38090747  0.16591000  0.19484923  1
  O  O377  1  0.37464486  0.17025249  0.69555047  1
  O  O378  1  0.37489049  0.66630249  0.19220366  1
  O  O379  1  0.37536277  0.66673599  0.70112014  1
  O  O380  1  0.71683118  0.16921501  0.19683005  1
  O  O381  1  0.71017793  0.16764774  0.69961379  1
  O  O382  1  0.71258271  0.66898684  0.19282929  1
  O  O383  1  0.71320212  0.66820416  0.69883176  1
  O  O384  1  0.11914486  0.09091580  0.30522643  1
  O  O385  1  0.11627060  0.08523690  0.80387676  1
  O  O386  1  0.12286518  0.58181898  0.30488832  1
  O  O387  1  0.11862525  0.58446100  0.80106275  1
  O  O388  1  0.45647467  0.08328941  0.30548677  1
  O  O389  1  0.47173585  0.08279380  0.80577549  1
  O  O390  1  0.45529834  0.58511453  0.30288571  1
  O  O391  1  0.46541060  0.58329629  0.80365175  1
  O  O392  1  0.79197675  0.08896712  0.30928061  1
  O  O393  1  0.78623433  0.08252751  0.80335392  1
  O  O394  1  0.79060358  0.58601508  0.30407595  1
  O  O395  1  0.78891491  0.58247405  0.80351231  1
  O  O396  1  0.28709367  0.33297058  0.30378078  1
  O  O397  1  0.28714761  0.32769857  0.80458098  1
  O  O398  1  0.28713599  0.82735782  0.30408488  1
  O  O399  1  0.28912849  0.83035946  0.80087240  1
  O  O400  1  0.62344623  0.33223377  0.29939430  1
  O  O401  1  0.62679540  0.33239102  0.80634509  1
  O  O402  1  0.62554661  0.83283284  0.30523345  1
  O  O403  1  0.62588892  0.83317394  0.80315440  1
  O  O404  1  0.95771297  0.33373567  0.30741769  1
  O  O405  1  0.95281936  0.33510197  0.80562960  1
  O  O406  1  0.95826397  0.83084573  0.30607178  1
  O  O407  1  0.95074348  0.83340541  0.80565720  1
  O  O408  1  0.12225834  0.41664659  0.30512027  1
  O  O409  1  0.12160194  0.41394078  0.81190882  1
  O  O410  1  0.12027355  0.90877447  0.30533437  1
  O  O411  1  0.11670500  0.91261545  0.80095272  1
  O  O412  1  0.45527569  0.41790907  0.30452902  1
  O  O413  1  0.47160838  0.41681452  0.80944743  1
  O  O414  1  0.46294466  0.91497863  0.30433470  1
  O  O415  1  0.46138250  0.91753531  0.80929765  1
  O  O416  1  0.79319490  0.41823402  0.30771195  1
  O  O417  1  0.79078081  0.41977870  0.80440524  1
  O  O418  1  0.78811560  0.90788889  0.30769310  1
  O  O419  1  0.78470869  0.91842310  0.80182779  1
  O  O420  1  0.29005539  0.16867181  0.30505961  1
  O  O421  1  0.29133075  0.17240226  0.81348149  1
  O  O422  1  0.28949727  0.66581111  0.30367191  1
  O  O423  1  0.29326629  0.66580353  0.81037501  1
  O  O424  1  0.62262470  0.16505665  0.30841345  1
  O  O425  1  0.62240053  0.16818495  0.80425837  1
  O  O426  1  0.62640809  0.66806089  0.30339815  1
  O  O427  1  0.62366348  0.66849194  0.80250065  1
  O  O428  1  0.95427035  0.17268351  0.31001446  1
  O  O429  1  0.95002540  0.16695127  0.80689672  1
  O  O430  1  0.95770516  0.66657051  0.30486473  1
  O  O431  1  0.95313415  0.66582327  0.80627802  1
  F  F432  1  0.04170635  -0.00321755  0.19675843  1
  F  F433  1  0.02515400  -0.00042477  0.69685449  1
  F  F434  1  0.04397295  0.49932998  0.20349530  1
  F  F435  1  0.04237104  0.49810531  0.70438436  1
  F  F436  1  0.38584130  0.00303354  0.20055523  1
  F  F437  1  0.38079978  -0.00932142  0.70136631  1
  F  F438  1  0.37693649  0.49938691  0.20192412  1
  F  F439  1  0.38275463  0.50813402  0.70174620  1
  F  F440  1  0.70399849  -0.00387069  0.19649317  1
  F  F441  1  0.71170016  0.00188468  0.69846147  1
  F  F442  1  0.71385458  0.49931479  0.20322172  1
  F  F443  1  0.71536779  0.50077030  0.69954230  1
  F  F444  1  0.21245139  0.25321548  0.20136369  1
  F  F445  1  0.20756421  0.24649605  0.70606588  1
  F  F446  1  0.21071059  0.74616781  0.20079348  1
  F  F447  1  0.20793174  0.74810165  0.70399820  1
  F  F448  1  0.54646051  0.24704848  0.20252337  1
  F  F449  1  0.54604285  0.25000056  0.70242365  1
  F  F450  1  0.54902476  0.75038992  0.20114091  1
  F  F451  1  0.54652274  0.75192400  0.70073805  1
  F  F452  1  0.87868927  0.25401429  0.20438766  1
  F  F453  1  0.87884915  0.25053827  0.70345166  1
  F  F454  1  0.87955583  0.74814702  0.20273359  1
  F  F455  1  0.87953388  0.75057185  0.70255276  1
  F  F456  1  0.29952219  0.00277899  0.30658596  1
  F  F457  1  0.28612621  -0.01515371  0.80770310  1
  F  F458  1  0.28743449  0.50040128  0.29757716  1
  F  F459  1  0.28515036  0.50749408  0.80610559  1
  F  F460  1  0.61987578  -0.00630290  0.30314441  1
  F  F461  1  0.62471296  0.00258655  0.79480959  1
  F  F462  1  0.62362621  0.49967889  0.29819314  1
  F  F463  1  0.62675339  0.50319689  0.79537959  1
  F  F464  1  0.96781686  -0.00827998  0.30783946  1
  F  F465  1  0.94741204  0.00032260  0.80007949  1
  F  F466  1  0.95533997  0.50034649  0.30004034  1
  F  F467  1  0.95229022  0.50120753  0.79862734  1
  F  F468  1  0.12024891  0.25338495  0.29806526  1
  F  F469  1  0.11730369  0.24915929  0.80276473  1
  F  F470  1  0.12035942  0.74607163  0.29782625  1
  F  F471  1  0.11900177  0.74840922  0.79942835  1
  F  F472  1  0.45381615  0.24951441  0.29769318  1
  F  F473  1  0.45830972  0.24972313  0.79868915  1
  F  F474  1  0.45608925  0.74797564  0.29556314  1
  F  F475  1  0.46187386  0.74980406  0.79894052  1
  F  F476  1  0.79001609  0.25125648  0.30179754  1
  F  F477  1  0.78989712  0.25125620  0.80055161  1
  F  F478  1  0.78965583  0.74896163  0.29798931  1
  F  F479  1  0.78728487  0.75305472  0.79757351  1
