# generated using pymatgen
data_K24Na3Li5Mg64Fe17Si79(O5F)48
_symmetry_space_group_name_H-M   'P 1'
_cell_length_a   16.10311167
_cell_length_b   18.59661701
_cell_length_c   20.55524958
_cell_angle_alpha   89.99999201
_cell_angle_beta   100.01848646
_cell_angle_gamma   90.00186480
_symmetry_Int_Tables_number   1
_chemical_formula_structural   K24Na3Li5Mg64Fe17Si79(O5F)48
_chemical_formula_sum   'K24 Na3 Li5 Mg64 Fe17 Si79 O240 F48'
_cell_volume   6061.68317799
_cell_formula_units_Z   1
loop_
 _symmetry_equiv_pos_site_id
 _symmetry_equiv_pos_as_xyz
  1  'x, y, z'
loop_
 _atom_site_type_symbol
 _atom_site_label
 _atom_site_symmetry_multiplicity
 _atom_site_fract_x
 _atom_site_fract_y
 _atom_site_fract_z
 _atom_site_occupancy
  K  K0  1  0.01794502  0.00424386  0.00145988  1
  K  K1  1  0.00986918  0.00751295  0.50130524  1
  K  K2  1  0.00543147  0.49725627  -0.00090374  1
  K  K3  1  0.00819697  0.50241640  0.50248602  1
  K  K4  1  0.33113243  0.00494460  0.00481351  1
  K  K5  1  0.32953313  -0.00265034  0.49932203  1
  K  K6  1  0.33365010  0.49225321  -0.00338315  1
  K  K7  1  0.33165377  0.49627499  0.49725049  1
  K  K8  1  0.66865867  0.01034117  -0.00186858  1
  K  K9  1  0.65410557  0.00841161  0.49877864  1
  K  K10  1  0.66642496  0.49605651  -0.00113081  1
  K  K11  1  0.66138035  0.48362811  0.49929316  1
  K  K12  1  0.17969741  0.24797675  0.00477067  1
  K  K13  1  0.16374067  0.24962167  0.50622603  1
  K  K14  1  0.15809614  0.75281136  -0.00498133  1
  K  K15  1  0.16909241  0.76059533  0.50568781  1
  K  K16  1  0.48896627  0.25067057  0.00331683  1
  K  K17  1  0.49924779  0.24741930  0.49223038  1
  K  K18  1  0.48563505  0.74640917  -0.00799419  1
  K  K19  1  0.48370519  0.75134476  0.50204146  1
  K  K20  1  0.83421219  0.25232618  -0.00060634  1
  K  K21  1  0.82825339  0.24809153  0.49883854  1
  K  K22  1  0.84114920  0.74287994  0.00056324  1
  K  K23  1  0.84422063  0.74551249  0.50301462  1
  Na  Na24  1  0.33322701  0.74868325  0.75168528  1
  Na  Na25  1  0.33736764  0.41795238  0.24679089  1
  Na  Na26  1  0.50000668  0.33068021  0.25004456  1
  Li  Li27  1  0.67096896  0.25213056  0.75284171  1
  Li  Li28  1  0.33471401  0.24903779  0.75687302  1
  Li  Li29  1  0.82671853  0.32952271  0.75045545  1
  Li  Li30  1  0.16356009  0.66602261  0.24316520  1
  Li  Li31  1  0.33587527  0.08645058  0.25419844  1
  Mg  Mg32  1  0.83033570  0.49741653  0.74670213  1
  Mg  Mg33  1  0.49920126  0.00150196  0.75105387  1
  Mg  Mg34  1  0.66495928  0.74925942  0.74902031  1
  Mg  Mg35  1  0.66878508  0.74997245  0.25104772  1
  Mg  Mg36  1  0.83289024  0.00219147  0.25185362  1
  Mg  Mg37  1  0.33659436  0.24617451  0.25340869  1
  Mg  Mg38  1  0.49817664  0.49791415  0.75198952  1
  Mg  Mg39  1  0.00077517  0.25134587  0.24783146  1
  Mg  Mg40  1  0.49658563  -0.00084557  0.25138752  1
  Mg  Mg41  1  0.83181342  0.00242429  0.74861072  1
  Mg  Mg42  1  0.00453324  0.75013755  0.24910325  1
  Mg  Mg43  1  -0.00506869  0.25107914  0.74565822  1
  Mg  Mg44  1  0.83704394  0.49907861  0.24620305  1
  Mg  Mg45  1  0.32970394  0.74809811  0.25192537  1
  Mg  Mg46  1  0.00040219  0.74986481  0.74955963  1
  Mg  Mg47  1  0.16571989  0.00162622  0.74978176  1
  Mg  Mg48  1  0.16963069  0.00090546  0.25405114  1
  Mg  Mg49  1  0.66552856  0.24802990  0.25293224  1
  Mg  Mg50  1  0.50299667  0.49869636  0.25136670  1
  Mg  Mg51  1  0.16843578  0.50333287  0.24592279  1
  Mg  Mg52  1  0.16481311  0.49869101  0.75105990  1
  Mg  Mg53  1  0.33443173  0.41156738  0.75228353  1
  Mg  Mg54  1  0.00336020  0.58617885  0.24456328  1
  Mg  Mg55  1  0.33532852  0.08704751  0.75180368  1
  Mg  Mg56  1  0.50048411  0.16875320  0.75412066  1
  Mg  Mg57  1  0.83268861  0.66484977  0.74794959  1
  Mg  Mg58  1  0.17070567  0.33473346  0.24542176  1
  Mg  Mg59  1  0.67001922  0.58436404  0.24921434  1
  Mg  Mg60  1  0.82961207  0.17138709  0.74819380  1
  Mg  Mg61  1  0.66670777  0.41179918  0.74869372  1
  Mg  Mg62  1  0.50050422  0.32973970  0.75223554  1
  Mg  Mg63  1  0.50014486  0.66500541  0.25131072  1
  Mg  Mg64  1  0.49898370  0.83192885  0.25371439  1
  Mg  Mg65  1  0.66535929  0.91760156  0.74775903  1
  Mg  Mg66  1  0.49700096  0.16248030  0.25530519  1
  Mg  Mg67  1  0.83326991  0.83430553  0.75062544  1
  Mg  Mg68  1  0.33339053  0.58269026  0.74988361  1
  Mg  Mg69  1  0.49871034  0.83387727  0.74834350  1
  Mg  Mg70  1  0.33161067  0.58362381  0.24911740  1
  Mg  Mg71  1  0.33380622  0.91629555  0.25520725  1
  Mg  Mg72  1  0.83110117  0.16601989  0.25269943  1
  Mg  Mg73  1  -0.00426773  0.41471479  0.74913490  1
  Mg  Mg74  1  0.83224533  0.33495531  0.24758552  1
  Mg  Mg75  1  -0.00136060  0.08650924  0.74881860  1
  Mg  Mg76  1  0.66713684  0.91559027  0.25390703  1
  Mg  Mg77  1  0.16683428  0.33177247  0.74951001  1
  Mg  Mg78  1  0.83730046  0.66633039  0.24638479  1
  Mg  Mg79  1  0.16586992  0.83304335  0.25314205  1
  Mg  Mg80  1  0.00073181  0.41667642  0.24509205  1
  Mg  Mg81  1  0.00271736  0.91765435  0.25185382  1
  Mg  Mg82  1  0.83614886  0.83533031  0.25251517  1
  Mg  Mg83  1  0.66450591  0.58217172  0.74870128  1
  Mg  Mg84  1  0.49734341  0.66491935  0.74828776  1
  Mg  Mg85  1  0.00095370  0.91738575  0.75065151  1
  Mg  Mg86  1  0.16586843  0.16875275  0.74926456  1
  Mg  Mg87  1  0.66770811  0.41510878  0.24874776  1
  Mg  Mg88  1  0.16493692  0.66492535  0.74999499  1
  Mg  Mg89  1  0.00035894  0.58401383  0.74795432  1
  Mg  Mg90  1  0.00102700  0.08613486  0.25260483  1
  Mg  Mg91  1  0.16693278  0.83555514  0.75011583  1
  Mg  Mg92  1  0.33377533  0.91603951  0.75013904  1
  Mg  Mg93  1  0.17128238  0.16551890  0.25174036  1
  Mg  Mg94  1  0.66629903  0.08480651  0.25391552  1
  Mg  Mg95  1  0.66529972  0.08857121  0.75161221  1
  Fe  Fe96  1  0.68684983  0.16657264  0.11281187  1
  Fe  Fe97  1  0.47630225  0.58462609  0.88986996  1
  Fe  Fe98  1  0.36090514  0.33715148  0.10732645  1
  Fe  Fe99  1  0.02570889  0.66916869  0.10724655  1
  Fe  Fe100  1  0.85602821  0.41207430  0.10699917  1
  Fe  Fe101  1  0.35930780  0.83211616  0.60858414  1
  Fe  Fe102  1  0.02640383  0.66844306  0.60758917  1
  Fe  Fe103  1  0.02061785  0.16768737  0.60848882  1
  Fe  Fe104  1  0.14393927  0.91752826  0.89092995  1
  Fe  Fe105  1  0.14178792  0.92119692  0.39200612  1
  Fe  Fe106  1  0.81034360  0.07773481  0.39372012  1
  Fe  Fe107  1  0.46530056  0.08103806  0.39227836  1
  Fe  Fe108  1  0.47755157  0.07997693  0.89274750  1
  Fe  Fe109  1  0.30944367  0.32955397  0.88811459  1
  Fe  Fe110  1  0.36186841  0.16696619  0.11205294  1
  Fe  Fe111  1  0.64661483  0.33408807  0.39206391  1
  Fe  Fe112  1  0.13814408  0.58279239  0.89002881  1
  Si  Si113  1  0.30931373  0.66341299  0.38443941  1
  Si  Si114  1  0.30079537  0.17327802  0.39074066  1
  Si  Si115  1  0.97252022  0.17262190  0.38685855  1
  Si  Si116  1  0.80172681  0.58196275  0.88236856  1
  Si  Si117  1  0.64371040  0.82837246  0.38810933  1
  Si  Si118  1  0.64586765  0.66327970  0.38655953  1
  Si  Si119  1  0.19006756  0.92081907  0.61252819  1
  Si  Si120  1  0.30896927  0.82823882  0.38926509  1
  Si  Si121  1  0.18951505  0.42168768  0.11089508  1
  Si  Si122  1  0.64267632  0.33262698  0.88422527  1
  Si  Si123  1  0.64486806  0.83139466  0.88251437  1
  Si  Si124  1  0.19135639  0.41371163  0.61386911  1
  Si  Si125  1  0.14285417  0.58159002  0.38179443  1
  Si  Si126  1  0.69479258  0.67295455  0.11421555  1
  Si  Si127  1  0.03049026  0.16387510  0.11556465  1
  Si  Si128  1  0.47555426  0.42036760  0.39029361  1
  Si  Si129  1  0.52196227  0.91006931  0.11829672  1
  Si  Si130  1  0.52800959  0.08630531  0.61559234  1
  Si  Si131  1  0.85812189  0.92329292  0.11660196  1
  Si  Si132  1  0.30722477  0.33555624  0.38533998  1
  Si  Si133  1  0.31165188  0.83432420  0.88762675  1
  Si  Si134  1  0.97954342  0.66608087  0.38322707  1
  Si  Si135  1  0.80735815  0.08435112  0.88491812  1
  Si  Si136  1  0.02067513  0.84088459  0.61184570  1
  Si  Si137  1  0.36036306  0.33293703  0.61554314  1
  Si  Si138  1  0.85383463  0.91675453  0.61525622  1
  Si  Si139  1  0.19674625  0.57867537  0.61008598  1
  Si  Si140  1  0.85364608  0.41946840  0.61322233  1
  Si  Si141  1  0.96938453  0.16925172  0.88398969  1
  Si  Si142  1  0.97380872  0.82993639  0.38702865  1
  Si  Si143  1  0.30621063  0.16072789  0.88619584  1
  Si  Si144  1  0.63988836  0.16217638  0.39477736  1
  Si  Si145  1  0.96464211  0.66634885  0.88550054  1
  Si  Si146  1  0.19617679  0.08730607  0.61302708  1
  Si  Si147  1  0.35629871  0.82851311  0.11830090  1
  Si  Si148  1  0.02063290  0.83808689  0.11241524  1
  Si  Si149  1  0.19248011  0.91371699  0.11824109  1
  Si  Si150  1  0.47725525  0.58399326  0.38815800  1
  Si  Si151  1  0.64261530  0.66949089  0.88428409  1
  Si  Si152  1  0.13919011  0.09204218  0.38922812  1
  Si  Si153  1  0.36021161  0.66442274  0.11604701  1
  Si  Si154  1  0.80401247  0.91906042  0.88415957  1
  Si  Si155  1  0.13612778  0.41018939  0.88741543  1
  Si  Si156  1  0.81476124  0.42083095  0.38692869  1
  Si  Si157  1  0.68714741  0.33262692  0.11051638  1
  Si  Si158  1  0.85420640  0.58298928  0.10794938  1
  Si  Si159  1  0.80331119  0.41860468  0.88246454  1
  Si  Si160  1  0.03062106  0.33106215  0.10932914  1
  Si  Si161  1  0.36362100  0.16775900  0.61696796  1
  Si  Si162  1  0.01895161  0.33894524  0.61030729  1
  Si  Si163  1  0.19499374  0.58521940  0.11144702  1
  Si  Si164  1  0.86136240  0.08864361  0.11405333  1
  Si  Si165  1  0.85307689  0.58331659  0.60983473  1
  Si  Si166  1  0.19388081  0.07891060  0.11688813  1
  Si  Si167  1  0.81100559  0.90833773  0.38976402  1
  Si  Si168  1  0.68900556  0.66714848  0.61300893  1
  Si  Si169  1  0.52821053  0.57880102  0.61229336  1
  Si  Si170  1  0.52982782  0.59080215  0.11506853  1
  Si  Si171  1  0.36217978  0.65808854  0.60943390  1
  Si  Si172  1  0.69245809  0.33223367  0.61600062  1
  Si  Si173  1  0.30357635  0.66589255  0.88798310  1
  Si  Si174  1  0.81461965  0.58541833  0.38359065  1
  Si  Si175  1  0.52557526  0.41334773  0.61405083  1
  Si  Si176  1  0.96621643  0.33396876  0.88135144  1
  Si  Si177  1  0.13797585  0.08939670  0.88732729  1
  Si  Si178  1  0.47730185  0.90886987  0.39094142  1
  Si  Si179  1  0.64388861  0.16930595  0.88830409  1
  Si  Si180  1  0.14313071  0.41826204  0.38289220  1
  Si  Si181  1  0.52863865  0.07358768  0.11473828  1
  Si  Si182  1  0.48169975  0.41532604  0.88917183  1
  Si  Si183  1  0.48257196  0.91100221  0.88829498  1
  Si  Si184  1  0.97938220  0.33678474  0.38341401  1
  Si  Si185  1  0.69213396  0.16812303  0.61562027  1
  Si  Si186  1  0.53424124  0.42717509  0.11220175  1
  Si  Si187  1  0.69266478  0.83243901  0.61434027  1
  Si  Si188  1  0.85169991  0.08023772  0.61246529  1
  Si  Si189  1  0.52991974  0.91990999  0.61160048  1
  Si  Si190  1  0.96824975  0.83355621  0.88699794  1
  Si  Si191  1  0.69331277  0.83780969  0.11657146  1
  O  O192  1  0.26736765  0.10733642  0.08023405  1
  O  O193  1  0.27913931  0.12138218  0.58586055  1
  O  O194  1  0.28520046  0.60828411  0.08647317  1
  O  O195  1  0.28073672  0.60614552  0.58101325  1
  O  O196  1  0.61465160  0.08892432  0.08567124  1
  O  O197  1  0.60397099  0.12595247  0.58507041  1
  O  O198  1  0.60701511  0.63067661  0.08535601  1
  O  O199  1  0.60525673  0.61951105  0.58285183  1
  O  O200  1  0.94707079  0.11512063  0.08614064  1
  O  O201  1  0.92884761  0.10501906  0.57728553  1
  O  O202  1  0.93122598  0.61099445  0.07325689  1
  O  O203  1  0.92719396  0.61406934  0.57387920  1
  O  O204  1  0.11227390  0.36466222  0.08123416  1
  O  O205  1  0.10144484  0.37439027  0.58248715  1
  O  O206  1  0.10556470  0.87029832  0.08697552  1
  O  O207  1  0.09642029  0.88508847  0.58534557  1
  O  O208  1  0.45546587  0.37987050  0.07811168  1
  O  O209  1  0.43490139  0.37473899  0.58240689  1
  O  O210  1  0.43988698  0.85830416  0.08981393  1
  O  O211  1  0.45019146  0.87534818  0.57409314  1
  O  O212  1  0.76932781  0.34740972  0.07574596  1
  O  O213  1  0.76956906  0.37045367  0.58402336  1
  O  O214  1  0.77161371  0.87652326  0.08772972  1
  O  O215  1  0.77684675  0.86008621  0.58655838  1
  O  O216  1  0.27047613  0.40179650  0.07874814  1
  O  O217  1  0.26878848  0.37199757  0.58526683  1
  O  O218  1  0.27244718  0.87698025  0.08917770  1
  O  O219  1  0.25699881  0.87939904  0.57584151  1
  O  O220  1  0.62045918  0.39966140  0.08635836  1
  O  O221  1  0.60257606  0.37361105  0.58448192  1
  O  O222  1  0.60426042  0.87900525  0.08818862  1
  O  O223  1  0.61492641  0.88634568  0.58542076  1
  O  O224  1  0.94938985  0.37550969  0.07283763  1
  O  O225  1  0.93640485  0.39183418  0.58257339  1
  O  O226  1  0.93946290  0.89309049  0.08653965  1
  O  O227  1  0.93554038  0.89048147  0.58471069  1
  O  O228  1  0.10668296  0.12447647  0.08595958  1
  O  O229  1  0.11570502  0.13269614  0.57621665  1
  O  O230  1  0.12540707  0.64249103  0.07716314  1
  O  O231  1  0.11600239  0.62436467  0.57376412  1
  O  O232  1  0.45361767  0.12507300  0.07945469  1
  O  O233  1  0.44152212  0.13039984  0.58599125  1
  O  O234  1  0.44558511  0.63955283  0.08788425  1
  O  O235  1  0.44139547  0.61945865  0.57907943  1
  O  O236  1  0.78639858  0.14013032  0.07933933  1
  O  O237  1  0.76760625  0.12914347  0.58394463  1
  O  O238  1  0.77330905  0.63987554  0.08394042  1
  O  O239  1  0.76800417  0.63357087  0.58259719  1
  O  O240  1  0.05411575  0.12159677  0.41534776  1
  O  O241  1  0.05562430  0.12580443  0.91437496  1
  O  O242  1  0.06332661  0.61757280  0.41219196  1
  O  O243  1  0.04083687  0.61719435  0.92108303  1
  O  O244  1  0.37255708  0.11908346  0.42728574  1
  O  O245  1  0.37237897  0.09760102  0.91673707  1
  O  O246  1  0.39961131  0.62398105  0.41703293  1
  O  O247  1  0.38115743  0.61482655  0.92370803  1
  O  O248  1  0.71261952  0.10296529  0.42444681  1
  O  O249  1  0.73002028  0.11955492  0.91579716  1
  O  O250  1  0.73316424  0.61800517  0.41374880  1
  O  O251  1  0.71973986  0.61229317  0.91146716  1
  O  O252  1  0.22836687  0.37391580  0.41559422  1
  O  O253  1  0.20798064  0.35268937  0.91766754  1
  O  O254  1  0.23815188  0.86573344  0.42427404  1
  O  O255  1  0.24004849  0.86341803  0.92823344  1
  O  O256  1  0.55543857  0.37530990  0.42869333  1
  O  O257  1  0.56064639  0.35809296  0.91555812  1
  O  O258  1  0.56280705  0.85868558  0.41754087  1
  O  O259  1  0.56093048  0.85214698  0.91279665  1
  O  O260  1  0.90237268  0.37455447  0.41367525  1
  O  O261  1  0.88581842  0.36887242  0.91069178  1
  O  O262  1  0.88330641  0.84569791  0.41222418  1
  O  O263  1  0.88385843  0.86730712  0.91337066  1
  O  O264  1  0.06422565  0.38366443  0.41358470  1
  O  O265  1  0.04759603  0.38288996  0.91269387  1
  O  O266  1  0.04608233  0.88338370  0.42326530  1
  O  O267  1  0.04923696  0.87779968  0.92303300  1
  O  O268  1  0.38909592  0.38692142  0.41381742  1
  O  O269  1  0.39988474  0.39256924  0.92021878  1
  O  O270  1  0.40192225  0.86366716  0.41782829  1
  O  O271  1  0.40112736  0.87733589  0.91627410  1
  O  O272  1  0.74252411  0.39305459  0.42584878  1
  O  O273  1  0.72310057  0.38663371  0.91323454  1
  O  O274  1  0.72672116  0.87653640  0.41732754  1
  O  O275  1  0.72109642  0.88822923  0.91221088  1
  O  O276  1  0.21107435  0.15300103  0.41622579  1
  O  O277  1  0.21598347  0.14433208  0.91333954  1
  O  O278  1  0.23145871  0.62322139  0.41278202  1
  O  O279  1  0.22150820  0.65069651  0.92250616  1
  O  O280  1  0.55686035  0.14017626  0.42649273  1
  O  O281  1  0.56971866  0.14180403  0.92608312  1
  O  O282  1  0.56703654  0.62740474  0.41670142  1
  O  O283  1  0.56417114  0.65220773  0.92028221  1
  O  O284  1  0.89503698  0.14738116  0.42138066  1
  O  O285  1  0.89341174  0.12907529  0.91511931  1
  O  O286  1  0.89734334  0.63528121  0.41319515  1
  O  O287  1  0.87830207  0.63703037  0.91086185  1
  O  O288  1  0.17530261  -0.00500073  0.08900765  1
  O  O289  1  0.18481825  0.00420421  0.58484734  1
  O  O290  1  0.16315796  0.50453600  0.08365595  1
  O  O291  1  0.18492038  0.49471241  0.58163058  1
  O  O292  1  0.49924157  -0.01031276  0.08917508  1
  O  O293  1  0.52233475  0.00414058  0.58541516  1
  O  O294  1  0.51937227  0.51119586  0.08247396  1
  O  O295  1  0.52232039  0.49597634  0.58348653  1
  O  O296  1  0.84100147  0.00468699  0.08710327  1
  O  O297  1  0.82362208  -0.00322724  0.58823837  1
  O  O298  1  0.82163319  0.50539766  0.07803534  1
  O  O299  1  0.82912333  0.50077766  0.58272272  1
  O  O300  1  0.01991306  0.24555994  0.08457379  1
  O  O301  1  -0.00100580  0.26207935  0.57439290  1
  O  O302  1  -0.00364854  0.76336803  0.07442618  1
  O  O303  1  0.00704171  0.76373161  0.57474291  1
  O  O304  1  0.33819970  0.25061547  0.06411292  1
  O  O305  1  0.35314837  0.25027958  0.58602984  1
  O  O306  1  0.33816661  0.74682716  0.08756207  1
  O  O307  1  0.34869546  0.73634261  0.57497903  1
  O  O308  1  0.64446110  0.25702909  0.08237049  1
  O  O309  1  0.68333937  0.25019274  0.58561472  1
  O  O310  1  0.68392392  0.75600403  0.08621208  1
  O  O311  1  0.67234699  0.75027760  0.58517194  1
  O  O312  1  0.16377603  0.01548413  0.42491899  1
  O  O313  1  0.15428065  0.01243495  0.92466593  1
  O  O314  1  0.15461600  0.50010142  0.41409670  1
  O  O315  1  0.15885801  0.48854598  0.92140631  1
  O  O316  1  0.48956842  -0.01444149  0.42708207  1
  O  O317  1  0.51192915  -0.01396691  0.92424956  1
  O  O318  1  0.48480828  0.50435775  0.42250060  1
  O  O319  1  0.51650354  0.49342486  0.91834846  1
  O  O320  1  0.84120835  -0.01706508  0.42563134  1
  O  O321  1  0.82092549  0.00096247  0.91356076  1
  O  O322  1  0.83732111  0.50503728  0.41303112  1
  O  O323  1  0.82203530  0.50095229  0.91279698  1
  O  O324  1  0.32300164  0.25617916  0.42075552  1
  O  O325  1  0.34255563  0.23680440  0.91676420  1
  O  O326  1  0.31748816  0.74423944  0.41630468  1
  O  O327  1  0.33462331  0.74992953  0.90765607  1
  O  O328  1  0.67174653  0.24111802  0.42504255  1
  O  O329  1  0.67148971  0.25220102  0.91271330  1
  O  O330  1  0.66133465  0.74533230  0.41649332  1
  O  O331  1  0.67869745  0.75116430  0.90825006  1
  O  O332  1  0.99756658  0.25561150  0.41307054  1
  O  O333  1  0.97634028  0.25174556  0.91286557  1
  O  O334  1  0.99823751  0.74692087  0.41320415  1
  O  O335  1  0.97433824  0.74985273  0.91337311  1
  O  O336  1  0.20604588  0.08097658  0.19695702  1
  O  O337  1  0.20959267  0.08555131  0.69375482  1
  O  O338  1  0.21310376  0.58375392  0.19174237  1
  O  O339  1  0.21089378  0.58099917  0.69060435  1
  O  O340  1  0.54585427  0.07522169  0.19606031  1
  O  O341  1  0.54604728  0.08394668  0.69555470  1
  O  O342  1  0.54899130  0.58973632  0.19564960  1
  O  O343  1  0.54588730  0.58154199  0.69228029  1
  O  O344  1  0.87957411  0.08531744  0.19494516  1
  O  O345  1  0.87276235  0.08278671  0.69350427  1
  O  O346  1  0.87533906  0.58504160  0.18995028  1
  O  O347  1  0.87212115  0.58455684  0.69090118  1
  O  O348  1  0.04397430  0.33300984  0.19051319  1
  O  O349  1  0.03827407  0.33619426  0.69092685  1
  O  O350  1  0.03889518  0.83542170  0.19316588  1
  O  O351  1  0.03637071  0.83552454  0.69259104  1
  O  O352  1  0.36990472  0.32182419  0.19394680  1
  O  O353  1  0.38185400  0.33736214  0.69433855  1
  O  O354  1  0.37652942  0.82881029  0.19869096  1
  O  O355  1  0.38325149  0.84075283  0.69841388  1
  O  O356  1  0.71203981  0.33472488  0.19202397  1
  O  O357  1  0.70887438  0.33551503  0.69446272  1
  O  O358  1  0.71171668  0.83427113  0.19714947  1
  O  O359  1  0.71043542  0.83255292  0.69486158  1
  O  O360  1  0.19924053  0.41988023  0.19083281  1
  O  O361  1  0.20699147  0.41616275  0.69359961  1
  O  O362  1  0.21171171  0.91365745  0.19819375  1
  O  O363  1  0.20962557  0.91829349  0.69311330  1
  O  O364  1  0.55127700  0.43001341  0.19218788  1
  O  O365  1  0.54245283  0.41559161  0.69399385  1
  O  O366  1  0.54443870  0.90896230  0.19873100  1
  O  O367  1  0.54606684  0.91758437  0.69262200  1
  O  O368  1  0.87968382  0.41614569  0.19904921  1
  O  O369  1  0.87525821  0.42078204  0.69256567  1
  O  O370  1  0.87604587  0.91869270  0.19712977  1
  O  O371  1  0.87334144  0.91616747  0.69599425  1
  O  O372  1  0.04484460  0.16617676  0.19606123  1
  O  O373  1  0.04169141  0.16673071  0.69977149  1
  O  O374  1  0.04137806  0.66945220  0.19785812  1
  O  O375  1  0.04002909  0.66809564  0.69870450  1
  O  O376  1  0.37766651  0.16454313  0.20204772  1
  O  O377  1  0.38004995  0.16633473  0.69620323  1
  O  O378  1  0.37887652  0.66777802  0.19654728  1
  O  O379  1  0.38125392  0.65781832  0.68917380  1
  O  O380  1  0.71217026  0.16630532  0.20441946  1
  O  O381  1  0.71065262  0.16386712  0.69499029  1
  O  O382  1  0.71212113  0.66999965  0.19498368  1
  O  O383  1  0.70820254  0.66662534  0.69345398  1
  O  O384  1  0.12248383  0.08636777  0.30811429  1
  O  O385  1  0.12000360  0.08345884  0.80642520  1
  O  O386  1  0.12195610  0.58042562  0.30270632  1
  O  O387  1  0.11933440  0.58119067  0.79802537  1
  O  O388  1  0.45621946  0.07636009  0.30264490  1
  O  O389  1  0.45793151  0.08253908  0.80089112  1
  O  O390  1  0.46135643  0.58567564  0.30808287  1
  O  O391  1  0.45602516  0.58297714  0.79788736  1
  O  O392  1  0.79094506  0.08004477  0.30203133  1
  O  O393  1  0.78982497  0.08302343  0.80466230  1
  O  O394  1  0.79390617  0.58666178  0.30317988  1
  O  O395  1  0.78654078  0.58263581  0.80159064  1
  O  O396  1  0.28444795  0.32924073  0.30659572  1
  O  O397  1  0.28531845  0.33349353  0.79745425  1
  O  O398  1  0.29117988  0.83106421  0.30851890  1
  O  O399  1  0.28468980  0.84387313  0.80838197  1
  O  O400  1  0.63584112  0.33471759  0.30213646  1
  O  O401  1  0.62236411  0.33629085  0.80464706  1
  O  O402  1  0.62563168  0.82917079  0.30743102  1
  O  O403  1  0.62669449  0.83426343  0.80192025  1
  O  O404  1  0.96098390  0.33544548  0.30321416  1
  O  O405  1  0.95389464  0.33250546  0.80170448  1
  O  O406  1  0.95731291  0.83329929  0.30584541  1
  O  O407  1  0.95312757  0.83481192  0.80575929  1
  O  O408  1  0.12403954  0.41756206  0.30278203  1
  O  O409  1  0.11855760  0.41449460  0.80542547  1
  O  O410  1  0.12152651  0.91769043  0.30051975  1
  O  O411  1  0.11995773  0.91829798  0.79904393  1
  O  O412  1  0.46715610  0.42691229  0.31219873  1
  O  O413  1  0.46069521  0.41511413  0.80726722  1
  O  O414  1  0.45916553  0.91062793  0.30993799  1
  O  O415  1  0.46353070  0.91605047  0.80743917  1
  O  O416  1  0.79385868  0.42018130  0.30619873  1
  O  O417  1  0.78502442  0.42194645  0.80308659  1
  O  O418  1  0.79045698  0.91296709  0.30851204  1
  O  O419  1  0.78800145  0.91797708  0.80354729  1
  O  O420  1  0.28493283  0.17102361  0.31085300  1
  O  O421  1  0.28486135  0.16145082  0.80531759  1
  O  O422  1  0.29619243  0.66538821  0.30522767  1
  O  O423  1  0.28359614  0.65652762  0.80753167  1
  O  O424  1  0.62298182  0.16209286  0.31303516  1
  O  O425  1  0.62269883  0.16329479  0.80845923  1
  O  O426  1  0.62679631  0.66607429  0.30615420  1
  O  O427  1  0.62495116  0.66614293  0.80307378  1
  O  O428  1  0.95667441  0.16958912  0.30572105  1
  O  O429  1  0.95125650  0.16651912  0.80395874  1
  O  O430  1  0.95673277  0.66615083  0.30319295  1
  O  O431  1  0.95071361  0.66665201  0.80445938  1
  F  F432  1  0.04453464  0.00307505  0.20326119  1
  F  F433  1  0.04154657  0.00227922  0.70070270  1
  F  F434  1  0.04477077  0.50071736  0.19886273  1
  F  F435  1  0.04203046  0.49731409  0.69939133  1
  F  F436  1  0.38186269  -0.01611877  0.19966373  1
  F  F437  1  0.37909923  -0.00007523  0.70159210  1
  F  F438  1  0.38894451  0.51370924  0.20003765  1
  F  F439  1  0.37806735  0.49525467  0.70108046  1
  F  F440  1  0.71277793  -0.00658580  0.20365081  1
  F  F441  1  0.71105320  0.00080403  0.70136970  1
  F  F442  1  0.71559615  0.50348385  0.20289909  1
  F  F443  1  0.70856794  0.50094111  0.69787592  1
  F  F444  1  0.20905546  0.24740329  0.20097622  1
  F  F445  1  0.19944468  0.24939197  0.69597290  1
  F  F446  1  0.21320550  0.75493558  0.20297079  1
  F  F447  1  0.19747298  0.75036641  0.70008048  1
  F  F448  1  0.54989269  0.23471036  0.20410296  1
  F  F449  1  0.54129328  0.24882606  0.70128307  1
  F  F450  1  0.54721610  0.74933088  0.20451212  1
  F  F451  1  0.54804356  0.74908108  0.69773777  1
  F  F452  1  0.88044362  0.24986055  0.20254458  1
  F  F453  1  0.87762478  0.24520584  0.69563487  1
  F  F454  1  0.87808420  0.75318498  0.20216182  1
  F  F455  1  0.87591167  0.75091554  0.70144699  1
  F  F456  1  0.28722339  -0.00590027  0.30279545  1
  F  F457  1  0.28706000  0.00096706  0.79493431  1
  F  F458  1  0.28368066  0.50940965  0.30087929  1
  F  F459  1  0.28697477  0.49761088  0.79515385  1
  F  F460  1  0.62116331  -0.00519178  0.29995091  1
  F  F461  1  0.62381004  -0.00065599  0.79716756  1
  F  F462  1  0.62701122  0.50542258  0.29937481  1
  F  F463  1  0.62177916  0.49947084  0.79507529  1
  F  F464  1  0.95507559  0.00097268  0.29852918  1
  F  F465  1  0.95158022  0.00086850  0.79706585  1
  F  F466  1  0.95785547  0.50384576  0.29564185  1
  F  F467  1  0.95052940  0.50154555  0.79503017  1
  F  F468  1  0.11973910  0.25287327  0.29543750  1
  F  F469  1  0.11547048  0.25203577  0.79653678  1
  F  F470  1  0.11878467  0.75661321  0.30267510  1
  F  F471  1  0.11798142  0.75391665  0.79988436  1
  F  F472  1  0.45181967  0.24005230  0.30919845  1
  F  F473  1  0.45940466  0.25042478  0.80187855  1
  F  F474  1  0.45663777  0.74742466  0.30067805  1
  F  F475  1  0.47160472  0.74908297  0.79951414  1
  F  F476  1  0.79398956  0.25376460  0.29965785  1
  F  F477  1  0.79095526  0.24693028  0.80080460  1
  F  F478  1  0.78968187  0.74867529  0.29786723  1
  F  F479  1  0.78679445  0.74939480  0.79602362  1
