# generated using pymatgen
data_K24Na3Li5Mg64Fe17Si79(O5F)48
_symmetry_space_group_name_H-M   'P 1'
_cell_length_a   16.09262578
_cell_length_b   18.58862286
_cell_length_c   20.55830852
_cell_angle_alpha   89.98900794
_cell_angle_beta   100.00620917
_cell_angle_gamma   90.02039013
_symmetry_Int_Tables_number   1
_chemical_formula_structural   K24Na3Li5Mg64Fe17Si79(O5F)48
_chemical_formula_sum   'K24 Na3 Li5 Mg64 Fe17 Si79 O240 F48'
_cell_volume   6056.26170790
_cell_formula_units_Z   1
loop_
 _symmetry_equiv_pos_site_id
 _symmetry_equiv_pos_as_xyz
  1  'x, y, z'
loop_
 _atom_site_type_symbol
 _atom_site_label
 _atom_site_symmetry_multiplicity
 _atom_site_fract_x
 _atom_site_fract_y
 _atom_site_fract_z
 _atom_site_occupancy
  K  K0  1  0.01440622  -0.00446963  0.01054058  1
  K  K1  1  -0.00133928  -0.00792166  0.49295848  1
  K  K2  1  -0.00673437  0.49445783  0.00096422  1
  K  K3  1  0.01438626  0.50204877  0.49521862  1
  K  K4  1  0.33809677  0.00349103  0.02044790  1
  K  K5  1  0.34101860  0.00873296  0.48493083  1
  K  K6  1  0.33120254  0.50326222  0.00437433  1
  K  K7  1  0.33870039  0.51239352  0.48899083  1
  K  K8  1  0.66504949  0.00104268  0.00271008  1
  K  K9  1  0.65091767  -0.00339923  0.48659095  1
  K  K10  1  0.67148354  0.50396980  0.00348717  1
  K  K11  1  0.65616730  0.49673687  0.49420547  1
  K  K12  1  0.17430752  0.24806278  0.00862182  1
  K  K13  1  0.17296633  0.24921476  0.49407765  1
  K  K14  1  0.17258133  0.74921634  0.00984737  1
  K  K15  1  0.16913939  0.74007228  0.48735190  1
  K  K16  1  0.49437928  0.25004591  0.00330707  1
  K  K17  1  0.49810180  0.24898778  0.49230197  1
  K  K18  1  0.49804401  0.74371266  0.00546315  1
  K  K19  1  0.49891039  0.74411286  0.49359599  1
  K  K20  1  0.83695216  0.25272003  0.00326913  1
  K  K21  1  0.82511224  0.25744147  0.49639336  1
  K  K22  1  0.83199333  0.74603456  0.00668741  1
  K  K23  1  0.82574266  0.75743104  0.49520847  1
  Na  Na24  1  0.49598067  -0.00011630  0.24921754  1
  Na  Na25  1  0.67022934  0.41971985  0.25810982  1
  Na  Na26  1  0.33602018  0.07918069  0.24046353  1
  Li  Li27  1  0.82949613  0.49853855  0.75359191  1
  Li  Li28  1  0.33513157  0.24936390  0.75718256  1
  Li  Li29  1  0.66548259  0.08235299  0.74949734  1
  Li  Li30  1  0.16376230  0.66610164  0.25005218  1
  Li  Li31  1  0.83231456  0.83268977  0.74936597  1
  Mg  Mg32  1  0.16600577  0.49983492  0.75369464  1
  Mg  Mg33  1  0.82984127  -0.00165786  0.74868166  1
  Mg  Mg34  1  0.16406527  0.50378783  0.24926665  1
  Mg  Mg35  1  0.16861172  -0.00260180  0.24150965  1
  Mg  Mg36  1  0.66679288  0.75166435  0.25305011  1
  Mg  Mg37  1  0.66770724  0.25172499  0.25587254  1
  Mg  Mg38  1  0.00164755  0.24892744  0.24613327  1
  Mg  Mg39  1  0.33093622  0.75031020  0.24981202  1
  Mg  Mg40  1  0.83345698  -0.00131010  0.24888115  1
  Mg  Mg41  1  0.00288069  0.74787218  0.24732605  1
  Mg  Mg42  1  0.66980607  0.75062969  0.74738902  1
  Mg  Mg43  1  0.49991818  0.49962083  0.25404933  1
  Mg  Mg44  1  0.33504157  0.25063849  0.24834504  1
  Mg  Mg45  1  -0.00378286  0.75090997  0.74993043  1
  Mg  Mg46  1  0.50269284  0.00168767  0.75072799  1
  Mg  Mg47  1  -0.00172334  0.25005083  0.75161604  1
  Mg  Mg48  1  0.16604791  0.00191496  0.75201575  1
  Mg  Mg49  1  0.50132310  0.49976917  0.74720211  1
  Mg  Mg50  1  0.33267545  0.74887369  0.75184585  1
  Mg  Mg51  1  0.66595794  0.24697263  0.75145896  1
  Mg  Mg52  1  0.83245096  0.50232767  0.25153860  1
  Mg  Mg53  1  0.00024409  0.58577570  0.24820531  1
  Mg  Mg54  1  0.16774749  0.16515442  0.24225919  1
  Mg  Mg55  1  0.66780728  0.91615997  0.25408167  1
  Mg  Mg56  1  0.82924969  0.16377521  0.74979060  1
  Mg  Mg57  1  -0.00286539  0.41626656  0.24864321  1
  Mg  Mg58  1  0.00217994  0.08341665  0.24387042  1
  Mg  Mg59  1  0.33395063  0.91692375  0.75172109  1
  Mg  Mg60  1  0.66887077  0.91781739  0.74876663  1
  Mg  Mg61  1  0.50252777  0.66570866  0.25387876  1
  Mg  Mg62  1  0.50145094  0.83438983  0.25126047  1
  Mg  Mg63  1  0.16716989  0.66566045  0.75360043  1
  Mg  Mg64  1  -0.00106822  0.08399918  0.75028377  1
  Mg  Mg65  1  0.83552156  0.16545135  0.24906649  1
  Mg  Mg66  1  0.50252477  0.33631724  0.25318487  1
  Mg  Mg67  1  -0.00330804  0.41677251  0.75391007  1
  Mg  Mg68  1  0.33429697  0.08727890  0.75358291  1
  Mg  Mg69  1  0.49948155  0.16528993  0.75122593  1
  Mg  Mg70  1  -0.00359966  0.58266854  0.75315092  1
  Mg  Mg71  1  0.33391266  0.41424743  0.75105550  1
  Mg  Mg72  1  0.16979959  0.16860200  0.75194489  1
  Mg  Mg73  1  -0.00284908  0.91580716  0.74980764  1
  Mg  Mg74  1  0.50109270  0.83419793  0.74895166  1
  Mg  Mg75  1  0.49817557  0.33099102  0.75055206  1
  Mg  Mg76  1  -0.00031655  0.91389746  0.24431757  1
  Mg  Mg77  1  0.50204873  0.16766221  0.25248617  1
  Mg  Mg78  1  0.16608170  0.33536860  0.24784233  1
  Mg  Mg79  1  0.83261593  0.33452279  0.25251701  1
  Mg  Mg80  1  0.67058885  0.58435354  0.25358713  1
  Mg  Mg81  1  0.33451973  0.41786798  0.25084129  1
  Mg  Mg82  1  0.66875071  0.41571009  0.75026905  1
  Mg  Mg83  1  0.16403210  0.83000253  0.24479008  1
  Mg  Mg84  1  0.33414935  0.58505176  0.75178436  1
  Mg  Mg85  1  0.16857949  0.33262681  0.75214673  1
  Mg  Mg86  1  0.83522746  0.66519321  0.25187591  1
  Mg  Mg87  1  0.83401726  0.83480516  0.24948496  1
  Mg  Mg88  1  0.66776207  0.58202952  0.74732564  1
  Mg  Mg89  1  0.83233095  0.33534060  0.75284849  1
  Mg  Mg90  1  0.16661853  0.83428555  0.75203872  1
  Mg  Mg91  1  0.33052999  0.58613134  0.25312303  1
  Mg  Mg92  1  0.50119855  0.66469118  0.74815903  1
  Mg  Mg93  1  0.66769074  0.08322629  0.25345166  1
  Mg  Mg94  1  0.83202574  0.66662099  0.74867879  1
  Mg  Mg95  1  0.33105243  0.91469860  0.24528566  1
  Fe  Fe96  1  0.85391243  0.57963906  0.10980395  1
  Fe  Fe97  1  0.82132758  0.41816132  0.39682882  1
  Fe  Fe98  1  0.64059997  0.83276796  0.39499814  1
  Fe  Fe99  1  0.64258078  0.33318346  0.39776201  1
  Fe  Fe100  1  0.36772053  0.17310926  0.10859849  1
  Fe  Fe101  1  0.52501235  0.58219407  0.60769624  1
  Fe  Fe102  1  0.81204836  0.91826612  0.39077152  1
  Fe  Fe103  1  0.02346382  0.16675619  0.10484862  1
  Fe  Fe104  1  0.01751098  0.82988218  0.10361680  1
  Fe  Fe105  1  0.19578766  0.90992050  0.10442724  1
  Fe  Fe106  1  0.14002551  0.58137540  0.38776454  1
  Fe  Fe107  1  0.80831244  0.41721852  0.89142606  1
  Fe  Fe108  1  0.81574233  0.58706845  0.39477984  1
  Fe  Fe109  1  0.46626506  0.91613841  0.39123185  1
  Fe  Fe110  1  0.30788582  0.17041374  0.89123008  1
  Fe  Fe111  1  0.46820420  0.41810706  0.39339631  1
  Fe  Fe112  1  0.30919068  0.66384463  0.89267628  1
  Si  Si113  1  0.97021886  0.16121645  0.88420917  1
  Si  Si114  1  0.81778568  0.08619603  0.38689805  1
  Si  Si115  1  0.35448890  0.66997359  0.61276837  1
  Si  Si116  1  0.53111671  0.91581670  0.11523728  1
  Si  Si117  1  0.36313355  0.66248359  0.11597655  1
  Si  Si118  1  0.85088764  0.41153259  0.11272704  1
  Si  Si119  1  0.14141102  0.91803140  0.88461174  1
  Si  Si120  1  0.36860594  0.82778247  0.11070907  1
  Si  Si121  1  0.29878198  0.83509377  0.38527502  1
  Si  Si122  1  0.13245222  0.58246268  0.88942682  1
  Si  Si123  1  0.02589782  0.66500908  0.61662760  1
  Si  Si124  1  0.35593394  0.83626329  0.61515576  1
  Si  Si125  1  0.30980077  0.34313761  0.88810389  1
  Si  Si126  1  0.86019379  0.91844873  0.61491561  1
  Si  Si127  1  0.52472202  0.91654929  0.61394255  1
  Si  Si128  1  0.69186548  0.16433171  0.61524574  1
  Si  Si129  1  0.19299616  0.41580416  0.61625440  1
  Si  Si130  1  0.47754139  0.91702329  0.88471517  1
  Si  Si131  1  0.19107626  0.08342357  0.10361114  1
  Si  Si132  1  0.97828034  0.83477132  0.38518550  1
  Si  Si133  1  0.48055706  0.58056389  0.88697404  1
  Si  Si134  1  0.30782472  0.67106204  0.38653453  1
  Si  Si135  1  0.53404868  0.08315521  0.11386360  1
  Si  Si136  1  0.80758238  0.58947998  0.88556962  1
  Si  Si137  1  0.63688363  0.33035274  0.88757381  1
  Si  Si138  1  0.19134257  0.58233999  0.61670152  1
  Si  Si139  1  0.47396344  0.59018233  0.38733838  1
  Si  Si140  1  0.80749619  0.91748760  0.88430551  1
  Si  Si141  1  0.02082772  0.66051886  0.10816733  1
  Si  Si142  1  0.52781602  0.41802070  0.11580639  1
  Si  Si143  1  0.97775730  0.32593872  0.38498167  1
  Si  Si144  1  0.69688633  0.66937030  0.61088521  1
  Si  Si145  1  0.02284090  0.33893684  0.11049836  1
  Si  Si146  1  0.97734516  0.67435832  0.38870206  1
  Si  Si147  1  0.85914243  0.41581853  0.61736371  1
  Si  Si148  1  0.19034073  0.42361042  0.11420080  1
  Si  Si149  1  0.64891124  0.16347242  0.39068610  1
  Si  Si150  1  0.85900258  0.08330458  0.61346278  1
  Si  Si151  1  0.13609398  0.08360921  0.88613047  1
  Si  Si152  1  0.30702023  0.16907789  0.38220194  1
  Si  Si153  1  0.63999635  0.16523120  0.88447289  1
  Si  Si154  1  0.18936065  0.08321318  0.61469691  1
  Si  Si155  1  0.69299108  0.83631423  0.61505225  1
  Si  Si156  1  0.31053263  0.83708551  0.88771132  1
  Si  Si157  1  0.80503503  0.08191853  0.88406541  1
  Si  Si158  1  0.64193362  0.66893180  0.88396829  1
  Si  Si159  1  0.97093832  0.67186264  0.88529046  1
  Si  Si160  1  0.13721716  0.91778652  0.38059807  1
  Si  Si161  1  0.98186406  0.16499021  0.38252459  1
  Si  Si162  1  0.47783720  0.08932809  0.38873537  1
  Si  Si163  1  0.97797116  0.32622089  0.88910663  1
  Si  Si164  1  0.18945152  0.91784026  0.61522358  1
  Si  Si165  1  0.29855785  0.33214298  0.38539887  1
  Si  Si166  1  0.02481526  0.16855903  0.61521135  1
  Si  Si167  1  0.02473089  0.83179668  0.61487262  1
  Si  Si168  1  0.52832724  0.58154134  0.11666987  1
  Si  Si169  1  0.85470726  0.08217697  0.11112244  1
  Si  Si170  1  0.86138633  0.58273400  0.61725659  1
  Si  Si171  1  0.02489338  0.33490284  0.61625123  1
  Si  Si172  1  0.14498853  0.08028457  0.38116321  1
  Si  Si173  1  0.68752653  0.67146483  0.11296753  1
  Si  Si174  1  0.52346855  0.08312705  0.61460404  1
  Si  Si175  1  0.19347945  0.58779380  0.11548313  1
  Si  Si176  1  0.69422094  0.16460209  0.11642200  1
  Si  Si177  1  0.35692635  0.32857232  0.61714603  1
  Si  Si178  1  0.13719695  0.41263973  0.38474270  1
  Si  Si179  1  0.35769144  0.16274963  0.61523795  1
  Si  Si180  1  0.13892948  0.41593256  0.88708308  1
  Si  Si181  1  0.64207171  0.83353824  0.88408629  1
  Si  Si182  1  0.85217971  0.91914802  0.10948290  1
  Si  Si183  1  0.47671612  0.41751031  0.88364553  1
  Si  Si184  1  0.64420259  0.66316082  0.38851823  1
  Si  Si185  1  0.69317753  0.32945663  0.61594813  1
  Si  Si186  1  0.68978603  0.32599293  0.11693103  1
  Si  Si187  1  0.35734640  0.34236615  0.11080855  1
  Si  Si188  1  0.69074541  0.83480682  0.11341800  1
  Si  Si189  1  0.47722452  0.08079910  0.88834377  1
  Si  Si190  1  0.97491143  0.83630670  0.88366338  1
  Si  Si191  1  0.52317913  0.40877087  0.61331498  1
  O  O192  1  0.27563641  0.11436940  0.07937671  1
  O  O193  1  0.26869999  0.11904140  0.58505388  1
  O  O194  1  0.27322385  0.62316171  0.08486323  1
  O  O195  1  0.26500755  0.62584056  0.58746095  1
  O  O196  1  0.62112083  0.10673621  0.08508081  1
  O  O197  1  0.60187697  0.12295584  0.58627324  1
  O  O198  1  0.59784121  0.62807907  0.08459047  1
  O  O199  1  0.61320253  0.62846210  0.57466644  1
  O  O200  1  0.93118097  0.10448266  0.07387568  1
  O  O201  1  0.93552992  0.12710710  0.58554884  1
  O  O202  1  0.95250239  0.59969020  0.07563328  1
  O  O203  1  0.94112096  0.61910600  0.58742000  1
  O  O204  1  0.10269289  0.38043044  0.08379088  1
  O  O205  1  0.10314578  0.37451170  0.58737554  1
  O  O206  1  0.10398981  0.85825252  0.06129565  1
  O  O207  1  0.10271565  0.87243136  0.58615806  1
  O  O208  1  0.43547647  0.38414288  0.08169511  1
  O  O209  1  0.43769277  0.35929958  0.58681212  1
  O  O210  1  0.45111001  0.86409325  0.08362619  1
  O  O211  1  0.43560640  0.87309002  0.58675243  1
  O  O212  1  0.77243844  0.35391364  0.08610726  1
  O  O213  1  0.77156912  0.37089036  0.58936614  1
  O  O214  1  0.77074661  0.86574230  0.08183172  1
  O  O215  1  0.76951314  0.87961326  0.58741587  1
  O  O216  1  0.27052445  0.39070395  0.08390125  1
  O  O217  1  0.26896901  0.37365955  0.58737156  1
  O  O218  1  0.28705925  0.86767400  0.07026382  1
  O  O219  1  0.27002279  0.88329996  0.58688331  1
  O  O220  1  0.60470311  0.37459409  0.08801557  1
  O  O221  1  0.60314229  0.36827777  0.58747008  1
  O  O222  1  0.61105789  0.88668944  0.08115980  1
  O  O223  1  0.60278801  0.87761535  0.58570011  1
  O  O224  1  0.93633638  0.38590659  0.08387156  1
  O  O225  1  0.93673568  0.37677159  0.58597409  1
  O  O226  1  0.92699977  0.89526179  0.07151761  1
  O  O227  1  0.93654282  0.87482488  0.58606701  1
  O  O228  1  0.11308357  0.13438551  0.06698054  1
  O  O229  1  0.10238358  0.12862773  0.58553836  1
  O  O230  1  0.11213302  0.63679297  0.08472897  1
  O  O231  1  0.10307429  0.62476429  0.58765014  1
  O  O232  1  0.45945875  0.13260325  0.07453703  1
  O  O233  1  0.43446835  0.12529405  0.58221982  1
  O  O234  1  0.43506048  0.61555659  0.08603714  1
  O  O235  1  0.42563246  0.63618653  0.57623555  1
  O  O236  1  0.77743909  0.13999355  0.08541942  1
  O  O237  1  0.76823172  0.12249350  0.58530501  1
  O  O238  1  0.76042335  0.63995125  0.07592076  1
  O  O239  1  0.77929307  0.63169462  0.58641023  1
  O  O240  1  0.06201455  0.11057173  0.41132053  1
  O  O241  1  0.04593730  0.10425588  0.90992016  1
  O  O242  1  0.04992278  0.61891792  0.42461135  1
  O  O243  1  0.05037610  0.61931686  0.91499979  1
  O  O244  1  0.39598079  0.12969632  0.41531603  1
  O  O245  1  0.40007492  0.10791055  0.92194412  1
  O  O246  1  0.39576772  0.62827137  0.41679124  1
  O  O247  1  0.40474374  0.60561454  0.92408155  1
  O  O248  1  0.73222644  0.11051152  0.41549118  1
  O  O249  1  0.72537357  0.11771051  0.91303834  1
  O  O250  1  0.70980193  0.60121102  0.42041942  1
  O  O251  1  0.72661161  0.62442859  0.91528706  1
  O  O252  1  0.20814815  0.35003429  0.40939129  1
  O  O253  1  0.23125883  0.38214026  0.91792257  1
  O  O254  1  0.20970679  0.85929082  0.41055309  1
  O  O255  1  0.22738054  0.87260968  0.91252516  1
  O  O256  1  0.55128379  0.35937929  0.43707094  1
  O  O257  1  0.54866784  0.35771604  0.91226207  1
  O  O258  1  0.55028266  0.85776269  0.43569069  1
  O  O259  1  0.56048611  0.86661049  0.91298293  1
  O  O260  1  0.90022211  0.34102076  0.42246324  1
  O  O261  1  0.90466496  0.35889196  0.92440676  1
  O  O262  1  0.90282742  0.85542976  0.42420429  1
  O  O263  1  0.89431877  0.87192089  0.91217707  1
  O  O264  1  0.05389189  0.38288827  0.41343732  1
  O  O265  1  0.06799236  0.36844780  0.91616490  1
  O  O266  1  0.05398886  0.89451101  0.41180127  1
  O  O267  1  0.06005423  0.88379722  0.91206899  1
  O  O268  1  0.36811418  0.38683455  0.42309397  1
  O  O269  1  0.39053837  0.39869565  0.91256570  1
  O  O270  1  0.36762750  0.88975097  0.42426643  1
  O  O271  1  0.39397423  0.88898832  0.91288394  1
  O  O272  1  0.72981781  0.39308013  0.43573138  1
  O  O273  1  0.71306417  0.37985388  0.92419965  1
  O  O274  1  0.72617347  0.89406499  0.43470298  1
  O  O275  1  0.72785801  0.87974852  0.91371357  1
  O  O276  1  0.22910475  0.12833683  0.41301361  1
  O  O277  1  0.20819712  0.13784181  0.92001268  1
  O  O278  1  0.23616329  0.63583194  0.42315413  1
  O  O279  1  0.21649890  0.62344122  0.92528369  1
  O  O280  1  0.56702836  0.13176527  0.42121318  1
  O  O281  1  0.56352915  0.12763741  0.91594772  1
  O  O282  1  0.55254883  0.64531434  0.41149733  1
  O  O283  1  0.56300933  0.63280527  0.91352574  1
  O  O284  1  0.89700564  0.14409115  0.41309616  1
  O  O285  1  0.88747474  0.13227038  0.91347685  1
  O  O286  1  0.89198502  0.66448521  0.41987365  1
  O  O287  1  0.88660192  0.64565805  0.91253685  1
  O  O288  1  0.17566626  0.00327997  0.07110320  1
  O  O289  1  0.17489070  0.00035303  0.58565639  1
  O  O290  1  0.17847614  0.50571200  0.08361502  1
  O  O291  1  0.18511197  0.49914956  0.58771369  1
  O  O292  1  0.51503865  -0.00126659  0.08756491  1
  O  O293  1  0.51483067  -0.00024338  0.58541048  1
  O  O294  1  0.52976531  0.50024636  0.08502399  1
  O  O295  1  0.50785066  0.48637015  0.57844778  1
  O  O296  1  0.81910113  0.00144554  0.08584615  1
  O  O297  1  0.85826589  0.00092416  0.58408600  1
  O  O298  1  0.82031507  0.48682165  0.07793409  1
  O  O299  1  0.84936572  0.49911630  0.59031247  1
  O  O300  1  0.00740854  0.26248166  0.07318316  1
  O  O301  1  0.01832267  0.25163095  0.58695960  1
  O  O302  1  -0.00943617  0.73615462  0.07141847  1
  O  O303  1  0.01816902  0.74840325  0.58754024  1
  O  O304  1  0.34424449  0.26660946  0.07256848  1
  O  O305  1  0.34132605  0.24572226  0.58757342  1
  O  O306  1  0.36588145  0.74271903  0.08328517  1
  O  O307  1  0.33731341  0.75449315  0.58689126  1
  O  O308  1  0.66704464  0.24482735  0.08519032  1
  O  O309  1  0.68781268  0.24687370  0.58546690  1
  O  O310  1  0.66732788  0.75413893  0.08294500  1
  O  O311  1  0.69230753  0.75444581  0.58531961  1
  O  O312  1  0.16334234  -0.00118363  0.41221943  1
  O  O313  1  0.15598154  0.00016791  0.91190238  1
  O  O314  1  0.16513583  0.48709328  0.42267390  1
  O  O315  1  0.13496084  0.49811794  0.91547970  1
  O  O316  1  0.48445524  0.01169353  0.42501601  1
  O  O317  1  0.50229162  -0.00267454  0.91377419  1
  O  O318  1  0.49094542  0.51369018  0.42407896  1
  O  O319  1  0.50943922  0.49763930  0.91102251  1
  O  O320  1  0.85122871  0.01122378  0.42089507  1
  O  O321  1  0.81801807  -0.00020924  0.91531836  1
  O  O322  1  0.86503147  0.50399618  0.43357807  1
  O  O323  1  0.83026102  0.51292176  0.92103839  1
  O  O324  1  0.31701909  0.24971426  0.41583755  1
  O  O325  1  0.33213205  0.26584952  0.92178513  1
  O  O326  1  0.32064139  0.75388530  0.41619076  1
  O  O327  1  0.33083481  0.75967009  0.92198747  1
  O  O328  1  0.67355518  0.23844966  0.42811283  1
  O  O329  1  0.65299913  0.24671688  0.91557776  1
  O  O330  1  0.67601731  0.73939189  0.42217761  1
  O  O331  1  0.65456748  0.75157506  0.91381872  1
  O  O332  1  1.01529843  0.24458545  0.40999457  1
  O  O333  1  0.99556107  0.24159014  0.91330908  1
  O  O334  1  1.01685591  0.75585760  0.41097387  1
  O  O335  1  0.99125052  0.75424354  0.91297923  1
  O  O336  1  0.19644515  0.08328141  0.18415608  1
  O  O337  1  0.20708408  0.08223172  0.69469459  1
  O  O338  1  0.21383762  0.58190962  0.19453065  1
  O  O339  1  0.20803531  0.58169838  0.69708200  1
  O  O340  1  0.55140453  0.09105702  0.19325787  1
  O  O341  1  0.53775490  0.08284779  0.69418731  1
  O  O342  1  0.54389689  0.58361583  0.19646548  1
  O  O343  1  0.54397291  0.58347000  0.69992727  1
  O  O344  1  0.87647369  0.08350554  0.19206673  1
  O  O345  1  0.87692311  0.08342604  0.69391968  1
  O  O346  1  0.87877641  0.58412554  0.20060670  1
  O  O347  1  0.87985322  0.58568325  0.69707543  1
  O  O348  1  0.04267123  0.33495568  0.19142532  1
  O  O349  1  0.04265352  0.33396557  0.69670651  1
  O  O350  1  0.04116626  0.83202284  0.19581250  1
  O  O351  1  0.04402789  0.83373857  0.69525723  1
  O  O352  1  0.37384124  0.33838362  0.19128709  1
  O  O353  1  0.37539188  0.33331503  0.69676771  1
  O  O354  1  0.37905857  0.82696553  0.19072559  1
  O  O355  1  0.37490827  0.83534933  0.69594110  1
  O  O356  1  0.71315683  0.32441818  0.19581389  1
  O  O357  1  0.70938963  0.32849050  0.69625126  1
  O  O358  1  0.71076677  0.83338928  0.19312863  1
  O  O359  1  0.70581162  0.83521950  0.69468460  1
  O  O360  1  0.20875481  0.41961183  0.19450466  1
  O  O361  1  0.20931955  0.41689116  0.69660205  1
  O  O362  1  0.20853012  0.91139274  0.19598245  1
  O  O363  1  0.20843733  0.91743505  0.69577292  1
  O  O364  1  0.53642370  0.41895321  0.19441924  1
  O  O365  1  0.54170816  0.41227026  0.69453136  1
  O  O366  1  0.55186687  0.90990258  0.19384515  1
  O  O367  1  0.54162560  0.91671308  0.69444524  1
  O  O368  1  0.87480017  0.41312667  0.19307919  1
  O  O369  1  0.88114287  0.41122569  0.69681453  1
  O  O370  1  0.87535044  0.91673436  0.19011033  1
  O  O371  1  0.87987545  0.92070156  0.69441744  1
  O  O372  1  0.04387096  0.16726123  0.19661289  1
  O  O373  1  0.04229229  0.16657930  0.69558971  1
  O  O374  1  0.03450713  0.66546958  0.18834560  1
  O  O375  1  0.04493593  0.66639333  0.69720117  1
  O  O376  1  0.38693366  0.17782779  0.19813572  1
  O  O377  1  0.37935745  0.15959634  0.69431028  1
  O  O378  1  0.37870550  0.66434475  0.19580598  1
  O  O379  1  0.37592859  0.66816220  0.69383217  1
  O  O380  1  0.71284150  0.16543547  0.19667261  1
  O  O381  1  0.71081203  0.16645446  0.69490408  1
  O  O382  1  0.70730089  0.67066250  0.19320242  1
  O  O383  1  0.70969019  0.66764001  0.69197334  1
  O  O384  1  0.12603248  0.08169903  0.30136643  1
  O  O385  1  0.12084822  0.08389606  0.80441283  1
  O  O386  1  0.11909010  0.58182778  0.29760030  1
  O  O387  1  0.12121334  0.58359949  0.80817448  1
  O  O388  1  0.46427472  0.09243840  0.31027850  1
  O  O389  1  0.45823605  0.08153318  0.80713151  1
  O  O390  1  0.45386420  0.58529547  0.30642718  1
  O  O391  1  0.45679656  0.58375898  0.80611775  1
  O  O392  1  0.79708299  0.08496382  0.30588102  1
  O  O393  1  0.79240946  0.08097411  0.80435457  1
  O  O394  1  0.79027525  0.58574840  0.30246564  1
  O  O395  1  0.78641815  0.58898343  0.80530785  1
  O  O396  1  0.28762513  0.33404651  0.30444594  1
  O  O397  1  0.28670024  0.34044846  0.80774941  1
  O  O398  1  0.28640890  0.83165990  0.30500882  1
  O  O399  1  0.29114655  0.83496335  0.80604662  1
  O  O400  1  0.61872710  0.32682616  0.30718278  1
  O  O401  1  0.62198301  0.33109159  0.80638713  1
  O  O402  1  0.62292355  0.83323974  0.30213271  1
  O  O403  1  0.62337402  0.83393072  0.80378114  1
  O  O404  1  0.95990710  0.32900882  0.30397812  1
  O  O405  1  0.95813314  0.33038916  0.80792331  1
  O  O406  1  0.95589100  0.83608422  0.30450859  1
  O  O407  1  0.95971731  0.83480819  0.80381463  1
  O  O408  1  0.12105098  0.41591826  0.30372824  1
  O  O409  1  0.12245778  0.41574508  0.80623321  1
  O  O410  1  0.11947089  0.91923530  0.30103494  1
  O  O411  1  0.12289238  0.91716182  0.80352622  1
  O  O412  1  0.45285606  0.41764866  0.30117905  1
  O  O413  1  0.45729664  0.41688105  0.80295652  1
  O  O414  1  0.44717685  0.90722526  0.30130349  1
  O  O415  1  0.45803656  0.91581742  0.80397466  1
  O  O416  1  0.80544543  0.41747239  0.30555046  1
  O  O417  1  0.78633308  0.41324175  0.80098144  1
  O  O418  1  0.79176466  0.91684985  0.29854564  1
  O  O419  1  0.78801758  0.91927866  0.80479027  1
  O  O420  1  0.28393443  0.17273582  0.30325428  1
  O  O421  1  0.28662936  0.16577390  0.80009537  1
  O  O422  1  0.29304203  0.66868267  0.30658485  1
  O  O423  1  0.28837329  0.66661550  0.80034457  1
  O  O424  1  0.62898014  0.16552164  0.30969729  1
  O  O425  1  0.62094003  0.16688601  0.80473206  1
  O  O426  1  0.62569203  0.66728670  0.30675454  1
  O  O427  1  0.62363800  0.66973020  0.80368172  1
  O  O428  1  0.96002960  0.16373679  0.30243493  1
  O  O429  1  0.95306916  0.16443872  0.80332424  1
  O  O430  1  0.96003622  0.66959680  0.30739847  1
  O  O431  1  0.95650903  0.66896466  0.80483019  1
  F  F432  1  0.04323725  -0.00082295  0.19668834  1
  F  F433  1  0.04525523  0.00036006  0.70129073  1
  F  F434  1  0.04435781  0.49565671  0.19799106  1
  F  F435  1  0.04620931  0.49971310  0.70396613  1
  F  F436  1  0.36769872  -0.01583360  0.18339220  1
  F  F437  1  0.37763423  -0.00021018  0.70368825  1
  F  F438  1  0.37658225  0.50394376  0.20240033  1
  F  F439  1  0.37619552  0.50039065  0.70282042  1
  F  F440  1  0.71226942  0.00280623  0.20144325  1
  F  F441  1  0.71281147  -0.00325247  0.69779837  1
  F  F442  1  0.71345285  0.50941101  0.19782213  1
  F  F443  1  0.70490445  0.49914916  0.69893151  1
  F  F444  1  0.21203746  0.25389861  0.19812390  1
  F  F445  1  0.20022398  0.25206271  0.69815195  1
  F  F446  1  0.21582298  0.75097018  0.19748093  1
  F  F447  1  0.20992363  0.75239200  0.70206121  1
  F  F448  1  0.54783865  0.25119561  0.20400401  1
  F  F449  1  0.54480747  0.24816951  0.70112549  1
  F  F450  1  0.54507910  0.74650326  0.20234292  1
  F  F451  1  0.54464086  0.75144859  0.70091402  1
  F  F452  1  0.87938675  0.24919290  0.20179220  1
  F  F453  1  0.87802077  0.24887144  0.70298445  1
  F  F454  1  0.87809767  0.75049298  0.20262146  1
  F  F455  1  0.88088302  0.74718103  0.69919133  1
  F  F456  1  0.28249398  -0.00629005  0.29730353  1
  F  F457  1  0.28716322  -0.00064648  0.79800607  1
  F  F458  1  0.28617061  0.50010721  0.29849913  1
  F  F459  1  0.28772826  0.50061710  0.79887748  1
  F  F460  1  0.63491850  0.00079938  0.30340183  1
  F  F461  1  0.62005648  -0.00467447  0.79848063  1
  F  F462  1  0.61488560  0.51134268  0.30304406  1
  F  F463  1  0.62086207  0.49811750  0.79830568  1
  F  F464  1  0.95664062  0.00054432  0.29258861  1
  F  F465  1  0.95394778  0.00046440  0.79718001  1
  F  F466  1  0.95875630  0.49847905  0.29632332  1
  F  F467  1  0.96133990  0.49958328  0.80252218  1
  F  F468  1  0.12277332  0.25092418  0.29398036  1
  F  F469  1  0.11858074  0.25030941  0.79889467  1
  F  F470  1  0.12103522  0.75065745  0.29588760  1
  F  F471  1  0.12039178  0.75106506  0.79843740  1
  F  F472  1  0.45369920  0.25559817  0.30090073  1
  F  F473  1  0.45881982  0.24815625  0.79882004  1
  F  F474  1  0.45337322  0.74837544  0.29713528  1
  F  F475  1  0.45554983  0.75065857  0.79667947  1
  F  F476  1  0.79223829  0.24716674  0.29913138  1
  F  F477  1  0.78807177  0.24699409  0.79917680  1
  F  F478  1  0.78869943  0.75150701  0.29617872  1
  F  F479  1  0.78646672  0.74850463  0.79708287  1
