# generated using pymatgen
data_K24Na3Li5Mg64Fe17Si79(O5F)48
_symmetry_space_group_name_H-M   'P 1'
_cell_length_a   16.09288034
_cell_length_b   18.59125042
_cell_length_c   20.56693341
_cell_angle_alpha   90.00758643
_cell_angle_beta   100.02682112
_cell_angle_gamma   89.98744457
_symmetry_Int_Tables_number   1
_chemical_formula_structural   K24Na3Li5Mg64Fe17Si79(O5F)48
_chemical_formula_sum   'K24 Na3 Li5 Mg64 Fe17 Si79 O240 F48'
_cell_volume   6059.37003473
_cell_formula_units_Z   1
loop_
 _symmetry_equiv_pos_site_id
 _symmetry_equiv_pos_as_xyz
  1  'x, y, z'
loop_
 _atom_site_type_symbol
 _atom_site_label
 _atom_site_symmetry_multiplicity
 _atom_site_fract_x
 _atom_site_fract_y
 _atom_site_fract_z
 _atom_site_occupancy
  K  K0  1  -0.00595405  -0.00307860  -0.00158740  1
  K  K1  1  0.00186074  -0.00173410  0.49846277  1
  K  K2  1  0.00007282  0.50602140  0.00791865  1
  K  K3  1  0.00085660  0.50648165  0.50396956  1
  K  K4  1  0.34323603  0.00546118  -0.00571033  1
  K  K5  1  0.33689914  -0.00074470  0.50845825  1
  K  K6  1  0.33117817  0.50148067  -0.00785595  1
  K  K7  1  0.32769208  0.51043892  0.50759941  1
  K  K8  1  0.65941307  -0.00028324  -0.00102480  1
  K  K9  1  0.66672681  -0.00776663  0.50030905  1
  K  K10  1  0.66687278  0.50509598  0.00290529  1
  K  K11  1  0.66203797  0.50464326  0.50015963  1
  K  K12  1  0.16936452  0.23960835  -0.00520698  1
  K  K13  1  0.17307408  0.24332619  0.50556305  1
  K  K14  1  0.16325761  0.75368057  -0.00005379  1
  K  K15  1  0.16610855  0.74926401  0.49923414  1
  K  K16  1  0.49889357  0.23549069  -0.00916023  1
  K  K17  1  0.49664979  0.24536622  0.50765315  1
  K  K18  1  0.49541195  0.74923197  0.00299439  1
  K  K19  1  0.51079651  0.75616181  0.49877683  1
  K  K20  1  0.84528999  0.24069748  -0.00350198  1
  K  K21  1  0.83094673  0.24058599  0.49765994  1
  K  K22  1  0.83386686  0.75723503  0.00331023  1
  K  K23  1  0.82664876  0.75764167  0.49726021  1
  Na  Na24  1  0.66483600  0.24830257  0.75166320  1
  Na  Na25  1  0.49924933  0.66872321  0.25231429  1
  Na  Na26  1  0.33225460  0.57610394  0.74876509  1
  Li  Li27  1  -0.00166233  0.75150087  0.74272515  1
  Li  Li28  1  0.50064033  0.00117944  0.75241407  1
  Li  Li29  1  0.33351805  0.41801277  0.75126172  1
  Li  Li30  1  0.00100305  0.08089792  0.75005928  1
  Li  Li31  1  0.00348935  0.58889078  0.25901836  1
  Mg  Mg32  1  0.33307931  0.75136538  0.25553209  1
  Mg  Mg33  1  0.33357250  0.74816333  0.75149124  1
  Mg  Mg34  1  0.66416962  0.75071974  0.24843153  1
  Mg  Mg35  1  0.83510065  0.00132461  0.74933721  1
  Mg  Mg36  1  0.16649309  -0.00032826  0.24762187  1
  Mg  Mg37  1  0.49793888  0.50101904  0.25065893  1
  Mg  Mg38  1  0.50317556  0.00157668  0.25228529  1
  Mg  Mg39  1  0.49753109  0.49772343  0.75065520  1
  Mg  Mg40  1  0.66826671  0.25099953  0.25073270  1
  Mg  Mg41  1  0.33383753  0.24859589  0.24952629  1
  Mg  Mg42  1  0.33348045  0.24937788  0.75240424  1
  Mg  Mg43  1  -0.00214734  0.74816543  0.25037764  1
  Mg  Mg44  1  0.00243317  0.24711979  0.74829026  1
  Mg  Mg45  1  0.83409772  0.00024297  0.24778053  1
  Mg  Mg46  1  0.83398931  0.49760577  0.74764395  1
  Mg  Mg47  1  0.00059563  0.24959555  0.24400711  1
  Mg  Mg48  1  0.16324324  0.50210675  0.25133685  1
  Mg  Mg49  1  0.16434324  0.00032082  0.75049483  1
  Mg  Mg50  1  0.83631353  0.50593174  0.24939080  1
  Mg  Mg51  1  0.16890369  0.50128205  0.75014432  1
  Mg  Mg52  1  0.66837828  0.75159186  0.75105532  1
  Mg  Mg53  1  0.50110019  0.33393671  0.25337345  1
  Mg  Mg54  1  -0.00165826  0.91682998  0.74777941  1
  Mg  Mg55  1  0.66526129  0.58616402  0.25027236  1
  Mg  Mg56  1  0.66730858  0.41856972  0.25176499  1
  Mg  Mg57  1  0.50250957  0.83548611  0.75339873  1
  Mg  Mg58  1  0.16460844  0.66575569  0.25514433  1
  Mg  Mg59  1  0.66507616  0.91526403  0.75124201  1
  Mg  Mg60  1  0.33245845  0.41626443  0.25163584  1
  Mg  Mg61  1  0.16671926  0.83422536  0.25035906  1
  Mg  Mg62  1  -0.00062322  0.58649069  0.74633012  1
  Mg  Mg63  1  0.17215487  0.33528722  0.75211760  1
  Mg  Mg64  1  0.33515491  0.91546096  0.25353746  1
  Mg  Mg65  1  0.33563101  0.08361979  0.24871535  1
  Mg  Mg66  1  0.49541654  0.33322783  0.75089363  1
  Mg  Mg67  1  0.16242942  0.83152718  0.74908444  1
  Mg  Mg68  1  0.83181129  0.83665455  0.24694194  1
  Mg  Mg69  1  0.83342490  0.16621035  0.24671092  1
  Mg  Mg70  1  0.33179938  0.58544537  0.25451309  1
  Mg  Mg71  1  0.16796529  0.16377246  0.75155001  1
  Mg  Mg72  1  0.00155451  0.41970525  0.24799706  1
  Mg  Mg73  1  0.33594945  0.08354793  0.75096383  1
  Mg  Mg74  1  0.83464364  0.33727527  0.24864993  1
  Mg  Mg75  1  0.83509803  0.16544996  0.74933526  1
  Mg  Mg76  1  0.66336367  0.08267200  0.75081875  1
  Mg  Mg77  1  0.66602000  0.41404145  0.75041458  1
  Mg  Mg78  1  -0.00264200  0.91600388  0.24761684  1
  Mg  Mg79  1  0.66803918  0.08651447  0.25225519  1
  Mg  Mg80  1  0.00150027  0.41515583  0.74810961  1
  Mg  Mg81  1  0.49834908  0.16341907  0.75085194  1
  Mg  Mg82  1  0.16581789  0.33417771  0.24797192  1
  Mg  Mg83  1  0.83363628  0.33066707  0.74923847  1
  Mg  Mg84  1  0.83522022  0.66608086  0.74575524  1
  Mg  Mg85  1  0.16426943  0.16508894  0.24420305  1
  Mg  Mg86  1  0.50235901  0.83492332  0.25320935  1
  Mg  Mg87  1  0.83242084  0.66775225  0.24776513  1
  Mg  Mg88  1  0.83383411  0.83377186  0.74794805  1
  Mg  Mg89  1  0.50101144  0.66533993  0.75299969  1
  Mg  Mg90  1  -0.00250601  0.08523879  0.24331402  1
  Mg  Mg91  1  0.16191740  0.66831040  0.74812624  1
  Mg  Mg92  1  0.50473713  0.16607209  0.25228661  1
  Mg  Mg93  1  0.33560537  0.91669915  0.75327244  1
  Mg  Mg94  1  0.66784749  0.91569947  0.24932139  1
  Mg  Mg95  1  0.66742049  0.58310482  0.75039823  1
  Fe  Fe96  1  0.30573977  0.83800528  0.39168930  1
  Fe  Fe97  1  0.69607190  0.83325410  0.61019280  1
  Fe  Fe98  1  0.97363467  0.66746489  0.38938144  1
  Fe  Fe99  1  0.85198362  0.91306093  0.10490538  1
  Fe  Fe100  1  0.48019627  0.07744905  0.89141407  1
  Fe  Fe101  1  0.64551651  0.82879766  0.89315642  1
  Fe  Fe102  1  0.68250490  0.66269389  0.10780976  1
  Fe  Fe103  1  0.14475474  0.57876477  0.39271209  1
  Fe  Fe104  1  0.03261641  0.16623299  0.10300170  1
  Fe  Fe105  1  0.35786831  0.16823077  0.60942538  1
  Fe  Fe106  1  0.63817987  0.83008282  0.39174904  1
  Fe  Fe107  1  0.01909254  0.67085846  0.60823593  1
  Fe  Fe108  1  0.64403078  0.16964634  0.39342657  1
  Fe  Fe109  1  0.30544894  0.16778051  0.89328789  1
  Fe  Fe110  1  0.85613447  0.08540413  0.10470379  1
  Fe  Fe111  1  0.81134303  0.91724931  0.38930452  1
  Fe  Fe112  1  0.53098621  0.08686353  0.11183683  1
  Si  Si113  1  0.52373976  0.91684063  0.61469384  1
  Si  Si114  1  0.19259377  0.91348968  0.61656485  1
  Si  Si115  1  0.80535418  0.58422850  0.38724479  1
  Si  Si116  1  0.51629321  0.57516799  0.11290450  1
  Si  Si117  1  0.36276428  0.83093253  0.11644230  1
  Si  Si118  1  0.97845316  0.83313029  0.38522197  1
  Si  Si119  1  0.69754745  0.17714661  0.11151227  1
  Si  Si120  1  0.96961090  0.83207767  0.88206207  1
  Si  Si121  1  0.02800327  0.66684935  0.11552243  1
  Si  Si122  1  0.35393293  0.33122598  0.11632330  1
  Si  Si123  1  0.97032708  0.66572598  0.88369782  1
  Si  Si124  1  0.13588083  0.91207447  0.88473954  1
  Si  Si125  1  0.68164666  0.83065809  0.10986671  1
  Si  Si126  1  0.52398301  0.58173961  0.61631923  1
  Si  Si127  1  0.31311516  0.66853410  0.39328781  1
  Si  Si128  1  0.47121693  0.90492696  0.89135377  1
  Si  Si129  1  0.19283596  0.58512787  0.11553561  1
  Si  Si130  1  0.81090655  0.92211177  0.88653682  1
  Si  Si131  1  0.47099365  0.92319007  0.38897720  1
  Si  Si132  1  0.64142336  0.33656532  0.88675174  1
  Si  Si133  1  0.68791188  0.34092171  0.11509737  1
  Si  Si134  1  0.36359131  0.16929743  0.11598052  1
  Si  Si135  1  0.47046704  0.57702142  0.38751225  1
  Si  Si136  1  0.02399457  0.83955382  0.61272612  1
  Si  Si137  1  0.64070630  0.65785063  0.38861693  1
  Si  Si138  1  0.85919081  0.08941814  0.61477350  1
  Si  Si139  1  0.30556574  0.16196167  0.38249164  1
  Si  Si140  1  0.81174356  0.41236242  0.88482636  1
  Si  Si141  1  0.64397859  0.16744811  0.88855021  1
  Si  Si142  1  0.47271604  0.08629869  0.38782874  1
  Si  Si143  1  0.97705205  0.33619498  0.38301426  1
  Si  Si144  1  0.02796171  0.16702021  0.61490498  1
  Si  Si145  1  0.85731103  0.40817262  0.61291607  1
  Si  Si146  1  0.19025428  0.58704501  0.61335267  1
  Si  Si147  1  0.13454034  0.92155229  0.38531596  1
  Si  Si148  1  0.85768208  0.58658561  0.11045297  1
  Si  Si149  1  0.52472531  0.41624838  0.61546976  1
  Si  Si150  1  0.14808685  0.41028727  0.38705603  1
  Si  Si151  1  0.97526628  0.16669495  0.88140419  1
  Si  Si152  1  0.30581845  0.66576995  0.88482906  1
  Si  Si153  1  0.36156412  0.66784992  0.61739386  1
  Si  Si154  1  0.81038823  0.08730371  0.88388066  1
  Si  Si155  1  0.02886242  0.33253438  0.61348198  1
  Si  Si156  1  0.30800257  0.33875322  0.88896570  1
  Si  Si157  1  0.69015240  0.33156347  0.61474467  1
  Si  Si158  1  0.52187965  0.91860232  0.11416725  1
  Si  Si159  1  0.35458679  0.66650538  0.11723370  1
  Si  Si160  1  0.13824741  0.58551139  0.88538776  1
  Si  Si161  1  0.81285531  0.42122066  0.38464440  1
  Si  Si162  1  0.81133441  0.57660066  0.88417750  1
  Si  Si163  1  0.13695429  0.07830859  0.88734562  1
  Si  Si164  1  0.81572356  0.08577523  0.38866989  1
  Si  Si165  1  0.20390082  0.08017868  0.11080897  1
  Si  Si166  1  0.69105432  0.66028422  0.61313127  1
  Si  Si167  1  0.51751726  0.41355462  0.11618082  1
  Si  Si168  1  0.18861814  0.07915767  0.61225579  1
  Si  Si169  1  0.30184840  0.83018269  0.88666306  1
  Si  Si170  1  0.19052639  0.42103577  0.61547618  1
  Si  Si171  1  0.47757193  0.58387276  0.88676802  1
  Si  Si172  1  0.35567985  0.33716169  0.61441987  1
  Si  Si173  1  0.64716778  0.33986075  0.38927028  1
  Si  Si174  1  0.85480918  0.57415639  0.61070915  1
  Si  Si175  1  0.47346502  0.41367172  0.38764606  1
  Si  Si176  1  0.13973928  0.42065071  0.88545974  1
  Si  Si177  1  0.52899124  0.08373313  0.61225546  1
  Si  Si178  1  0.97859910  0.33111687  0.88390940  1
  Si  Si179  1  0.35927167  0.83262994  0.61674883  1
  Si  Si180  1  0.19785439  0.91458444  0.11370947  1
  Si  Si181  1  0.03039697  0.83234835  0.11080478  1
  Si  Si182  1  0.69345980  0.16417370  0.61503153  1
  Si  Si183  1  0.13820404  0.08644467  0.38186825  1
  Si  Si184  1  0.47714750  0.41840304  0.88768571  1
  Si  Si185  1  0.02461440  0.33853817  0.10983311  1
  Si  Si186  1  0.19323654  0.42050659  0.11507197  1
  Si  Si187  1  0.85719979  0.42044597  0.11300054  1
  Si  Si188  1  0.30977357  0.32574947  0.38467901  1
  Si  Si189  1  0.86422570  0.92489007  0.61208223  1
  Si  Si190  1  0.64787305  0.65935007  0.88830023  1
  Si  Si191  1  0.97535341  0.17240375  0.38247562  1
  O  O192  1  0.29319667  0.10709196  0.08907081  1
  O  O193  1  0.25873333  0.11486103  0.57489015  1
  O  O194  1  0.26645760  0.62541696  0.08255374  1
  O  O195  1  0.27831494  0.61821273  0.59082768  1
  O  O196  1  0.62521121  0.12100637  0.07918684  1
  O  O197  1  0.61343044  0.11380027  0.58261443  1
  O  O198  1  0.59047054  0.59957840  0.07427401  1
  O  O199  1  0.60177153  0.61665333  0.58568476  1
  O  O200  1  0.94727058  0.10799774  0.06332065  1
  O  O201  1  0.93632746  0.13011913  0.58531180  1
  O  O202  1  0.94282531  0.62037130  0.08515705  1
  O  O203  1  0.92738002  0.60827158  0.57620929  1
  O  O204  1  0.10250912  0.38368498  0.08401462  1
  O  O205  1  0.10312275  0.37545609  0.58322672  1
  O  O206  1  0.11512013  0.86546392  0.08376583  1
  O  O207  1  0.10996716  0.86603433  0.58468544  1
  O  O208  1  0.43866033  0.35829256  0.08795865  1
  O  O209  1  0.43672017  0.37519514  0.58557997  1
  O  O210  1  0.44296250  0.86186770  0.08636321  1
  O  O211  1  0.43378793  0.87328583  0.58617460  1
  O  O212  1  0.76751389  0.37754526  0.08517943  1
  O  O213  1  0.77127669  0.36220000  0.58261176  1
  O  O214  1  0.76284214  0.84881003  0.07578874  1
  O  O215  1  0.78729905  0.87520617  0.57752963  1
  O  O216  1  0.27277047  0.38308416  0.08631930  1
  O  O217  1  0.27111474  0.38745825  0.58665918  1
  O  O218  1  0.27717800  0.87689543  0.08522399  1
  O  O219  1  0.27223801  0.87727633  0.58774211  1
  O  O220  1  0.60337196  0.39048101  0.08761672  1
  O  O221  1  0.60397005  0.37849451  0.58500712  1
  O  O222  1  0.60543079  0.89071077  0.08578931  1
  O  O223  1  0.59487097  0.88154657  0.57772169  1
  O  O224  1  0.93599443  0.38396086  0.08336496  1
  O  O225  1  0.93673515  0.37074213  0.58407884  1
  O  O226  1  0.94994841  0.87606323  0.07340595  1
  O  O227  1  0.95291442  0.90242084  0.58748369  1
  O  O228  1  0.13117224  0.13221854  0.07382456  1
  O  O229  1  0.09821804  0.12148812  0.58277931  1
  O  O230  1  0.10360267  0.62464871  0.08422527  1
  O  O231  1  0.11417397  0.63533697  0.57497155  1
  O  O232  1  0.44703713  0.15741086  0.08504073  1
  O  O233  1  0.44994343  0.13072946  0.57458524  1
  O  O234  1  0.43075898  0.62529975  0.08816569  1
  O  O235  1  0.43835922  0.62752766  0.58671409  1
  O  O236  1  0.78365240  0.16554664  0.08268901  1
  O  O237  1  0.77553011  0.13760697  0.58290769  1
  O  O238  1  0.77702803  0.62967409  0.07113832  1
  O  O239  1  0.76186298  0.61056206  0.58476598  1
  O  O240  1  0.05938727  0.12347425  0.41152782  1
  O  O241  1  0.05282742  0.11364076  0.91218329  1
  O  O242  1  0.04832212  0.59665900  0.42598703  1
  O  O243  1  0.06288032  0.62845341  0.91540076  1
  O  O244  1  0.38146664  0.10669955  0.41202580  1
  O  O245  1  0.39907003  0.11850744  0.93377182  1
  O  O246  1  0.39297211  0.61144536  0.41869499  1
  O  O247  1  0.39580688  0.62279490  0.91294870  1
  O  O248  1  0.73852618  0.11223114  0.42503856  1
  O  O249  1  0.73549034  0.12632738  0.91544269  1
  O  O250  1  0.71580272  0.59762550  0.41486689  1
  O  O251  1  0.72642654  0.60099618  0.91212885  1
  O  O252  1  0.22448547  0.35005816  0.41235911  1
  O  O253  1  0.23195352  0.38684929  0.91613335  1
  O  O254  1  0.20811449  0.86992867  0.42312515  1
  O  O255  1  0.22157656  0.86616290  0.91538654  1
  O  O256  1  0.56326794  0.37344813  0.41634955  1
  O  O257  1  0.56570056  0.37515414  0.92050939  1
  O  O258  1  0.54079551  0.86532170  0.42137612  1
  O  O259  1  0.54388788  0.84749817  0.92244460  1
  O  O260  1  0.89505890  0.36882247  0.41227301  1
  O  O261  1  0.89695358  0.36452434  0.91318141  1
  O  O262  1  0.89625598  0.84914363  0.41842071  1
  O  O263  1  0.89767289  0.87459901  0.91474670  1
  O  O264  1  0.06216180  0.38159048  0.41400207  1
  O  O265  1  0.06330147  0.37825835  0.91486004  1
  O  O266  1  0.04553234  0.90080493  0.40901216  1
  O  O267  1  0.06075360  0.86940197  0.91422506  1
  O  O268  1  0.39461343  0.37319431  0.41506206  1
  O  O269  1  0.39692860  0.38401736  0.91674785  1
  O  O270  1  0.38401987  0.91148429  0.41792571  1
  O  O271  1  0.38436962  0.87612617  0.91940375  1
  O  O272  1  0.72865015  0.39450773  0.41388178  1
  O  O273  1  0.73100110  0.38087200  0.91518459  1
  O  O274  1  0.72221745  0.89152973  0.43001618  1
  O  O275  1  0.73585627  0.89287922  0.92195866  1
  O  O276  1  0.22086855  0.13694402  0.41112427  1
  O  O277  1  0.21671369  0.12103820  0.92752210  1
  O  O278  1  0.23547514  0.64103110  0.42751550  1
  O  O279  1  0.23011340  0.62326600  0.91594792  1
  O  O280  1  0.54184054  0.14423386  0.42167403  1
  O  O281  1  0.57610292  0.13349078  0.92829864  1
  O  O282  1  0.55755276  0.62073626  0.41498111  1
  O  O283  1  0.56511668  0.62686937  0.91784231  1
  O  O284  1  0.89464804  0.14488704  0.41345732  1
  O  O285  1  0.89314017  0.13797624  0.91079563  1
  O  O286  1  0.87190849  0.64334259  0.42063777  1
  O  O287  1  0.89566797  0.62392189  0.91619929  1
  O  O288  1  0.18790025  -0.00357234  0.08330787  1
  O  O289  1  0.17586389  -0.00507351  0.58577908  1
  O  O290  1  0.18743037  0.50268663  0.08525960  1
  O  O291  1  0.17895436  0.50278503  0.58491203  1
  O  O292  1  0.49337340  -0.00464618  0.08046656  1
  O  O293  1  0.51052817  0.00012634  0.58649088  1
  O  O294  1  0.48608678  0.49237381  0.08582669  1
  O  O295  1  0.51437607  0.49911368  0.58627965  1
  O  O296  1  0.81477449  -0.00011072  0.06680695  1
  O  O297  1  0.84725909  0.00834860  0.58376894  1
  O  O298  1  0.84942980  0.50167235  0.08144857  1
  O  O299  1  0.84213591  0.48944338  0.58360367  1
  O  O300  1  0.01555003  0.26307514  0.07159676  1
  O  O301  1  0.02481883  0.24999153  0.58361546  1
  O  O302  1  0.02306017  0.74782780  0.08207546  1
  O  O303  1  -0.00760906  0.76488669  0.57693382  1
  O  O304  1  0.32583758  0.25020865  0.09065550  1
  O  O305  1  0.33844513  0.26220573  0.57388857  1
  O  O306  1  0.34677780  0.74854598  0.08640328  1
  O  O307  1  0.34840070  0.74993500  0.58611695  1
  O  O308  1  0.66555876  0.26065521  0.08629030  1
  O  O309  1  0.67303453  0.24837982  0.58870515  1
  O  O310  1  0.64327888  0.75385445  0.08005305  1
  O  O311  1  0.68442416  0.73764374  0.57853157  1
  O  O312  1  0.15432125  0.00578206  0.41263790  1
  O  O313  1  0.14129524  -0.00637917  0.91508026  1
  O  O314  1  0.18090493  0.48382645  0.42272426  1
  O  O315  1  0.14004926  0.50318765  0.91588804  1
  O  O316  1  0.50265354  0.00583871  0.41441295  1
  O  O317  1  0.49428380  -0.01714208  0.92444675  1
  O  O318  1  0.48250688  0.49455822  0.41942598  1
  O  O319  1  0.48618862  0.50160910  0.91835026  1
  O  O320  1  0.85304968  0.00960976  0.41798959  1
  O  O321  1  0.83234245  0.00596838  0.91239503  1
  O  O322  1  0.83607669  0.50151538  0.41452919  1
  O  O323  1  0.83244635  0.49432151  0.91344636  1
  O  O324  1  0.33105286  0.24330991  0.41148300  1
  O  O325  1  0.31309357  0.26371157  0.92866457  1
  O  O326  1  0.34520903  0.74679257  0.42280854  1
  O  O327  1  0.31237415  0.74725056  0.91791625  1
  O  O328  1  0.67093229  0.26454035  0.42614027  1
  O  O329  1  0.65815670  0.25375746  0.91296796  1
  O  O330  1  0.65823337  0.73412251  0.42554270  1
  O  O331  1  0.67810118  0.73422541  0.92313322  1
  O  O332  1  0.99467011  0.25432935  0.41267051  1
  O  O333  1  0.99479362  0.24905622  0.91248775  1
  O  O334  1  1.02170509  0.75845710  0.41495703  1
  O  O335  1  0.97466188  0.74873215  0.91164374  1
  O  O336  1  0.21305003  0.08237406  0.19183104  1
  O  O337  1  0.20643846  0.08154717  0.69268141  1
  O  O338  1  0.21164036  0.58333784  0.19529690  1
  O  O339  1  0.19790447  0.58468091  0.69283981  1
  O  O340  1  0.54577427  0.08477362  0.20325809  1
  O  O341  1  0.54759411  0.08922697  0.69183193  1
  O  O342  1  0.54275086  0.57358619  0.19243384  1
  O  O343  1  0.54406439  0.58175886  0.69650981  1
  O  O344  1  0.87727901  0.08526176  0.19831768  1
  O  O345  1  0.87508529  0.08607834  0.69414518  1
  O  O346  1  0.86765037  0.58403112  0.18978305  1
  O  O347  1  0.87463608  0.57748584  0.69190530  1
  O  O348  1  0.04356057  0.33505615  0.19094855  1
  O  O349  1  0.04437979  0.33340120  0.69377593  1
  O  O350  1  0.04603195  0.83387482  0.19156994  1
  O  O351  1  0.04429644  0.83738901  0.69303755  1
  O  O352  1  0.37500260  0.33446520  0.19683619  1
  O  O353  1  0.37495897  0.33160461  0.69423495  1
  O  O354  1  0.37725152  0.83337213  0.19621810  1
  O  O355  1  0.37642662  0.83184123  0.69708842  1
  O  O356  1  0.70924530  0.33944466  0.19573525  1
  O  O357  1  0.71413489  0.33960724  0.69366101  1
  O  O358  1  0.70642972  0.83315183  0.19071478  1
  O  O359  1  0.71404138  0.83279713  0.70145476  1
  O  O360  1  0.21137419  0.41673861  0.19532740  1
  O  O361  1  0.20211879  0.41795253  0.69480026  1
  O  O362  1  0.21164051  0.91726927  0.19380803  1
  O  O363  1  0.20987553  0.91436870  0.69692080  1
  O  O364  1  0.53921666  0.41442904  0.19673349  1
  O  O365  1  0.54566714  0.41544559  0.69537934  1
  O  O366  1  0.53966214  0.91955578  0.19502076  1
  O  O367  1  0.54293733  0.91319989  0.69458429  1
  O  O368  1  0.87587780  0.41865994  0.19319348  1
  O  O369  1  0.87722671  0.41153467  0.69343941  1
  O  O370  1  0.87980629  0.91787209  0.19687569  1
  O  O371  1  0.87693599  0.92044337  0.69285210  1
  O  O372  1  0.04558241  0.16801585  0.19580862  1
  O  O373  1  0.04807223  0.16993093  0.69420095  1
  O  O374  1  0.04783059  0.67057799  0.19433705  1
  O  O375  1  0.04235787  0.66631916  0.69898017  1
  O  O376  1  0.37875463  0.16883998  0.19715682  1
  O  O377  1  0.37593403  0.16790726  0.69995374  1
  O  O378  1  0.36437368  0.66618826  0.19625363  1
  O  O379  1  0.38318630  0.67224620  0.69644821  1
  O  O380  1  0.71216167  0.17406232  0.19323441  1
  O  O381  1  0.71522203  0.16030381  0.69409403  1
  O  O382  1  0.70836436  0.66465073  0.19922372  1
  O  O383  1  0.70991082  0.66211028  0.69437248  1
  O  O384  1  0.12338875  0.08512508  0.30167916  1
  O  O385  1  0.12715685  0.08118852  0.80745034  1
  O  O386  1  0.12614178  0.58159482  0.30115161  1
  O  O387  1  0.12086385  0.58335378  0.80584396  1
  O  O388  1  0.45469893  0.08719111  0.30680689  1
  O  O389  1  0.45479544  0.08216630  0.80115976  1
  O  O390  1  0.44982799  0.57294229  0.30803720  1
  O  O391  1  0.46689811  0.58194154  0.80774880  1
  O  O392  1  0.79179638  0.08876897  0.30733495  1
  O  O393  1  0.79063077  0.08528046  0.80374747  1
  O  O394  1  0.78946398  0.58138095  0.30640558  1
  O  O395  1  0.79297354  0.57882379  0.80381648  1
  O  O396  1  0.29147618  0.33117257  0.30424394  1
  O  O397  1  0.28853007  0.33208110  0.80916102  1
  O  O398  1  0.28565657  0.83542368  0.29978158  1
  O  O399  1  0.28672759  0.83083683  0.80644076  1
  O  O400  1  0.62578579  0.33729618  0.30817921  1
  O  O401  1  0.61936770  0.34217101  0.80770082  1
  O  O402  1  0.62280596  0.83376896  0.29979868  1
  O  O403  1  0.62263154  0.83103106  0.80174371  1
  O  O404  1  0.95902079  0.33595281  0.30253580  1
  O  O405  1  0.95970572  0.33380693  0.80361087  1
  O  O406  1  0.95910239  0.83372122  0.30353507  1
  O  O407  1  0.95316879  0.83502111  0.80271728  1
  O  O408  1  0.12636247  0.41270883  0.30582810  1
  O  O409  1  0.12017363  0.41748728  0.80541022  1
  O  O410  1  0.12354352  0.91970068  0.30410265  1
  O  O411  1  0.12142622  0.91396246  0.80484620  1
  O  O412  1  0.45524615  0.41436361  0.30705461  1
  O  O413  1  0.46315103  0.41755116  0.80834492  1
  O  O414  1  0.45614413  0.92131201  0.30720034  1
  O  O415  1  0.45109468  0.90641063  0.81072681  1
  O  O416  1  0.79263419  0.41857517  0.30425943  1
  O  O417  1  0.79262809  0.41391648  0.80446706  1
  O  O418  1  0.78810859  0.91845208  0.29719018  1
  O  O419  1  0.79309787  0.91868416  0.80597203  1
  O  O420  1  0.28752090  0.16565534  0.30198313  1
  O  O421  1  0.28589127  0.16634191  0.80115523  1
  O  O422  1  0.29161486  0.66631017  0.31129241  1
  O  O423  1  0.28447136  0.67065571  0.80605367  1
  O  O424  1  0.62546340  0.17206275  0.30190353  1
  O  O425  1  0.61988735  0.16021059  0.80921974  1
  O  O426  1  0.62951392  0.66336592  0.30914244  1
  O  O427  1  0.62701845  0.66250223  0.80725045  1
  O  O428  1  0.95809940  0.17205688  0.30255296  1
  O  O429  1  0.95747035  0.17008726  0.80205728  1
  O  O430  1  0.95093685  0.66833715  0.29816947  1
  O  O431  1  0.95097579  0.65884236  0.80489330  1
  F  F432  1  0.04803006  0.00007677  0.19907436  1
  F  F433  1  0.04747501  -0.00213165  0.70149874  1
  F  F434  1  0.05046931  0.49089858  0.19514762  1
  F  F435  1  0.04358034  0.49854982  0.70183404  1
  F  F436  1  0.37884232  -0.00017207  0.20388140  1
  F  F437  1  0.36935709  -0.00331561  0.70094168  1
  F  F438  1  0.37556809  0.49831398  0.20246724  1
  F  F439  1  0.38742756  0.49142391  0.69577141  1
  F  F440  1  0.70979710  0.00531089  0.20228698  1
  F  F441  1  0.71321287  -0.00049735  0.70243316  1
  F  F442  1  0.71146668  0.49920238  0.20318466  1
  F  F443  1  0.71225267  0.49800621  0.70188095  1
  F  F444  1  0.21294262  0.25165757  0.20042892  1
  F  F445  1  0.20916219  0.25244682  0.70158623  1
  F  F446  1  0.21136964  0.74720668  0.20319110  1
  F  F447  1  0.21282154  0.75064005  0.70090825  1
  F  F448  1  0.54509689  0.25564298  0.20396007  1
  F  F449  1  0.53244384  0.25145698  0.70105510  1
  F  F450  1  0.54380126  0.75729391  0.19833011  1
  F  F451  1  0.54602341  0.74577841  0.70359139  1
  F  F452  1  0.87896960  0.25563461  0.20064977  1
  F  F453  1  0.88086303  0.25136389  0.69826509  1
  F  F454  1  0.87798357  0.75268095  0.19775153  1
  F  F455  1  0.87295579  0.74884086  0.69918738  1
  F  F456  1  0.28610584  0.00284476  0.29639521  1
  F  F457  1  0.28447065  -0.00188702  0.79930510  1
  F  F458  1  0.28678323  0.49744046  0.29829927  1
  F  F459  1  0.27861521  0.49392444  0.80663434  1
  F  F460  1  0.62405961  0.00041988  0.30010184  1
  F  F461  1  0.62579510  -0.00097301  0.79831705  1
  F  F462  1  0.61888849  0.49827565  0.29864457  1
  F  F463  1  0.62403475  0.49932225  0.79747066  1
  F  F464  1  0.96046630  0.00331970  0.29641808  1
  F  F465  1  0.95357429  -0.00297597  0.79837716  1
  F  F466  1  0.95424294  0.49604170  0.29590871  1
  F  F467  1  0.95397104  0.49714908  0.79613976  1
  F  F468  1  0.12289496  0.25149943  0.29557497  1
  F  F469  1  0.12104260  0.25229039  0.79859260  1
  F  F470  1  0.12104501  0.75242244  0.29720099  1
  F  F471  1  0.12593662  0.75093487  0.80098660  1
  F  F472  1  0.45402198  0.25207154  0.29956753  1
  F  F473  1  0.45436949  0.25332704  0.80327524  1
  F  F474  1  0.44980073  0.75968893  0.30306291  1
  F  F475  1  0.45469706  0.74743721  0.80076084  1
  F  F476  1  0.79095248  0.25499166  0.29669093  1
  F  F477  1  0.80235500  0.25046590  0.80084740  1
  F  F478  1  0.78777678  0.75274109  0.29410924  1
  F  F479  1  0.79100350  0.74461519  0.79885012  1
