# generated using pymatgen
data_K24Na3Li5Mg64Fe17Si79(O5F)48
_symmetry_space_group_name_H-M   'P 1'
_cell_length_a   16.10607714
_cell_length_b   18.58845691
_cell_length_c   20.56068740
_cell_angle_alpha   90.00996984
_cell_angle_beta   100.00664225
_cell_angle_gamma   89.98511845
_symmetry_Int_Tables_number   1
_chemical_formula_structural   K24Na3Li5Mg64Fe17Si79(O5F)48
_chemical_formula_sum   'K24 Na3 Li5 Mg64 Fe17 Si79 O240 F48'
_cell_volume   6061.96332207
_cell_formula_units_Z   1
loop_
 _symmetry_equiv_pos_site_id
 _symmetry_equiv_pos_as_xyz
  1  'x, y, z'
loop_
 _atom_site_type_symbol
 _atom_site_label
 _atom_site_symmetry_multiplicity
 _atom_site_fract_x
 _atom_site_fract_y
 _atom_site_fract_z
 _atom_site_occupancy
  K  K0  1  -0.00140770  0.00085750  0.00987769  1
  K  K1  1  -0.00102265  -0.00848137  0.48956450  1
  K  K2  1  0.01842223  0.49355239  -0.00144952  1
  K  K3  1  -0.00281294  0.49617383  0.49977671  1
  K  K4  1  0.31740792  0.00016533  0.00073786  1
  K  K5  1  0.32198752  0.00123482  0.49497363  1
  K  K6  1  0.31444674  0.49987985  -0.00561552  1
  K  K7  1  0.33782669  0.49710209  0.50484893  1
  K  K8  1  0.67231649  0.00919240  0.00878146  1
  K  K9  1  0.67252821  0.00524674  0.48901554  1
  K  K10  1  0.66710254  0.49566976  -0.00490721  1
  K  K11  1  0.66346884  0.49265285  0.50794735  1
  K  K12  1  0.17621660  0.25120594  0.00394698  1
  K  K13  1  0.16877660  0.25092007  0.50090914  1
  K  K14  1  0.16452029  0.75165569  0.00183414  1
  K  K15  1  0.16414630  0.76255654  0.49677455  1
  K  K16  1  0.49314058  0.24364780  0.00005897  1
  K  K17  1  0.49268952  0.24278533  0.49924029  1
  K  K18  1  0.49695758  0.75479792  0.00200579  1
  K  K19  1  0.50050873  0.74545753  0.50180832  1
  K  K20  1  0.84650980  0.24393146  0.00669674  1
  K  K21  1  0.83949301  0.24935888  0.49742367  1
  K  K22  1  0.83395079  0.75157457  0.00715448  1
  K  K23  1  0.83393521  0.75372579  0.48876179  1
  Na  Na24  1  0.33357662  0.24927514  0.75505396  1
  Na  Na25  1  0.16505219  0.83015213  0.74423387  1
  Na  Na26  1  0.83463111  0.67401684  0.25244687  1
  Li  Li27  1  0.00385626  0.24970063  0.25432073  1
  Li  Li28  1  0.66269099  0.25028508  0.74753840  1
  Li  Li29  1  0.16181067  0.83992816  0.24675221  1
  Li  Li30  1  0.66274532  0.57905085  0.74361843  1
  Li  Li31  1  0.83906258  0.83487796  0.25436561  1
  Mg  Mg32  1  0.16899650  0.50142328  0.25107919  1
  Mg  Mg33  1  0.67124377  0.75178015  0.25270546  1
  Mg  Mg34  1  0.83589049  0.50010382  0.25226488  1
  Mg  Mg35  1  0.16753789  0.00011734  0.74888347  1
  Mg  Mg36  1  0.16349717  0.49880592  0.75516827  1
  Mg  Mg37  1  0.16659883  -0.00076530  0.24945503  1
  Mg  Mg38  1  0.33166813  0.75334157  0.24686889  1
  Mg  Mg39  1  0.50277540  0.50000522  0.74644919  1
  Mg  Mg40  1  0.33242119  0.74935752  0.74697277  1
  Mg  Mg41  1  -0.00102044  0.75434813  0.25117341  1
  Mg  Mg42  1  0.49976016  0.00050299  0.75119724  1
  Mg  Mg43  1  -0.00142625  0.74742889  0.75215841  1
  Mg  Mg44  1  0.83580405  -0.00152021  0.24966775  1
  Mg  Mg45  1  0.83228333  0.00066390  0.74842907  1
  Mg  Mg46  1  0.50114843  0.50041667  0.24777189  1
  Mg  Mg47  1  0.50027961  0.00109003  0.25187173  1
  Mg  Mg48  1  0.33411378  0.24885714  0.25082486  1
  Mg  Mg49  1  0.66545016  0.74672661  0.74598637  1
  Mg  Mg50  1  0.66912008  0.24971558  0.25154074  1
  Mg  Mg51  1  0.82805803  0.49865004  0.74751230  1
  Mg  Mg52  1  -0.00216157  0.25145367  0.75048023  1
  Mg  Mg53  1  -0.00016717  0.58515741  0.25108016  1
  Mg  Mg54  1  0.84003031  0.33236450  0.25337786  1
  Mg  Mg55  1  0.83306666  0.83356363  0.74888611  1
  Mg  Mg56  1  0.16564196  0.67141251  0.24807036  1
  Mg  Mg57  1  0.00133236  0.08647302  0.25063929  1
  Mg  Mg58  1  0.33300566  0.08637854  0.25181750  1
  Mg  Mg59  1  0.33255930  0.41612857  0.24804475  1
  Mg  Mg60  1  0.83931729  0.16716810  0.25206453  1
  Mg  Mg61  1  -0.00118399  0.58274358  0.75347623  1
  Mg  Mg62  1  -0.00005959  0.08441971  0.74952179  1
  Mg  Mg63  1  0.67037407  0.58455045  0.24978312  1
  Mg  Mg64  1  0.82823770  0.66365825  0.74933665  1
  Mg  Mg65  1  0.16702724  0.16607257  0.75051679  1
  Mg  Mg66  1  0.00102117  0.91467936  0.74768671  1
  Mg  Mg67  1  0.50077740  0.33160975  0.74836166  1
  Mg  Mg68  1  0.33042715  0.91666033  0.25056176  1
  Mg  Mg69  1  0.33345403  0.41611368  0.75336817  1
  Mg  Mg70  1  0.82757753  0.33211428  0.74876460  1
  Mg  Mg71  1  0.66561092  0.91531977  0.74901683  1
  Mg  Mg72  1  0.50072177  0.83505266  0.25016836  1
  Mg  Mg73  1  0.16645085  0.33556804  0.25110655  1
  Mg  Mg74  1  0.49980238  0.16779225  0.75070921  1
  Mg  Mg75  1  0.66989424  0.08428912  0.25195008  1
  Mg  Mg76  1  0.49912798  0.16471902  0.25254467  1
  Mg  Mg77  1  0.67138065  0.91517610  0.25029227  1
  Mg  Mg78  1  0.49823941  0.83261315  0.74699803  1
  Mg  Mg79  1  0.50193505  0.66288009  0.74519007  1
  Mg  Mg80  1  -0.00031623  0.91498041  0.24856350  1
  Mg  Mg81  1  0.32961520  0.91618372  0.74608675  1
  Mg  Mg82  1  0.50223619  0.66709529  0.24823677  1
  Mg  Mg83  1  0.33277653  0.58470615  0.75033807  1
  Mg  Mg84  1  0.00328071  0.41492900  0.25267300  1
  Mg  Mg85  1  -0.00356618  0.41601223  0.75279456  1
  Mg  Mg86  1  0.16669687  0.16737756  0.25099257  1
  Mg  Mg87  1  0.67047041  0.41672744  0.25185882  1
  Mg  Mg88  1  0.16540756  0.66399262  0.75308014  1
  Mg  Mg89  1  0.32919374  0.08387578  0.74881039  1
  Mg  Mg90  1  0.50034281  0.33383388  0.24767728  1
  Mg  Mg91  1  0.82891425  0.16730944  0.74953128  1
  Mg  Mg92  1  0.66367037  0.41423220  0.74486785  1
  Mg  Mg93  1  0.66458992  0.08519599  0.74974982  1
  Mg  Mg94  1  0.16647268  0.33442188  0.75545834  1
  Mg  Mg95  1  0.33299581  0.58586418  0.24694041  1
  Fe  Fe96  1  0.98081771  0.33297945  0.39248698  1
  Fe  Fe97  1  0.19293158  0.42014671  0.11154870  1
  Fe  Fe98  1  0.86369886  0.08288785  0.11131033  1
  Fe  Fe99  1  0.14080526  0.41142295  0.89393332  1
  Fe  Fe100  1  0.14085728  0.59040508  0.89365437  1
  Fe  Fe101  1  0.18465493  0.90986852  0.10774963  1
  Fe  Fe102  1  0.31013058  0.16134259  0.89310803  1
  Fe  Fe103  1  0.18614203  0.08646132  0.60648971  1
  Fe  Fe104  1  0.47736722  0.07937566  0.39430319  1
  Fe  Fe105  1  0.30453344  0.17008650  0.39413983  1
  Fe  Fe106  1  0.85004475  0.41749075  0.61053206  1
  Fe  Fe107  1  0.52917101  0.58222359  0.60655259  1
  Fe  Fe108  1  0.80551618  0.91667112  0.38876253  1
  Fe  Fe109  1  0.14493538  0.91380724  0.38712956  1
  Fe  Fe110  1  0.18537925  0.91621890  0.60617291  1
  Fe  Fe111  1  0.18899586  0.08374763  0.10922344  1
  Fe  Fe112  1  0.36455230  0.16736489  0.10959817  1
  Si  Si113  1  0.13994646  0.91518439  0.88331876  1
  Si  Si114  1  0.52556083  0.08071023  0.61513644  1
  Si  Si115  1  0.85521342  0.91428771  0.11142699  1
  Si  Si116  1  0.69531717  0.33371475  0.11704591  1
  Si  Si117  1  0.36431215  0.16457393  0.61439255  1
  Si  Si118  1  0.31425805  0.67284180  0.88888331  1
  Si  Si119  1  0.36500999  0.33916978  0.11118732  1
  Si  Si120  1  0.64383814  0.82888394  0.88388155  1
  Si  Si121  1  0.13709198  0.08478844  0.38746797  1
  Si  Si122  1  0.96700933  0.16175688  0.88505879  1
  Si  Si123  1  0.53060509  0.91659422  0.11487341  1
  Si  Si124  1  0.85813540  0.41660827  0.11516664  1
  Si  Si125  1  0.64019202  0.33773395  0.38433054  1
  Si  Si126  1  0.01797340  0.66477482  0.11491599  1
  Si  Si127  1  0.80558002  0.91836213  0.88439900  1
  Si  Si128  1  0.80017604  0.08335058  0.88449528  1
  Si  Si129  1  0.81043753  0.58114428  0.38592585  1
  Si  Si130  1  0.85425958  0.58649489  0.61351767  1
  Si  Si131  1  0.47539423  0.42116330  0.88498013  1
  Si  Si132  1  0.18993701  0.58138453  0.61645333  1
  Si  Si133  1  0.47634616  0.58645240  0.88464620  1
  Si  Si134  1  0.97154087  0.83625072  0.88536509  1
  Si  Si135  1  0.47887766  0.58334966  0.38275575  1
  Si  Si136  1  0.02102837  0.66018033  0.61575258  1
  Si  Si137  1  0.97999717  0.66401678  0.38659580  1
  Si  Si138  1  0.35915493  0.33322918  0.61676608  1
  Si  Si139  1  0.36151790  0.66729107  0.11323780  1
  Si  Si140  1  0.52563119  0.58214115  0.11230185  1
  Si  Si141  1  0.63601313  0.33475797  0.88274022  1
  Si  Si142  1  0.31320195  0.34012681  0.38859830  1
  Si  Si143  1  0.64140148  0.66567193  0.88239643  1
  Si  Si144  1  0.31439370  0.83788199  0.88329295  1
  Si  Si145  1  0.31461467  0.82900200  0.38588272  1
  Si  Si146  1  0.01527409  0.82701945  0.11114862  1
  Si  Si147  1  0.53302600  0.41741856  0.11435055  1
  Si  Si148  1  0.69762555  0.17005751  0.11580002  1
  Si  Si149  1  0.64339133  0.17291988  0.38843484  1
  Si  Si150  1  0.64510272  0.66448518  0.38477553  1
  Si  Si151  1  0.36392794  0.83349633  0.11092734  1
  Si  Si152  1  0.69744642  0.67489778  0.60999552  1
  Si  Si153  1  0.86017008  0.91728728  0.61351688  1
  Si  Si154  1  0.86077897  0.08357801  0.61413033  1
  Si  Si155  1  0.80655179  0.41749275  0.38887183  1
  Si  Si156  1  0.13411135  0.08092483  0.88824994  1
  Si  Si157  1  0.02074369  0.17511756  0.61417955  1
  Si  Si158  1  0.52363333  0.41009168  0.60881435  1
  Si  Si159  1  0.80334754  0.58028140  0.88281108  1
  Si  Si160  1  0.47641810  0.41968813  0.38286003  1
  Si  Si161  1  0.68963719  0.66544916  0.11374018  1
  Si  Si162  1  0.96429823  0.67022286  0.88903659  1
  Si  Si163  1  0.47744267  0.91008867  0.38749990  1
  Si  Si164  1  0.63737525  0.82880695  0.38679389  1
  Si  Si165  1  0.02415549  0.33711004  0.11422200  1
  Si  Si166  1  0.80840760  0.08847589  0.38885223  1
  Si  Si167  1  0.68753329  0.32304634  0.61080585  1
  Si  Si168  1  0.14718757  0.42392560  0.39032842  1
  Si  Si169  1  0.48131750  0.91483070  0.88444812  1
  Si  Si170  1  0.02875430  0.17323199  0.11403937  1
  Si  Si171  1  0.97626085  0.82957729  0.39097897  1
  Si  Si172  1  0.35979831  0.83244448  0.61078005  1
  Si  Si173  1  0.14772872  0.58820239  0.38594667  1
  Si  Si174  1  0.85633645  0.57891535  0.11520694  1
  Si  Si175  1  0.69113952  0.82966879  0.11461060  1
  Si  Si176  1  0.31460929  0.66633267  0.38347297  1
  Si  Si177  1  0.01627484  0.82359515  0.61295467  1
  Si  Si178  1  0.69191140  0.83977036  0.61307380  1
  Si  Si179  1  0.19354879  0.41491157  0.61757976  1
  Si  Si180  1  0.31444530  0.33532246  0.89139980  1
  Si  Si181  1  0.53613585  0.08310717  0.11446966  1
  Si  Si182  1  0.52412025  0.91618060  0.61440756  1
  Si  Si183  1  0.80109293  0.41438236  0.88436519  1
  Si  Si184  1  0.96523769  0.32796953  0.88825188  1
  Si  Si185  1  0.35468574  0.66525694  0.61103294  1
  Si  Si186  1  0.48013131  0.07801708  0.88837218  1
  Si  Si187  1  0.02362275  0.33936009  0.61630275  1
  Si  Si188  1  0.97621861  0.16416930  0.38806252  1
  Si  Si189  1  0.63751510  0.16881173  0.88396784  1
  Si  Si190  1  0.18876692  0.59251233  0.11328324  1
  Si  Si191  1  0.69172634  0.15766071  0.61423548  1
  O  O192  1  0.28294924  0.10457578  0.07246336  1
  O  O193  1  0.28627265  0.11795315  0.57744351  1
  O  O194  1  0.26873235  0.63252326  0.08542300  1
  O  O195  1  0.26560363  0.62028370  0.58513192  1
  O  O196  1  0.62123654  0.11322068  0.08795987  1
  O  O197  1  0.61040546  0.10548241  0.58622281  1
  O  O198  1  0.60247280  0.62070632  0.08094220  1
  O  O199  1  0.61957096  0.62704198  0.57289749  1
  O  O200  1  0.95471557  0.11954336  0.07634042  1
  O  O201  1  0.93516104  0.12612898  0.58568057  1
  O  O202  1  0.93756204  0.61092582  0.08496604  1
  O  O203  1  0.94239900  0.60680769  0.58628894  1
  O  O204  1  0.09898924  0.36340160  0.07603883  1
  O  O205  1  0.11130303  0.36479944  0.58990766  1
  O  O206  1  0.09221490  0.84828578  0.07396387  1
  O  O207  1  0.09751532  0.84716610  0.58319858  1
  O  O208  1  0.45427393  0.36588276  0.08567789  1
  O  O209  1  0.43351777  0.36841107  0.58110155  1
  O  O210  1  0.44466210  0.87221402  0.08387537  1
  O  O211  1  0.44849842  0.85976276  0.58624326  1
  O  O212  1  0.77657960  0.36421518  0.08636340  1
  O  O213  1  0.76037504  0.35552960  0.57364466  1
  O  O214  1  0.77024048  0.86310583  0.08464535  1
  O  O215  1  0.76904407  0.87939316  0.58452759  1
  O  O216  1  0.29496339  0.39918262  0.08336507  1
  O  O217  1  0.27226195  0.37911617  0.58694783  1
  O  O218  1  0.27879985  0.86936078  0.07281110  1
  O  O219  1  0.28477274  0.88278660  0.57570690  1
  O  O220  1  0.61683843  0.38807811  0.08664903  1
  O  O221  1  0.59662878  0.36246187  0.58123150  1
  O  O222  1  0.60541474  0.87553447  0.08260529  1
  O  O223  1  0.60771919  0.88814117  0.58564666  1
  O  O224  1  0.93907786  0.38778658  0.08500885  1
  O  O225  1  0.95164035  0.39453174  0.58160690  1
  O  O226  1  0.93031649  0.87405728  0.07900450  1
  O  O227  1  0.93175146  0.87320303  0.58258533  1
  O  O228  1  0.11272049  0.15994259  0.08182201  1
  O  O229  1  0.09802797  0.15326199  0.57891102  1
  O  O230  1  0.10373036  0.64174288  0.08646358  1
  O  O231  1  0.10286213  0.62627821  0.58768439  1
  O  O232  1  0.46121226  0.13306082  0.07831429  1
  O  O233  1  0.45085588  0.13710383  0.58631745  1
  O  O234  1  0.43554684  0.62194628  0.08343854  1
  O  O235  1  0.42560534  0.63037434  0.57373839  1
  O  O236  1  0.77478946  0.14830163  0.07934150  1
  O  O237  1  0.77083671  0.12265539  0.58316132  1
  O  O238  1  0.77065743  0.62774677  0.08673581  1
  O  O239  1  0.78679604  0.65161303  0.58618774  1
  O  O240  1  0.04567411  0.10049555  0.41255078  1
  O  O241  1  0.04911636  0.11303930  0.91439865  1
  O  O242  1  0.06703941  0.61843326  0.41773863  1
  O  O243  1  0.05036627  0.63565368  0.92690393  1
  O  O244  1  0.38917714  0.10817019  0.43424651  1
  O  O245  1  0.40303125  0.09906369  0.92433696  1
  O  O246  1  0.39582806  0.61277051  0.41136281  1
  O  O247  1  0.40186437  0.62617076  0.91666080  1
  O  O248  1  0.73022571  0.12874499  0.41755977  1
  O  O249  1  0.72619370  0.12593327  0.91440847  1
  O  O250  1  0.73089056  0.61879462  0.41516452  1
  O  O251  1  0.72263428  0.61487742  0.91245328  1
  O  O252  1  0.23494260  0.37944549  0.41737941  1
  O  O253  1  0.23879984  0.35961936  0.92948451  1
  O  O254  1  0.23530480  0.85050981  0.41920510  1
  O  O255  1  0.23111526  0.87301500  0.90879569  1
  O  O256  1  0.55685350  0.36787845  0.41258962  1
  O  O257  1  0.56041728  0.37398565  0.91530811  1
  O  O258  1  0.54781806  0.84596360  0.41206942  1
  O  O259  1  0.56281788  0.86176522  0.91329660  1
  O  O260  1  0.88189526  0.36673118  0.42392227  1
  O  O261  1  0.88224057  0.36420255  0.91459709  1
  O  O262  1  0.89657476  0.85755098  0.42351191  1
  O  O263  1  0.89893494  0.88487105  0.91368034  1
  O  O264  1  0.07235101  0.39567382  0.42681334  1
  O  O265  1  0.04703659  0.36974734  0.92451834  1
  O  O266  1  0.05896267  0.87317642  0.42697553  1
  O  O267  1  0.06577336  0.86929844  0.91328316  1
  O  O268  1  0.39446903  0.39564730  0.41374526  1
  O  O269  1  0.39622510  0.39149204  0.91665230  1
  O  O270  1  0.39444013  0.88161930  0.41699140  1
  O  O271  1  0.39911035  0.88615726  0.91502990  1
  O  O272  1  0.71689461  0.39328224  0.41260812  1
  O  O273  1  0.72140384  0.38071896  0.91527456  1
  O  O274  1  0.71072990  0.88065573  0.42356517  1
  O  O275  1  0.73121661  0.87339634  0.91311012  1
  O  O276  1  0.20094738  0.14823808  0.41955466  1
  O  O277  1  0.21276072  0.12762482  0.92424795  1
  O  O278  1  0.23202634  0.63785252  0.41374591  1
  O  O279  1  0.24085727  0.64421641  0.92579705  1
  O  O280  1  0.56945596  0.14359644  0.42473963  1
  O  O281  1  0.56378493  0.12894615  0.91704796  1
  O  O282  1  0.56271783  0.63113005  0.41294332  1
  O  O283  1  0.56245496  0.63246142  0.91405269  1
  O  O284  1  0.89004150  0.13981867  0.41651374  1
  O  O285  1  0.88888823  0.12278172  0.91419815  1
  O  O286  1  0.89868958  0.62522673  0.41332147  1
  O  O287  1  0.88414270  0.63011383  0.91560481  1
  O  O288  1  0.15315159  -0.00281510  0.06831247  1
  O  O289  1  0.14775105  0.00119132  0.56600540  1
  O  O290  1  0.17192358  0.51506333  0.07946607  1
  O  O291  1  0.17900537  0.49796880  0.58719392  1
  O  O292  1  0.52538413  -0.00110866  0.08607376  1
  O  O293  1  0.50172186  -0.00170901  0.58736708  1
  O  O294  1  0.51804705  0.49950012  0.08384944  1
  O  O295  1  0.51811541  0.48734920  0.57180540  1
  O  O296  1  0.83519002  -0.00925860  0.07315282  1
  O  O297  1  0.85608030  0.00035916  0.58597311  1
  O  O298  1  0.83408670  0.49775982  0.08344061  1
  O  O299  1  0.81868970  0.51176679  0.57993337  1
  O  O300  1  -0.00629454  0.25564487  0.09072745  1
  O  O301  1  -0.00543980  0.25805143  0.58940002  1
  O  O302  1  -0.01224008  0.74343130  0.08485757  1
  O  O303  1  -0.00559634  0.74015826  0.58531579  1
  O  O304  1  0.34267646  0.26213881  0.07684849  1
  O  O305  1  0.34855726  0.24994222  0.59061137  1
  O  O306  1  0.36710603  0.74854189  0.08402651  1
  O  O307  1  0.34101362  0.74900139  0.58434744  1
  O  O308  1  0.66854885  0.25305753  0.08914636  1
  O  O309  1  0.67218953  0.23843153  0.58462017  1
  O  O310  1  0.67799147  0.74708455  0.08210729  1
  O  O311  1  0.67925919  0.75900800  0.58197877  1
  O  O312  1  0.17124544  0.00749087  0.41779701  1
  O  O313  1  0.14523565  -0.00385577  0.91547972  1
  O  O314  1  0.17028574  0.50783689  0.41653874  1
  O  O315  1  0.15531171  0.50148783  0.93257590  1
  O  O316  1  0.51175417  -0.01570718  0.42303943  1
  O  O317  1  0.51054776  -0.00535840  0.91287717  1
  O  O318  1  0.50031980  0.50161897  0.41076324  1
  O  O319  1  0.49321909  0.50429930  0.91413322  1
  O  O320  1  0.82196845  0.01099675  0.42487604  1
  O  O321  1  0.80245658  0.00039548  0.91303277  1
  O  O322  1  0.82354538  0.50037641  0.41827314  1
  O  O323  1  0.81484296  0.49767224  0.91328856  1
  O  O324  1  0.33531569  0.26538146  0.42657407  1
  O  O325  1  0.34777216  0.25585694  0.91614551  1
  O  O326  1  0.34307059  0.74556250  0.41331206  1
  O  O327  1  0.33509684  0.75697935  0.91512254  1
  O  O328  1  0.66353657  0.25755458  0.41373749  1
  O  O329  1  0.64682240  0.25194876  0.91233223  1
  O  O330  1  0.65983549  0.74547422  0.41436843  1
  O  O331  1  0.65977921  0.74731143  0.91451964  1
  O  O332  1  1.00610173  0.23956777  0.42503849  1
  O  O333  1  0.97049703  0.24342187  0.91523704  1
  O  O334  1  0.99024890  0.74395481  0.41904801  1
  O  O335  1  0.96157228  0.75536876  0.91449199  1
  O  O336  1  0.21167232  0.08319865  0.20141516  1
  O  O337  1  0.20655228  0.08303641  0.69897721  1
  O  O338  1  0.21017395  0.58797898  0.19422135  1
  O  O339  1  0.21006102  0.58108336  0.69665506  1
  O  O340  1  0.54921202  0.08324595  0.19522187  1
  O  O341  1  0.54497203  0.07999745  0.69572440  1
  O  O342  1  0.54434992  0.58319104  0.19270504  1
  O  O343  1  0.54218278  0.58222648  0.69699222  1
  O  O344  1  0.87777520  0.08395946  0.20240408  1
  O  O345  1  0.87493583  0.08287058  0.69477158  1
  O  O346  1  0.87831879  0.57635203  0.19429489  1
  O  O347  1  0.87380574  0.58476117  0.69470865  1
  O  O348  1  0.04795555  0.34428288  0.19367825  1
  O  O349  1  0.03952548  0.33581158  0.69700049  1
  O  O350  1  0.03564058  0.83183066  0.19066311  1
  O  O351  1  0.02623125  0.82804312  0.69278182  1
  O  O352  1  0.38194662  0.33737145  0.19314240  1
  O  O353  1  0.38061997  0.34110850  0.69583931  1
  O  O354  1  0.38008134  0.83290720  0.19176109  1
  O  O355  1  0.37781042  0.83259648  0.69209914  1
  O  O356  1  0.71198157  0.33579515  0.19732021  1
  O  O357  1  0.70849567  0.33123997  0.69076636  1
  O  O358  1  0.70210525  0.82985675  0.19345018  1
  O  O359  1  0.70984982  0.83617726  0.69385110  1
  O  O360  1  0.21291978  0.42008807  0.20338932  1
  O  O361  1  0.21195308  0.41804083  0.69759000  1
  O  O362  1  0.21456097  0.91726919  0.19760312  1
  O  O363  1  0.21396207  0.92381931  0.69649727  1
  O  O364  1  0.54840593  0.41913657  0.19489574  1
  O  O365  1  0.54149246  0.41440088  0.68969007  1
  O  O366  1  0.54629565  0.91549306  0.19521210  1
  O  O367  1  0.54406606  0.91579820  0.69526230  1
  O  O368  1  0.87440043  0.41837481  0.19525660  1
  O  O369  1  0.87448135  0.41515668  0.70225138  1
  O  O370  1  0.87796548  0.92043003  0.19071528  1
  O  O371  1  0.87445852  0.91674514  0.69422289  1
  O  O372  1  0.04512196  0.16625654  0.19430570  1
  O  O373  1  0.03795748  0.16830218  0.69532223  1
  O  O374  1  0.04017512  0.66407900  0.19485803  1
  O  O375  1  0.03921164  0.66411297  0.69598225  1
  O  O376  1  0.38212722  0.16942619  0.20122449  1
  O  O377  1  0.38385659  0.15766344  0.69410443  1
  O  O378  1  0.38071504  0.66576234  0.19357353  1
  O  O379  1  0.37616334  0.66458979  0.69225443  1
  O  O380  1  0.71228069  0.16915272  0.19668015  1
  O  O381  1  0.71204245  0.15824173  0.69382740  1
  O  O382  1  0.69961993  0.66578040  0.19265132  1
  O  O383  1  0.71136880  0.67313838  0.69031576  1
  O  O384  1  0.12133415  0.08515192  0.30622618  1
  O  O385  1  0.11697858  0.08196743  0.80724039  1
  O  O386  1  0.12807979  0.58662911  0.30560796  1
  O  O387  1  0.12006227  0.58359103  0.80147085  1
  O  O388  1  0.45919261  0.08198644  0.30209306  1
  O  O389  1  0.46133286  0.08104632  0.80756227  1
  O  O390  1  0.46007184  0.58444374  0.30233276  1
  O  O391  1  0.45627490  0.58550442  0.80467107  1
  O  O392  1  0.78852958  0.08604982  0.30806048  1
  O  O393  1  0.78630178  0.08160579  0.80424167  1
  O  O394  1  0.78721417  0.57680152  0.30665556  1
  O  O395  1  0.78874518  0.58171942  0.80325127  1
  O  O396  1  0.29599078  0.33688629  0.30785575  1
  O  O397  1  0.28722350  0.34393333  0.81141929  1
  O  O398  1  0.30107719  0.83025477  0.30599072  1
  O  O399  1  0.30333183  0.83289550  0.80428764  1
  O  O400  1  0.62299336  0.33663206  0.30375528  1
  O  O401  1  0.62025853  0.33685565  0.80342593  1
  O  O402  1  0.62145919  0.83182839  0.30586073  1
  O  O403  1  0.62478520  0.83155391  0.80349952  1
  O  O404  1  0.95681373  0.33794264  0.30216554  1
  O  O405  1  0.95104305  0.32950325  0.80753911  1
  O  O406  1  0.96256486  0.83196670  0.31070288  1
  O  O407  1  0.95289906  0.83517279  0.80498476  1
  O  O408  1  0.12571037  0.42186985  0.30970087  1
  O  O409  1  0.11784024  0.41639922  0.80157688  1
  O  O410  1  0.11908649  0.91776737  0.29735446  1
  O  O411  1  0.11639481  0.92027770  0.80430489  1
  O  O412  1  0.45932328  0.41912820  0.30235826  1
  O  O413  1  0.45847448  0.41930776  0.80476763  1
  O  O414  1  0.45889387  0.91410900  0.30620460  1
  O  O415  1  0.46189313  0.91383662  0.80413859  1
  O  O416  1  0.79068054  0.41759327  0.30761818  1
  O  O417  1  0.78365705  0.41482881  0.80449606  1
  O  O418  1  0.78752307  0.91958785  0.29848271  1
  O  O419  1  0.78833307  0.91652320  0.80392085  1
  O  O420  1  0.29013594  0.17018840  0.30253908  1
  O  O421  1  0.28373302  0.15719428  0.80361607  1
  O  O422  1  0.29392905  0.66612762  0.30323903  1
  O  O423  1  0.29404875  0.66804151  0.80799441  1
  O  O424  1  0.62481921  0.16953664  0.30725447  1
  O  O425  1  0.62132015  0.16295308  0.80459573  1
  O  O426  1  0.62396809  0.66346278  0.30439785  1
  O  O427  1  0.62155544  0.67069930  0.80330740  1
  O  O428  1  0.95651742  0.16756780  0.30792273  1
  O  O429  1  0.95090762  0.16380086  0.80448868  1
  O  O430  1  0.96800187  0.66488977  0.30760652  1
  O  O431  1  0.95032972  0.66718330  0.80798134  1
  F  F432  1  0.04259613  0.00276291  0.20033352  1
  F  F433  1  0.03992979  0.00028574  0.70112897  1
  F  F434  1  0.04690097  0.50253263  0.20529733  1
  F  F435  1  0.04080952  0.50066588  0.70219627  1
  F  F436  1  0.38193507  -0.00349579  0.20236582  1
  F  F437  1  0.38244957  -0.00159822  0.70383745  1
  F  F438  1  0.38135182  0.50291009  0.20073182  1
  F  F439  1  0.37761725  0.50104132  0.70328325  1
  F  F440  1  0.71009395  0.00246986  0.20006213  1
  F  F441  1  0.71116056  -0.00171121  0.70141840  1
  F  F442  1  0.71244215  0.49963634  0.20151737  1
  F  F443  1  0.71051099  0.49487807  0.69790613  1
  F  F444  1  0.21514351  0.25679028  0.20193350  1
  F  F445  1  0.19800924  0.25378444  0.70255881  1
  F  F446  1  0.21743406  0.74378378  0.19666254  1
  F  F447  1  0.21611039  0.73579315  0.69955121  1
  F  F448  1  0.54912716  0.25118932  0.20319227  1
  F  F449  1  0.54135785  0.24846942  0.69898048  1
  F  F450  1  0.54659391  0.74948728  0.20179687  1
  F  F451  1  0.54538144  0.75147804  0.69825968  1
  F  F452  1  0.86895915  0.25142537  0.20032361  1
  F  F453  1  0.87627972  0.24823406  0.70155351  1
  F  F454  1  0.88387251  0.75763668  0.19923301  1
  F  F455  1  0.87565057  0.74920277  0.70454630  1
  F  F456  1  0.29274378  -0.00051291  0.30057203  1
  F  F457  1  0.29197332  -0.00297509  0.80081556  1
  F  F458  1  0.29387049  0.50529616  0.29861754  1
  F  F459  1  0.28930391  0.50317817  0.79995034  1
  F  F460  1  0.62309640  -0.00046289  0.29751525  1
  F  F461  1  0.62363144  -0.00240937  0.79848181  1
  F  F462  1  0.62141317  0.50163755  0.29705933  1
  F  F463  1  0.61910552  0.49305145  0.79807852  1
  F  F464  1  0.95580233  -0.00230156  0.29860546  1
  F  F465  1  0.95044259  -0.00109761  0.79684095  1
  F  F466  1  0.95639059  0.50144391  0.30018947  1
  F  F467  1  0.94967358  0.50195091  0.80044004  1
  F  F468  1  0.12656457  0.25405816  0.29751863  1
  F  F469  1  0.11567984  0.24915805  0.80079106  1
  F  F470  1  0.12099788  0.74760035  0.29598593  1
  F  F471  1  0.11487954  0.74138962  0.80200929  1
  F  F472  1  0.45956409  0.25557960  0.29966944  1
  F  F473  1  0.46987847  0.25075719  0.80310121  1
  F  F474  1  0.45562939  0.74788483  0.29497184  1
  F  F475  1  0.45672591  0.74801073  0.79395384  1
  F  F476  1  0.78726306  0.25237815  0.30079515  1
  F  F477  1  0.78791687  0.24807474  0.79801840  1
  F  F478  1  0.77850608  0.75299264  0.30997125  1
  F  F479  1  0.78475776  0.75174838  0.79789853  1
