# generated using pymatgen
data_K24Na3Li5Mg64Fe17Si79(O5F)48
_symmetry_space_group_name_H-M   'P 1'
_cell_length_a   16.09162718
_cell_length_b   18.58479579
_cell_length_c   20.55004226
_cell_angle_alpha   90.00219810
_cell_angle_beta   99.99586141
_cell_angle_gamma   90.00024449
_symmetry_Int_Tables_number   1
_chemical_formula_structural   K24Na3Li5Mg64Fe17Si79(O5F)48
_chemical_formula_sum   'K24 Na3 Li5 Mg64 Fe17 Si79 O240 F48'
_cell_volume   6052.39778379
_cell_formula_units_Z   1
loop_
 _symmetry_equiv_pos_site_id
 _symmetry_equiv_pos_as_xyz
  1  'x, y, z'
loop_
 _atom_site_type_symbol
 _atom_site_label
 _atom_site_symmetry_multiplicity
 _atom_site_fract_x
 _atom_site_fract_y
 _atom_site_fract_z
 _atom_site_occupancy
  K  K0  1  -0.00865766  -0.00727635  0.00279141  1
  K  K1  1  -0.00998926  -0.00026839  0.49577384  1
  K  K2  1  -0.00812869  0.50687673  -0.00636589  1
  K  K3  1  -0.00592405  0.50588007  0.49742053  1
  K  K4  1  0.33815671  0.00013240  0.00078044  1
  K  K5  1  0.33554679  -0.00234756  0.49781545  1
  K  K6  1  0.33518173  0.50287725  -0.00121717  1
  K  K7  1  0.34433545  0.51249182  0.50088921  1
  K  K8  1  0.67194772  -0.00459182  -0.00242174  1
  K  K9  1  0.66343909  -0.00248298  0.49733776  1
  K  K10  1  0.67955149  0.50272745  0.00524580  1
  K  K11  1  0.66595827  0.51349309  0.50237572  1
  K  K12  1  0.16819244  0.25003363  0.00053630  1
  K  K13  1  0.16044413  0.24272242  0.49586892  1
  K  K14  1  0.15899386  0.75424910  0.00019386  1
  K  K15  1  0.16902781  0.75287151  0.49849879  1
  K  K16  1  0.49732941  0.24831450  0.00364397  1
  K  K17  1  0.50138054  0.25325947  0.49744260  1
  K  K18  1  0.51739511  0.74618635  0.00243426  1
  K  K19  1  0.51301470  0.74082506  0.49972111  1
  K  K20  1  0.82106988  0.24638280  -0.00078371  1
  K  K21  1  0.83247356  0.24459007  0.49835536  1
  K  K22  1  0.82432261  0.75361161  -0.00313370  1
  K  K23  1  0.81900240  0.75492424  0.50103671  1
  Na  Na24  1  0.00007191  0.24960643  0.75563196  1
  Na  Na25  1  0.16216808  0.83056642  0.74922363  1
  Na  Na26  1  0.50275997  0.66877105  0.74577680  1
  Li  Li27  1  0.65897169  0.74763883  0.24700133  1
  Li  Li28  1  0.33924566  0.24721823  0.25315259  1
  Li  Li29  1  0.50911205  0.67199261  0.24918642  1
  Li  Li30  1  0.82894060  0.82548865  0.74950257  1
  Li  Li31  1  0.82299722  0.67490370  0.75139301  1
  Mg  Mg32  1  0.33022428  0.24917404  0.75203616  1
  Mg  Mg33  1  0.83163025  -0.00232425  0.75414659  1
  Mg  Mg34  1  0.00133248  0.24837371  0.25198341  1
  Mg  Mg35  1  0.66805692  0.75164296  0.74995872  1
  Mg  Mg36  1  0.17066586  0.49830479  0.24949909  1
  Mg  Mg37  1  0.83416464  0.50084290  0.24524530  1
  Mg  Mg38  1  0.66849592  0.24852292  0.24882005  1
  Mg  Mg39  1  0.50171599  0.50248907  0.24666315  1
  Mg  Mg40  1  0.33611243  0.74967466  0.25214143  1
  Mg  Mg41  1  -0.00818549  0.74976363  0.74927176  1
  Mg  Mg42  1  0.49988018  0.50140061  0.74624531  1
  Mg  Mg43  1  0.49863803  0.00032657  0.75594103  1
  Mg  Mg44  1  0.16791753  -0.00062389  0.25163622  1
  Mg  Mg45  1  0.16395921  -0.00148186  0.75003847  1
  Mg  Mg46  1  0.83285249  -0.00097940  0.25216569  1
  Mg  Mg47  1  0.83175870  0.50239661  0.74729086  1
  Mg  Mg48  1  0.33170452  0.75094848  0.74687998  1
  Mg  Mg49  1  0.16419073  0.50160546  0.74952888  1
  Mg  Mg50  1  0.00102456  0.75205188  0.24864904  1
  Mg  Mg51  1  0.66616138  0.24964023  0.75187164  1
  Mg  Mg52  1  0.50003036  -0.00041511  0.25516520  1
  Mg  Mg53  1  0.33561039  0.91468340  0.25417749  1
  Mg  Mg54  1  0.00161552  0.58426934  0.24697460  1
  Mg  Mg55  1  0.66659068  0.08556706  0.25168778  1
  Mg  Mg56  1  -0.00007004  0.91398888  0.24936863  1
  Mg  Mg57  1  0.66814542  0.08380725  0.75544226  1
  Mg  Mg58  1  -0.00172839  0.08354792  0.75279080  1
  Mg  Mg59  1  0.66623584  0.91265065  0.25232203  1
  Mg  Mg60  1  0.83163240  0.66810716  0.24731577  1
  Mg  Mg61  1  0.50192046  0.33231302  0.25008729  1
  Mg  Mg62  1  0.83123275  0.83230844  0.24993793  1
  Mg  Mg63  1  0.17189043  0.16664544  0.25331185  1
  Mg  Mg64  1  0.00028101  0.08439292  0.25100333  1
  Mg  Mg65  1  0.33289790  0.08316302  0.75304804  1
  Mg  Mg66  1  0.50287156  0.82834438  0.25309191  1
  Mg  Mg67  1  0.66708163  0.41574480  0.24633754  1
  Mg  Mg68  1  0.83487468  0.16561466  0.75472180  1
  Mg  Mg69  1  0.66704525  0.41742001  0.74856568  1
  Mg  Mg70  1  0.16771544  0.83413274  0.25048410  1
  Mg  Mg71  1  0.83564535  0.33317094  0.75225002  1
  Mg  Mg72  1  0.16368485  0.66790131  0.74749199  1
  Mg  Mg73  1  0.66778676  0.58775052  0.74853239  1
  Mg  Mg74  1  0.83300647  0.16509534  0.25036224  1
  Mg  Mg75  1  -0.00183443  0.41713922  0.75065166  1
  Mg  Mg76  1  0.33784228  0.08591297  0.25404235  1
  Mg  Mg77  1  0.50104504  0.16631464  0.25254324  1
  Mg  Mg78  1  0.50127822  0.83407304  0.75219875  1
  Mg  Mg79  1  0.00165724  0.41446962  0.24892682  1
  Mg  Mg80  1  0.83181365  0.33337485  0.24706564  1
  Mg  Mg81  1  0.17216995  0.33065363  0.25052309  1
  Mg  Mg82  1  0.16989744  0.66564641  0.24911672  1
  Mg  Mg83  1  0.16412225  0.33504996  0.75157350  1
  Mg  Mg84  1  0.66445813  0.58815390  0.24612276  1
  Mg  Mg85  1  0.33751417  0.41277930  0.25087926  1
  Mg  Mg86  1  0.33895107  0.58428880  0.25084344  1
  Mg  Mg87  1  0.49853593  0.33401473  0.74849094  1
  Mg  Mg88  1  0.33305423  0.58577327  0.74547233  1
  Mg  Mg89  1  0.16466454  0.16622678  0.75245421  1
  Mg  Mg90  1  0.67021460  0.91388872  0.75455224  1
  Mg  Mg91  1  -0.00679264  0.58734193  0.74837698  1
  Mg  Mg92  1  -0.00379032  0.91452685  0.74916517  1
  Mg  Mg93  1  0.33184231  0.41712663  0.74828691  1
  Mg  Mg94  1  0.49974186  0.16502377  0.75514282  1
  Mg  Mg95  1  0.33187233  0.91571419  0.75243632  1
  Fe  Fe96  1  0.47551514  0.08502487  0.39480847  1
  Fe  Fe97  1  0.69122115  0.66845980  0.10742159  1
  Fe  Fe98  1  0.80957719  0.08491626  0.89355097  1
  Fe  Fe99  1  0.64240963  0.82687080  0.89195739  1
  Fe  Fe100  1  0.68669822  0.16218413  0.10758657  1
  Fe  Fe101  1  0.69422066  0.67211505  0.60638933  1
  Fe  Fe102  1  0.30477758  0.83261676  0.39053239  1
  Fe  Fe103  1  0.97373421  0.16600623  0.39068332  1
  Fe  Fe104  1  0.97314894  0.83397316  0.38929572  1
  Fe  Fe105  1  0.02717704  0.83256136  0.10812415  1
  Fe  Fe106  1  0.63764263  0.82839257  0.38970572  1
  Fe  Fe107  1  0.97782011  0.33167056  0.89223847  1
  Fe  Fe108  1  0.81168106  0.58207334  0.88679802  1
  Fe  Fe109  1  0.47116997  0.08632866  0.89363601  1
  Fe  Fe110  1  0.64340336  0.17038424  0.39244100  1
  Fe  Fe111  1  0.68600117  0.33609887  0.10666597  1
  Fe  Fe112  1  0.52303921  0.58045877  0.60529776  1
  Si  Si113  1  0.86493251  0.41371002  0.11156450  1
  Si  Si114  1  0.36022265  0.83199596  0.11614562  1
  Si  Si115  1  0.80450448  0.91542506  0.38889986  1
  Si  Si116  1  0.14328455  0.42370439  0.88812828  1
  Si  Si117  1  0.13918331  0.92051539  0.38855200  1
  Si  Si118  1  0.52402591  0.08655213  0.61752606  1
  Si  Si119  1  0.47343136  0.91517382  0.39142590  1
  Si  Si120  1  0.47667885  0.57752862  0.38344846  1
  Si  Si121  1  0.47145670  0.91401566  0.89181656  1
  Si  Si122  1  0.63991857  0.33923710  0.88281061  1
  Si  Si123  1  0.69242500  0.16502422  0.61661256  1
  Si  Si124  1  0.30439930  0.33484614  0.88462193  1
  Si  Si125  1  0.35499087  0.83762027  0.61405251  1
  Si  Si126  1  0.86162901  0.08654307  0.61556446  1
  Si  Si127  1  0.97904755  0.67001967  0.88657247  1
  Si  Si128  1  0.69287856  0.33044748  0.61465589  1
  Si  Si129  1  0.29746503  0.16811265  0.88862287  1
  Si  Si130  1  0.19823156  0.08610856  0.11630223  1
  Si  Si131  1  0.97922627  0.83379100  0.88449148  1
  Si  Si132  1  0.30910960  0.33258214  0.38586972  1
  Si  Si133  1  0.52115488  0.92147476  0.61682825  1
  Si  Si134  1  0.35624750  0.66869664  0.11560028  1
  Si  Si135  1  0.18818204  0.91829740  0.61443945  1
  Si  Si136  1  0.02352121  0.66687721  0.61163666  1
  Si  Si137  1  0.14318126  0.58815913  0.88347981  1
  Si  Si138  1  0.02821165  0.33504755  0.61429086  1
  Si  Si139  1  0.81371079  0.91462067  0.89079415  1
  Si  Si140  1  0.80871280  0.41232217  0.88661542  1
  Si  Si141  1  0.85893072  0.41359079  0.61189617  1
  Si  Si142  1  0.81311766  0.58320943  0.38247312  1
  Si  Si143  1  0.52058442  0.07635887  0.11351290  1
  Si  Si144  1  0.85926778  0.92287149  0.61435898  1
  Si  Si145  1  0.30616964  0.83336707  0.88434216  1
  Si  Si146  1  0.14465970  0.41642262  0.38491136  1
  Si  Si147  1  0.02846000  0.16757423  0.61641108  1
  Si  Si148  1  0.03171258  0.66057502  0.11152284  1
  Si  Si149  1  0.97936772  0.16275947  0.89203223  1
  Si  Si150  1  0.30784828  0.66893978  0.88338995  1
  Si  Si151  1  0.46746377  0.57939153  0.88269697  1
  Si  Si152  1  0.86469930  0.58103553  0.11146866  1
  Si  Si153  1  0.36277236  0.16722981  0.11668058  1
  Si  Si154  1  0.18996196  0.08198423  0.61456936  1
  Si  Si155  1  0.35151747  0.67080318  0.60979757  1
  Si  Si156  1  0.01893682  0.83325506  0.61309153  1
  Si  Si157  1  0.98064779  0.66425371  0.38470152  1
  Si  Si158  1  0.13785103  0.07921427  0.88674780  1
  Si  Si159  1  0.86251208  0.57841009  0.60818118  1
  Si  Si160  1  0.35483676  0.16584651  0.61600917  1
  Si  Si161  1  0.47103172  0.41527959  0.88355585  1
  Si  Si162  1  0.03167921  0.33196218  0.11580996  1
  Si  Si163  1  0.51901410  0.58517337  0.11162065  1
  Si  Si164  1  0.52167131  0.40892156  0.60999870  1
  Si  Si165  1  0.68970146  0.84204324  0.11347270  1
  Si  Si166  1  0.03273706  0.16639677  0.11651710  1
  Si  Si167  1  0.31233538  0.66265052  0.38748723  1
  Si  Si168  1  0.19094212  0.41876559  0.61265351  1
  Si  Si169  1  0.19817834  0.57875178  0.11426347  1
  Si  Si170  1  0.80708508  0.07907856  0.39004130  1
  Si  Si171  1  0.81189961  0.42107876  0.38300380  1
  Si  Si172  1  0.69041931  0.84429794  0.61338221  1
  Si  Si173  1  0.64814711  0.33965673  0.38688597  1
  Si  Si174  1  0.63771460  0.17418664  0.88965990  1
  Si  Si175  1  0.51916955  0.42293795  0.11111336  1
  Si  Si176  1  0.97758438  0.33682705  0.38724652  1
  Si  Si177  1  0.19783698  0.41309822  0.11495998  1
  Si  Si178  1  0.14073413  0.91747999  0.88494559  1
  Si  Si179  1  0.19826936  0.92038191  0.11238106  1
  Si  Si180  1  0.14474387  0.58028385  0.38368793  1
  Si  Si181  1  0.85603982  0.92069447  0.11226919  1
  Si  Si182  1  0.64466108  0.65917428  0.38486716  1
  Si  Si183  1  0.14236393  0.08229666  0.38743244  1
  Si  Si184  1  0.52010207  0.91480308  0.11763629  1
  Si  Si185  1  0.36287490  0.33182643  0.11541650  1
  Si  Si186  1  0.64052030  0.65733566  0.88936266  1
  Si  Si187  1  0.86451902  0.08635427  0.11375717  1
  Si  Si188  1  0.18964571  0.58552856  0.61203997  1
  Si  Si189  1  0.30353737  0.16674316  0.38940154  1
  Si  Si190  1  0.47669945  0.41374504  0.38543026  1
  Si  Si191  1  0.35385115  0.33009898  0.61399043  1
  O  O192  1  0.27413126  0.12555132  0.08537418  1
  O  O193  1  0.27060324  0.11791158  0.58576754  1
  O  O194  1  0.27457018  0.61702700  0.08326795  1
  O  O195  1  0.26165073  0.62728228  0.57952003  1
  O  O196  1  0.59844011  0.09568758  0.07692196  1
  O  O197  1  0.60298307  0.12320447  0.58778525  1
  O  O198  1  0.59406230  0.61096484  0.07404014  1
  O  O199  1  0.60088021  0.62243177  0.56183416  1
  O  O200  1  0.95110999  0.11692111  0.08846255  1
  O  O201  1  0.93580274  0.13219924  0.58608734  1
  O  O202  1  0.95143274  0.60748647  0.08594636  1
  O  O203  1  0.94350753  0.61639126  0.57966012  1
  O  O204  1  0.11234842  0.36687076  0.08686914  1
  O  O205  1  0.10257910  0.37672046  0.58098703  1
  O  O206  1  0.11688829  0.87756581  0.07417892  1
  O  O207  1  0.10058622  0.87271024  0.58723981  1
  O  O208  1  0.43789865  0.36919206  0.08231455  1
  O  O209  1  0.43650277  0.35719400  0.58456254  1
  O  O210  1  0.44313681  0.85900432  0.08631244  1
  O  O211  1  0.43306378  0.87772174  0.58596864  1
  O  O212  1  0.78581959  0.36719999  0.07654877  1
  O  O213  1  0.76910650  0.37105071  0.58393455  1
  O  O214  1  0.76369869  0.88541273  0.08262723  1
  O  O215  1  0.76534528  0.89154110  0.58496530  1
  O  O216  1  0.27433428  0.37474592  0.08439494  1
  O  O217  1  0.26974622  0.37905665  0.58438414  1
  O  O218  1  0.28212945  0.88644873  0.08603147  1
  O  O219  1  0.26663165  0.88136940  0.58416087  1
  O  O220  1  0.59786794  0.40327490  0.07578916  1
  O  O221  1  0.60145109  0.36725293  0.58393218  1
  O  O222  1  0.60343397  0.89100468  0.08751848  1
  O  O223  1  0.60061982  0.88936745  0.58632710  1
  O  O224  1  0.95059269  0.38166428  0.08626763  1
  O  O225  1  0.93526876  0.36946185  0.58327057  1
  O  O226  1  0.92602795  0.88083405  0.07694240  1
  O  O227  1  0.93187149  0.87750241  0.58192306  1
  O  O228  1  0.11257840  0.13225611  0.08635054  1
  O  O229  1  0.10429629  0.12808684  0.58402283  1
  O  O230  1  0.11102700  0.62009465  0.08383606  1
  O  O231  1  0.10224755  0.62847464  0.58214989  1
  O  O232  1  0.43843873  0.12932805  0.08482195  1
  O  O233  1  0.43779480  0.13407909  0.58896816  1
  O  O234  1  0.43608082  0.63767783  0.08469310  1
  O  O235  1  0.42144533  0.63305752  0.57428188  1
  O  O236  1  0.78807789  0.13594629  0.07861122  1
  O  O237  1  0.76980327  0.12514427  0.58732042  1
  O  O238  1  0.78593643  0.62791228  0.07608709  1
  O  O239  1  0.78052324  0.62088068  0.57236844  1
  O  O240  1  0.06317687  0.10269067  0.42285451  1
  O  O241  1  0.05370674  0.09980943  0.91671790  1
  O  O242  1  0.06075923  0.60755843  0.41173927  1
  O  O243  1  0.06522425  0.62046021  0.91571770  1
  O  O244  1  0.37663308  0.11555801  0.42752610  1
  O  O245  1  0.37493462  0.12124182  0.92608817  1
  O  O246  1  0.39516457  0.61037503  0.41287216  1
  O  O247  1  0.38852522  0.61714928  0.91318117  1
  O  O248  1  0.72318308  0.09762146  0.42069364  1
  O  O249  1  0.71233217  0.12083102  0.92297282  1
  O  O250  1  0.72994995  0.60800374  0.41221935  1
  O  O251  1  0.71313921  0.60059592  0.92139122  1
  O  O252  1  0.22862630  0.36856274  0.41598794  1
  O  O253  1  0.23130723  0.37762423  0.91539921  1
  O  O254  1  0.20734469  0.86133630  0.42275072  1
  O  O255  1  0.22092906  0.86310820  0.91108880  1
  O  O256  1  0.56380973  0.37043298  0.41563417  1
  O  O257  1  0.55626235  0.36902455  0.91134017  1
  O  O258  1  0.53799851  0.85106214  0.42120259  1
  O  O259  1  0.54424327  0.85794514  0.92275861  1
  O  O260  1  0.89466220  0.37159960  0.41409742  1
  O  O261  1  0.87362193  0.34938861  0.91929095  1
  O  O262  1  0.87611340  0.85822426  0.42278582  1
  O  O263  1  0.89814433  0.86194533  0.91492937  1
  O  O264  1  0.06065328  0.38997634  0.41373677  1
  O  O265  1  0.06897490  0.39662179  0.92519101  1
  O  O266  1  0.05244205  0.90775385  0.41739478  1
  O  O267  1  0.06073203  0.88617125  0.91634670  1
  O  O268  1  0.39711768  0.37665619  0.41530377  1
  O  O269  1  0.39421355  0.37506171  0.91343308  1
  O  O270  1  0.38486872  0.90286936  0.41928769  1
  O  O271  1  0.38288462  0.88635584  0.91738599  1
  O  O272  1  0.72671178  0.39753917  0.41150024  1
  O  O273  1  0.71612461  0.39449242  0.91036924  1
  O  O274  1  0.71987773  0.89900510  0.41949289  1
  O  O275  1  0.73851965  0.88155729  0.92551446  1
  O  O276  1  0.21532588  0.14291248  0.41514149  1
  O  O277  1  0.21192672  0.13821891  0.91462195  1
  O  O278  1  0.22968701  0.62571138  0.41453049  1
  O  O279  1  0.22636352  0.63756167  0.91303468  1
  O  O280  1  0.55342728  0.15180317  0.43426746  1
  O  O281  1  0.55138906  0.15863815  0.91793899  1
  O  O282  1  0.56427601  0.61933463  0.41320154  1
  O  O283  1  0.55078258  0.62591752  0.91118366  1
  O  O284  1  0.88076588  0.13418901  0.42547389  1
  O  O285  1  0.90035389  0.14574191  0.92896134  1
  O  O286  1  0.89767139  0.63078889  0.41248200  1
  O  O287  1  0.90457231  0.64217144  0.92346147  1
  O  O288  1  0.19071168  0.00481965  0.08520627  1
  O  O289  1  0.17559486  0.00072563  0.58314290  1
  O  O290  1  0.18958804  0.49549367  0.08535247  1
  O  O291  1  0.18236597  0.50154750  0.58318421  1
  O  O292  1  0.48751606  -0.00553260  0.08894120  1
  O  O293  1  0.50647631  0.00505536  0.58775879  1
  O  O294  1  0.48404889  0.50364007  0.08592848  1
  O  O295  1  0.50323370  0.48363954  0.57142515  1
  O  O296  1  0.85141729  0.00424086  0.08459761  1
  O  O297  1  0.86133932  0.00573578  0.58339680  1
  O  O298  1  0.85395765  0.49703444  0.08482782  1
  O  O299  1  0.85685938  0.49359514  0.57780959  1
  O  O300  1  0.01975071  0.24933730  0.08714444  1
  O  O301  1  0.02703209  0.25102886  0.58853150  1
  O  O302  1  0.01968397  0.73732291  0.07513094  1
  O  O303  1  0.01297193  0.75007837  0.58268773  1
  O  O304  1  0.35128416  0.24959405  0.08560382  1
  O  O305  1  0.33419819  0.24758815  0.58574668  1
  O  O306  1  0.33513256  0.75067995  0.08601624  1
  O  O307  1  0.33952104  0.75582187  0.58429714  1
  O  O308  1  0.65167885  0.24940621  0.06825201  1
  O  O309  1  0.68706619  0.24725978  0.58601355  1
  O  O310  1  0.67516166  0.76437000  0.07772473  1
  O  O311  1  0.68526576  0.76847502  0.57474366  1
  O  O312  1  0.17740250  0.00196106  0.41248220  1
  O  O313  1  0.16748959  -0.00150936  0.91612099  1
  O  O314  1  0.16446088  0.49831485  0.41322661  1
  O  O315  1  0.16771408  0.50716395  0.91321613  1
  O  O316  1  0.51138483  -0.00780501  0.42182863  1
  O  O317  1  0.49293187  -0.00722318  0.92570776  1
  O  O318  1  0.48672929  0.49544392  0.41546037  1
  O  O319  1  0.47691096  0.49680430  0.91476630  1
  O  O320  1  0.83900602  -0.00300015  0.41372117  1
  O  O321  1  0.83999001  -0.00742784  0.92536836  1
  O  O322  1  0.83715585  0.50174724  0.41255748  1
  O  O323  1  0.84282317  0.48836788  0.91899725  1
  O  O324  1  0.32003665  0.25137396  0.41673291  1
  O  O325  1  0.30846135  0.25296410  0.91435924  1
  O  O326  1  0.33095711  0.73856197  0.42412168  1
  O  O327  1  0.32390146  0.75059538  0.91376227  1
  O  O328  1  0.67867302  0.26516592  0.42295366  1
  O  O329  1  0.66455048  0.25877696  0.91138182  1
  O  O330  1  0.66397280  0.73450533  0.42325507  1
  O  O331  1  0.65775129  0.73394541  0.92768123  1
  O  O332  1  1.00006100  0.26092146  0.42390309  1
  O  O333  1  1.02242125  0.23949484  0.91717700  1
  O  O334  1  1.00810369  0.73982400  0.42018375  1
  O  O335  1  1.00575946  0.75277355  0.91342579  1
  O  O336  1  0.21309412  0.08511747  0.19654348  1
  O  O337  1  0.20913912  0.08410222  0.69503362  1
  O  O338  1  0.21404996  0.57953159  0.19476008  1
  O  O339  1  0.20744628  0.58249181  0.69237528  1
  O  O340  1  0.54142649  0.08129008  0.19386037  1
  O  O341  1  0.54303506  0.08635942  0.69771662  1
  O  O342  1  0.54287860  0.58161292  0.19148384  1
  O  O343  1  0.54889336  0.57342893  0.69542399  1
  O  O344  1  0.87877164  0.08401077  0.19462965  1
  O  O345  1  0.87904930  0.08570152  0.69544535  1
  O  O346  1  0.88091272  0.58212407  0.19278072  1
  O  O347  1  0.88175658  0.57435146  0.68749140  1
  O  O348  1  0.04831498  0.33260276  0.19646331  1
  O  O349  1  0.04979610  0.34229629  0.69321356  1
  O  O350  1  0.04945760  0.83304299  0.19950912  1
  O  O351  1  0.03114872  0.83258126  0.69200324  1
  O  O352  1  0.38016405  0.33586710  0.19477373  1
  O  O353  1  0.37166820  0.33223728  0.69445444  1
  O  O354  1  0.37686982  0.83264425  0.19603719  1
  O  O355  1  0.37292162  0.83722569  0.69421324  1
  O  O356  1  0.71123525  0.33377036  0.19948342  1
  O  O357  1  0.70886321  0.33222313  0.69488670  1
  O  O358  1  0.71365194  0.84005222  0.19316030  1
  O  O359  1  0.70757102  0.83997950  0.69292964  1
  O  O360  1  0.21381367  0.41459378  0.19528766  1
  O  O361  1  0.20878870  0.41747093  0.69309725  1
  O  O362  1  0.21049245  0.91905934  0.19296444  1
  O  O363  1  0.21150588  0.92392136  0.69354610  1
  O  O364  1  0.54035892  0.41735007  0.19221792  1
  O  O365  1  0.53882835  0.41177706  0.69087216  1
  O  O366  1  0.53859599  0.91613235  0.19762071  1
  O  O367  1  0.53722851  0.92208448  0.69692031  1
  O  O368  1  0.88103678  0.41465028  0.19306027  1
  O  O369  1  0.87590864  0.41547394  0.69176527  1
  O  O370  1  0.87587296  0.91885287  0.19315275  1
  O  O371  1  0.87893047  0.92462544  0.69368346  1
  O  O372  1  0.05025937  0.16768814  0.19679177  1
  O  O373  1  0.04847393  0.16067594  0.69551602  1
  O  O374  1  0.04907661  0.66336340  0.19273374  1
  O  O375  1  0.04171317  0.66556025  0.69168315  1
  O  O376  1  0.37859771  0.16618662  0.19598196  1
  O  O377  1  0.37142350  0.16792370  0.69620452  1
  O  O378  1  0.36863184  0.66612453  0.19477380  1
  O  O379  1  0.36465169  0.66716270  0.68954258  1
  O  O380  1  0.71366758  0.16588086  0.19996487  1
  O  O381  1  0.70709495  0.16677182  0.69658049  1
  O  O382  1  0.71415733  0.66402759  0.19742665  1
  O  O383  1  0.70300150  0.66950717  0.69591936  1
  O  O384  1  0.12390954  0.08434073  0.30606090  1
  O  O385  1  0.12299331  0.08216403  0.80602853  1
  O  O386  1  0.12698072  0.58060200  0.30306108  1
  O  O387  1  0.12412133  0.58454951  0.80307198  1
  O  O388  1  0.45644021  0.08460535  0.30220010  1
  O  O389  1  0.45162599  0.08469709  0.80122389  1
  O  O390  1  0.45571438  0.57584208  0.30403771  1
  O  O391  1  0.44621832  0.57382075  0.80348729  1
  O  O392  1  0.79315162  0.08272399  0.30849184  1
  O  O393  1  0.78836199  0.08407059  0.80125392  1
  O  O394  1  0.79590764  0.58140243  0.30242667  1
  O  O395  1  0.78847988  0.58006397  0.79636481  1
  O  O396  1  0.28983654  0.33646203  0.30632414  1
  O  O397  1  0.28842794  0.33555627  0.80389350  1
  O  O398  1  0.28669025  0.83146298  0.29849845  1
  O  O399  1  0.29468344  0.83271015  0.80501659  1
  O  O400  1  0.62499731  0.33733283  0.30613799  1
  O  O401  1  0.61948209  0.33531154  0.80189835  1
  O  O402  1  0.62176313  0.83172979  0.29953776  1
  O  O403  1  0.62044678  0.83433020  0.80065495  1
  O  O404  1  0.96022413  0.33518060  0.30624469  1
  O  O405  1  0.95297412  0.34279928  0.80217962  1
  O  O406  1  0.95460280  0.83273643  0.29778643  1
  O  O407  1  0.96342503  0.83440358  0.80512975  1
  O  O408  1  0.12698392  0.41518324  0.30437086  1
  O  O409  1  0.12547469  0.41951702  0.80691939  1
  O  O410  1  0.12518805  0.91836740  0.30681296  1
  O  O411  1  0.11796229  0.92372525  0.80586637  1
  O  O412  1  0.45841080  0.41484184  0.30508060  1
  O  O413  1  0.45252959  0.41509473  0.80278229  1
  O  O414  1  0.45633058  0.91547588  0.30901785  1
  O  O415  1  0.45351699  0.91799317  0.80988731  1
  O  O416  1  0.79506634  0.41894661  0.30274874  1
  O  O417  1  0.78878045  0.41427318  0.80467482  1
  O  O418  1  0.79072278  0.91538763  0.30724985  1
  O  O419  1  0.78991629  0.92050295  0.81045991  1
  O  O420  1  0.28930867  0.16485590  0.30910679  1
  O  O421  1  0.28685975  0.16680262  0.80739557  1
  O  O422  1  0.29089059  0.66314164  0.30648268  1
  O  O423  1  0.28878522  0.66658038  0.80311219  1
  O  O424  1  0.62158967  0.16903701  0.30022136  1
  O  O425  1  0.62167589  0.16975063  0.80754627  1
  O  O426  1  0.62521716  0.66043252  0.30579243  1
  O  O427  1  0.63058800  0.66498800  0.80984566  1
  O  O428  1  0.95649086  0.16739685  0.29904524  1
  O  O429  1  0.95428455  0.15710482  0.81145833  1
  O  O430  1  0.96238396  0.66406695  0.30370010  1
  O  O431  1  0.96159079  0.66594561  0.80670155  1
  F  F432  1  0.04777120  0.00128625  0.20232447  1
  F  F433  1  0.04423775  0.00127432  0.70076533  1
  F  F434  1  0.05012074  0.49745541  0.20122637  1
  F  F435  1  0.04643757  0.50066128  0.70125854  1
  F  F436  1  0.37692115  -0.00142866  0.20423601  1
  F  F437  1  0.37575578  -0.00009156  0.70307583  1
  F  F438  1  0.37696546  0.49776726  0.20117424  1
  F  F439  1  0.37396531  0.49733042  0.69714227  1
  F  F440  1  0.71279985  0.00044441  0.20520301  1
  F  F441  1  0.70893225  0.00046089  0.70373071  1
  F  F442  1  0.71374891  0.49927718  0.19975000  1
  F  F443  1  0.71178223  0.49316500  0.69685951  1
  F  F444  1  0.20935796  0.24931255  0.20163064  1
  F  F445  1  0.21149047  0.25055959  0.70075323  1
  F  F446  1  0.21217084  0.74616186  0.19995419  1
  F  F447  1  0.21291048  0.74168313  0.69588567  1
  F  F448  1  0.54413209  0.25214853  0.20024784  1
  F  F449  1  0.54205948  0.24843797  0.70264012  1
  F  F450  1  0.53662952  0.75087712  0.19651366  1
  F  F451  1  0.54573673  0.76240691  0.69519272  1
  F  F452  1  0.88248447  0.25311671  0.20079521  1
  F  F453  1  0.86580460  0.24777139  0.69952920  1
  F  F454  1  0.88154034  0.74694842  0.19778503  1
  F  F455  1  0.87858603  0.74743055  0.69895120  1
  F  F456  1  0.28754901  0.00079033  0.29778113  1
  F  F457  1  0.28496311  0.00098237  0.79937126  1
  F  F458  1  0.28999315  0.49781251  0.29834920  1
  F  F459  1  0.28564530  0.50030650  0.79486309  1
  F  F460  1  0.62190262  0.00011066  0.29712697  1
  F  F461  1  0.61961949  0.00137337  0.80039845  1
  F  F462  1  0.62272700  0.49896940  0.29401029  1
  F  F463  1  0.61804451  0.49386980  0.79718166  1
  F  F464  1  0.95570973  -0.00002147  0.29576805  1
  F  F465  1  0.95517550  -0.00077839  0.79822886  1
  F  F466  1  0.95813624  0.49920752  0.29494925  1
  F  F467  1  0.95569721  0.50189791  0.79581943  1
  F  F468  1  0.12352627  0.25169742  0.30074049  1
  F  F469  1  0.13649638  0.25158604  0.80200884  1
  F  F470  1  0.12403244  0.74506079  0.29789767  1
  F  F471  1  0.11471359  0.73980372  0.79884828  1
  F  F472  1  0.45919299  0.25276203  0.29950682  1
  F  F473  1  0.45067562  0.25256896  0.79752431  1
  F  F474  1  0.45180462  0.74913736  0.30042943  1
  F  F475  1  0.44672027  0.75686925  0.79770557  1
  F  F476  1  0.79356990  0.25194627  0.29975939  1
  F  F477  1  0.78518913  0.25011096  0.79906827  1
  F  F478  1  0.80072250  0.74861611  0.29995203  1
  F  F479  1  0.78417278  0.75433821  0.80079299  1
