# generated using pymatgen
data_K24Na3Li5Mg64Fe17Si79(O5F)48
_symmetry_space_group_name_H-M   'P 1'
_cell_length_a   16.08707272
_cell_length_b   18.57718193
_cell_length_c   20.53825682
_cell_angle_alpha   90.00907053
_cell_angle_beta   100.01574797
_cell_angle_gamma   89.97792192
_symmetry_Int_Tables_number   1
_chemical_formula_structural   K24Na3Li5Mg64Fe17Si79(O5F)48
_chemical_formula_sum   'K24 Na3 Li5 Mg64 Fe17 Si79 O240 F48'
_cell_volume   6044.36663398
_cell_formula_units_Z   1
loop_
 _symmetry_equiv_pos_site_id
 _symmetry_equiv_pos_as_xyz
  1  'x, y, z'
loop_
 _atom_site_type_symbol
 _atom_site_label
 _atom_site_symmetry_multiplicity
 _atom_site_fract_x
 _atom_site_fract_y
 _atom_site_fract_z
 _atom_site_occupancy
  K  K0  1  0.00571799  -0.00323912  0.00072763  1
  K  K1  1  -0.01226297  -0.00268443  0.49636755  1
  K  K2  1  -0.00817228  0.49952355  -0.00098143  1
  K  K3  1  -0.00674474  0.50209325  0.49643438  1
  K  K4  1  0.33527982  0.00490472  0.00869147  1
  K  K5  1  0.33537553  0.00337826  0.48935510  1
  K  K6  1  0.33604451  0.50606020  0.00179373  1
  K  K7  1  0.32891768  0.50049693  0.49736076  1
  K  K8  1  0.67115753  0.00217594  0.00144525  1
  K  K9  1  0.66599558  -0.00244096  0.49740641  1
  K  K10  1  0.67424845  0.50070782  -0.00026949  1
  K  K11  1  0.66975951  0.50253225  0.49981556  1
  K  K12  1  0.16651331  0.24385909  0.00352984  1
  K  K13  1  0.17168191  0.24726377  0.48990233  1
  K  K14  1  0.16845182  0.75440907  0.00622738  1
  K  K15  1  0.15773356  0.74678535  0.49206033  1
  K  K16  1  0.50422699  0.24148949  0.00593647  1
  K  K17  1  0.49942280  0.24543921  0.49588480  1
  K  K18  1  0.50465461  0.75033799  0.00452695  1
  K  K19  1  0.49978845  0.74986998  0.49346264  1
  K  K20  1  0.82440940  0.25396485  -0.00130863  1
  K  K21  1  0.82319820  0.25293874  0.49445648  1
  K  K22  1  0.83474798  0.74940781  0.00140478  1
  K  K23  1  0.83252030  0.75190861  0.50118677  1
  Na  Na24  1  0.49474036  0.00260414  0.24412631  1
  Na  Na25  1  0.33494618  0.42071875  0.74695119  1
  Na  Na26  1  0.49805131  0.16453559  0.25193583  1
  Li  Li27  1  0.49873913  0.50161243  0.25168515  1
  Li  Li28  1  0.33471172  0.75404602  0.24703224  1
  Li  Li29  1  0.83352441  0.66608038  0.74531288  1
  Li  Li30  1  0.83190009  0.83663718  0.24193689  1
  Li  Li31  1  0.33864393  0.08421628  0.25320475  1
  Mg  Mg32  1  0.83293583  0.50337778  0.74964337  1
  Mg  Mg33  1  -0.00173836  0.75167382  0.24837602  1
  Mg  Mg34  1  0.83468513  -0.00242238  0.24478533  1
  Mg  Mg35  1  0.50140959  0.49962220  0.74723867  1
  Mg  Mg36  1  0.83067415  0.49893039  0.25415759  1
  Mg  Mg37  1  0.16535951  0.50045317  0.25438200  1
  Mg  Mg38  1  0.16475732  0.00098514  0.75285882  1
  Mg  Mg39  1  0.83210355  -0.00181259  0.75052678  1
  Mg  Mg40  1  -0.00019042  0.24685958  0.25229429  1
  Mg  Mg41  1  -0.00286225  0.74821902  0.74612860  1
  Mg  Mg42  1  0.17234592  -0.00090330  0.25058525  1
  Mg  Mg43  1  0.49947023  0.00210130  0.74609413  1
  Mg  Mg44  1  0.66849256  0.75017418  0.74814058  1
  Mg  Mg45  1  0.66780607  0.75113679  0.24767191  1
  Mg  Mg46  1  0.33333672  0.25216189  0.74816685  1
  Mg  Mg47  1  0.66670292  0.25034677  0.74898155  1
  Mg  Mg48  1  0.16892161  0.50150376  0.75230020  1
  Mg  Mg49  1  0.66432620  0.24804235  0.24925695  1
  Mg  Mg50  1  0.33317896  0.74992647  0.75369501  1
  Mg  Mg51  1  0.00076868  0.25075394  0.75294492  1
  Mg  Mg52  1  0.33549264  0.24718878  0.25483924  1
  Mg  Mg53  1  0.66819753  0.91565629  0.74921853  1
  Mg  Mg54  1  0.66385287  0.41687345  0.25336548  1
  Mg  Mg55  1  0.83359026  0.16528807  0.75088026  1
  Mg  Mg56  1  0.66658109  0.41721063  0.74802836  1
  Mg  Mg57  1  0.83289458  0.33651857  0.74979752  1
  Mg  Mg58  1  0.33557253  0.58523795  0.75429942  1
  Mg  Mg59  1  0.50001468  0.83509343  0.75053708  1
  Mg  Mg60  1  0.50107110  0.66568382  0.75119012  1
  Mg  Mg61  1  0.16847815  0.66597451  0.75151607  1
  Mg  Mg62  1  0.66986788  0.58629477  0.74747062  1
  Mg  Mg63  1  0.33172489  0.08579488  0.74948648  1
  Mg  Mg64  1  0.33449865  0.91741007  0.24909813  1
  Mg  Mg65  1  0.66487679  0.08350488  0.24668970  1
  Mg  Mg66  1  0.33535339  0.41756156  0.25231475  1
  Mg  Mg67  1  0.33277794  0.91735348  0.75074380  1
  Mg  Mg68  1  0.83022534  0.33327476  0.25272247  1
  Mg  Mg69  1  0.00009814  0.58483861  0.25259519  1
  Mg  Mg70  1  -0.00055303  0.41443709  0.25624558  1
  Mg  Mg71  1  0.16870125  0.33516029  0.74980203  1
  Mg  Mg72  1  0.49967143  0.16621649  0.74640856  1
  Mg  Mg73  1  -0.00020633  0.08141774  0.24912640  1
  Mg  Mg74  1  0.00056055  0.08434280  0.75188834  1
  Mg  Mg75  1  0.49998348  0.33556018  0.74691833  1
  Mg  Mg76  1  0.16664180  0.16607004  0.75269669  1
  Mg  Mg77  1  0.00025672  0.41714593  0.74977918  1
  Mg  Mg78  1  0.49819978  0.83359275  0.24683187  1
  Mg  Mg79  1  0.83055253  0.16368629  0.24763697  1
  Mg  Mg80  1  0.33376727  0.58500392  0.25122707  1
  Mg  Mg81  1  -0.00301480  0.58457401  0.74765576  1
  Mg  Mg82  1  0.16788218  0.66580905  0.25224640  1
  Mg  Mg83  1  0.83073485  0.66820369  0.25049011  1
  Mg  Mg84  1  0.16851922  0.33287540  0.25615325  1
  Mg  Mg85  1  0.66732563  0.91610970  0.24467631  1
  Mg  Mg86  1  -0.00191653  0.91484783  0.75061940  1
  Mg  Mg87  1  -0.00050691  0.91343228  0.24583134  1
  Mg  Mg88  1  0.49965838  0.33604578  0.25315730  1
  Mg  Mg89  1  0.16909667  0.83183207  0.24669694  1
  Mg  Mg90  1  0.83326464  0.83303069  0.74871716  1
  Mg  Mg91  1  0.66226460  0.58276534  0.25040136  1
  Mg  Mg92  1  0.66710909  0.08369133  0.74834867  1
  Mg  Mg93  1  0.17097523  0.16425604  0.25360395  1
  Mg  Mg94  1  0.16631698  0.83417688  0.75085301  1
  Mg  Mg95  1  0.49531633  0.66691467  0.24836055  1
  Fe  Fe96  1  0.03060667  0.83359118  0.10804204  1
  Fe  Fe97  1  0.36204973  0.83378101  0.10862612  1
  Fe  Fe98  1  0.80865271  0.42031917  0.88992002  1
  Fe  Fe99  1  0.13856280  0.58501841  0.39317501  1
  Fe  Fe100  1  0.81259973  0.91150663  0.89169698  1
  Fe  Fe101  1  0.85895092  0.08320927  0.10758602  1
  Fe  Fe102  1  0.31672733  0.16384334  0.39406713  1
  Fe  Fe103  1  0.31335831  0.66652479  0.89307065  1
  Fe  Fe104  1  0.68589797  0.16899174  0.10596588  1
  Fe  Fe105  1  0.69591291  0.83027600  0.10854791  1
  Fe  Fe106  1  0.85626539  0.58357261  0.60806724  1
  Fe  Fe107  1  0.85666112  0.91744330  0.60810688  1
  Fe  Fe108  1  0.80803870  0.41539723  0.39335255  1
  Fe  Fe109  1  0.52139686  0.41617311  0.60578011  1
  Fe  Fe110  1  0.80950960  0.08559277  0.88984163  1
  Fe  Fe111  1  0.52361339  0.08412790  0.60677681  1
  Fe  Fe112  1  0.14028029  0.08332328  0.89216902  1
  Si  Si113  1  0.47490807  0.58622949  0.38518234  1
  Si  Si114  1  0.47010488  0.92279553  0.88322026  1
  Si  Si115  1  0.35860037  0.33146668  0.11607588  1
  Si  Si116  1  0.30904445  0.83342807  0.38470472  1
  Si  Si117  1  0.51803436  0.91344198  0.61158843  1
  Si  Si118  1  0.19727399  0.92299381  0.11052918  1
  Si  Si119  1  0.86212946  0.09002307  0.61193309  1
  Si  Si120  1  0.47021168  0.08660990  0.88290801  1
  Si  Si121  1  0.30890860  0.17133002  0.88748269  1
  Si  Si122  1  0.35625799  0.83155195  0.61617768  1
  Si  Si123  1  0.97268425  0.83786840  0.38313693  1
  Si  Si124  1  0.98053204  0.82469915  0.88603679  1
  Si  Si125  1  0.35282672  0.32997406  0.61101091  1
  Si  Si126  1  0.35433541  0.66302149  0.11294201  1
  Si  Si127  1  0.31134461  0.33414822  0.88447230  1
  Si  Si128  1  0.19245902  0.08191469  0.61479764  1
  Si  Si129  1  0.80505541  0.58783340  0.38663987  1
  Si  Si130  1  0.97285333  0.17245670  0.88838961  1
  Si  Si131  1  0.68374763  0.83258553  0.60990522  1
  Si  Si132  1  0.64196914  0.83274875  0.38353352  1
  Si  Si133  1  0.53050028  0.91596105  0.10718655  1
  Si  Si134  1  0.47866722  0.07696170  0.39161887  1
  Si  Si135  1  0.63894643  0.66818950  0.38348123  1
  Si  Si136  1  0.51981679  0.58759898  0.61165722  1
  Si  Si137  1  0.97919631  0.66389292  0.88234744  1
  Si  Si138  1  0.19488583  0.91738627  0.61556712  1
  Si  Si139  1  0.19186244  0.41291435  0.11821056  1
  Si  Si140  1  0.52203074  0.41865625  0.11833391  1
  Si  Si141  1  0.35808911  0.16759632  0.11561808  1
  Si  Si142  1  0.19660395  0.58320153  0.61547105  1
  Si  Si143  1  0.69402270  0.33232838  0.61178971  1
  Si  Si144  1  0.68598530  0.33931000  0.11406117  1
  Si  Si145  1  0.52304493  0.08200519  0.10835126  1
  Si  Si146  1  0.03082420  0.83309742  0.61155369  1
  Si  Si147  1  0.18990121  0.41898417  0.61464976  1
  Si  Si148  1  0.03203618  0.66621186  0.61120176  1
  Si  Si149  1  0.35219291  0.16929734  0.61237099  1
  Si  Si150  1  0.14023200  0.58203205  0.88743751  1
  Si  Si151  1  0.63898115  0.33053308  0.88723269  1
  Si  Si152  1  0.19133085  0.57761257  0.11611988  1
  Si  Si153  1  0.52107579  0.58142433  0.11615763  1
  Si  Si154  1  0.02492415  0.33193032  0.11893153  1
  Si  Si155  1  0.68781166  0.65883152  0.11192740  1
  Si  Si156  1  0.47827739  0.41356716  0.88441924  1
  Si  Si157  1  0.03153407  0.16657444  0.11562338  1
  Si  Si158  1  0.14348825  0.91209908  0.88744724  1
  Si  Si159  1  0.63269672  0.83510792  0.88629454  1
  Si  Si160  1  0.86167914  0.91562211  0.10963651  1
  Si  Si161  1  0.64240078  0.16395916  0.38701296  1
  Si  Si162  1  0.68423349  0.66871174  0.61026661  1
  Si  Si163  1  0.63504880  0.33087261  0.39016164  1
  Si  Si164  1  0.47314380  0.42107460  0.38515083  1
  Si  Si165  1  0.31240698  0.33683680  0.38984647  1
  Si  Si166  1  0.85848489  0.57946465  0.11740757  1
  Si  Si167  1  0.80960100  0.59104031  0.88641780  1
  Si  Si168  1  0.30980638  0.66682699  0.38943460  1
  Si  Si169  1  0.35818046  0.66904204  0.61694260  1
  Si  Si170  1  0.02392062  0.66193553  0.11270308  1
  Si  Si171  1  0.80567579  0.08302320  0.38580708  1
  Si  Si172  1  0.14692590  0.41671501  0.88614819  1
  Si  Si173  1  0.98206641  0.33546584  0.88793342  1
  Si  Si174  1  0.97765044  0.32501244  0.39060475  1
  Si  Si175  1  0.14146032  0.41242845  0.39126181  1
  Si  Si176  1  0.02976093  0.16858848  0.61460658  1
  Si  Si177  1  0.14283263  0.91348390  0.38515018  1
  Si  Si178  1  0.85907503  0.41437098  0.11834156  1
  Si  Si179  1  0.69553507  0.16816553  0.61173417  1
  Si  Si180  1  0.19512842  0.08743791  0.11827805  1
  Si  Si181  1  0.47622520  0.91243507  0.38604154  1
  Si  Si182  1  0.64101265  0.66878277  0.88483432  1
  Si  Si183  1  0.48247425  0.57717625  0.88897956  1
  Si  Si184  1  0.80575743  0.91885329  0.38187821  1
  Si  Si185  1  0.14118081  0.07917615  0.38909935  1
  Si  Si186  1  0.63590568  0.16548824  0.88449519  1
  Si  Si187  1  0.31140027  0.83643205  0.88652461  1
  Si  Si188  1  0.02901934  0.33364177  0.61417620  1
  Si  Si189  1  0.96752989  0.67307033  0.38777420  1
  Si  Si190  1  0.86016451  0.41136206  0.61231971  1
  Si  Si191  1  0.97436723  0.15946941  0.38656408  1
  O  O192  1  0.27392012  0.11966565  0.08490695  1
  O  O193  1  0.27300257  0.11325558  0.58512707  1
  O  O194  1  0.27198569  0.60867916  0.08584181  1
  O  O195  1  0.28032732  0.61402687  0.58826817  1
  O  O196  1  0.59125288  0.11352189  0.06536408  1
  O  O197  1  0.62318723  0.11319658  0.57681715  1
  O  O198  1  0.60477458  0.60620129  0.08501668  1
  O  O199  1  0.60054329  0.61866791  0.58084517  1
  O  O200  1  0.96051321  0.11250169  0.08000928  1
  O  O201  1  0.94468527  0.12412358  0.58320478  1
  O  O202  1  0.93794691  0.61237450  0.08663882  1
  O  O203  1  0.95240840  0.61986949  0.57550038  1
  O  O204  1  0.10461113  0.36797059  0.08922403  1
  O  O205  1  0.10537210  0.37223990  0.58284318  1
  O  O206  1  0.12283056  0.86987265  0.07408981  1
  O  O207  1  0.11580557  0.86561765  0.58510322  1
  O  O208  1  0.43815907  0.36907439  0.08717639  1
  O  O209  1  0.42869772  0.35456564  0.57363099  1
  O  O210  1  0.45661356  0.86108271  0.07198293  1
  O  O211  1  0.44002421  0.85503656  0.58645521  1
  O  O212  1  0.77092341  0.37331173  0.08794127  1
  O  O213  1  0.78451954  0.35232888  0.58830599  1
  O  O214  1  0.79837648  0.84957678  0.08143660  1
  O  O215  1  0.76016268  0.86130910  0.57478504  1
  O  O216  1  0.27011874  0.37642546  0.08726461  1
  O  O217  1  0.27100259  0.38479798  0.58724888  1
  O  O218  1  0.28012693  0.90388927  0.07865726  1
  O  O219  1  0.27813554  0.88670154  0.58741412  1
  O  O220  1  0.60622379  0.39526285  0.08759226  1
  O  O221  1  0.62130487  0.38654356  0.57627126  1
  O  O222  1  0.61394318  0.89918963  0.07402059  1
  O  O223  1  0.59961739  0.88246876  0.58209539  1
  O  O224  1  0.93873980  0.37784436  0.08912484  1
  O  O225  1  0.94281024  0.37708722  0.58435930  1
  O  O226  1  0.94831261  0.90237293  0.07959014  1
  O  O227  1  0.95088387  0.87888971  0.57487209  1
  O  O228  1  0.11971943  0.14568281  0.08945680  1
  O  O229  1  0.10849778  0.13021643  0.58565247  1
  O  O230  1  0.10292042  0.61936878  0.08565970  1
  O  O231  1  0.11775932  0.63545375  0.58496438  1
  O  O232  1  0.43500574  0.13091985  0.08399297  1
  O  O233  1  0.43326965  0.14886866  0.58019577  1
  O  O234  1  0.43716845  0.62861801  0.08413356  1
  O  O235  1  0.44170823  0.64617247  0.58659083  1
  O  O236  1  0.78013921  0.14951316  0.06949684  1
  O  O237  1  0.78548956  0.14806612  0.58702232  1
  O  O238  1  0.76977780  0.61956539  0.08570260  1
  O  O239  1  0.76138391  0.64193844  0.57508286  1
  O  O240  1  0.05617680  0.10967880  0.41689851  1
  O  O241  1  0.04397805  0.11555937  0.92280720  1
  O  O242  1  0.04796767  0.62860946  0.42613413  1
  O  O243  1  0.05143183  0.60357332  0.91318969  1
  O  O244  1  0.41270091  0.11201999  0.43503996  1
  O  O245  1  0.38905089  0.11654867  0.91368810  1
  O  O246  1  0.39952648  0.62337797  0.41886296  1
  O  O247  1  0.40641371  0.60553107  0.92437520  1
  O  O248  1  0.73474500  0.12686755  0.41946696  1
  O  O249  1  0.70623741  0.10922536  0.91722508  1
  O  O250  1  0.72210580  0.62050992  0.41424628  1
  O  O251  1  0.73302264  0.63403844  0.91549479  1
  O  O252  1  0.23098978  0.37114629  0.41865359  1
  O  O253  1  0.23075340  0.36736285  0.91542927  1
  O  O254  1  0.22983261  0.86888632  0.41728784  1
  O  O255  1  0.22363399  0.85723756  0.91262289  1
  O  O256  1  0.55288400  0.36867790  0.41575348  1
  O  O257  1  0.55235521  0.35618929  0.91519186  1
  O  O258  1  0.56387295  0.86660492  0.41643908  1
  O  O259  1  0.54671165  0.86749710  0.91121495  1
  O  O260  1  0.90634813  0.36102539  0.42645434  1
  O  O261  1  0.90695429  0.36555218  0.92351646  1
  O  O262  1  0.89722688  0.88049414  0.41323863  1
  O  O263  1  0.90015790  0.84337859  0.91959825  1
  O  O264  1  0.06954526  0.36284599  0.41822867  1
  O  O265  1  0.06699595  0.38490049  0.91642070  1
  O  O266  1  0.06358536  0.87679316  0.41550744  1
  O  O267  1  0.06146614  0.87770492  0.91390515  1
  O  O268  1  0.39064497  0.39366229  0.41569160  1
  O  O269  1  0.39135360  0.38802109  0.91110991  1
  O  O270  1  0.39652097  0.87699527  0.41767238  1
  O  O271  1  0.38329315  0.89974548  0.90961511  1
  O  O272  1  0.71844691  0.37235286  0.42778084  1
  O  O273  1  0.71581595  0.38075209  0.92320713  1
  O  O274  1  0.73047568  0.87632250  0.41275344  1
  O  O275  1  0.71267838  0.88003533  0.92203844  1
  O  O276  1  0.22086959  0.12466616  0.42648539  1
  O  O277  1  0.23042070  0.14807949  0.92188846  1
  O  O278  1  0.23911918  0.63406791  0.42918927  1
  O  O279  1  0.21510104  0.63389110  0.92338062  1
  O  O280  1  0.57227276  0.11690979  0.41750329  1
  O  O281  1  0.54655561  0.14245522  0.90918273  1
  O  O282  1  0.56038373  0.63328252  0.41477360  1
  O  O283  1  0.57024856  0.62233732  0.91600566  1
  O  O284  1  0.89568456  0.12353841  0.41684077  1
  O  O285  1  0.88455876  0.16340496  0.91470605  1
  O  O286  1  0.88163612  0.64492368  0.41336564  1
  O  O287  1  0.89384115  0.64190817  0.91146972  1
  O  O288  1  0.17100940  0.00765317  0.08657864  1
  O  O289  1  0.17548605  -0.00072201  0.58620845  1
  O  O290  1  0.17784482  0.49428857  0.08720625  1
  O  O291  1  0.17818063  0.50170201  0.58502130  1
  O  O292  1  0.49722273  -0.00110963  0.08350225  1
  O  O293  1  0.48914684  -0.01004235  0.57801212  1
  O  O294  1  0.49762747  0.49936079  0.08787689  1
  O  O295  1  0.49095634  0.51131939  0.57724582  1
  O  O296  1  0.81978298  -0.00823653  0.08020485  1
  O  O297  1  0.84071163  0.01337593  0.57547099  1
  O  O298  1  0.84918376  0.49640508  0.08850642  1
  O  O299  1  0.83648415  0.48739975  0.57610134  1
  O  O300  1  0.01141662  0.25083179  0.08874981  1
  O  O301  1  0.02184320  0.25094075  0.58476302  1
  O  O302  1  0.00923163  0.73787762  0.07495393  1
  O  O303  1  0.02321492  0.74986099  0.58353261  1
  O  O304  1  0.34547291  0.25083810  0.08257459  1
  O  O305  1  0.31630807  0.24919522  0.58571600  1
  O  O306  1  0.33102227  0.73894582  0.07668401  1
  O  O307  1  0.32906269  0.75021106  0.58838670  1
  O  O308  1  0.66050247  0.26524576  0.07596502  1
  O  O309  1  0.67140260  0.25012342  0.58339557  1
  O  O310  1  0.66879042  0.73475783  0.07506516  1
  O  O311  1  0.65650953  0.75082049  0.58285033  1
  O  O312  1  0.15270633  -0.00494448  0.41674903  1
  O  O313  1  0.16772224  -0.01091155  0.92199745  1
  O  O314  1  0.14487013  0.48997550  0.42684950  1
  O  O315  1  0.16408713  0.49873934  0.91473133  1
  O  O316  1  0.49440751  -0.00774449  0.41950148  1
  O  O317  1  0.49322674  0.00477420  0.91130483  1
  O  O318  1  0.49249823  0.50362643  0.41444020  1
  O  O319  1  0.50398841  0.49371340  0.91573917  1
  O  O320  1  0.81165232  0.00029941  0.41595195  1
  O  O321  1  0.85118685  -0.00045208  0.92621387  1
  O  O322  1  0.82834106  0.51121637  0.42255721  1
  O  O323  1  0.82539334  0.51469777  0.92574760  1
  O  O324  1  0.33301629  0.26043862  0.42602968  1
  O  O325  1  0.33707806  0.25363600  0.91523248  1
  O  O326  1  0.32491632  0.75142355  0.41536990  1
  O  O327  1  0.34666370  0.76112547  0.91911825  1
  O  O328  1  0.64052961  0.24647512  0.41772611  1
  O  O329  1  0.65650421  0.24736738  0.91392481  1
  O  O330  1  0.65465249  0.75016470  0.41391993  1
  O  O331  1  0.63766447  0.75079538  0.91297029  1
  O  O332  1  0.99068988  0.24077178  0.41748967  1
  O  O333  1  1.01121450  0.25368913  0.91198447  1
  O  O334  1  0.97834581  0.75680641  0.41567295  1
  O  O335  1  1.01299685  0.74278991  0.91166087  1
  O  O336  1  0.20581338  0.08474577  0.19758929  1
  O  O337  1  0.21005888  0.08328621  0.69519313  1
  O  O338  1  0.20860584  0.57983741  0.19627720  1
  O  O339  1  0.21138353  0.58283436  0.69568222  1
  O  O340  1  0.55374941  0.08648936  0.18634614  1
  O  O341  1  0.54361215  0.08391146  0.69879353  1
  O  O342  1  0.54213773  0.58546164  0.19563826  1
  O  O343  1  0.54184400  0.58643757  0.69284769  1
  O  O344  1  0.88023897  0.08425096  0.20049925  1
  O  O345  1  0.88185736  0.08641147  0.69273985  1
  O  O346  1  0.87613957  0.58078398  0.19790640  1
  O  O347  1  0.87892027  0.58087645  0.69846834  1
  O  O348  1  0.04309079  0.33351568  0.19948350  1
  O  O349  1  0.04529716  0.33336122  0.69489711  1
  O  O350  1  0.04699541  0.83072552  0.19977935  1
  O  O351  1  0.04593431  0.83430436  0.69256883  1
  O  O352  1  0.37451007  0.33432534  0.19604402  1
  O  O353  1  0.37914247  0.32712073  0.69086493  1
  O  O354  1  0.37904487  0.83452635  0.19877897  1
  O  O355  1  0.37483536  0.83360934  0.69674252  1
  O  O356  1  0.70755965  0.33560394  0.19486244  1
  O  O357  1  0.70856047  0.33287506  0.69293965  1
  O  O358  1  0.71106519  0.83059924  0.19916154  1
  O  O359  1  0.70421293  0.83329950  0.69079385  1
  O  O360  1  0.20850721  0.41464018  0.19853545  1
  O  O361  1  0.19974901  0.41878276  0.69399246  1
  O  O362  1  0.20832933  0.91673143  0.19169915  1
  O  O363  1  0.21087788  0.91778048  0.69612692  1
  O  O364  1  0.54252970  0.41627220  0.19779632  1
  O  O365  1  0.54494185  0.41690467  0.69773040  1
  O  O366  1  0.54865544  0.90803589  0.18759017  1
  O  O367  1  0.53865763  0.91519940  0.69276645  1
  O  O368  1  0.87863616  0.41478432  0.19864255  1
  O  O369  1  0.88068087  0.41501975  0.69331681  1
  O  O370  1  0.88111549  0.91880746  0.19106216  1
  O  O371  1  0.87965526  0.91670258  0.69925190  1
  O  O372  1  0.04528880  0.16753526  0.19697832  1
  O  O373  1  0.04497491  0.16939450  0.69490020  1
  O  O374  1  0.04128990  0.66403181  0.19354177  1
  O  O375  1  0.04724040  0.66550714  0.69227488  1
  O  O376  1  0.36891716  0.17388011  0.19346757  1
  O  O377  1  0.37186930  0.16665443  0.69366389  1
  O  O378  1  0.37483196  0.66190779  0.19298648  1
  O  O379  1  0.37807144  0.66949292  0.69727657  1
  O  O380  1  0.71177828  0.16880517  0.19847525  1
  O  O381  1  0.70964938  0.16851034  0.69272078  1
  O  O382  1  0.70788562  0.66182937  0.19278835  1
  O  O383  1  0.70188017  0.66772568  0.69065793  1
  O  O384  1  0.12331857  0.08222158  0.30850147  1
  O  O385  1  0.12222483  0.08434279  0.79976934  1
  O  O386  1  0.11977834  0.58267216  0.30149208  1
  O  O387  1  0.12390675  0.58348703  0.80626980  1
  O  O388  1  0.44902588  0.08206149  0.31455221  1
  O  O389  1  0.45157430  0.08451213  0.80235278  1
  O  O390  1  0.45352882  0.58711737  0.30577633  1
  O  O391  1  0.46100626  0.58269385  0.80800995  1
  O  O392  1  0.79114816  0.08324573  0.30628192  1
  O  O393  1  0.78819032  0.08304344  0.79645165  1
  O  O394  1  0.78794855  0.58350603  0.30571730  1
  O  O395  1  0.78718920  0.58271761  0.80679741  1
  O  O396  1  0.29038513  0.33627486  0.30879355  1
  O  O397  1  0.28696575  0.32863741  0.80521935  1
  O  O398  1  0.28665206  0.83490850  0.30560310  1
  O  O399  1  0.29103162  0.83531245  0.80491649  1
  O  O400  1  0.62347293  0.33354315  0.30958584  1
  O  O401  1  0.62439939  0.33257486  0.80618599  1
  O  O402  1  0.62261488  0.83310860  0.30396386  1
  O  O403  1  0.61975069  0.83449385  0.80492559  1
  O  O404  1  0.95746075  0.32995212  0.30955289  1
  O  O405  1  0.96040959  0.33666901  0.80652666  1
  O  O406  1  0.95815067  0.83451758  0.30404326  1
  O  O407  1  0.96125385  0.82949352  0.80490171  1
  O  O408  1  0.12260194  0.41515847  0.30986090  1
  O  O409  1  0.12630659  0.41618364  0.80564901  1
  O  O410  1  0.12486352  0.91441453  0.30539790  1
  O  O411  1  0.12455100  0.91553512  0.80570144  1
  O  O412  1  0.45441117  0.41862993  0.30555926  1
  O  O413  1  0.46597277  0.41661685  0.80518034  1
  O  O414  1  0.45584901  0.90913609  0.30731190  1
  O  O415  1  0.45447646  0.92045488  0.80226396  1
  O  O416  1  0.78777766  0.41553918  0.30167946  1
  O  O417  1  0.78882084  0.41831813  0.79812563  1
  O  O418  1  0.78988256  0.92067136  0.30299796  1
  O  O419  1  0.78691045  0.91449925  0.79899850  1
  O  O420  1  0.28680196  0.17047069  0.30480139  1
  O  O421  1  0.29025395  0.16874442  0.80614045  1
  O  O422  1  0.28692044  0.66002279  0.30983843  1
  O  O423  1  0.28928110  0.66791535  0.80105280  1
  O  O424  1  0.63319115  0.16638678  0.30825230  1
  O  O425  1  0.62164843  0.16793914  0.80343025  1
  O  O426  1  0.62129047  0.66651753  0.30354360  1
  O  O427  1  0.62300398  0.66722374  0.80417977  1
  O  O428  1  0.95762028  0.16437712  0.30654379  1
  O  O429  1  0.95888946  0.16849845  0.80618559  1
  O  O430  1  0.95569678  0.66743554  0.30712376  1
  O  O431  1  0.96416374  0.66594768  0.80270702  1
  F  F432  1  0.04943021  -0.00004439  0.20484199  1
  F  F433  1  0.04566881  -0.00138544  0.70099593  1
  F  F434  1  0.04266103  0.49548441  0.20430030  1
  F  F435  1  0.04748336  0.50014620  0.70340373  1
  F  F436  1  0.36083889  0.00048799  0.19866890  1
  F  F437  1  0.37452053  0.00061973  0.70035690  1
  F  F438  1  0.36866878  0.49968268  0.20105838  1
  F  F439  1  0.38314628  0.51329914  0.69955167  1
  F  F440  1  0.71483023  0.00121160  0.19882452  1
  F  F441  1  0.70821215  -0.00112432  0.69756335  1
  F  F442  1  0.71086852  0.50047651  0.20185105  1
  F  F443  1  0.71093042  0.50249471  0.69902057  1
  F  F444  1  0.20913210  0.25438348  0.20468028  1
  F  F445  1  0.20990157  0.24938831  0.70159662  1
  F  F446  1  0.20749156  0.74550598  0.20209861  1
  F  F447  1  0.21240845  0.75249427  0.70121608  1
  F  F448  1  0.54769512  0.26172921  0.20130691  1
  F  F449  1  0.54580709  0.25055927  0.70102159  1
  F  F450  1  0.54575466  0.74689569  0.20035216  1
  F  F451  1  0.54320575  0.75088663  0.70331057  1
  F  F452  1  0.88025537  0.25218720  0.20465966  1
  F  F453  1  0.88169823  0.25166785  0.70423709  1
  F  F454  1  0.88030474  0.74174039  0.20063588  1
  F  F455  1  0.88078096  0.75449891  0.69745219  1
  F  F456  1  0.28314179  -0.00990762  0.30574487  1
  F  F457  1  0.28788318  0.00155593  0.79773194  1
  F  F458  1  0.28629956  0.49920237  0.30102714  1
  F  F459  1  0.28498876  0.50854200  0.80349904  1
  F  F460  1  0.63349076  -0.00121396  0.29792603  1
  F  F461  1  0.61927861  -0.00221572  0.79589541  1
  F  F462  1  0.62574586  0.50091122  0.30136279  1
  F  F463  1  0.62305203  0.50394163  0.79608536  1
  F  F464  1  0.95716084  -0.00295505  0.29898489  1
  F  F465  1  0.95722304  0.00102720  0.79781740  1
  F  F466  1  0.95392301  0.49931819  0.30125344  1
  F  F467  1  0.95741580  0.49815878  0.79922624  1
  F  F468  1  0.11987297  0.24963393  0.30169428  1
  F  F469  1  0.12251561  0.25210206  0.79817779  1
  F  F470  1  0.12069910  0.74693140  0.30077954  1
  F  F471  1  0.12094440  0.75016906  0.79487805  1
  F  F472  1  0.45136551  0.26245496  0.30503319  1
  F  F473  1  0.45433769  0.24968583  0.79550128  1
  F  F474  1  0.46254874  0.74835487  0.29996717  1
  F  F475  1  0.45588504  0.75096766  0.79898551  1
  F  F476  1  0.78955441  0.25054418  0.30002136  1
  F  F477  1  0.78797586  0.25185804  0.79553767  1
  F  F478  1  0.78303373  0.74096282  0.30202992  1
  F  F479  1  0.78515646  0.75237473  0.79494386  1
