# generated using pymatgen
data_K24Na3Li5Mg64Fe17Si79(O5F)48
_symmetry_space_group_name_H-M   'P 1'
_cell_length_a   16.09434694
_cell_length_b   18.57477265
_cell_length_c   20.54579037
_cell_angle_alpha   89.99789353
_cell_angle_beta   100.00623431
_cell_angle_gamma   89.99920266
_symmetry_Int_Tables_number   1
_chemical_formula_structural   K24Na3Li5Mg64Fe17Si79(O5F)48
_chemical_formula_sum   'K24 Na3 Li5 Mg64 Fe17 Si79 O240 F48'
_cell_volume   6048.71110174
_cell_formula_units_Z   1
loop_
 _symmetry_equiv_pos_site_id
 _symmetry_equiv_pos_as_xyz
  1  'x, y, z'
loop_
 _atom_site_type_symbol
 _atom_site_label
 _atom_site_symmetry_multiplicity
 _atom_site_fract_x
 _atom_site_fract_y
 _atom_site_fract_z
 _atom_site_occupancy
  K  K0  1  0.00254339  -0.00707807  0.00954728  1
  K  K1  1  0.00285410  -0.00803616  0.49393785  1
  K  K2  1  -0.00303662  0.50731249  0.00351245  1
  K  K3  1  -0.00577073  0.50197507  0.49760287  1
  K  K4  1  0.32901028  -0.00145325  0.01019497  1
  K  K5  1  0.33041033  -0.00188629  0.49210929  1
  K  K6  1  0.34540721  0.49644437  -0.00270355  1
  K  K7  1  0.33959167  0.49815916  0.50482557  1
  K  K8  1  0.66712865  0.00150246  -0.00035124  1
  K  K9  1  0.66049119  0.00447055  0.49940565  1
  K  K10  1  0.66008845  0.49922550  -0.00284011  1
  K  K11  1  0.66185617  0.51144017  0.50809393  1
  K  K12  1  0.18062450  0.24301611  0.00377606  1
  K  K13  1  0.16673920  0.24428632  0.49821604  1
  K  K14  1  0.17507858  0.75718188  0.01302945  1
  K  K15  1  0.16429545  0.75378985  0.49553260  1
  K  K16  1  0.50156518  0.25226496  -0.00780076  1
  K  K17  1  0.50599182  0.25004383  0.51138464  1
  K  K18  1  0.50303130  0.74756675  0.00506145  1
  K  K19  1  0.50298792  0.75030318  0.49943429  1
  K  K20  1  0.82622159  0.25203953  0.00219484  1
  K  K21  1  0.82334771  0.24920918  0.50025162  1
  K  K22  1  0.82883390  0.74969939  0.00167832  1
  K  K23  1  0.82793387  0.74903330  0.49949869  1
  Na  Na24  1  0.83272796  0.50096716  0.24641258  1
  Na  Na25  1  0.16687594  0.83494607  0.24415477  1
  Na  Na26  1  0.66037143  0.08270747  0.74477687  1
  Li  Li27  1  0.17087710  -0.00291931  0.24404886  1
  Li  Li28  1  0.66426029  0.74942214  0.25986163  1
  Li  Li29  1  0.49364322  0.33275321  0.74666768  1
  Li  Li30  1  0.34278622  0.41304550  0.74951102  1
  Li  Li31  1  0.50572566  0.17543241  0.74899086  1
  Mg  Mg32  1  0.33265569  0.75108090  0.24887222  1
  Mg  Mg33  1  0.00232285  0.24937251  0.75016596  1
  Mg  Mg34  1  0.16630239  0.49898198  0.24569973  1
  Mg  Mg35  1  0.16966931  0.49911364  0.75156647  1
  Mg  Mg36  1  0.49710325  0.49534517  0.75218002  1
  Mg  Mg37  1  0.33968982  0.25438580  0.74974742  1
  Mg  Mg38  1  0.50198003  0.50315932  0.25374943  1
  Mg  Mg39  1  0.66861722  0.25024564  0.24756661  1
  Mg  Mg40  1  0.83331323  -0.00002863  0.74837254  1
  Mg  Mg41  1  0.33474572  0.74980231  0.75253111  1
  Mg  Mg42  1  -0.00057480  0.74990114  0.24827066  1
  Mg  Mg43  1  -0.00011613  0.75000363  0.74618059  1
  Mg  Mg44  1  -0.00016169  0.24959322  0.24600383  1
  Mg  Mg45  1  0.66013981  0.24997464  0.74831726  1
  Mg  Mg46  1  0.16883601  -0.00086294  0.74766070  1
  Mg  Mg47  1  0.66702967  0.75065432  0.75111391  1
  Mg  Mg48  1  0.83293771  0.49997717  0.74978239  1
  Mg  Mg49  1  0.33381468  0.24730218  0.24749369  1
  Mg  Mg50  1  0.50074020  -0.00228091  0.25169630  1
  Mg  Mg51  1  0.83301922  -0.00081316  0.25177886  1
  Mg  Mg52  1  0.50254845  0.00257981  0.75145523  1
  Mg  Mg53  1  0.16562130  0.66553825  0.74887110  1
  Mg  Mg54  1  0.83099974  0.83454768  0.74734538  1
  Mg  Mg55  1  0.00143205  0.91637973  0.24752325  1
  Mg  Mg56  1  0.66402454  0.58411829  0.75128488  1
  Mg  Mg57  1  0.83074733  0.16662123  0.74927801  1
  Mg  Mg58  1  0.50242710  0.83584412  0.75290178  1
  Mg  Mg59  1  0.83275204  0.16515428  0.24933353  1
  Mg  Mg60  1  0.00260368  0.08121694  0.24621828  1
  Mg  Mg61  1  0.16561814  0.33210181  0.24581585  1
  Mg  Mg62  1  0.34081431  0.08735208  0.74722622  1
  Mg  Mg63  1  0.50073824  0.83273812  0.25441528  1
  Mg  Mg64  1  0.33274084  0.41537560  0.24817260  1
  Mg  Mg65  1  0.16642943  0.16207768  0.24729147  1
  Mg  Mg66  1  0.16561648  0.66476734  0.24461935  1
  Mg  Mg67  1  0.50229113  0.66845026  0.25220421  1
  Mg  Mg68  1  -0.00278969  0.58322600  0.24510254  1
  Mg  Mg69  1  0.33111459  0.07991060  0.24883584  1
  Mg  Mg70  1  0.66426760  0.91710505  0.74965540  1
  Mg  Mg71  1  0.33152311  0.58431646  0.24843903  1
  Mg  Mg72  1  0.66833459  0.08457269  0.25110004  1
  Mg  Mg73  1  0.33551715  0.91650077  0.74985487  1
  Mg  Mg74  1  0.66872127  0.58746084  0.25349012  1
  Mg  Mg75  1  -0.00226559  0.41653058  0.24540945  1
  Mg  Mg76  1  0.33364168  0.91548081  0.25165993  1
  Mg  Mg77  1  0.83116558  0.33330106  0.74741099  1
  Mg  Mg78  1  0.83081151  0.66438310  0.74799029  1
  Mg  Mg79  1  0.50101768  0.16507659  0.24863783  1
  Mg  Mg80  1  0.17233285  0.33463988  0.75134462  1
  Mg  Mg81  1  0.50225152  0.66519795  0.75626420  1
  Mg  Mg82  1  0.17085748  0.16568131  0.74986462  1
  Mg  Mg83  1  -0.00243906  0.58358564  0.74657170  1
  Mg  Mg84  1  0.83123418  0.83387729  0.25512113  1
  Mg  Mg85  1  0.33552869  0.58063120  0.75659920  1
  Mg  Mg86  1  0.16609546  0.83337675  0.74842974  1
  Mg  Mg87  1  0.66803641  0.91309953  0.25629377  1
  Mg  Mg88  1  0.00018680  0.91455062  0.74600558  1
  Mg  Mg89  1  0.66817736  0.41806170  0.24853633  1
  Mg  Mg90  1  0.66141943  0.41377187  0.75185362  1
  Mg  Mg91  1  0.50125817  0.33496008  0.25034736  1
  Mg  Mg92  1  0.00037691  0.08365756  0.74965796  1
  Mg  Mg93  1  0.83209824  0.33436995  0.24465029  1
  Mg  Mg94  1  0.00062088  0.41534794  0.74832748  1
  Mg  Mg95  1  0.83076061  0.66791279  0.25231314  1
  Fe  Fe96  1  0.64445661  0.67042120  0.89396375  1
  Fe  Fe97  1  0.69017513  0.16390262  0.10986257  1
  Fe  Fe98  1  0.35978718  0.82855891  0.10965780  1
  Fe  Fe99  1  0.18981414  0.57640464  0.10669313  1
  Fe  Fe100  1  0.47639524  0.41228871  0.89116816  1
  Fe  Fe101  1  0.47009656  0.91626140  0.39242774  1
  Fe  Fe102  1  0.64571316  0.66303733  0.39444920  1
  Fe  Fe103  1  0.51014653  0.09032783  0.60867225  1
  Fe  Fe104  1  0.80810556  0.92091425  0.39464181  1
  Fe  Fe105  1  0.69394443  0.83880316  0.61069532  1
  Fe  Fe106  1  0.02847461  0.83440182  0.60797931  1
  Fe  Fe107  1  0.18922899  0.91866722  0.10407677  1
  Fe  Fe108  1  0.85660970  0.41841311  0.10534580  1
  Fe  Fe109  1  0.51947506  0.91965153  0.60997882  1
  Fe  Fe110  1  0.52049794  0.41405269  0.61079538  1
  Fe  Fe111  1  0.19149830  0.08828154  0.10722711  1
  Fe  Fe112  1  0.85708965  0.57970716  0.60875915  1
  Si  Si113  1  0.14102475  0.41745258  0.88562623  1
  Si  Si114  1  0.52676936  0.42357944  0.11685006  1
  Si  Si115  1  0.81462187  0.08471144  0.88574786  1
  Si  Si116  1  0.30578885  0.16634315  0.38460487  1
  Si  Si117  1  0.81217095  0.09116103  0.38970644  1
  Si  Si118  1  0.86467360  0.92224199  0.61180546  1
  Si  Si119  1  0.30279058  0.66614529  0.38536783  1
  Si  Si120  1  0.30845602  0.16355189  0.88550050  1
  Si  Si121  1  0.97438574  0.66643663  0.88410030  1
  Si  Si122  1  0.30600203  0.33119178  0.38378531  1
  Si  Si123  1  0.85979386  0.40912031  0.61177798  1
  Si  Si124  1  0.47412428  0.92011723  0.88874947  1
  Si  Si125  1  0.36117966  0.65850928  0.11209047  1
  Si  Si126  1  0.01986461  0.66678152  0.10869010  1
  Si  Si127  1  0.85702460  0.08705853  0.61428278  1
  Si  Si128  1  0.86212960  0.08227333  0.11279747  1
  Si  Si129  1  0.02266527  0.16920376  0.11170066  1
  Si  Si130  1  0.13960111  0.91536054  0.88376623  1
  Si  Si131  1  0.64480080  0.84067390  0.89155030  1
  Si  Si132  1  0.18962513  0.40566873  0.11032797  1
  Si  Si133  1  0.47646137  0.08492712  0.88672305  1
  Si  Si134  1  0.81244557  0.92051978  0.88671019  1
  Si  Si135  1  0.20120861  0.91511997  0.61233115  1
  Si  Si136  1  0.85325814  0.59082574  0.11108847  1
  Si  Si137  1  0.01596160  0.83073516  0.11095024  1
  Si  Si138  1  0.47225166  0.41485680  0.38572249  1
  Si  Si139  1  0.68531630  0.66766764  0.61323167  1
  Si  Si140  1  0.97462109  0.83021393  0.38734116  1
  Si  Si141  1  0.02397049  0.33124162  0.11103177  1
  Si  Si142  1  0.36443759  0.33552450  0.11427456  1
  Si  Si143  1  0.64170526  0.17266902  0.38575943  1
  Si  Si144  1  0.81249676  0.57975329  0.38863494  1
  Si  Si145  1  0.97633244  0.66415320  0.38382617  1
  Si  Si146  1  0.64302917  0.33826834  0.38549618  1
  Si  Si147  1  0.35703913  0.66616938  0.62017625  1
  Si  Si148  1  0.14163671  0.41692074  0.38215119  1
  Si  Si149  1  0.02633614  0.16398244  0.61436028  1
  Si  Si150  1  0.69302501  0.83782595  0.11880411  1
  Si  Si151  1  0.85704274  0.91619018  0.11502785  1
  Si  Si152  1  0.19482930  0.58357238  0.61667599  1
  Si  Si153  1  0.81297877  0.41353595  0.88514739  1
  Si  Si154  1  0.18827488  0.41994159  0.61512150  1
  Si  Si155  1  0.13952616  0.08162092  0.38407745  1
  Si  Si156  1  0.36767906  0.16925415  0.11154132  1
  Si  Si157  1  0.81111196  0.57974617  0.88820650  1
  Si  Si158  1  0.69319603  0.33211745  0.61220344  1
  Si  Si159  1  0.30370357  0.32859185  0.88880393  1
  Si  Si160  1  0.97898198  0.16729402  0.88580934  1
  Si  Si161  1  0.02926286  0.33055798  0.61431854  1
  Si  Si162  1  0.13924956  0.58415194  0.88432140  1
  Si  Si163  1  0.97817626  0.33270483  0.88452290  1
  Si  Si164  1  0.81121595  0.41273526  0.38368717  1
  Si  Si165  1  0.69228274  0.16861083  0.61272393  1
  Si  Si166  1  0.97827934  0.16924305  0.38430093  1
  Si  Si167  1  0.64586020  0.16584042  0.88541448  1
  Si  Si168  1  0.52846102  0.91350847  0.11608920  1
  Si  Si169  1  0.52661666  0.07684015  0.11461228  1
  Si  Si170  1  0.69376780  0.67350600  0.11844699  1
  Si  Si171  1  0.64004947  0.83413453  0.39255008  1
  Si  Si172  1  0.30314763  0.66908604  0.88685207  1
  Si  Si173  1  0.68444024  0.33276621  0.10981137  1
  Si  Si174  1  0.46837856  0.58182722  0.38955622  1
  Si  Si175  1  0.65062393  0.32954055  0.89049324  1
  Si  Si176  1  0.19142179  0.08126585  0.61293596  1
  Si  Si177  1  0.13500770  0.91709272  0.38266533  1
  Si  Si178  1  0.53191894  0.58767181  0.11782735  1
  Si  Si179  1  0.36155763  0.82756419  0.61691843  1
  Si  Si180  1  0.47106686  0.58626248  0.89389694  1
  Si  Si181  1  0.30236087  0.83202449  0.38880574  1
  Si  Si182  1  0.47649733  0.08928692  0.38713006  1
  Si  Si183  1  0.13911473  0.58138595  0.38197378  1
  Si  Si184  1  0.34481814  0.17537919  0.60960548  1
  Si  Si185  1  0.30818363  0.83545021  0.88619902  1
  Si  Si186  1  0.97791490  0.33269827  0.38347536  1
  Si  Si187  1  0.02835403  0.66335306  0.60987298  1
  Si  Si188  1  0.97332011  0.83215816  0.88452882  1
  Si  Si189  1  0.14240060  0.08073243  0.88430860  1
  Si  Si190  1  0.51918534  0.58463447  0.61673645  1
  Si  Si191  1  0.34730264  0.33514354  0.61134393  1
  O  O192  1  0.28408771  0.13080669  0.07327442  1
  O  O193  1  0.26315277  0.12139720  0.57917960  1
  O  O194  1  0.29358820  0.59642865  0.08089264  1
  O  O195  1  0.28094884  0.60896882  0.58988651  1
  O  O196  1  0.60625227  0.09574450  0.07941333  1
  O  O197  1  0.61449478  0.11843583  0.58086114  1
  O  O198  1  0.61285865  0.62091088  0.08859718  1
  O  O199  1  0.60385109  0.61276609  0.58993856  1
  O  O200  1  0.94822164  0.10926823  0.08600862  1
  O  O201  1  0.93887845  0.12106353  0.58506817  1
  O  O202  1  0.93566086  0.61802790  0.07889911  1
  O  O203  1  0.95951812  0.60268867  0.58058808  1
  O  O204  1  0.11666858  0.34343334  0.08729598  1
  O  O205  1  0.10530435  0.36961826  0.58334865  1
  O  O206  1  0.09237029  0.85809967  0.07640916  1
  O  O207  1  0.12662863  0.86378344  0.57614870  1
  O  O208  1  0.43890916  0.38053248  0.08679061  1
  O  O209  1  0.42426057  0.35802656  0.57395430  1
  O  O210  1  0.46026132  0.85673182  0.07994194  1
  O  O211  1  0.44430860  0.84006919  0.58542630  1
  O  O212  1  0.76365913  0.35704895  0.07579016  1
  O  O213  1  0.78327279  0.35194157  0.58694168  1
  O  O214  1  0.77342772  0.86742521  0.08555025  1
  O  O215  1  0.79573770  0.86336163  0.58065846  1
  O  O216  1  0.27460478  0.37428799  0.08383811  1
  O  O217  1  0.26733872  0.39136312  0.58222952  1
  O  O218  1  0.27347867  0.88197067  0.06153038  1
  O  O219  1  0.28848466  0.88793376  0.58854294  1
  O  O220  1  0.60543542  0.39047781  0.08671730  1
  O  O221  1  0.61854204  0.38406936  0.57637607  1
  O  O222  1  0.61699219  0.89387359  0.08810749  1
  O  O223  1  0.61712017  0.90745804  0.57589528  1
  O  O224  1  0.95753967  0.38970777  0.07457873  1
  O  O225  1  0.94213210  0.37297991  0.58430405  1
  O  O226  1  0.93231782  0.88116575  0.08075104  1
  O  O227  1  0.95242394  0.91005911  0.58407073  1
  O  O228  1  0.10231061  0.15470259  0.07635396  1
  O  O229  1  0.10161860  0.12341914  0.58403088  1
  O  O230  1  0.09765426  0.63878598  0.07432409  1
  O  O231  1  0.11953567  0.63953047  0.58663499  1
  O  O232  1  0.44979273  0.13333849  0.08592559  1
  O  O233  1  0.42279582  0.15682884  0.57308207  1
  O  O234  1  0.45128043  0.63691533  0.08660327  1
  O  O235  1  0.44140255  0.64338819  0.59075152  1
  O  O236  1  0.78686452  0.13355357  0.07659831  1
  O  O237  1  0.77867437  0.14021642  0.58448735  1
  O  O238  1  0.77508571  0.64837937  0.08499908  1
  O  O239  1  0.76333725  0.63783737  0.57958096  1
  O  O240  1  0.06221236  0.12115857  0.41617920  1
  O  O241  1  0.06726967  0.12374879  0.91368102  1
  O  O242  1  0.06101481  0.61572922  0.41335798  1
  O  O243  1  0.06081596  0.62118948  0.91373399  1
  O  O244  1  0.39654383  0.12976871  0.41445394  1
  O  O245  1  0.40112495  0.12884940  0.91687943  1
  O  O246  1  0.38589189  0.61766172  0.41633147  1
  O  O247  1  0.38643976  0.62372091  0.91847184  1
  O  O248  1  0.73067333  0.13113739  0.41564233  1
  O  O249  1  0.73303127  0.11791539  0.91397827  1
  O  O250  1  0.73991201  0.60326220  0.42907435  1
  O  O251  1  0.73939975  0.61140467  0.92598847  1
  O  O252  1  0.22957332  0.37354475  0.41248463  1
  O  O253  1  0.22379228  0.36998455  0.91643000  1
  O  O254  1  0.21655429  0.86639749  0.41228022  1
  O  O255  1  0.22903508  0.87512226  0.91301853  1
  O  O256  1  0.56363575  0.37596070  0.41411847  1
  O  O257  1  0.57902691  0.36507304  0.92641289  1
  O  O258  1  0.55378585  0.84925172  0.42221700  1
  O  O259  1  0.56471826  0.88124366  0.91874063  1
  O  O260  1  0.89629866  0.36360212  0.41363568  1
  O  O261  1  0.89884463  0.36664471  0.91360390  1
  O  O262  1  0.90014248  0.85822450  0.42439884  1
  O  O263  1  0.89745775  0.87172255  0.91629497  1
  O  O264  1  0.06293581  0.38069825  0.41285107  1
  O  O265  1  0.06110019  0.38154667  0.91448765  1
  O  O266  1  0.05864248  0.88014936  0.41592118  1
  O  O267  1  0.06301551  0.87404061  0.91258869  1
  O  O268  1  0.39702998  0.36939522  0.41327316  1
  O  O269  1  0.38879576  0.36483206  0.92735938  1
  O  O270  1  0.37904447  0.87862498  0.42896099  1
  O  O271  1  0.39631630  0.87768697  0.91688682  1
  O  O272  1  0.73109902  0.38091875  0.41668187  1
  O  O273  1  0.73992565  0.37494870  0.91886614  1
  O  O274  1  0.70867126  0.89636726  0.42279934  1
  O  O275  1  0.73056324  0.89126115  0.91667319  1
  O  O276  1  0.22860309  0.12515747  0.41365910  1
  O  O277  1  0.23442312  0.11643042  0.91368176  1
  O  O278  1  0.22387921  0.62668751  0.41361910  1
  O  O279  1  0.22279167  0.63195881  0.91432176  1
  O  O280  1  0.56115634  0.14013690  0.41479074  1
  O  O281  1  0.56740198  0.12529063  0.91525221  1
  O  O282  1  0.55154254  0.62146711  0.42729797  1
  O  O283  1  0.54987026  0.63674593  0.92667016  1
  O  O284  1  0.89474612  0.14515875  0.41479118  1
  O  O285  1  0.90065962  0.13198859  0.91696091  1
  O  O286  1  0.90071897  0.62606553  0.41596473  1
  O  O287  1  0.89939819  0.62587450  0.91434824  1
  O  O288  1  0.16095786  0.00573628  0.05987308  1
  O  O289  1  0.18215175  -0.00133772  0.58470572  1
  O  O290  1  0.16049328  0.48108439  0.07488860  1
  O  O291  1  0.16847180  0.50276964  0.58640071  1
  O  O292  1  0.49669200  -0.00488528  0.08952417  1
  O  O293  1  0.46871332  0.00309219  0.57396343  1
  O  O294  1  0.51412531  0.50565696  0.08778844  1
  O  O295  1  0.49158123  0.50941255  0.57968347  1
  O  O296  1  0.84295681  -0.00124362  0.08527202  1
  O  O297  1  0.83483499  0.00587495  0.58720755  1
  O  O298  1  0.82482791  0.51337134  0.07835651  1
  O  O299  1  0.83742749  0.48483529  0.57511077  1
  O  O300  1  -0.01339682  0.25050879  0.08755701  1
  O  O301  1  0.02063207  0.24716706  0.58536030  1
  O  O302  1  -0.00906395  0.74856784  0.08266508  1
  O  O303  1  0.00108253  0.74071213  0.57637664  1
  O  O304  1  0.36551293  0.25415467  0.08470228  1
  O  O305  1  0.30883105  0.25584776  0.58263279  1
  O  O306  1  0.33234947  0.73448899  0.07718007  1
  O  O307  1  0.32334896  0.74615073  0.59304787  1
  O  O308  1  0.64943439  0.25511235  0.08061319  1
  O  O309  1  0.67469458  0.25042631  0.58112261  1
  O  O310  1  0.67020818  0.75569046  0.08978554  1
  O  O311  1  0.65577623  0.74570966  0.58330321  1
  O  O312  1  0.14944925  -0.00006933  0.41582396  1
  O  O313  1  0.14347805  -0.00196918  0.91185938  1
  O  O314  1  0.15331634  0.49871804  0.41218426  1
  O  O315  1  0.15182233  0.50109962  0.91291334  1
  O  O316  1  0.49305412  0.01243499  0.42224773  1
  O  O317  1  0.48035787  0.00258637  0.91945541  1
  O  O318  1  0.47084743  0.49606744  0.41565151  1
  O  O319  1  0.48075008  0.50712368  0.92732867  1
  O  O320  1  0.83462822  0.01629954  0.42753585  1
  O  O321  1  0.83166424  0.00257952  0.91681959  1
  O  O322  1  0.83677058  0.49406511  0.41009345  1
  O  O323  1  0.83190753  0.49563536  0.91371465  1
  O  O324  1  0.30697326  0.24947067  0.41418626  1
  O  O325  1  0.30183048  0.24409112  0.91686161  1
  O  O326  1  0.30884186  0.74700230  0.41767158  1
  O  O327  1  0.31326362  0.75254810  0.91483223  1
  O  O328  1  0.65442087  0.25579403  0.41496379  1
  O  O329  1  0.66449830  0.24569363  0.92085203  1
  O  O330  1  0.67663266  0.75625672  0.42232293  1
  O  O331  1  0.66374363  0.76482239  0.92986640  1
  O  O332  1  0.99963018  0.25147260  0.41394161  1
  O  O333  1  0.99372988  0.25026844  0.91371056  1
  O  O334  1  0.99664360  0.74580091  0.41269926  1
  O  O335  1  0.98290087  0.74930979  0.91371679  1
  O  O336  1  0.21397670  0.08754333  0.19837661  1
  O  O337  1  0.20860752  0.08295094  0.69347561  1
  O  O338  1  0.21116776  0.57900264  0.19866989  1
  O  O339  1  0.21040576  0.58302563  0.69714560  1
  O  O340  1  0.54537734  0.08318430  0.19574584  1
  O  O341  1  0.52545240  0.08570561  0.69709837  1
  O  O342  1  0.54388575  0.58333645  0.19784094  1
  O  O343  1  0.53797977  0.58290842  0.69776064  1
  O  O344  1  0.87644169  0.08373221  0.19397930  1
  O  O345  1  0.87934986  0.08666995  0.69499576  1
  O  O346  1  0.87838273  0.59314369  0.19096686  1
  O  O347  1  0.87761416  0.58116659  0.70114565  1
  O  O348  1  0.04385203  0.33276340  0.19262902  1
  O  O349  1  0.04596273  0.33130071  0.69483201  1
  O  O350  1  0.02933516  0.83167930  0.19074981  1
  O  O351  1  0.04679378  0.83224299  0.70045368  1
  O  O352  1  0.37864230  0.33413015  0.19505154  1
  O  O353  1  0.36618159  0.33414496  0.69049209  1
  O  O354  1  0.37867044  0.83158654  0.20127151  1
  O  O355  1  0.37649183  0.83133433  0.69830887  1
  O  O356  1  0.70628999  0.33369619  0.19184165  1
  O  O357  1  0.71082902  0.33442369  0.69325169  1
  O  O358  1  0.71313382  0.83764974  0.19803025  1
  O  O359  1  0.71154659  0.83352407  0.70394019  1
  O  O360  1  0.21070811  0.41198812  0.19175289  1
  O  O361  1  0.20197134  0.41780350  0.69463008  1
  O  O362  1  0.22135937  0.92501400  0.19301013  1
  O  O363  1  0.21184546  0.91584129  0.69364162  1
  O  O364  1  0.54186437  0.41864924  0.19731578  1
  O  O365  1  0.54588247  0.41860011  0.70054540  1
  O  O366  1  0.54774182  0.91578033  0.19677465  1
  O  O367  1  0.54235889  0.91698807  0.70330673  1
  O  O368  1  0.88228037  0.40846448  0.19535834  1
  O  O369  1  0.87959546  0.41369610  0.69311888  1
  O  O370  1  0.87610744  0.91709095  0.19510765  1
  O  O371  1  0.88009522  0.91934073  0.69393555  1
  O  O372  1  0.04249029  0.16734559  0.19309103  1
  O  O373  1  0.04500940  0.16555227  0.69488883  1
  O  O374  1  0.04111610  0.66451625  0.18975940  1
  O  O375  1  0.04473027  0.66541495  0.69211023  1
  O  O376  1  0.38005559  0.16873679  0.19278423  1
  O  O377  1  0.36050957  0.17011800  0.68935047  1
  O  O378  1  0.37845130  0.66146629  0.19380028  1
  O  O379  1  0.37529918  0.66543335  0.70080167  1
  O  O380  1  0.71239419  0.16637486  0.20188187  1
  O  O381  1  0.71637919  0.17457176  0.69227427  1
  O  O382  1  0.71309256  0.66661882  0.19746973  1
  O  O383  1  0.70937248  0.66550476  0.69499355  1
  O  O384  1  0.11880412  0.08786377  0.30512765  1
  O  O385  1  0.12413337  0.08322891  0.80372419  1
  O  O386  1  0.12201462  0.58039648  0.30206181  1
  O  O387  1  0.12078193  0.58384553  0.80383505  1
  O  O388  1  0.45840675  0.08840002  0.30610232  1
  O  O389  1  0.45298042  0.07950951  0.80805085  1
  O  O390  1  0.45322554  0.58118187  0.30848564  1
  O  O391  1  0.45553236  0.58574770  0.81236998  1
  O  O392  1  0.79357206  0.08618225  0.30901737  1
  O  O393  1  0.80386759  0.08352949  0.80656600  1
  O  O394  1  0.78820970  0.58849900  0.30939693  1
  O  O395  1  0.79041689  0.58207080  0.80749039  1
  O  O396  1  0.28957671  0.33210217  0.30333300  1
  O  O397  1  0.28612885  0.32837210  0.80884983  1
  O  O398  1  0.29687363  0.83013843  0.30988317  1
  O  O399  1  0.28990690  0.83474161  0.80559384  1
  O  O400  1  0.62362452  0.33553154  0.30507544  1
  O  O401  1  0.63787840  0.33167888  0.81096439  1
  O  O402  1  0.62189203  0.83660046  0.31112355  1
  O  O403  1  0.62470928  0.83346410  0.81149834  1
  O  O404  1  0.96023507  0.33157251  0.30370984  1
  O  O405  1  0.96024008  0.33251668  0.80390170  1
  O  O406  1  0.95709739  0.83297278  0.30655686  1
  O  O407  1  0.95508409  0.83342057  0.80435714  1
  O  O408  1  0.12479311  0.41429858  0.30194458  1
  O  O409  1  0.12265268  0.41584206  0.80511358  1
  O  O410  1  0.11450195  0.92288778  0.30442068  1
  O  O411  1  0.12407128  0.91680485  0.80344948  1
  O  O412  1  0.45565764  0.41488177  0.30530115  1
  O  O413  1  0.45446328  0.41663101  0.80316616  1
  O  O414  1  0.45619834  0.91878617  0.30100324  1
  O  O415  1  0.45380657  0.91719000  0.80871782  1
  O  O416  1  0.78623494  0.40670912  0.30484325  1
  O  O417  1  0.79428613  0.41470210  0.80456887  1
  O  O418  1  0.79094945  0.91954170  0.30289125  1
  O  O419  1  0.79647989  0.91862365  0.80697292  1
  O  O420  1  0.29007845  0.16865634  0.30454052  1
  O  O421  1  0.29004838  0.16392430  0.80525573  1
  O  O422  1  0.28852305  0.66509224  0.30525980  1
  O  O423  1  0.28684761  0.66830749  0.80636599  1
  O  O424  1  0.62338760  0.17048465  0.30547630  1
  O  O425  1  0.62720176  0.17297160  0.80748824  1
  O  O426  1  0.61901151  0.66122351  0.30432267  1
  O  O427  1  0.62427855  0.66723581  0.80222346  1
  O  O428  1  0.95904285  0.16744733  0.30406795  1
  O  O429  1  0.96048392  0.16677593  0.80523760  1
  O  O430  1  0.95735833  0.66386576  0.30361530  1
  O  O431  1  0.95883991  0.66727055  0.80385158  1
  F  F432  1  0.03485989  -0.00007531  0.19537612  1
  F  F433  1  0.04769490  0.00206640  0.70141161  1
  F  F434  1  0.04623310  0.49873108  0.19768628  1
  F  F435  1  0.04668544  0.49851495  0.70238008  1
  F  F436  1  0.38371238  0.00536717  0.20027464  1
  F  F437  1  0.37542779  -0.00106739  0.70338467  1
  F  F438  1  0.38081847  0.49783821  0.20416593  1
  F  F439  1  0.37660099  0.50597392  0.70401575  1
  F  F440  1  0.71280474  0.00299138  0.20386812  1
  F  F441  1  0.71884933  -0.00789099  0.70091476  1
  F  F442  1  0.69712267  0.50221407  0.20049812  1
  F  F443  1  0.71224043  0.49906862  0.70515851  1
  F  F444  1  0.21390865  0.24992792  0.20112462  1
  F  F445  1  0.20797584  0.24989310  0.70267605  1
  F  F446  1  0.21683497  0.73886311  0.19632814  1
  F  F447  1  0.21298556  0.74954100  0.70381887  1
  F  F448  1  0.54493526  0.25198334  0.20316113  1
  F  F449  1  0.54779060  0.25445412  0.69773681  1
  F  F450  1  0.54144621  0.75095130  0.20452201  1
  F  F451  1  0.54271872  0.75040679  0.70725037  1
  F  F452  1  0.87845811  0.24760197  0.20187585  1
  F  F453  1  0.88365410  0.24980795  0.70180910  1
  F  F454  1  0.87686080  0.75155163  0.20407016  1
  F  F455  1  0.87875756  0.74916415  0.70220473  1
  F  F456  1  0.29996558  0.00157797  0.30458716  1
  F  F457  1  0.28633466  0.00024191  0.79732354  1
  F  F458  1  0.28747451  0.49453807  0.29865534  1
  F  F459  1  0.28134787  0.50689671  0.80576299  1
  F  F460  1  0.62269523  0.00373534  0.29952750  1
  F  F461  1  0.62062631  -0.00773787  0.80653968  1
  F  F462  1  0.62077384  0.49641309  0.30255008  1
  F  F463  1  0.62334626  0.50122817  0.80146219  1
  F  F464  1  0.95437394  0.00240624  0.29741818  1
  F  F465  1  0.95870895  -0.00024281  0.79709264  1
  F  F466  1  0.96972962  0.49946316  0.29971886  1
  F  F467  1  0.95772701  0.49673932  0.79881610  1
  F  F468  1  0.12209593  0.25017226  0.29587499  1
  F  F469  1  0.12143638  0.24838949  0.79887891  1
  F  F470  1  0.11607325  0.73832975  0.29715181  1
  F  F471  1  0.12220722  0.74780440  0.79926618  1
  F  F472  1  0.45456579  0.25130375  0.29765995  1
  F  F473  1  0.45118972  0.24814342  0.80006382  1
  F  F474  1  0.45201158  0.74484195  0.30134280  1
  F  F475  1  0.45375017  0.75140255  0.80272616  1
  F  F476  1  0.79046262  0.25215827  0.29828038  1
  F  F477  1  0.79431135  0.25096019  0.79799711  1
  F  F478  1  0.79659696  0.75022046  0.30394947  1
  F  F479  1  0.79302525  0.74778320  0.80017973  1
