# generated using pymatgen
data_K24Na3Li5Mg64Fe17Si79(O5F)48
_symmetry_space_group_name_H-M   'P 1'
_cell_length_a   16.09832955
_cell_length_b   18.59359705
_cell_length_c   20.57640291
_cell_angle_alpha   89.96843770
_cell_angle_beta   100.00506109
_cell_angle_gamma   90.02586069
_symmetry_Int_Tables_number   1
_chemical_formula_structural   K24Na3Li5Mg64Fe17Si79(O5F)48
_chemical_formula_sum   'K24 Na3 Li5 Mg64 Fe17 Si79 O240 F48'
_cell_volume   6065.38373882
_cell_formula_units_Z   1
loop_
 _symmetry_equiv_pos_site_id
 _symmetry_equiv_pos_as_xyz
  1  'x, y, z'
loop_
 _atom_site_type_symbol
 _atom_site_label
 _atom_site_symmetry_multiplicity
 _atom_site_fract_x
 _atom_site_fract_y
 _atom_site_fract_z
 _atom_site_occupancy
  K  K0  1  0.00026749  -0.00019376  0.00056613  1
  K  K1  1  0.00812341  -0.01095296  0.50404239  1
  K  K2  1  -0.00296231  0.50253141  -0.00500471  1
  K  K3  1  -0.00127829  0.51178752  0.50914164  1
  K  K4  1  0.33593308  -0.00419517  -0.00208086  1
  K  K5  1  0.33717628  -0.01922903  0.50541519  1
  K  K6  1  0.34353947  0.49264946  -0.00866117  1
  K  K7  1  0.33642258  0.50585201  0.51194651  1
  K  K8  1  0.66188362  -0.00377634  -0.00603645  1
  K  K9  1  0.65993182  -0.00720769  0.50523167  1
  K  K10  1  0.66128457  0.49848719  -0.01089934  1
  K  K11  1  0.67097051  0.51157951  0.51785055  1
  K  K12  1  0.17197196  0.24618115  0.00047513  1
  K  K13  1  0.17487003  0.24766880  0.50762749  1
  K  K14  1  0.16493248  0.75233181  -0.00758350  1
  K  K15  1  0.17644024  0.76552228  0.51562685  1
  K  K16  1  0.48148967  0.24970220  -0.00456564  1
  K  K17  1  0.49774669  0.24821975  0.50705099  1
  K  K18  1  0.48835938  0.75261986  -0.00947646  1
  K  K19  1  0.48607718  0.75716901  0.51130572  1
  K  K20  1  0.83195668  0.24936372  -0.00622825  1
  K  K21  1  0.83279699  0.24969603  0.50503741  1
  K  K22  1  0.83769511  0.74229537  -0.00507756  1
  K  K23  1  0.84885204  0.75149926  0.51664910  1
  Na  Na24  1  0.49485769  -0.00163606  0.25106311  1
  Na  Na25  1  0.16626879  0.82903575  0.74996235  1
  Na  Na26  1  0.66576243  0.42321713  0.75109572  1
  Li  Li27  1  0.33807019  0.25136335  0.75167825  1
  Li  Li28  1  0.50594076  0.50245981  0.75630158  1
  Li  Li29  1  0.00546043  0.91333277  0.24665361  1
  Li  Li30  1  0.33374544  0.91480196  0.25361168  1
  Li  Li31  1  0.16695592  0.67020485  0.74518756  1
  Mg  Mg32  1  0.66636518  0.24820848  0.25044625  1
  Mg  Mg33  1  0.83559178  0.49920093  0.24635237  1
  Mg  Mg34  1  0.16623493  0.49997055  0.74652044  1
  Mg  Mg35  1  0.00112589  0.74892168  0.74810331  1
  Mg  Mg36  1  0.33411236  0.75283727  0.25555132  1
  Mg  Mg37  1  0.00221459  0.75234088  0.24880110  1
  Mg  Mg38  1  0.66328892  0.74960711  0.75073244  1
  Mg  Mg39  1  0.16734801  0.50034414  0.25003452  1
  Mg  Mg40  1  0.33587520  0.24890073  0.24761883  1
  Mg  Mg41  1  0.50247456  0.49936539  0.24892179  1
  Mg  Mg42  1  0.66527658  0.25139102  0.75079189  1
  Mg  Mg43  1  0.82999106  0.00007746  0.75025149  1
  Mg  Mg44  1  0.16870785  -0.00447206  0.25021749  1
  Mg  Mg45  1  0.33035845  0.74732845  0.75298595  1
  Mg  Mg46  1  -0.00037769  0.24911839  0.74747249  1
  Mg  Mg47  1  0.16535568  -0.00011009  0.74729914  1
  Mg  Mg48  1  0.83105814  0.50312824  0.74673080  1
  Mg  Mg49  1  0.49608855  0.00091799  0.75377406  1
  Mg  Mg50  1  0.83690771  -0.00045899  0.25152985  1
  Mg  Mg51  1  0.66879425  0.75287835  0.25091902  1
  Mg  Mg52  1  0.00110645  0.24965466  0.24839384  1
  Mg  Mg53  1  -0.00234335  0.41517704  0.24642082  1
  Mg  Mg54  1  0.16959693  0.16835185  0.74885456  1
  Mg  Mg55  1  0.83290799  0.33400829  0.24752143  1
  Mg  Mg56  1  0.50132158  0.66654205  0.25253412  1
  Mg  Mg57  1  0.33917813  0.41679136  0.74915188  1
  Mg  Mg58  1  0.17027685  0.33242764  0.74658455  1
  Mg  Mg59  1  0.00121826  0.08125314  0.25194948  1
  Mg  Mg60  1  0.83475618  0.66643573  0.24700034  1
  Mg  Mg61  1  0.33277533  0.08066329  0.24899948  1
  Mg  Mg62  1  0.83225155  0.16548366  0.75021522  1
  Mg  Mg63  1  0.66588925  0.08528820  0.75335175  1
  Mg  Mg64  1  0.33459251  0.58414947  0.25269096  1
  Mg  Mg65  1  0.66687179  0.91746029  0.25368725  1
  Mg  Mg66  1  -0.00100880  0.41651737  0.74441547  1
  Mg  Mg67  1  0.16655072  0.66687315  0.25207514  1
  Mg  Mg68  1  0.83783848  0.83660968  0.24841854  1
  Mg  Mg69  1  0.66489496  0.08207547  0.25219261  1
  Mg  Mg70  1  0.16732015  0.33410441  0.24676955  1
  Mg  Mg71  1  0.16778568  0.83553389  0.25319471  1
  Mg  Mg72  1  0.66764365  0.41514074  0.24774269  1
  Mg  Mg73  1  0.49592084  0.16441046  0.24859166  1
  Mg  Mg74  1  0.33316380  0.58158629  0.74866493  1
  Mg  Mg75  1  0.66503292  0.91662943  0.75378285  1
  Mg  Mg76  1  0.33400963  0.41482364  0.24778823  1
  Mg  Mg77  1  0.33217477  0.91454505  0.75361255  1
  Mg  Mg78  1  0.00046511  0.08296148  0.74954304  1
  Mg  Mg79  1  0.83347930  0.16569601  0.25186970  1
  Mg  Mg80  1  0.50051705  0.33627217  0.75001326  1
  Mg  Mg81  1  0.50004478  0.66223529  0.75054224  1
  Mg  Mg82  1  0.66889461  0.58579875  0.24934688  1
  Mg  Mg83  1  0.49812495  0.33347076  0.24731105  1
  Mg  Mg84  1  0.49813586  0.16867795  0.75480887  1
  Mg  Mg85  1  0.66477600  0.58425954  0.74978408  1
  Mg  Mg86  1  -0.00264017  0.58381551  0.24693933  1
  Mg  Mg87  1  0.83202115  0.33470810  0.74622480  1
  Mg  Mg88  1  0.33536486  0.08697923  0.75117670  1
  Mg  Mg89  1  -0.00045467  0.91406295  0.74892440  1
  Mg  Mg90  1  0.16814078  0.16405409  0.24913443  1
  Mg  Mg91  1  0.83399553  0.83340508  0.74894534  1
  Mg  Mg92  1  0.49675095  0.83354422  0.75575096  1
  Mg  Mg93  1  0.49865832  0.83526696  0.25624911  1
  Mg  Mg94  1  0.00021423  0.58670975  0.74483101  1
  Mg  Mg95  1  0.83204996  0.66448313  0.74827775  1
  Fe  Fe96  1  0.80816077  0.08386870  0.88999744  1
  Fe  Fe97  1  0.85371336  0.58489445  0.60559396  1
  Fe  Fe98  1  0.47447951  0.91361624  0.89548049  1
  Fe  Fe99  1  0.97271467  0.83216452  0.88924529  1
  Fe  Fe100  1  0.64313299  0.66776774  0.89122861  1
  Fe  Fe101  1  0.85400048  0.40897918  0.10652082  1
  Fe  Fe102  1  0.47021167  0.08730831  0.89390597  1
  Fe  Fe103  1  0.35789403  0.33846140  0.10751773  1
  Fe  Fe104  1  0.81051699  0.57864729  0.88934876  1
  Fe  Fe105  1  0.35607797  0.16367055  0.10741747  1
  Fe  Fe106  1  0.35835144  0.82930489  0.61466468  1
  Fe  Fe107  1  0.02384174  0.83684861  0.60596713  1
  Fe  Fe108  1  0.13989215  0.92313450  0.88977059  1
  Fe  Fe109  1  0.85473990  0.58067762  0.10763335  1
  Fe  Fe110  1  0.31023707  0.83324515  0.39394346  1
  Fe  Fe111  1  0.02373454  0.83252249  0.11162564  1
  Fe  Fe112  1  0.47111418  0.58304209  0.88966128  1
  Si  Si113  1  0.68861673  0.83796807  0.61528789  1
  Si  Si114  1  0.35686655  0.65930354  0.61214986  1
  Si  Si115  1  0.80587656  0.91478446  0.88639863  1
  Si  Si116  1  0.68885191  0.16324913  0.11814798  1
  Si  Si117  1  0.64553103  0.83414241  0.88737309  1
  Si  Si118  1  0.80812811  0.08213434  0.38740826  1
  Si  Si119  1  0.02755044  0.66490762  0.60564598  1
  Si  Si120  1  0.47753525  0.41419763  0.38587978  1
  Si  Si121  1  0.19632889  0.90982206  0.11672947  1
  Si  Si122  1  0.97978517  0.33100667  0.88034497  1
  Si  Si123  1  0.30961938  0.65930674  0.39033963  1
  Si  Si124  1  0.52510764  0.41720919  0.61285633  1
  Si  Si125  1  0.02409847  0.16527724  0.61220467  1
  Si  Si126  1  0.68987646  0.32444425  0.11463972  1
  Si  Si127  1  0.64379684  0.33267303  0.38585146  1
  Si  Si128  1  0.53381344  0.41935546  0.11267694  1
  Si  Si129  1  0.14007372  0.41374946  0.38495398  1
  Si  Si130  1  0.97649057  0.16873602  0.88411274  1
  Si  Si131  1  0.30812051  0.33335683  0.38551754  1
  Si  Si132  1  0.19149564  0.41257448  0.61110874  1
  Si  Si133  1  0.85549189  0.08599886  0.61234468  1
  Si  Si134  1  0.64284932  0.66695726  0.38769921  1
  Si  Si135  1  0.64536387  0.33212994  0.88351867  1
  Si  Si136  1  0.19195732  0.42431010  0.11357073  1
  Si  Si137  1  0.36065787  0.66549331  0.11808904  1
  Si  Si138  1  0.19524676  0.09065736  0.61283494  1
  Si  Si139  1  0.36435520  0.83065005  0.11943310  1
  Si  Si140  1  0.81696496  0.41099885  0.88319984  1
  Si  Si141  1  0.69138542  0.67564294  0.11480376  1
  Si  Si142  1  0.63895528  0.17095319  0.88991556  1
  Si  Si143  1  0.02435146  0.33064896  0.61039697  1
  Si  Si144  1  0.85568267  0.41172996  0.60711985  1
  Si  Si145  1  0.02668609  0.16393456  0.11559707  1
  Si  Si146  1  0.52618835  0.92131908  0.61609967  1
  Si  Si147  1  0.30775348  0.16686603  0.38721791  1
  Si  Si148  1  0.13966881  0.08683689  0.38732610  1
  Si  Si149  1  0.02612057  0.66262913  0.11391610  1
  Si  Si150  1  0.52972925  0.08112304  0.11614030  1
  Si  Si151  1  0.19254683  0.57690593  0.61311654  1
  Si  Si152  1  0.52510453  0.58234864  0.61291247  1
  Si  Si153  1  0.52946771  0.58669967  0.11667720  1
  Si  Si154  1  0.47465186  0.08659888  0.38855407  1
  Si  Si155  1  0.19562288  0.92732927  0.60972048  1
  Si  Si156  1  0.47832180  0.57964722  0.38735375  1
  Si  Si157  1  0.29886490  0.17100963  0.88363182  1
  Si  Si158  1  0.81026478  0.91562023  0.38727357  1
  Si  Si159  1  0.97344382  0.33270850  0.38551000  1
  Si  Si160  1  0.03208203  0.33144763  0.11126985  1
  Si  Si161  1  0.30833592  0.33490357  0.88090842  1
  Si  Si162  1  0.52441248  0.08638558  0.61577616  1
  Si  Si163  1  0.97610922  0.66743025  0.38518141  1
  Si  Si164  1  0.14104639  0.08927932  0.88337876  1
  Si  Si165  1  0.69172832  0.83999037  0.11678709  1
  Si  Si166  1  0.36169702  0.33672342  0.61238247  1
  Si  Si167  1  0.85614568  0.92362736  0.11439688  1
  Si  Si168  1  0.47891026  0.41243618  0.88670387  1
  Si  Si169  1  0.36140157  0.17181975  0.61485618  1
  Si  Si170  1  0.30551297  0.82704094  0.89199841  1
  Si  Si171  1  0.13956070  0.57982103  0.38585023  1
  Si  Si172  1  0.80866938  0.58440957  0.38518138  1
  Si  Si173  1  0.64452840  0.83373780  0.38980135  1
  Si  Si174  1  0.97408681  0.83275330  0.38507806  1
  Si  Si175  1  0.85280045  0.92055281  0.60970715  1
  Si  Si176  1  0.48006331  0.91771650  0.39258783  1
  Si  Si177  1  0.18836676  0.07488767  0.11349673  1
  Si  Si178  1  0.68341685  0.67282484  0.60914401  1
  Si  Si179  1  0.85595714  0.08898398  0.11688476  1
  Si  Si180  1  0.52696211  0.91428483  0.11996072  1
  Si  Si181  1  0.64233403  0.16656501  0.38773462  1
  Si  Si182  1  0.68906460  0.16795733  0.61300794  1
  Si  Si183  1  0.14257083  0.41659785  0.88077742  1
  Si  Si184  1  0.19266043  0.58773938  0.11792169  1
  Si  Si185  1  0.13898436  0.92035840  0.38881467  1
  Si  Si186  1  0.97857891  0.66509066  0.88493378  1
  Si  Si187  1  0.97307579  0.16779787  0.38711658  1
  Si  Si188  1  0.30011384  0.66065695  0.88502754  1
  Si  Si189  1  0.13536510  0.57922061  0.87893923  1
  Si  Si190  1  0.80801848  0.41810542  0.38510311  1
  Si  Si191  1  0.68945491  0.33053055  0.61185913  1
  O  O192  1  0.26093788  0.10609428  0.07663780  1
  O  O193  1  0.26779984  0.13806455  0.58318204  1
  O  O194  1  0.27814960  0.61454430  0.09052703  1
  O  O195  1  0.27087216  0.61198954  0.58211491  1
  O  O196  1  0.61989665  0.10142055  0.09025335  1
  O  O197  1  0.60218817  0.12329997  0.58303647  1
  O  O198  1  0.60575606  0.62727087  0.08905908  1
  O  O199  1  0.59368884  0.62971536  0.57898937  1
  O  O200  1  0.93605550  0.12388957  0.08777163  1
  O  O201  1  0.93459259  0.12335813  0.58147968  1
  O  O202  1  0.96281399  0.59739932  0.08600865  1
  O  O203  1  0.94159594  0.62436480  0.56771770  1
  O  O204  1  0.11653382  0.36577892  0.08706105  1
  O  O205  1  0.10302839  0.36826519  0.58033278  1
  O  O206  1  0.12425282  0.85544677  0.08104824  1
  O  O207  1  0.10456519  0.89508091  0.57581493  1
  O  O208  1  0.45391690  0.37506219  0.07620639  1
  O  O209  1  0.43392793  0.37865556  0.57713953  1
  O  O210  1  0.44654723  0.86221773  0.09014626  1
  O  O211  1  0.44623354  0.87597556  0.58081958  1
  O  O212  1  0.77271189  0.33482469  0.08233153  1
  O  O213  1  0.76893827  0.36330111  0.57964063  1
  O  O214  1  0.77053695  0.87469463  0.08679543  1
  O  O215  1  0.76478643  0.87493186  0.58261497  1
  O  O216  1  0.27274931  0.40828221  0.08012325  1
  O  O217  1  0.26824190  0.37233593  0.58037930  1
  O  O218  1  0.28504032  0.88350959  0.09193508  1
  O  O219  1  0.26625258  0.88537329  0.57665224  1
  O  O220  1  0.61865409  0.38629470  0.08869284  1
  O  O221  1  0.60177629  0.37473525  0.58207380  1
  O  O222  1  0.60940874  0.88965480  0.08802717  1
  O  O223  1  0.60823615  0.88988134  0.58635344  1
  O  O224  1  0.95221047  0.37619068  0.07514830  1
  O  O225  1  0.93445967  0.36939538  0.57863777  1
  O  O226  1  0.93388260  0.89778036  0.08099580  1
  O  O227  1  0.92171748  0.88710776  0.57033260  1
  O  O228  1  0.09877951  0.11946717  0.08604134  1
  O  O229  1  0.10272243  0.12900847  0.58226651  1
  O  O230  1  0.11888957  0.64507440  0.09048270  1
  O  O231  1  0.10553689  0.61781056  0.58067223  1
  O  O232  1  0.45626809  0.13236635  0.07890852  1
  O  O233  1  0.43725197  0.13044258  0.58365924  1
  O  O234  1  0.44066252  0.62924789  0.08973359  1
  O  O235  1  0.43139885  0.61443975  0.58148206  1
  O  O236  1  0.77627986  0.14331956  0.09060572  1
  O  O237  1  0.76985008  0.13385533  0.58297149  1
  O  O238  1  0.77158076  0.65251909  0.08359310  1
  O  O239  1  0.75404619  0.63774598  0.57109085  1
  O  O240  1  0.06502816  0.13206688  0.41739323  1
  O  O241  1  0.05393400  0.11315564  0.91089860  1
  O  O242  1  0.06373139  0.62256355  0.41452409  1
  O  O243  1  0.05211785  0.60237871  0.90936081  1
  O  O244  1  0.39728197  0.12675495  0.41971737  1
  O  O245  1  0.36938448  0.11785277  0.92228964  1
  O  O246  1  0.39768131  0.61166591  0.41650958  1
  O  O247  1  0.37173167  0.60688135  0.92329696  1
  O  O248  1  0.73099484  0.12294474  0.41737547  1
  O  O249  1  0.71244908  0.11515160  0.92310193  1
  O  O250  1  0.73195585  0.62420071  0.41559743  1
  O  O251  1  0.72310229  0.60345928  0.93127692  1
  O  O252  1  0.23132449  0.37471963  0.41518361  1
  O  O253  1  0.22732414  0.36956650  0.91090908  1
  O  O254  1  0.22336620  0.88245914  0.42738619  1
  O  O255  1  0.22233539  0.85384574  0.92019600  1
  O  O256  1  0.56420447  0.36866350  0.41542505  1
  O  O257  1  0.56400695  0.36214933  0.91460757  1
  O  O258  1  0.57471155  0.87959619  0.42171433  1
  O  O259  1  0.56488719  0.84987785  0.92259243  1
  O  O260  1  0.89810059  0.37675140  0.41397462  1
  O  O261  1  0.89478485  0.35185619  0.90981898  1
  O  O262  1  0.89752273  0.87262278  0.41637203  1
  O  O263  1  0.86793381  0.84987475  0.91573368  1
  O  O264  1  0.06585749  0.36932048  0.41482328  1
  O  O265  1  0.05997820  0.38422963  0.90945194  1
  O  O266  1  0.05797433  0.87994860  0.41466096  1
  O  O267  1  0.04561667  0.90319596  0.92654115  1
  O  O268  1  0.39813624  0.37537257  0.41404114  1
  O  O269  1  0.39556413  0.37642872  0.91373151  1
  O  O270  1  0.41252344  0.88086614  0.43161540  1
  O  O271  1  0.38603996  0.87180501  0.93177473  1
  O  O272  1  0.73193813  0.37636435  0.41534314  1
  O  O273  1  0.73012604  0.38189261  0.90839136  1
  O  O274  1  0.73531245  0.87390431  0.41778071  1
  O  O275  1  0.71274272  0.90160628  0.90830695  1
  O  O276  1  0.22939289  0.12884834  0.41732760  1
  O  O277  1  0.20683425  0.15621121  0.90666780  1
  O  O278  1  0.23287688  0.61242688  0.41606260  1
  O  O279  1  0.21145496  0.63397689  0.90921968  1
  O  O280  1  0.56356503  0.13171205  0.41874213  1
  O  O281  1  0.55330111  0.15854916  0.91958097  1
  O  O282  1  0.56615506  0.62395926  0.41599175  1
  O  O283  1  0.55050934  0.64776154  0.93048486  1
  O  O284  1  0.89685565  0.12564468  0.41664869  1
  O  O285  1  0.89732974  0.15001400  0.91942950  1
  O  O286  1  0.89842916  0.62524687  0.41338634  1
  O  O287  1  0.89968264  0.64179078  0.91986640  1
  O  O288  1  0.17098869  -0.00827951  0.08812721  1
  O  O289  1  0.19432068  0.01191212  0.57913702  1
  O  O290  1  0.16123886  0.50718026  0.09074313  1
  O  O291  1  0.18164745  0.49392453  0.57977560  1
  O  O292  1  0.50603717  -0.00310498  0.09513617  1
  O  O293  1  0.51518483  0.00486976  0.58567106  1
  O  O294  1  0.52397436  0.50434521  0.08856433  1
  O  O295  1  0.52496255  0.49936275  0.58140268  1
  O  O296  1  0.83250061  0.00815832  0.08864270  1
  O  O297  1  0.83575451  0.00538237  0.58157088  1
  O  O298  1  0.80929628  0.49456055  0.07341272  1
  O  O299  1  0.84245282  0.48843212  0.57046519  1
  O  O300  1  0.02475772  0.24628741  0.08622964  1
  O  O301  1  0.01488305  0.24759755  0.58083261  1
  O  O302  1  -0.00867306  0.73852757  0.08246862  1
  O  O303  1  0.02866022  0.74353820  0.57065888  1
  O  O304  1  0.32699918  0.25218111  0.06789416  1
  O  O305  1  0.35859231  0.25372706  0.58220593  1
  O  O306  1  0.34628242  0.74763340  0.08876258  1
  O  O307  1  0.34765738  0.73669339  0.57601542  1
  O  O308  1  0.65250223  0.24286652  0.09274422  1
  O  O309  1  0.67454650  0.24856411  0.57917847  1
  O  O310  1  0.66702568  0.75861368  0.09022826  1
  O  O311  1  0.66821666  0.75765183  0.58282489  1
  O  O312  1  0.13817744  0.00550014  0.41685486  1
  O  O313  1  0.17802322  0.01702546  0.91975350  1
  O  O314  1  0.14037772  0.49600147  0.41406501  1
  O  O315  1  0.16014659  0.49761938  0.91079779  1
  O  O316  1  0.49083731  0.00444265  0.41737074  1
  O  O317  1  0.50243094  0.00183626  0.93623694  1
  O  O318  1  0.49128494  0.49625091  0.41596557  1
  O  O319  1  0.49565374  0.48824643  0.92446088  1
  O  O320  1  0.81670305  -0.00065024  0.41644604  1
  O  O321  1  0.84090694  -0.00858892  0.91938433  1
  O  O322  1  0.81567572  0.50084709  0.41376423  1
  O  O323  1  0.84656598  0.48498828  0.91997820  1
  O  O324  1  0.31545744  0.25113240  0.41657309  1
  O  O325  1  0.32122360  0.25368821  0.91062429  1
  O  O326  1  0.31965682  0.73604732  0.42576600  1
  O  O327  1  0.31932851  0.74159559  0.91672091  1
  O  O328  1  0.65631806  0.25016119  0.41596528  1
  O  O329  1  0.67281947  0.25281735  0.91519674  1
  O  O330  1  0.64933731  0.74950049  0.41728481  1
  O  O331  1  0.68946880  0.75951342  0.91537856  1
  O  O332  1  0.97406649  0.25079223  0.41665823  1
  O  O333  1  1.01015286  0.25072261  0.90795340  1
  O  O334  1  0.98316897  0.74951987  0.41541153  1
  O  O335  1  1.01577307  0.74077794  0.91665659  1
  O  O336  1  0.20645265  0.08284838  0.19452026  1
  O  O337  1  0.21019855  0.08933178  0.69254107  1
  O  O338  1  0.21288982  0.58370471  0.19891766  1
  O  O339  1  0.21089983  0.57511798  0.69203308  1
  O  O340  1  0.54924858  0.09023973  0.19615324  1
  O  O341  1  0.54459050  0.08805962  0.69532393  1
  O  O342  1  0.54545452  0.58482139  0.19783339  1
  O  O343  1  0.54569870  0.58477242  0.69134837  1
  O  O344  1  0.87697331  0.08681323  0.19760602  1
  O  O345  1  0.87605864  0.08702315  0.69191164  1
  O  O346  1  0.87704840  0.58265547  0.20148227  1
  O  O347  1  0.87886949  0.58305018  0.69590293  1
  O  O348  1  0.04498534  0.33217663  0.19303857  1
  O  O349  1  0.04192873  0.33191219  0.69021629  1
  O  O350  1  0.04854306  0.83072994  0.20268150  1
  O  O351  1  0.03148438  0.83323327  0.69409702  1
  O  O352  1  0.37844561  0.33431771  0.20098790  1
  O  O353  1  0.37873195  0.33761037  0.69115440  1
  O  O354  1  0.38424337  0.82532736  0.19878249  1
  O  O355  1  0.37710599  0.83187244  0.70466971  1
  O  O356  1  0.70921704  0.32979048  0.19643823  1
  O  O357  1  0.71238553  0.32643828  0.69059420  1
  O  O358  1  0.71237809  0.83716366  0.19786062  1
  O  O359  1  0.70815656  0.83632424  0.69520171  1
  O  O360  1  0.21030870  0.41898651  0.19528457  1
  O  O361  1  0.20790420  0.41279880  0.69058520  1
  O  O362  1  0.20725147  0.91382116  0.19660687  1
  O  O363  1  0.21520783  0.92861114  0.68948945  1
  O  O364  1  0.54602231  0.41724368  0.19450588  1
  O  O365  1  0.53560572  0.41317389  0.69053180  1
  O  O366  1  0.55004492  0.90741341  0.19926970  1
  O  O367  1  0.54412042  0.92099106  0.69614144  1
  O  O368  1  0.87817192  0.41389157  0.20036927  1
  O  O369  1  0.87617813  0.41229962  0.68740781  1
  O  O370  1  0.87236967  0.92100022  0.19499497  1
  O  O371  1  0.87080083  0.92138880  0.68991595  1
  O  O372  1  0.04298826  0.16626499  0.19642748  1
  O  O373  1  0.04062882  0.16701892  0.69195863  1
  O  O374  1  0.04536058  0.66404298  0.19614917  1
  O  O375  1  0.03585529  0.66486631  0.68519569  1
  O  O376  1  0.37640482  0.16639306  0.20064366  1
  O  O377  1  0.37866444  0.16829093  0.69359258  1
  O  O378  1  0.37913522  0.66467809  0.19895321  1
  O  O379  1  0.37686855  0.66238457  0.69182443  1
  O  O380  1  0.71131654  0.16515331  0.19922457  1
  O  O381  1  0.70750607  0.16814372  0.69264702  1
  O  O382  1  0.70880693  0.67008060  0.19650945  1
  O  O383  1  0.70552627  0.67065322  0.68882449  1
  O  O384  1  0.12158311  0.08922563  0.30747104  1
  O  O385  1  0.12148852  0.08788223  0.80191048  1
  O  O386  1  0.12291257  0.58046554  0.30555163  1
  O  O387  1  0.11748425  0.57402987  0.79963119  1
  O  O388  1  0.45394949  0.09190597  0.30989289  1
  O  O389  1  0.45460810  0.08575243  0.80116012  1
  O  O390  1  0.46059851  0.58083836  0.30691166  1
  O  O391  1  0.45143001  0.58254687  0.79923912  1
  O  O392  1  0.79074660  0.08492293  0.30748413  1
  O  O393  1  0.78777523  0.08507171  0.79772652  1
  O  O394  1  0.78856746  0.58400484  0.30525785  1
  O  O395  1  0.78676534  0.58303964  0.79730806  1
  O  O396  1  0.28883587  0.33406243  0.30560632  1
  O  O397  1  0.28826023  0.33727518  0.80123954  1
  O  O398  1  0.28743118  0.82979373  0.30395639  1
  O  O399  1  0.29851457  0.83207570  0.81227803  1
  O  O400  1  0.62502218  0.33370774  0.30572384  1
  O  O401  1  0.62096256  0.32756191  0.80433900  1
  O  O402  1  0.62712095  0.83250348  0.30960003  1
  O  O403  1  0.62201461  0.83446497  0.80540268  1
  O  O404  1  0.95798654  0.33121973  0.30555853  1
  O  O405  1  0.95983840  0.33256499  0.79963591  1
  O  O406  1  0.95305232  0.83012809  0.30593568  1
  O  O407  1  0.95123715  0.83382119  0.79725030  1
  O  O408  1  0.12357614  0.41361603  0.30472827  1
  O  O409  1  0.12280377  0.41376673  0.80025866  1
  O  O410  1  0.12767288  0.91991144  0.30939203  1
  O  O411  1  0.11549431  0.92846973  0.79913688  1
  O  O412  1  0.46022028  0.41686602  0.30587932  1
  O  O413  1  0.45734428  0.41281807  0.80676392  1
  O  O414  1  0.45998682  0.90899014  0.31421478  1
  O  O415  1  0.45534003  0.91971556  0.80319054  1
  O  O416  1  0.78871203  0.41579594  0.30513635  1
  O  O417  1  0.80387574  0.41478512  0.80322117  1
  O  O418  1  0.79209501  0.91686968  0.30724330  1
  O  O419  1  0.78930230  0.91783750  0.80419486  1
  O  O420  1  0.28847330  0.16934444  0.30741218  1
  O  O421  1  0.28685847  0.16734255  0.80341368  1
  O  O422  1  0.29231139  0.66138343  0.30947130  1
  O  O423  1  0.29197912  0.66163794  0.80530078  1
  O  O424  1  0.62504490  0.16691326  0.30786702  1
  O  O425  1  0.62447917  0.16809056  0.80783622  1
  O  O426  1  0.62537269  0.66631769  0.30737857  1
  O  O427  1  0.62114281  0.66807262  0.79850037  1
  O  O428  1  0.95644657  0.16856659  0.30701318  1
  O  O429  1  0.95615856  0.16763875  0.80269935  1
  O  O430  1  0.95823137  0.66697496  0.30521721  1
  O  O431  1  0.95595483  0.66516818  0.80360212  1
  F  F432  1  0.04730987  0.00503554  0.20474269  1
  F  F433  1  0.04208707  0.00747761  0.69457911  1
  F  F434  1  0.04767159  0.49777157  0.20427073  1
  F  F435  1  0.04535043  0.49473160  0.69373929  1
  F  F436  1  0.36482299  -0.00072431  0.20148636  1
  F  F437  1  0.37802458  0.00418181  0.69941268  1
  F  F438  1  0.38084348  0.50116176  0.20475040  1
  F  F439  1  0.36651952  0.49713480  0.69482293  1
  F  F440  1  0.71449425  0.00077534  0.20560058  1
  F  F441  1  0.70753395  0.00081734  0.70046899  1
  F  F442  1  0.71110443  0.50032707  0.20391834  1
  F  F443  1  0.71494020  0.50747381  0.69070810  1
  F  F444  1  0.21137530  0.24980140  0.20293166  1
  F  F445  1  0.20198704  0.25024050  0.69394344  1
  F  F446  1  0.21530329  0.74437022  0.20531950  1
  F  F447  1  0.22136397  0.74227769  0.69356104  1
  F  F448  1  0.54662724  0.25045438  0.20536851  1
  F  F449  1  0.54554421  0.24838717  0.69963936  1
  F  F450  1  0.54745380  0.74901164  0.20758718  1
  F  F451  1  0.54189757  0.75401450  0.70062484  1
  F  F452  1  0.87957646  0.24822043  0.20423598  1
  F  F453  1  0.87843326  0.24860546  0.69828436  1
  F  F454  1  0.87841197  0.75089442  0.20251874  1
  F  F455  1  0.87291017  0.74830941  0.69719443  1
  F  F456  1  0.28164500  0.01139680  0.30529640  1
  F  F457  1  0.28652919  0.00372461  0.79549816  1
  F  F458  1  0.28996335  0.49743951  0.29993292  1
  F  F459  1  0.28528625  0.49508438  0.79644751  1
  F  F460  1  0.63556071  0.00058432  0.30640199  1
  F  F461  1  0.62026401  0.00268070  0.79783004  1
  F  F462  1  0.62314596  0.49940363  0.29888025  1
  F  F463  1  0.62092092  0.51097029  0.80368761  1
  F  F464  1  0.95065834  0.00936479  0.30477334  1
  F  F465  1  0.95104784  0.00250753  0.79258637  1
  F  F466  1  0.95814093  0.49753500  0.30116152  1
  F  F467  1  0.95649756  0.49636162  0.79130809  1
  F  F468  1  0.12168814  0.25122704  0.29783807  1
  F  F469  1  0.11965309  0.25187370  0.79354845  1
  F  F470  1  0.12193147  0.74454678  0.30302180  1
  F  F471  1  0.11449100  0.73579647  0.79673965  1
  F  F472  1  0.45828536  0.25247561  0.30226535  1
  F  F473  1  0.45642691  0.25362742  0.79653795  1
  F  F474  1  0.45840848  0.74496068  0.30413920  1
  F  F475  1  0.45513214  0.74495049  0.79873321  1
  F  F476  1  0.78936956  0.25061869  0.30067662  1
  F  F477  1  0.78935980  0.25068931  0.79483025  1
  F  F478  1  0.78957793  0.75044787  0.29843837  1
  F  F479  1  0.78596306  0.74967461  0.79262055  1
