# generated using pymatgen
data_K24Na3Li5Mg64Fe17Si79(O5F)48
_symmetry_space_group_name_H-M   'P 1'
_cell_length_a   16.10289997
_cell_length_b   18.59959480
_cell_length_c   20.55628041
_cell_angle_alpha   90.00077612
_cell_angle_beta   100.01423970
_cell_angle_gamma   89.98619551
_symmetry_Int_Tables_number   1
_chemical_formula_structural   K24Na3Li5Mg64Fe17Si79(O5F)48
_chemical_formula_sum   'K24 Na3 Li5 Mg64 Fe17 Si79 O240 F48'
_cell_volume   6062.95733031
_cell_formula_units_Z   1
loop_
 _symmetry_equiv_pos_site_id
 _symmetry_equiv_pos_as_xyz
  1  'x, y, z'
loop_
 _atom_site_type_symbol
 _atom_site_label
 _atom_site_symmetry_multiplicity
 _atom_site_fract_x
 _atom_site_fract_y
 _atom_site_fract_z
 _atom_site_occupancy
  K  K0  1  0.01282350  0.00577975  0.01218564  1
  K  K1  1  0.00162252  0.00560297  0.48705031  1
  K  K2  1  0.01183773  0.49839581  0.00449993  1
  K  K3  1  0.00910906  0.48584529  0.49431245  1
  K  K4  1  0.33556072  0.00269284  0.01030443  1
  K  K5  1  0.32564809  0.00646902  0.48561490  1
  K  K6  1  0.33478104  0.49002780  0.00749472  1
  K  K7  1  0.32768012  0.49867394  0.49307193  1
  K  K8  1  0.66238365  0.00380885  0.01189058  1
  K  K9  1  0.66377266  -0.00095864  0.48316194  1
  K  K10  1  0.66601453  0.50006541  0.00601376  1
  K  K11  1  0.65149552  0.49177247  0.48297710  1
  K  K12  1  0.16913213  0.25612484  0.00320389  1
  K  K13  1  0.17763388  0.25538183  0.50471154  1
  K  K14  1  0.16974105  0.74744813  0.00722067  1
  K  K15  1  0.16987292  0.74999754  0.49057735  1
  K  K16  1  0.50285444  0.25751659  0.00410385  1
  K  K17  1  0.49668450  0.25628465  0.49519547  1
  K  K18  1  0.50399702  0.74636494  0.00661624  1
  K  K19  1  0.48521494  0.74319873  0.48521682  1
  K  K20  1  0.83864596  0.24856182  0.00716717  1
  K  K21  1  0.82712483  0.25410659  0.48622299  1
  K  K22  1  0.84097184  0.74679242  0.00935168  1
  K  K23  1  0.83269095  0.74359204  0.48924043  1
  Na  Na24  1  0.50304153  0.49924601  0.25000471  1
  Na  Na25  1  0.33612555  0.92794839  0.25003640  1
  Na  Na26  1  0.66425922  0.41813234  0.75034260  1
  Li  Li27  1  0.16789692  0.50222733  0.25109345  1
  Li  Li28  1  0.48795413  0.00214953  0.24704286  1
  Li  Li29  1  0.66195257  0.41897861  0.25442741  1
  Li  Li30  1  0.33892891  0.07873508  0.24685194  1
  Li  Li31  1  0.49736268  0.33799219  0.74482694  1
  Mg  Mg32  1  0.33689194  0.25218676  0.74829739  1
  Mg  Mg33  1  0.83288947  0.00105794  0.74963834  1
  Mg  Mg34  1  0.49989414  0.00058020  0.75043567  1
  Mg  Mg35  1  0.00021993  0.74803475  0.25029765  1
  Mg  Mg36  1  0.16721530  0.49769787  0.75036972  1
  Mg  Mg37  1  0.66646568  0.74798997  0.24892187  1
  Mg  Mg38  1  -0.00044931  0.25038650  0.24802070  1
  Mg  Mg39  1  0.83191677  0.50016544  0.75499942  1
  Mg  Mg40  1  0.33185399  0.75160503  0.25256331  1
  Mg  Mg41  1  0.33324326  0.24823364  0.24737069  1
  Mg  Mg42  1  0.83101350  -0.00073852  0.25281466  1
  Mg  Mg43  1  0.66653992  0.74878555  0.75188745  1
  Mg  Mg44  1  0.83176508  0.49959766  0.24859030  1
  Mg  Mg45  1  0.66352742  0.25184583  0.25125487  1
  Mg  Mg46  1  -0.00060166  0.75106197  0.75272912  1
  Mg  Mg47  1  0.16830674  0.00169987  0.74954649  1
  Mg  Mg48  1  0.33280160  0.75082016  0.75237840  1
  Mg  Mg49  1  0.66333287  0.25246591  0.74800149  1
  Mg  Mg50  1  0.16859083  0.00349331  0.24980846  1
  Mg  Mg51  1  0.00195382  0.25089035  0.74997837  1
  Mg  Mg52  1  0.49959470  0.49775860  0.74631800  1
  Mg  Mg53  1  0.17068632  0.33680383  0.75111175  1
  Mg  Mg54  1  0.49855553  0.16821862  0.74556445  1
  Mg  Mg55  1  0.83285386  0.83468490  0.75063436  1
  Mg  Mg56  1  0.66594313  0.91572089  0.74953525  1
  Mg  Mg57  1  0.00264160  0.58244733  0.24876436  1
  Mg  Mg58  1  0.33194612  0.08595710  0.74616488  1
  Mg  Mg59  1  0.00104424  0.41756027  0.24811909  1
  Mg  Mg60  1  0.16630049  0.33534769  0.24744321  1
  Mg  Mg61  1  0.49748556  0.16200123  0.25284851  1
  Mg  Mg62  1  0.83403160  0.66408158  0.24962601  1
  Mg  Mg63  1  0.66306890  0.91664688  0.25423910  1
  Mg  Mg64  1  0.66591088  0.08519960  0.74850226  1
  Mg  Mg65  1  0.83389149  0.66468430  0.75530790  1
  Mg  Mg66  1  0.00208441  0.08535709  0.74896231  1
  Mg  Mg67  1  0.33170450  0.58370988  0.74889591  1
  Mg  Mg68  1  0.83418046  0.83278753  0.25229844  1
  Mg  Mg69  1  0.00115291  0.58459710  0.75526578  1
  Mg  Mg70  1  0.83086934  0.16505332  0.25133689  1
  Mg  Mg71  1  0.00119684  0.91743464  0.75146965  1
  Mg  Mg72  1  0.16615692  0.66397927  0.24893459  1
  Mg  Mg73  1  0.83374609  0.33401914  0.75376948  1
  Mg  Mg74  1  0.49954645  0.83396120  0.75080435  1
  Mg  Mg75  1  -0.00144493  0.08626027  0.24893854  1
  Mg  Mg76  1  0.49887448  0.66537067  0.24888859  1
  Mg  Mg77  1  0.16685045  0.16596590  0.24565530  1
  Mg  Mg78  1  0.66611732  0.58111328  0.24698578  1
  Mg  Mg79  1  0.16705191  0.66612685  0.75284350  1
  Mg  Mg80  1  0.66478843  0.08204586  0.25572467  1
  Mg  Mg81  1  0.49742199  0.83624667  0.25104799  1
  Mg  Mg82  1  0.50110017  0.33305204  0.25051516  1
  Mg  Mg83  1  0.66912900  0.58281433  0.75308956  1
  Mg  Mg84  1  0.16794131  0.83593143  0.25188585  1
  Mg  Mg85  1  0.00016850  0.91552014  0.25102061  1
  Mg  Mg86  1  0.16897641  0.83505237  0.75209865  1
  Mg  Mg87  1  0.82841922  0.33491983  0.25011415  1
  Mg  Mg88  1  0.33279262  0.91536119  0.75042565  1
  Mg  Mg89  1  0.17111009  0.16652490  0.74815688  1
  Mg  Mg90  1  0.83293059  0.16696957  0.74966014  1
  Mg  Mg91  1  0.33035726  0.58349701  0.25132965  1
  Mg  Mg92  1  0.33542395  0.41401776  0.74769830  1
  Mg  Mg93  1  0.00207539  0.41573275  0.75267984  1
  Mg  Mg94  1  0.50040456  0.66470828  0.75026353  1
  Mg  Mg95  1  0.33269036  0.41865185  0.24913244  1
  Fe  Fe96  1  0.31141772  0.83531790  0.89246055  1
  Fe  Fe97  1  0.03159807  0.66464702  0.10733026  1
  Fe  Fe98  1  0.14010553  0.57430818  0.39009205  1
  Fe  Fe99  1  0.02522750  0.16850893  0.10685883  1
  Fe  Fe100  1  0.31373626  0.16650062  0.88903241  1
  Fe  Fe101  1  0.64026931  0.33523934  0.39160517  1
  Fe  Fe102  1  0.30386281  0.67103156  0.39222609  1
  Fe  Fe103  1  0.80839296  0.07760071  0.39141056  1
  Fe  Fe104  1  0.86016207  0.57793320  0.10901806  1
  Fe  Fe105  1  0.52648698  0.41404333  0.10876844  1
  Fe  Fe106  1  0.98150853  0.82700183  0.39045290  1
  Fe  Fe107  1  0.69180586  0.66940865  0.10895126  1
  Fe  Fe108  1  0.14259457  0.41602108  0.89284931  1
  Fe  Fe109  1  0.18847455  0.08072175  0.60603548  1
  Fe  Fe110  1  0.36549978  0.33409711  0.60571655  1
  Fe  Fe111  1  0.18987794  0.41885719  0.60737939  1
  Fe  Fe112  1  0.81065722  0.58059441  0.89586295  1
  Si  Si113  1  0.02094156  0.83188945  0.61693470  1
  Si  Si114  1  0.97372239  0.33431292  0.38395514  1
  Si  Si115  1  0.97280930  0.84036453  0.88560373  1
  Si  Si116  1  0.85480227  0.41096432  0.11373684  1
  Si  Si117  1  0.97165391  0.16119424  0.88411458  1
  Si  Si118  1  0.63563756  0.66578733  0.88656381  1
  Si  Si119  1  0.85891155  0.58265827  0.61797581  1
  Si  Si120  1  0.36023140  0.66711779  0.61540424  1
  Si  Si121  1  0.97685062  0.67527889  0.88932430  1
  Si  Si122  1  0.18702890  0.90961824  0.61170397  1
  Si  Si123  1  0.64032477  0.16871208  0.88429851  1
  Si  Si124  1  0.85547147  0.91824496  0.11595957  1
  Si  Si125  1  0.69415462  0.66823106  0.61590597  1
  Si  Si126  1  0.63775657  0.16422354  0.39248034  1
  Si  Si127  1  0.35827159  0.83289777  0.11637299  1
  Si  Si128  1  0.52812897  0.58545449  0.61332744  1
  Si  Si129  1  0.69470732  0.16790976  0.61396804  1
  Si  Si130  1  0.14353296  0.40600128  0.38454770  1
  Si  Si131  1  0.81063427  0.40972396  0.88919133  1
  Si  Si132  1  0.35541048  0.32836943  0.11179131  1
  Si  Si133  1  0.81173333  0.42099216  0.38713331  1
  Si  Si134  1  0.68632341  0.83926456  0.11423189  1
  Si  Si135  1  0.80624401  0.58557019  0.38543924  1
  Si  Si136  1  0.69599947  0.32622373  0.11243769  1
  Si  Si137  1  0.14282893  0.09085279  0.38317002  1
  Si  Si138  1  0.53256799  0.08050951  0.61300265  1
  Si  Si139  1  0.46525230  0.41553667  0.38654241  1
  Si  Si140  1  0.97520611  0.16891133  0.38781814  1
  Si  Si141  1  0.31832025  0.33522509  0.89017378  1
  Si  Si142  1  0.85787460  0.91866262  0.61515737  1
  Si  Si143  1  0.13854760  0.91940964  0.88740798  1
  Si  Si144  1  0.97170187  0.32640934  0.88880747  1
  Si  Si145  1  0.35979517  0.83301166  0.61430635  1
  Si  Si146  1  0.02533419  0.33997156  0.11114157  1
  Si  Si147  1  0.52290786  0.08393217  0.11857220  1
  Si  Si148  1  0.63619332  0.82899129  0.38716527  1
  Si  Si149  1  0.02074981  0.66889298  0.61775502  1
  Si  Si150  1  0.85400054  0.08284932  0.11227883  1
  Si  Si151  1  0.19377618  0.08121286  0.11029888  1
  Si  Si152  1  0.19543705  0.41826516  0.11602868  1
  Si  Si153  1  0.64134534  0.83123926  0.88540047  1
  Si  Si154  1  0.36388647  0.15966838  0.60595866  1
  Si  Si155  1  0.52205724  0.91995166  0.11773088  1
  Si  Si156  1  0.31005616  0.16558819  0.38046203  1
  Si  Si157  1  0.48045204  0.08076680  0.88466301  1
  Si  Si158  1  0.13913577  0.08473072  0.88653636  1
  Si  Si159  1  0.85952648  0.41763683  0.61753225  1
  Si  Si160  1  0.80362193  0.08294199  0.88458220  1
  Si  Si161  1  0.47272213  0.08163023  0.38443562  1
  Si  Si162  1  0.52665939  0.91500128  0.61408530  1
  Si  Si163  1  0.69367217  0.83290587  0.61470936  1
  Si  Si164  1  0.19038280  0.91667345  0.11518923  1
  Si  Si165  1  0.53207391  0.42039554  0.60941941  1
  Si  Si166  1  0.68693112  0.16311103  0.11598592  1
  Si  Si167  1  0.14324517  0.92486681  0.38754519  1
  Si  Si168  1  0.01967996  0.33195224  0.61350092  1
  Si  Si169  1  0.63821758  0.66286648  0.38525781  1
  Si  Si170  1  0.63888434  0.33156556  0.88266232  1
  Si  Si171  1  0.30669478  0.32774217  0.38197778  1
  Si  Si172  1  0.02304510  0.83720496  0.11162963  1
  Si  Si173  1  0.85853670  0.08366687  0.61467568  1
  Si  Si174  1  0.69788311  0.33246619  0.61590655  1
  Si  Si175  1  0.02051027  0.16938691  0.61251939  1
  Si  Si176  1  0.18709140  0.59145815  0.61396572  1
  Si  Si177  1  0.97429926  0.65922645  0.39002116  1
  Si  Si178  1  0.31221189  0.66456465  0.88705333  1
  Si  Si179  1  0.47768331  0.91829037  0.38581480  1
  Si  Si180  1  0.30886860  0.84029849  0.38887501  1
  Si  Si181  1  0.47860056  0.42036264  0.88261194  1
  Si  Si182  1  0.14258353  0.58914231  0.88907367  1
  Si  Si183  1  0.47273094  0.58229813  0.88265491  1
  Si  Si184  1  0.80444561  0.91715465  0.88534974  1
  Si  Si185  1  0.48107275  0.91932489  0.88669122  1
  Si  Si186  1  0.35874549  0.16450864  0.11643187  1
  Si  Si187  1  0.80682299  0.90645657  0.39144937  1
  Si  Si188  1  0.47077652  0.58460833  0.38697207  1
  Si  Si189  1  0.36437543  0.66997901  0.11404698  1
  Si  Si190  1  0.52485503  0.58634458  0.10936446  1
  Si  Si191  1  0.20382093  0.58459567  0.11144593  1
  O  O192  1  0.27852582  0.11330916  0.08527919  1
  O  O193  1  0.28686618  0.10623288  0.57478913  1
  O  O194  1  0.28775602  0.61558276  0.08280071  1
  O  O195  1  0.26962796  0.62892084  0.58836372  1
  O  O196  1  0.60210577  0.11612845  0.08515558  1
  O  O197  1  0.61321887  0.11678704  0.58553586  1
  O  O198  1  0.60058249  0.61120526  0.07105735  1
  O  O199  1  0.60342861  0.63103240  0.58534628  1
  O  O200  1  0.92381109  0.11745088  0.07374352  1
  O  O201  1  0.93966308  0.11459442  0.58654572  1
  O  O202  1  0.95234683  0.59852837  0.07029230  1
  O  O203  1  0.93883565  0.61796436  0.58829011  1
  O  O204  1  0.10384628  0.38171389  0.08482098  1
  O  O205  1  0.09578867  0.35655274  0.57759716  1
  O  O206  1  0.10072541  0.87777031  0.08130815  1
  O  O207  1  0.10550396  0.85458263  0.58820218  1
  O  O208  1  0.42872409  0.35801521  0.07448619  1
  O  O209  1  0.45587119  0.37447980  0.56860187  1
  O  O210  1  0.43644980  0.87283983  0.08645436  1
  O  O211  1  0.43686078  0.87476190  0.58549278  1
  O  O212  1  0.78584843  0.34657507  0.08722577  1
  O  O213  1  0.77899805  0.36646864  0.58702673  1
  O  O214  1  0.76905123  0.87372752  0.08597311  1
  O  O215  1  0.77118884  0.87333747  0.58650538  1
  O  O216  1  0.26690782  0.37313531  0.08411897  1
  O  O217  1  0.27423335  0.38828812  0.56465360  1
  O  O218  1  0.26954460  0.87623888  0.08817356  1
  O  O219  1  0.26929131  0.87145236  0.58575026  1
  O  O220  1  0.62114750  0.37668475  0.07429575  1
  O  O221  1  0.61985649  0.38630697  0.58820761  1
  O  O222  1  0.60472586  0.89291800  0.08618441  1
  O  O223  1  0.60367895  0.87287006  0.58602979  1
  O  O224  1  0.94108508  0.38892353  0.08476776  1
  O  O225  1  0.93925027  0.38650797  0.58682010  1
  O  O226  1  0.93627168  0.88660112  0.08570842  1
  O  O227  1  0.93931700  0.88395516  0.58817476  1
  O  O228  1  0.11208990  0.12363356  0.07008938  1
  O  O229  1  0.09757650  0.14518795  0.57690083  1
  O  O230  1  0.12659594  0.63200998  0.07248506  1
  O  O231  1  0.10592904  0.64688934  0.58962550  1
  O  O232  1  0.44027366  0.13227762  0.08643984  1
  O  O233  1  0.44884304  0.12395831  0.58059426  1
  O  O234  1  0.44682760  0.64499891  0.08362226  1
  O  O235  1  0.43722509  0.62640069  0.58645402  1
  O  O236  1  0.76332734  0.12380635  0.08509207  1
  O  O237  1  0.77559173  0.13260273  0.58587018  1
  O  O238  1  0.78293583  0.64550780  0.07069195  1
  O  O239  1  0.77279479  0.62901459  0.58823168  1
  O  O240  1  0.06793654  0.13092275  0.41449275  1
  O  O241  1  0.04977091  0.10730943  0.91184246  1
  O  O242  1  0.03728113  0.59459449  0.41904229  1
  O  O243  1  0.06451171  0.63154313  0.91528846  1
  O  O244  1  0.38952463  0.11347714  0.41268481  1
  O  O245  1  0.40122681  0.09897602  0.91979048  1
  O  O246  1  0.40700952  0.62429912  0.42813586  1
  O  O247  1  0.38694093  0.60439512  0.91110136  1
  O  O248  1  0.71552248  0.11205539  0.42523123  1
  O  O249  1  0.72517984  0.11960579  0.91368990  1
  O  O250  1  0.72613088  0.62043867  0.41607353  1
  O  O251  1  0.70919088  0.61315265  0.92045243  1
  O  O252  1  0.21985484  0.34696896  0.40938780  1
  O  O253  1  0.24005582  0.36272038  0.92464573  1
  O  O254  1  0.23523150  0.88798837  0.41685024  1
  O  O255  1  0.21133533  0.86536904  0.92197009  1
  O  O256  1  0.54793740  0.37458476  0.42596659  1
  O  O257  1  0.56006744  0.36877399  0.91219632  1
  O  O258  1  0.56057247  0.86820713  0.41970315  1
  O  O259  1  0.56138069  0.86490401  0.91399102  1
  O  O260  1  0.90086369  0.37652798  0.41620670  1
  O  O261  1  0.88376868  0.34798102  0.91492820  1
  O  O262  1  0.88298943  0.85284050  0.42253204  1
  O  O263  1  0.88934076  0.87050941  0.91394369  1
  O  O264  1  0.06220343  0.37383343  0.41517676  1
  O  O265  1  0.04932107  0.37456573  0.92474874  1
  O  O266  1  0.07191894  0.88972553  0.42432220  1
  O  O267  1  0.04856258  0.89703677  0.91190563  1
  O  O268  1  0.38125962  0.38345862  0.41458220  1
  O  O269  1  0.39753469  0.39287454  0.91397513  1
  O  O270  1  0.39662613  0.88691164  0.41564578  1
  O  O271  1  0.40243479  0.89894988  0.92197265  1
  O  O272  1  0.74041080  0.38733855  0.42486593  1
  O  O273  1  0.72378880  0.37843196  0.91233349  1
  O  O274  1  0.72230941  0.87234295  0.41832871  1
  O  O275  1  0.72549595  0.88028535  0.91365980  1
  O  O276  1  0.22936975  0.13531721  0.41257038  1
  O  O277  1  0.21332473  0.13755354  0.91989533  1
  O  O278  1  0.22209856  0.63454197  0.43543202  1
  O  O279  1  0.22663973  0.63940065  0.91420867  1
  O  O280  1  0.55283753  0.13124351  0.41881678  1
  O  O281  1  0.56124573  0.13391740  0.91359339  1
  O  O282  1  0.56544302  0.62048946  0.41676258  1
  O  O283  1  0.54579370  0.64244694  0.90950433  1
  O  O284  1  0.90763633  0.12962883  0.42549846  1
  O  O285  1  0.88933494  0.12834690  0.91245603  1
  O  O286  1  0.88368006  0.63951587  0.41592810  1
  O  O287  1  0.89869601  0.64825652  0.92167883  1
  O  O288  1  0.18650447  -0.00275666  0.08170235  1
  O  O289  1  0.16333475  -0.01498996  0.57501280  1
  O  O290  1  0.19419346  0.49982821  0.08531802  1
  O  O291  1  0.16260109  0.51570658  0.57908451  1
  O  O292  1  0.50555252  0.00211516  0.08766302  1
  O  O293  1  0.52488324  -0.00314228  0.58481545  1
  O  O294  1  0.49234847  0.50790824  0.08049469  1
  O  O295  1  0.52791886  0.50563581  0.58054907  1
  O  O296  1  0.83775083  -0.00067402  0.08492198  1
  O  O297  1  0.84154352  0.00072199  0.58715173  1
  O  O298  1  0.81839957  0.48534406  0.08078693  1
  O  O299  1  0.84304841  0.50057782  0.58957665  1
  O  O300  1  0.01192401  0.26300035  0.07340038  1
  O  O301  1  -0.01373586  0.25038783  0.58861450  1
  O  O302  1  0.00731040  0.76077117  0.07474445  1
  O  O303  1  -0.00697976  0.75057692  0.59085235  1
  O  O304  1  0.33534327  0.24475507  0.08463629  1
  O  O305  1  0.35054143  0.23816707  0.57262289  1
  O  O306  1  0.34348056  0.75208023  0.08307624  1
  O  O307  1  0.35762573  0.75014580  0.58645979  1
  O  O308  1  0.67480351  0.24296478  0.08259965  1
  O  O309  1  0.68026536  0.24996506  0.58482408  1
  O  O310  1  0.66281889  0.76425708  0.07718764  1
  O  O311  1  0.68953934  0.75087896  0.58578963  1
  O  O312  1  0.15377976  0.00946974  0.41413043  1
  O  O313  1  0.15834355  0.00182692  0.91438988  1
  O  O314  1  0.17073625  0.48050541  0.42170928  1
  O  O315  1  0.15562872  0.51182656  0.92434783  1
  O  O316  1  0.49185215  0.00022821  0.41765822  1
  O  O317  1  0.51749118  -0.00008152  0.90899390  1
  O  O318  1  0.47660411  0.50001708  0.41172109  1
  O  O319  1  0.50231642  0.50257899  0.91199002  1
  O  O320  1  0.82429420  -0.01566971  0.42712800  1
  O  O321  1  0.81537705  -0.00000131  0.91347738  1
  O  O322  1  0.82722783  0.50465967  0.41624304  1
  O  O323  1  0.83701145  0.48574353  0.92518337  1
  O  O324  1  0.33388103  0.24667619  0.41111448  1
  O  O325  1  0.35091808  0.25734253  0.92099303  1
  O  O326  1  0.32089617  0.76554706  0.42962141  1
  O  O327  1  0.34341675  0.74103542  0.92015969  1
  O  O328  1  0.65579218  0.24205100  0.42783584  1
  O  O329  1  0.65539434  0.24947577  0.91576954  1
  O  O330  1  0.64466026  0.74577398  0.41680643  1
  O  O331  1  0.65668085  0.74958507  0.91322069  1
  O  O332  1  0.98113022  0.25260488  0.41482975  1
  O  O333  1  0.98981275  0.24171316  0.91389852  1
  O  O334  1  1.00688323  0.73487267  0.42629192  1
  O  O335  1  0.99740362  0.76005640  0.91369310  1
  O  O336  1  0.19982596  0.08357659  0.18937628  1
  O  O337  1  0.20888059  0.08088582  0.69802097  1
  O  O338  1  0.21446386  0.58894363  0.19072629  1
  O  O339  1  0.20735139  0.58793976  0.69531845  1
  O  O340  1  0.54742150  0.08578932  0.19754354  1
  O  O341  1  0.54725203  0.07920876  0.69369758  1
  O  O342  1  0.54741030  0.59267478  0.18965430  1
  O  O343  1  0.54536147  0.58690461  0.69366243  1
  O  O344  1  0.87580761  0.08373911  0.19283065  1
  O  O345  1  0.87540586  0.08277967  0.69551315  1
  O  O346  1  0.87944793  0.58272719  0.20132853  1
  O  O347  1  0.87909393  0.58608290  0.69816313  1
  O  O348  1  0.04229662  0.33348876  0.19185490  1
  O  O349  1  0.03966466  0.33313414  0.69457875  1
  O  O350  1  0.04277537  0.83635313  0.19219730  1
  O  O351  1  0.04016257  0.83443781  0.69769601  1
  O  O352  1  0.37530330  0.33146535  0.19241995  1
  O  O353  1  0.37530063  0.33317180  0.69691867  1
  O  O354  1  0.37936738  0.82835911  0.19525305  1
  O  O355  1  0.37933287  0.83384306  0.69480721  1
  O  O356  1  0.71273245  0.32448559  0.19226670  1
  O  O357  1  0.71852775  0.32565702  0.69503600  1
  O  O358  1  0.70757122  0.83637690  0.19518311  1
  O  O359  1  0.71044191  0.83419309  0.69539246  1
  O  O360  1  0.21227189  0.41408441  0.19532327  1
  O  O361  1  0.21274439  0.41802776  0.69985627  1
  O  O362  1  0.19933663  0.91839399  0.19409405  1
  O  O363  1  0.20705586  0.91474558  0.69279085  1
  O  O364  1  0.54680570  0.40686106  0.19597260  1
  O  O365  1  0.53584873  0.42284140  0.68776363  1
  O  O366  1  0.54424024  0.91442264  0.19671483  1
  O  O367  1  0.54469911  0.91509229  0.69482175  1
  O  O368  1  0.87533068  0.41269753  0.19467553  1
  O  O369  1  0.87753234  0.41712275  0.69809464  1
  O  O370  1  0.87376893  0.91835349  0.19622229  1
  O  O371  1  0.87486407  0.91729897  0.69589734  1
  O  O372  1  0.04153407  0.16732230  0.19815445  1
  O  O373  1  0.04144657  0.16627984  0.69392920  1
  O  O374  1  0.04413338  0.66885152  0.19910022  1
  O  O375  1  0.04005215  0.66822485  0.69853349  1
  O  O376  1  0.37846429  0.16893025  0.19544338  1
  O  O377  1  0.38069444  0.16031317  0.68751642  1
  O  O378  1  0.37878047  0.66982237  0.19409139  1
  O  O379  1  0.37806587  0.66869655  0.69600806  1
  O  O380  1  0.70669510  0.16462962  0.19603621  1
  O  O381  1  0.71259666  0.16474049  0.69454429  1
  O  O382  1  0.71222303  0.66801611  0.20106282  1
  O  O383  1  0.71081546  0.67061424  0.69619920  1
  O  O384  1  0.12097294  0.08731679  0.30335552  1
  O  O385  1  0.12124907  0.08352356  0.80527588  1
  O  O386  1  0.12231975  0.58367009  0.30027212  1
  O  O387  1  0.12366907  0.58609974  0.80751286  1
  O  O388  1  0.45817266  0.08264151  0.30597254  1
  O  O389  1  0.46055673  0.08254554  0.80334324  1
  O  O390  1  0.45104439  0.59269325  0.30768839  1
  O  O391  1  0.45457899  0.58442037  0.80196839  1
  O  O392  1  0.78937757  0.08227456  0.29983061  1
  O  O393  1  0.78775765  0.08173446  0.80393047  1
  O  O394  1  0.78974601  0.58412037  0.30589792  1
  O  O395  1  0.78982810  0.58475301  0.80323610  1
  O  O396  1  0.28937447  0.33045314  0.30178414  1
  O  O397  1  0.29365426  0.33400597  0.80893152  1
  O  O398  1  0.28700260  0.83130334  0.30959368  1
  O  O399  1  0.28976385  0.83435280  0.79994583  1
  O  O400  1  0.62066187  0.32984719  0.30201688  1
  O  O401  1  0.61993782  0.32460381  0.80419414  1
  O  O402  1  0.62198261  0.83048284  0.30717338  1
  O  O403  1  0.62460049  0.83396422  0.80436011  1
  O  O404  1  0.95543334  0.33250470  0.30366429  1
  O  O405  1  0.95757553  0.32968736  0.80746138  1
  O  O406  1  0.95670409  0.83340408  0.29886288  1
  O  O407  1  0.95346804  0.83773588  0.80471618  1
  O  O408  1  0.12009523  0.40894307  0.30480200  1
  O  O409  1  0.12059562  0.41679912  0.80105515  1
  O  O410  1  0.12242118  0.92026382  0.30685126  1
  O  O411  1  0.12261021  0.91771122  0.80583793  1
  O  O412  1  0.44938292  0.40741730  0.30729741  1
  O  O413  1  0.45666126  0.42236257  0.80316424  1
  O  O414  1  0.46746626  0.91597685  0.30781110  1
  O  O415  1  0.46004665  0.91564211  0.80521925  1
  O  O416  1  0.79584880  0.41720102  0.30734316  1
  O  O417  1  0.80033482  0.41525141  0.80913359  1
  O  O418  1  0.78943907  0.91258378  0.30992263  1
  O  O419  1  0.78830460  0.91741779  0.80452778  1
  O  O420  1  0.28662999  0.16981435  0.30144729  1
  O  O421  1  0.29199853  0.16704163  0.79712074  1
  O  O422  1  0.28699123  0.66885119  0.30038771  1
  O  O423  1  0.29129909  0.66729213  0.80549083  1
  O  O424  1  0.62309939  0.16517198  0.31115293  1
  O  O425  1  0.62506003  0.16477858  0.80390953  1
  O  O426  1  0.62077042  0.66712774  0.30568037  1
  O  O427  1  0.62200693  0.66895789  0.80510888  1
  O  O428  1  0.95452013  0.16653192  0.30704371  1
  O  O429  1  0.95426095  0.16345221  0.80344964  1
  O  O430  1  0.95585302  0.66705410  0.30915716  1
  O  O431  1  0.95708752  0.67156113  0.80774866  1
  F  F432  1  0.04237924  0.00084460  0.20289222  1
  F  F433  1  0.04323883  -0.00082024  0.70254962  1
  F  F434  1  0.04000771  0.49756826  0.19917624  1
  F  F435  1  0.04257740  0.50394337  0.70348527  1
  F  F436  1  0.38213354  0.01019293  0.18890130  1
  F  F437  1  0.38109187  -0.00356272  0.70186753  1
  F  F438  1  0.36723295  0.50127897  0.19923700  1
  F  F439  1  0.37693095  0.50453984  0.69941068  1
  F  F440  1  0.71050085  -0.00337311  0.20273350  1
  F  F441  1  0.71223912  -0.00139136  0.70055447  1
  F  F442  1  0.71446379  0.50264125  0.20005959  1
  F  F443  1  0.71788993  0.51021629  0.69809468  1
  F  F444  1  0.20983913  0.25037650  0.19794982  1
  F  F445  1  0.21077968  0.25267112  0.70139489  1
  F  F446  1  0.21101713  0.75526822  0.20104233  1
  F  F447  1  0.21026223  0.74930348  0.70273308  1
  F  F448  1  0.54360825  0.24333962  0.20287262  1
  F  F449  1  0.55166086  0.23850224  0.69347989  1
  F  F450  1  0.54470285  0.75237675  0.20368367  1
  F  F451  1  0.54627127  0.75152336  0.70151841  1
  F  F452  1  0.87734669  0.24759770  0.20360132  1
  F  F453  1  0.87939588  0.24916599  0.70401547  1
  F  F454  1  0.87649354  0.75016454  0.20198392  1
  F  F455  1  0.87687611  0.75137700  0.70392991  1
  F  F456  1  0.27847447  0.01096358  0.30461397  1
  F  F457  1  0.28959900  -0.00205153  0.79673672  1
  F  F458  1  0.29157413  0.49973855  0.30079594  1
  F  F459  1  0.28869515  0.50360417  0.79756206  1
  F  F460  1  0.63236369  -0.00146690  0.30558123  1
  F  F461  1  0.62417869  -0.00101567  0.79694026  1
  F  F462  1  0.63399433  0.50740419  0.30653687  1
  F  F463  1  0.61456120  0.51052759  0.80014380  1
  F  F464  1  0.95384492  0.00143465  0.29802083  1
  F  F465  1  0.95251476  0.00071768  0.79771103  1
  F  F466  1  0.95455478  0.49592290  0.29832118  1
  F  F467  1  0.95583307  0.50117304  0.80005328  1
  F  F468  1  0.12119772  0.25060311  0.29540141  1
  F  F469  1  0.12125330  0.24886353  0.79625526  1
  F  F470  1  0.12112318  0.75454768  0.29863094  1
  F  F471  1  0.12065196  0.75210466  0.79862426  1
  F  F472  1  0.45310777  0.24809651  0.29824569  1
  F  F473  1  0.45525193  0.24251401  0.79582720  1
  F  F474  1  0.45558333  0.75137945  0.30019905  1
  F  F475  1  0.45646200  0.75067236  0.79719055  1
  F  F476  1  0.78770403  0.24885147  0.29950942  1
  F  F477  1  0.78777055  0.24585147  0.79946016  1
  F  F478  1  0.78715329  0.75193184  0.29977822  1
  F  F479  1  0.78749794  0.75382372  0.79950380  1
