# generated using pymatgen
data_K24Na3Li5Mg64Fe17Si79(O5F)48
_symmetry_space_group_name_H-M   'P 1'
_cell_length_a   16.09902844
_cell_length_b   18.58042458
_cell_length_c   20.54951423
_cell_angle_alpha   90.01074362
_cell_angle_beta   100.01127427
_cell_angle_gamma   89.96887479
_symmetry_Int_Tables_number   1
_chemical_formula_structural   K24Na3Li5Mg64Fe17Si79(O5F)48
_chemical_formula_sum   'K24 Na3 Li5 Mg64 Fe17 Si79 O240 F48'
_cell_volume   6053.31365309
_cell_formula_units_Z   1
loop_
 _symmetry_equiv_pos_site_id
 _symmetry_equiv_pos_as_xyz
  1  'x, y, z'
loop_
 _atom_site_type_symbol
 _atom_site_label
 _atom_site_symmetry_multiplicity
 _atom_site_fract_x
 _atom_site_fract_y
 _atom_site_fract_z
 _atom_site_occupancy
  K  K0  1  0.01202988  0.00028980  -0.00293265  1
  K  K1  1  -0.00283012  0.00491889  0.50179233  1
  K  K2  1  -0.00545641  0.49840603  0.00069586  1
  K  K3  1  -0.00076382  0.50017235  0.49986815  1
  K  K4  1  0.33000071  0.00047762  0.00186505  1
  K  K5  1  0.33848415  -0.00077837  0.49553116  1
  K  K6  1  0.34087699  0.49511674  -0.00053912  1
  K  K7  1  0.32960292  0.49503494  0.50566087  1
  K  K8  1  0.66056699  -0.00392111  0.00395983  1
  K  K9  1  0.66791550  0.00076502  0.49259780  1
  K  K10  1  0.67183362  0.50950695  -0.00234117  1
  K  K11  1  0.66880240  0.50457675  0.50443458  1
  K  K12  1  0.16547531  0.24787516  -0.00348606  1
  K  K13  1  0.17314882  0.25441345  0.50432508  1
  K  K14  1  0.17732329  0.74930737  -0.00192641  1
  K  K15  1  0.16996509  0.74266079  0.50038873  1
  K  K16  1  0.48815658  0.25006232  -0.00126653  1
  K  K17  1  0.48153744  0.24890414  0.49332151  1
  K  K18  1  0.50235920  0.75090258  0.00319989  1
  K  K19  1  0.50476298  0.74125365  0.49868659  1
  K  K20  1  0.83356448  0.25702471  -0.00131745  1
  K  K21  1  0.83453594  0.24641000  0.49526924  1
  K  K22  1  0.82304841  0.74642449  0.00501960  1
  K  K23  1  0.82926532  0.74647477  0.49682445  1
  Na  Na24  1  0.33358799  0.24888133  0.74591259  1
  Na  Na25  1  -0.00092873  0.42131384  0.74928243  1
  Na  Na26  1  0.33961713  0.91791469  0.25312139  1
  Li  Li27  1  0.16499619  0.49934933  0.25011970  1
  Li  Li28  1  0.33134247  0.25239601  0.24393119  1
  Li  Li29  1  0.49990916  0.83592745  0.25020602  1
  Li  Li30  1  0.66563671  0.58581427  0.74512322  1
  Li  Li31  1  0.00343787  0.91730803  0.75232478  1
  Mg  Mg32  1  0.16314377  -0.00028948  0.75159110  1
  Mg  Mg33  1  0.49938110  0.00100596  0.75087257  1
  Mg  Mg34  1  0.66614927  0.74876907  0.74712387  1
  Mg  Mg35  1  0.50190911  0.50110165  0.74892023  1
  Mg  Mg36  1  0.66642644  0.74999813  0.24616230  1
  Mg  Mg37  1  0.83480833  0.49983104  0.24999278  1
  Mg  Mg38  1  -0.00133225  0.75272883  0.74957740  1
  Mg  Mg39  1  0.83763401  0.00002667  0.75041405  1
  Mg  Mg40  1  0.49768012  0.49790177  0.24581502  1
  Mg  Mg41  1  0.17000671  -0.00062387  0.25063306  1
  Mg  Mg42  1  0.49845011  -0.00078471  0.25185709  1
  Mg  Mg43  1  0.66569778  0.24869752  0.25530285  1
  Mg  Mg44  1  0.00193735  0.25100433  0.25428930  1
  Mg  Mg45  1  0.33183461  0.74830381  0.75140247  1
  Mg  Mg46  1  0.83190351  -0.00009492  0.25276526  1
  Mg  Mg47  1  0.00109744  0.25070350  0.75163761  1
  Mg  Mg48  1  0.16635186  0.50037778  0.74606089  1
  Mg  Mg49  1  0.82967394  0.50343349  0.74846946  1
  Mg  Mg50  1  0.33726808  0.75051303  0.25171435  1
  Mg  Mg51  1  0.66683050  0.25213978  0.75116764  1
  Mg  Mg52  1  -0.00089735  0.74805642  0.25093643  1
  Mg  Mg53  1  0.00266110  0.08228648  0.75233817  1
  Mg  Mg54  1  -0.00233385  0.58514056  0.74703788  1
  Mg  Mg55  1  0.16600903  0.33354917  0.74728601  1
  Mg  Mg56  1  0.16944657  0.83237683  0.25196778  1
  Mg  Mg57  1  0.00304722  0.41608714  0.25152644  1
  Mg  Mg58  1  0.49959481  0.66716894  0.24730860  1
  Mg  Mg59  1  0.33596113  0.08588606  0.25163960  1
  Mg  Mg60  1  0.66555200  0.41492529  0.24961332  1
  Mg  Mg61  1  0.49962438  0.16715805  0.74835705  1
  Mg  Mg62  1  0.17120306  0.16723726  0.24917921  1
  Mg  Mg63  1  0.83381834  0.66431108  0.24844590  1
  Mg  Mg64  1  0.33038587  0.08357726  0.74885629  1
  Mg  Mg65  1  0.33446606  0.58373675  0.75009812  1
  Mg  Mg66  1  0.49919261  0.83443957  0.75079108  1
  Mg  Mg67  1  0.00160562  0.08470785  0.25328370  1
  Mg  Mg68  1  0.83560315  0.16761812  0.75249782  1
  Mg  Mg69  1  0.33040224  0.58219643  0.24862439  1
  Mg  Mg70  1  0.66871514  0.08487501  0.75042907  1
  Mg  Mg71  1  0.49307931  0.33124500  0.24764390  1
  Mg  Mg72  1  0.49517746  0.16696772  0.25439152  1
  Mg  Mg73  1  0.66744056  0.91690178  0.74726908  1
  Mg  Mg74  1  0.66714197  0.58431495  0.24634488  1
  Mg  Mg75  1  0.16512050  0.83462765  0.75259188  1
  Mg  Mg76  1  0.33420179  0.41563977  0.74772239  1
  Mg  Mg77  1  0.33023358  0.91403853  0.75041735  1
  Mg  Mg78  1  0.83146188  0.83402785  0.25064691  1
  Mg  Mg79  1  0.82870313  0.66672107  0.74654600  1
  Mg  Mg80  1  0.66255281  0.91317670  0.25027199  1
  Mg  Mg81  1  0.16902026  0.33534513  0.24809417  1
  Mg  Mg82  1  0.50242374  0.66395891  0.74763640  1
  Mg  Mg83  1  0.16650159  0.66495963  0.75118923  1
  Mg  Mg84  1  0.83386060  0.33670929  0.75182959  1
  Mg  Mg85  1  0.83595848  0.33326780  0.25293508  1
  Mg  Mg86  1  0.16610125  0.66449097  0.25071088  1
  Mg  Mg87  1  0.83433029  0.83530036  0.74691980  1
  Mg  Mg88  1  0.00109448  0.91573872  0.25140084  1
  Mg  Mg89  1  0.66637851  0.08363654  0.25475501  1
  Mg  Mg90  1  0.32804533  0.41571573  0.24613510  1
  Mg  Mg91  1  0.50178543  0.33466383  0.75101179  1
  Mg  Mg92  1  0.83469040  0.16496339  0.25631215  1
  Mg  Mg93  1  0.16766806  0.16392935  0.75009710  1
  Mg  Mg94  1  0.00002611  0.58277032  0.24994179  1
  Mg  Mg95  1  0.66615122  0.41937128  0.74995775  1
  Fe  Fe96  1  0.14256450  0.08642045  0.89337509  1
  Fe  Fe97  1  0.18788583  0.58728748  0.60982154  1
  Fe  Fe98  1  0.35242709  0.16791208  0.11057879  1
  Fe  Fe99  1  0.68902002  0.84117516  0.10778165  1
  Fe  Fe100  1  0.47348552  0.08079351  0.39472426  1
  Fe  Fe101  1  0.19162657  0.07695154  0.60802552  1
  Fe  Fe102  1  0.30936355  0.82949276  0.89130754  1
  Fe  Fe103  1  0.47896844  0.58109231  0.88903582  1
  Fe  Fe104  1  0.69211576  0.66880815  0.60676170  1
  Fe  Fe105  1  0.97992456  0.33506392  0.39248559  1
  Fe  Fe106  1  0.35810221  0.33202207  0.60808427  1
  Fe  Fe107  1  0.34854279  0.33762030  0.10621367  1
  Fe  Fe108  1  0.80760898  0.08262236  0.39383330  1
  Fe  Fe109  1  0.69058313  0.66661820  0.10596191  1
  Fe  Fe110  1  0.97744515  0.66481243  0.39118907  1
  Fe  Fe111  1  0.64544370  0.32962772  0.89020109  1
  Fe  Fe112  1  0.86442049  0.57649221  0.10732865  1
  Si  Si113  1  0.02361023  0.16834972  0.61341545  1
  Si  Si114  1  0.64333031  0.82550551  0.38559031  1
  Si  Si115  1  0.85818111  0.40591466  0.11269742  1
  Si  Si116  1  0.86481049  0.92352725  0.11335515  1
  Si  Si117  1  0.97230823  0.66751976  0.88367082  1
  Si  Si118  1  0.30565333  0.65885523  0.89028937  1
  Si  Si119  1  0.81057330  0.42352750  0.88824763  1
  Si  Si120  1  0.02905062  0.66946166  0.11218541  1
  Si  Si121  1  0.64184814  0.67439929  0.88471837  1
  Si  Si122  1  0.35959428  0.66559033  0.11349241  1
  Si  Si123  1  0.47710346  0.08621614  0.88503012  1
  Si  Si124  1  0.03000493  0.16696915  0.11655791  1
  Si  Si125  1  0.52549795  0.08729845  0.11667716  1
  Si  Si126  1  0.64454520  0.83873924  0.88318679  1
  Si  Si127  1  0.19001921  0.90957478  0.11665622  1
  Si  Si128  1  0.36253845  0.15778103  0.60978810  1
  Si  Si129  1  0.31088097  0.83003888  0.38749997  1
  Si  Si130  1  0.98187892  0.83605871  0.38859077  1
  Si  Si131  1  0.81084854  0.91650919  0.88376433  1
  Si  Si132  1  0.18367561  0.41614458  0.60834081  1
  Si  Si133  1  0.14257936  0.41565354  0.88424475  1
  Si  Si134  1  0.69152544  0.16420011  0.11847292  1
  Si  Si135  1  0.47708695  0.41263878  0.88856921  1
  Si  Si136  1  0.13492428  0.58124263  0.88521599  1
  Si  Si137  1  0.51858564  0.92322023  0.11415089  1
  Si  Si138  1  0.18861395  0.07445074  0.11321212  1
  Si  Si139  1  0.14642013  0.41879089  0.38594215  1
  Si  Si140  1  0.96850459  0.17088197  0.89015082  1
  Si  Si141  1  0.14583837  0.58135734  0.38565614  1
  Si  Si142  1  0.30163505  0.16682693  0.38682931  1
  Si  Si143  1  0.80400419  0.41645352  0.38778497  1
  Si  Si144  1  0.86244032  0.09008540  0.11716202  1
  Si  Si145  1  0.35998336  0.83060964  0.11703421  1
  Si  Si146  1  0.02102857  0.67124608  0.61400636  1
  Si  Si147  1  0.18475961  0.42759310  0.11128171  1
  Si  Si148  1  0.52532645  0.58144708  0.61016895  1
  Si  Si149  1  0.63676214  0.33866041  0.38528111  1
  Si  Si150  1  0.02531699  0.83307708  0.11601678  1
  Si  Si151  1  0.02253836  0.33033102  0.61586816  1
  Si  Si152  1  0.97139198  0.83121079  0.88396949  1
  Si  Si153  1  0.80863699  0.07976398  0.88501140  1
  Si  Si154  1  0.97276597  0.33557879  0.88591407  1
  Si  Si155  1  0.86028160  0.08615228  0.61639347  1
  Si  Si156  1  0.64719043  0.16079978  0.88719063  1
  Si  Si157  1  0.02990301  0.33168442  0.11497434  1
  Si  Si158  1  0.52370445  0.92143207  0.61447020  1
  Si  Si159  1  0.52626772  0.41180902  0.11264777  1
  Si  Si160  1  0.14743302  0.91798338  0.38652509  1
  Si  Si161  1  0.63681988  0.66060388  0.38314596  1
  Si  Si162  1  0.19186666  0.59152207  0.11497611  1
  Si  Si163  1  0.48287736  0.91136760  0.39081012  1
  Si  Si164  1  0.14232943  0.08214750  0.38485239  1
  Si  Si165  1  0.47033117  0.58145080  0.38290639  1
  Si  Si166  1  0.85805755  0.92118470  0.61512181  1
  Si  Si167  1  0.86111032  0.58184557  0.60995329  1
  Si  Si168  1  0.69146324  0.32880727  0.11764349  1
  Si  Si169  1  0.18544913  0.90778853  0.61160055  1
  Si  Si170  1  0.13866957  0.91380642  0.89043182  1
  Si  Si171  1  0.80677189  0.58898657  0.88205550  1
  Si  Si172  1  0.30807461  0.66683118  0.38565372  1
  Si  Si173  1  0.52227680  0.57809102  0.11190032  1
  Si  Si174  1  0.80397805  0.58171148  0.38747485  1
  Si  Si175  1  0.36010870  0.83431918  0.61396833  1
  Si  Si176  1  0.30634384  0.33818154  0.88279337  1
  Si  Si177  1  0.85764156  0.41609073  0.61484896  1
  Si  Si178  1  0.69019598  0.83987042  0.60961699  1
  Si  Si179  1  0.46968563  0.41691025  0.38340178  1
  Si  Si180  1  0.63887664  0.17311739  0.39335078  1
  Si  Si181  1  0.31154908  0.16987874  0.88714073  1
  Si  Si182  1  0.69552939  0.16900671  0.61603648  1
  Si  Si183  1  0.36211443  0.66840310  0.61073455  1
  Si  Si184  1  0.98208155  0.16452165  0.39146360  1
  Si  Si185  1  0.52796736  0.41542285  0.61057266  1
  Si  Si186  1  0.53132499  0.08621400  0.61523767  1
  Si  Si187  1  0.47751151  0.91966247  0.88761353  1
  Si  Si188  1  0.80997617  0.91063123  0.39016684  1
  Si  Si189  1  0.01914634  0.83237346  0.61710342  1
  Si  Si190  1  0.30509626  0.33298716  0.38257800  1
  Si  Si191  1  0.69540674  0.33462378  0.61411110  1
  O  O192  1  0.26396589  0.10160172  0.07792678  1
  O  O193  1  0.29255180  0.09876634  0.57747200  1
  O  O194  1  0.27433916  0.61889111  0.08332105  1
  O  O195  1  0.27814331  0.62792578  0.57426367  1
  O  O196  1  0.61479197  0.10919454  0.08915802  1
  O  O197  1  0.61493295  0.11691172  0.58772606  1
  O  O198  1  0.59742607  0.60544021  0.07661810  1
  O  O199  1  0.59770063  0.61272887  0.57188116  1
  O  O200  1  0.93581849  0.13399776  0.08671069  1
  O  O201  1  0.93822086  0.11930984  0.58530066  1
  O  O202  1  0.96086418  0.61303092  0.07582341  1
  O  O203  1  0.94692264  0.61225994  0.58556185  1
  O  O204  1  0.09706983  0.38056505  0.08265508  1
  O  O205  1  0.10134807  0.36167042  0.58402757  1
  O  O206  1  0.10858831  0.85848269  0.08539545  1
  O  O207  1  0.10362836  0.85366650  0.58598725  1
  O  O208  1  0.45165241  0.36095923  0.07656131  1
  O  O209  1  0.45255707  0.36567215  0.57262929  1
  O  O210  1  0.43332504  0.87372544  0.08624512  1
  O  O211  1  0.43535045  0.87896782  0.58490752  1
  O  O212  1  0.77539187  0.35312522  0.08833693  1
  O  O213  1  0.77515288  0.36656499  0.58207003  1
  O  O214  1  0.78276550  0.88295776  0.07485813  1
  O  O215  1  0.77016245  0.87967415  0.58239155  1
  O  O216  1  0.26007650  0.40401025  0.07325057  1
  O  O217  1  0.26074057  0.38631440  0.57421737  1
  O  O218  1  0.27088639  0.87466233  0.08866925  1
  O  O219  1  0.26823154  0.87097134  0.58473453  1
  O  O220  1  0.61497543  0.38445136  0.08860415  1
  O  O221  1  0.61509761  0.38598940  0.58453468  1
  O  O222  1  0.59302145  0.89784398  0.07549595  1
  O  O223  1  0.60435161  0.88951335  0.58476424  1
  O  O224  1  0.93492279  0.36143499  0.08535979  1
  O  O225  1  0.93951950  0.38126374  0.58872118  1
  O  O226  1  0.94938871  0.88988787  0.08767566  1
  O  O227  1  0.93983053  0.88717984  0.58727956  1
  O  O228  1  0.09861931  0.11822734  0.08603059  1
  O  O229  1  0.09909493  0.13921847  0.57810666  1
  O  O230  1  0.11911806  0.65160210  0.08651657  1
  O  O231  1  0.10148289  0.65443028  0.57987026  1
  O  O232  1  0.45526634  0.14313999  0.08171448  1
  O  O233  1  0.45299429  0.13694032  0.58344659  1
  O  O234  1  0.43646612  0.62638109  0.08431106  1
  O  O235  1  0.44055885  0.63031487  0.58168613  1
  O  O236  1  0.77431954  0.13368981  0.08897167  1
  O  O237  1  0.77638020  0.13490970  0.58760212  1
  O  O238  1  0.77670417  0.63177222  0.06530105  1
  O  O239  1  0.78286076  0.62822546  0.57166292  1
  O  O240  1  0.05690420  0.10273844  0.41354954  1
  O  O241  1  0.04981358  0.12791371  0.92725918  1
  O  O242  1  0.06960064  0.60392822  0.42370712  1
  O  O243  1  0.05412852  0.61682646  0.91388672  1
  O  O244  1  0.37789954  0.11806082  0.42533990  1
  O  O245  1  0.40117644  0.12535457  0.91521641  1
  O  O246  1  0.39356929  0.61956549  0.41406474  1
  O  O247  1  0.37734399  0.60054520  0.91927855  1
  O  O248  1  0.72086212  0.12754512  0.42885693  1
  O  O249  1  0.72201928  0.09965174  0.91272495  1
  O  O250  1  0.71667602  0.60893740  0.41331164  1
  O  O251  1  0.72825165  0.62629232  0.91066696  1
  O  O252  1  0.22846886  0.36725039  0.41588228  1
  O  O253  1  0.22719730  0.36984287  0.91702612  1
  O  O254  1  0.23155787  0.86910430  0.41683330  1
  O  O255  1  0.21382360  0.86012509  0.92459389  1
  O  O256  1  0.55553095  0.37182366  0.41438355  1
  O  O257  1  0.54480257  0.35079400  0.91931033  1
  O  O258  1  0.56649257  0.85941023  0.41966224  1
  O  O259  1  0.56667661  0.87513290  0.91341060  1
  O  O260  1  0.87958469  0.36467747  0.42266041  1
  O  O261  1  0.90243946  0.38326995  0.91650191  1
  O  O262  1  0.89924896  0.86725218  0.41733704  1
  O  O263  1  0.88906480  0.86299628  0.91380758  1
  O  O264  1  0.06884318  0.39886855  0.42379445  1
  O  O265  1  0.06400799  0.37526683  0.91225217  1
  O  O266  1  0.06357529  0.89062437  0.41513786  1
  O  O267  1  0.05075100  0.88229227  0.91432720  1
  O  O268  1  0.39187176  0.37901279  0.41260914  1
  O  O269  1  0.38657195  0.38969240  0.91258753  1
  O  O270  1  0.39928607  0.87208800  0.41593130  1
  O  O271  1  0.40500816  0.88721986  0.92377051  1
  O  O272  1  0.71605940  0.39197227  0.41379004  1
  O  O273  1  0.73965565  0.38815106  0.92495509  1
  O  O274  1  0.73351031  0.86515399  0.41703814  1
  O  O275  1  0.72678468  0.88994963  0.91196251  1
  O  O276  1  0.21550492  0.13969989  0.41515023  1
  O  O277  1  0.24021488  0.13996629  0.92669819  1
  O  O278  1  0.22833331  0.63350778  0.41464413  1
  O  O279  1  0.21702804  0.63012282  0.91496718  1
  O  O280  1  0.55892854  0.14801838  0.42609673  1
  O  O281  1  0.56358657  0.13056646  0.91475802  1
  O  O282  1  0.55598508  0.62710192  0.41283094  1
  O  O283  1  0.56706381  0.64662157  0.92143343  1
  O  O284  1  0.90356960  0.13820932  0.42557185  1
  O  O285  1  0.88342885  0.13631492  0.91530430  1
  O  O286  1  0.87995254  0.63258375  0.42285359  1
  O  O287  1  0.89137631  0.63643889  0.91345399  1
  O  O288  1  0.16777674  -0.00945932  0.08663528  1
  O  O289  1  0.16260616  -0.01676837  0.57391389  1
  O  O290  1  0.15987067  0.51188216  0.08634621  1
  O  O291  1  0.15595293  0.49517450  0.57744336  1
  O  O292  1  0.49606265  0.00661464  0.08773392  1
  O  O293  1  0.51177927  0.00413920  0.58661828  1
  O  O294  1  0.50221427  0.49450761  0.08684797  1
  O  O295  1  0.50863836  0.49808632  0.58199881  1
  O  O296  1  0.85908917  0.00845679  0.08663416  1
  O  O297  1  0.84491718  0.00424854  0.58674616  1
  O  O298  1  0.84543704  0.48092943  0.07345252  1
  O  O299  1  0.84689001  0.49750516  0.58309131  1
  O  O300  1  0.03352816  0.24870157  0.08629174  1
  O  O301  1  -0.00254995  0.25005734  0.58474657  1
  O  O302  1  0.00097171  0.75241848  0.08624452  1
  O  O303  1  -0.01440954  0.75256531  0.58889053  1
  O  O304  1  0.31394248  0.25128352  0.06663780  1
  O  O305  1  0.33598841  0.23642089  0.57875000  1
  O  O306  1  0.34849812  0.74835450  0.08366668  1
  O  O307  1  0.36027373  0.75311319  0.58315236  1
  O  O308  1  0.66933165  0.24623887  0.08941679  1
  O  O309  1  0.67926743  0.25093020  0.58617692  1
  O  O310  1  0.66434088  0.75482820  0.06554122  1
  O  O311  1  0.67397856  0.76391206  0.57219745  1
  O  O312  1  0.16971727  0.00045554  0.41293422  1
  O  O313  1  0.15367777  -0.00793724  0.92631249  1
  O  O314  1  0.17974657  0.50039655  0.40914234  1
  O  O315  1  0.14734179  0.49854953  0.91519147  1
  O  O316  1  0.49724989  -0.01308849  0.43137100  1
  O  O317  1  0.49414557  0.00381588  0.91375373  1
  O  O318  1  0.48138910  0.49946395  0.41382880  1
  O  O319  1  0.50860072  0.48890391  0.92317397  1
  O  O320  1  0.81770592  -0.01246306  0.42773693  1
  O  O321  1  0.83579223  -0.00189543  0.91244412  1
  O  O322  1  0.82096675  0.49905299  0.41637698  1
  O  O323  1  0.82362211  0.50792193  0.91379004  1
  O  O324  1  0.31874577  0.25116131  0.41281955  1
  O  O325  1  0.32927613  0.25543780  0.90893245  1
  O  O326  1  0.32265732  0.74781898  0.41893896  1
  O  O327  1  0.32871732  0.73613802  0.92600208  1
  O  O328  1  0.65860190  0.25883657  0.41654682  1
  O  O329  1  0.67886259  0.23558302  0.92227367  1
  O  O330  1  0.65382649  0.74177457  0.41410503  1
  O  O331  1  0.66657591  0.75802961  0.91187919  1
  O  O332  1  1.01616296  0.24193371  0.42145577  1
  O  O333  1  0.97391550  0.25462495  0.91939881  1
  O  O334  1  1.00689687  0.75912555  0.42274849  1
  O  O335  1  0.99041646  0.74926314  0.91434813  1
  O  O336  1  0.20683532  0.08045172  0.19371548  1
  O  O337  1  0.21089022  0.07994695  0.69945615  1
  O  O338  1  0.21266556  0.59009370  0.19456440  1
  O  O339  1  0.21250780  0.58597017  0.70142464  1
  O  O340  1  0.54717673  0.08659880  0.19748223  1
  O  O341  1  0.54825843  0.08319215  0.69587497  1
  O  O342  1  0.54115829  0.58125572  0.19306617  1
  O  O343  1  0.54211265  0.58389486  0.69013992  1
  O  O344  1  0.88029890  0.08620911  0.19737368  1
  O  O345  1  0.87684342  0.08563823  0.69683926  1
  O  O346  1  0.87749627  0.58024585  0.19939414  1
  O  O347  1  0.87438911  0.58481985  0.69069720  1
  O  O348  1  0.04565480  0.33231340  0.19496039  1
  O  O349  1  0.04395542  0.32715786  0.69522035  1
  O  O350  1  0.04320261  0.83309386  0.19667996  1
  O  O351  1  0.04226994  0.83273212  0.69677164  1
  O  O352  1  0.37615558  0.33761122  0.19729444  1
  O  O353  1  0.38569670  0.34106547  0.69767569  1
  O  O354  1  0.37915144  0.82441998  0.19548720  1
  O  O355  1  0.37876826  0.83471704  0.69423959  1
  O  O356  1  0.71034171  0.33023372  0.19836078  1
  O  O357  1  0.71356486  0.33293612  0.69430806  1
  O  O358  1  0.71252454  0.83518477  0.20024999  1
  O  O359  1  0.70888093  0.83734849  0.69078848  1
  O  O360  1  0.20680942  0.41817784  0.19091515  1
  O  O361  1  0.20593220  0.41641699  0.68978003  1
  O  O362  1  0.20145978  0.91331973  0.19588181  1
  O  O363  1  0.20624311  0.91372081  0.69234078  1
  O  O364  1  0.54355358  0.41332961  0.19395509  1
  O  O365  1  0.54502412  0.41670309  0.69126999  1
  O  O366  1  0.54317721  0.92096988  0.19412569  1
  O  O367  1  0.54249356  0.91856722  0.69503390  1
  O  O368  1  0.87523092  0.41312104  0.19335664  1
  O  O369  1  0.86556939  0.41771381  0.69389738  1
  O  O370  1  0.87854605  0.91973813  0.19455753  1
  O  O371  1  0.87154280  0.91887095  0.69463397  1
  O  O372  1  0.04422682  0.16634388  0.19687394  1
  O  O373  1  0.03861924  0.16657401  0.69431136  1
  O  O374  1  0.04479137  0.66811129  0.19300587  1
  O  O375  1  0.04062657  0.66965526  0.69511107  1
  O  O376  1  0.37681082  0.16823051  0.20103075  1
  O  O377  1  0.38318844  0.15440191  0.69041545  1
  O  O378  1  0.37606739  0.66480251  0.19392743  1
  O  O379  1  0.37589627  0.66953451  0.69159820  1
  O  O380  1  0.71067861  0.16692320  0.19878827  1
  O  O381  1  0.71290149  0.16782648  0.69660498  1
  O  O382  1  0.71256025  0.66583654  0.19931254  1
  O  O383  1  0.71145121  0.67164983  0.69705295  1
  O  O384  1  0.12335899  0.08262291  0.30428526  1
  O  O385  1  0.12008093  0.08441956  0.80204503  1
  O  O386  1  0.12194409  0.58760174  0.30568295  1
  O  O387  1  0.11832408  0.58289726  0.80510407  1
  O  O388  1  0.45768758  0.08159640  0.30381814  1
  O  O389  1  0.45891434  0.08378473  0.80446042  1
  O  O390  1  0.45463894  0.58124690  0.30279125  1
  O  O391  1  0.45626915  0.58458097  0.79705942  1
  O  O392  1  0.78928248  0.08238682  0.30194800  1
  O  O393  1  0.79120743  0.08256039  0.80442260  1
  O  O394  1  0.78827752  0.58065974  0.30686707  1
  O  O395  1  0.79270633  0.58668291  0.80268757  1
  O  O396  1  0.28616366  0.33717560  0.30332130  1
  O  O397  1  0.28342424  0.34119038  0.80357633  1
  O  O398  1  0.28720003  0.82548757  0.30856258  1
  O  O399  1  0.28897146  0.83198456  0.79927606  1
  O  O400  1  0.62117285  0.33601397  0.30494001  1
  O  O401  1  0.62565389  0.33417441  0.79844245  1
  O  O402  1  0.62726299  0.82915344  0.30622882  1
  O  O403  1  0.62456011  0.83780597  0.80245170  1
  O  O404  1  0.95606971  0.33350822  0.30053284  1
  O  O405  1  0.95150199  0.32835979  0.80690372  1
  O  O406  1  0.96019012  0.83537630  0.30726422  1
  O  O407  1  0.95174252  0.83051345  0.80437343  1
  O  O408  1  0.12271265  0.41195471  0.30607932  1
  O  O409  1  0.13117850  0.41843949  0.80509597  1
  O  O410  1  0.12631734  0.91558195  0.30613431  1
  O  O411  1  0.12746598  0.91585656  0.80975041  1
  O  O412  1  0.45588303  0.41870114  0.30354429  1
  O  O413  1  0.46016220  0.41745385  0.80724098  1
  O  O414  1  0.47061326  0.91762819  0.31213518  1
  O  O415  1  0.45838349  0.91725291  0.80641423  1
  O  O416  1  0.78881828  0.41555927  0.30648585  1
  O  O417  1  0.79127237  0.41880919  0.80746878  1
  O  O418  1  0.79315216  0.91575269  0.30935347  1
  O  O419  1  0.79061805  0.91748232  0.80334425  1
  O  O420  1  0.28503280  0.16313527  0.30714411  1
  O  O421  1  0.28864534  0.15976386  0.80791463  1
  O  O422  1  0.29100876  0.66636587  0.30550119  1
  O  O423  1  0.28956341  0.66578111  0.80880159  1
  O  O424  1  0.62526192  0.16804607  0.31185458  1
  O  O425  1  0.62820636  0.16387102  0.80612214  1
  O  O426  1  0.62013799  0.66238883  0.30327006  1
  O  O427  1  0.61953069  0.67513434  0.80479819  1
  O  O428  1  0.95968957  0.16550314  0.30944741  1
  O  O429  1  0.95496156  0.16846089  0.80918961  1
  O  O430  1  0.95600809  0.66694481  0.29968261  1
  O  O431  1  0.95492697  0.66907369  0.80325581  1
  F  F432  1  0.04487815  -0.00004237  0.20430956  1
  F  F433  1  0.04285435  0.00032438  0.70203609  1
  F  F434  1  0.04049325  0.49909829  0.20262076  1
  F  F435  1  0.04806021  0.51077925  0.69671160  1
  F  F436  1  0.38170772  0.00800893  0.19866237  1
  F  F437  1  0.38019910  -0.00381329  0.70355277  1
  F  F438  1  0.37770720  0.50135993  0.19862055  1
  F  F439  1  0.37832244  0.50001479  0.70000478  1
  F  F440  1  0.71224359  -0.00137383  0.20341405  1
  F  F441  1  0.71341858  0.00180319  0.70152953  1
  F  F442  1  0.71226374  0.49709518  0.20242063  1
  F  F443  1  0.71297661  0.49677133  0.69932407  1
  F  F444  1  0.20389982  0.24995633  0.19866354  1
  F  F445  1  0.19835963  0.24764325  0.69914993  1
  F  F446  1  0.21283916  0.74935095  0.20342247  1
  F  F447  1  0.21014317  0.74849500  0.70296692  1
  F  F448  1  0.54828776  0.24890458  0.20516300  1
  F  F449  1  0.54984906  0.24554645  0.69878052  1
  F  F450  1  0.54674796  0.74456618  0.19973845  1
  F  F451  1  0.54402392  0.75428227  0.69982167  1
  F  F452  1  0.87854563  0.24600692  0.20450308  1
  F  F453  1  0.87757666  0.24987758  0.70306506  1
  F  F454  1  0.87941051  0.75437315  0.20149091  1
  F  F455  1  0.87705971  0.75138755  0.69981728  1
  F  F456  1  0.28369236  0.00765106  0.30218148  1
  F  F457  1  0.28943225  -0.00351368  0.79841135  1
  F  F458  1  0.29347158  0.50014372  0.29696044  1
  F  F459  1  0.28821067  0.49866200  0.79571550  1
  F  F460  1  0.62425786  -0.00110275  0.29988037  1
  F  F461  1  0.62305044  -0.00033575  0.79696319  1
  F  F462  1  0.61905404  0.49962685  0.29516632  1
  F  F463  1  0.62039406  0.49873641  0.79701044  1
  F  F464  1  0.95539460  -0.00057727  0.29899023  1
  F  F465  1  0.95145571  0.00503059  0.80180424  1
  F  F466  1  0.95434203  0.49693572  0.30024655  1
  F  F467  1  0.94771985  0.51180334  0.79932166  1
  F  F468  1  0.12288382  0.24930654  0.29785920  1
  F  F469  1  0.12047836  0.24982861  0.80064004  1
  F  F470  1  0.12142010  0.74979118  0.29825297  1
  F  F471  1  0.11958164  0.74900203  0.79901576  1
  F  F472  1  0.46479400  0.25290681  0.30477632  1
  F  F473  1  0.46997998  0.24746030  0.79994797  1
  F  F474  1  0.45326445  0.73971983  0.30296751  1
  F  F475  1  0.45462011  0.75094879  0.79585715  1
  F  F476  1  0.78868325  0.25024360  0.30139654  1
  F  F477  1  0.78865740  0.25042620  0.79912527  1
  F  F478  1  0.79109126  0.74910819  0.29965461  1
  F  F479  1  0.78780467  0.75531716  0.79663435  1
