# generated using pymatgen
data_K24Na3Li5Mg64Fe17Si79(O5F)48
_symmetry_space_group_name_H-M   'P 1'
_cell_length_a   16.09811135
_cell_length_b   18.60485456
_cell_length_c   20.56185461
_cell_angle_alpha   90.01287104
_cell_angle_beta   100.03534961
_cell_angle_gamma   89.97594588
_symmetry_Int_Tables_number   1
_chemical_formula_structural   K24Na3Li5Mg64Fe17Si79(O5F)48
_chemical_formula_sum   'K24 Na3 Li5 Mg64 Fe17 Si79 O240 F48'
_cell_volume   6064.11704084
_cell_formula_units_Z   1
loop_
 _symmetry_equiv_pos_site_id
 _symmetry_equiv_pos_as_xyz
  1  'x, y, z'
loop_
 _atom_site_type_symbol
 _atom_site_label
 _atom_site_symmetry_multiplicity
 _atom_site_fract_x
 _atom_site_fract_y
 _atom_site_fract_z
 _atom_site_occupancy
  K  K0  1  -0.00420244  0.00295993  -0.00393424  1
  K  K1  1  -0.00347903  0.00854328  0.50376785  1
  K  K2  1  0.00343672  0.49900956  -0.00429709  1
  K  K3  1  -0.00225215  0.49877281  0.51517735  1
  K  K4  1  0.34148514  0.00294607  0.00402759  1
  K  K5  1  0.33862441  0.00997166  0.50860046  1
  K  K6  1  0.33497494  0.50742666  -0.01060495  1
  K  K7  1  0.32956757  0.49042679  0.50289617  1
  K  K8  1  0.66414478  0.00332741  -0.00284935  1
  K  K9  1  0.66140645  0.00560947  0.50335103  1
  K  K10  1  0.65765267  0.50044026  -0.00568088  1
  K  K11  1  0.66913052  0.48562018  0.51134089  1
  K  K12  1  0.17189318  0.24369410  0.00052989  1
  K  K13  1  0.17865545  0.24067962  0.50384678  1
  K  K14  1  0.16569250  0.75633961  -0.00451879  1
  K  K15  1  0.17020265  0.74950027  0.50492669  1
  K  K16  1  0.49997344  0.24531289  0.00249990  1
  K  K17  1  0.50191148  0.24532822  0.50432663  1
  K  K18  1  0.49232051  0.74760922  -0.00487248  1
  K  K19  1  0.49852468  0.75677709  0.50315960  1
  K  K20  1  0.82602524  0.24381493  -0.02350431  1
  K  K21  1  0.81805048  0.24848931  0.50193975  1
  K  K22  1  0.83469417  0.74832184  -0.00208786  1
  K  K23  1  0.83622125  0.75764773  0.50844393  1
  Na  Na24  1  0.16770330  0.50048482  0.74980641  1
  Na  Na25  1  0.82665600  0.32788693  0.75070360  1
  Na  Na26  1  0.33387636  0.08018640  0.25926529  1
  Li  Li27  1  0.66477598  0.25384657  0.74826593  1
  Li  Li28  1  0.17374417  0.00151195  0.25089171  1
  Li  Li29  1  0.67043013  0.40812931  0.74910535  1
  Li  Li30  1  0.49797423  0.15827337  0.25784964  1
  Li  Li31  1  0.33819340  0.08510944  0.74920301  1
  Mg  Mg32  1  0.33059545  0.75012671  0.75289043  1
  Mg  Mg33  1  0.33508676  0.24812895  0.25663836  1
  Mg  Mg34  1  0.00480192  0.75113598  0.24470443  1
  Mg  Mg35  1  -0.00224622  0.24958189  0.25197977  1
  Mg  Mg36  1  0.16844098  0.00127305  0.75175916  1
  Mg  Mg37  1  0.33729893  0.24878025  0.74896270  1
  Mg  Mg38  1  0.66001132  0.24805647  0.25284851  1
  Mg  Mg39  1  0.50200592  -0.00092008  0.24826133  1
  Mg  Mg40  1  0.66963515  0.75087291  0.24405303  1
  Mg  Mg41  1  0.50086982  0.50195461  0.24716329  1
  Mg  Mg42  1  0.83093370  -0.00004573  0.75278362  1
  Mg  Mg43  1  0.83088065  0.49495285  0.74601149  1
  Mg  Mg44  1  0.00078020  0.24942381  0.75053369  1
  Mg  Mg45  1  0.83281187  0.00236178  0.25432861  1
  Mg  Mg46  1  0.50270016  0.49815647  0.75083131  1
  Mg  Mg47  1  0.66545031  0.74918041  0.75033373  1
  Mg  Mg48  1  -0.00207591  0.75066087  0.74971826  1
  Mg  Mg49  1  0.49696350  0.00355597  0.75104632  1
  Mg  Mg50  1  0.33447884  0.75152692  0.24465518  1
  Mg  Mg51  1  0.16789489  0.49887885  0.24924232  1
  Mg  Mg52  1  0.83381411  0.50032885  0.24634450  1
  Mg  Mg53  1  0.66605432  0.58478388  0.24419387  1
  Mg  Mg54  1  0.16928405  0.83920848  0.24597651  1
  Mg  Mg55  1  0.49807122  0.83510333  0.75217780  1
  Mg  Mg56  1  0.66401414  0.41579084  0.24765980  1
  Mg  Mg57  1  0.00415657  0.91953557  0.24917406  1
  Mg  Mg58  1  0.49997765  0.66626544  0.24270410  1
  Mg  Mg59  1  0.16552434  0.83601175  0.75400447  1
  Mg  Mg60  1  0.50144898  0.16630372  0.75178379  1
  Mg  Mg61  1  0.00247731  0.58517460  0.24478427  1
  Mg  Mg62  1  -0.00416057  0.91662508  0.75204653  1
  Mg  Mg63  1  0.83333017  0.83483174  0.75187185  1
  Mg  Mg64  1  0.66280168  0.08534582  0.25367196  1
  Mg  Mg65  1  0.00144845  0.08416893  0.25351506  1
  Mg  Mg66  1  0.83051346  0.16715218  0.75513961  1
  Mg  Mg67  1  0.33375579  0.41703304  0.74866824  1
  Mg  Mg68  1  0.00094913  0.41581635  0.25078117  1
  Mg  Mg69  1  -0.00148944  0.41507356  0.74728512  1
  Mg  Mg70  1  0.50632764  0.33307422  0.74819799  1
  Mg  Mg71  1  0.49900372  0.33279884  0.25143933  1
  Mg  Mg72  1  0.66453019  0.91596409  0.75257380  1
  Mg  Mg73  1  0.33324142  0.58483209  0.24587256  1
  Mg  Mg74  1  -0.00020312  0.58230489  0.74786386  1
  Mg  Mg75  1  0.83323536  0.66410523  0.75005617  1
  Mg  Mg76  1  0.82947522  0.16565546  0.25482415  1
  Mg  Mg77  1  0.33114126  0.58435648  0.75111889  1
  Mg  Mg78  1  0.16710752  0.33287915  0.74772483  1
  Mg  Mg79  1  0.17031682  0.33195140  0.25424414  1
  Mg  Mg80  1  0.33369976  0.91688800  0.24570886  1
  Mg  Mg81  1  0.16752269  0.16462670  0.25474338  1
  Mg  Mg82  1  -0.00076563  0.08472198  0.75219245  1
  Mg  Mg83  1  0.49877311  0.83466701  0.24384105  1
  Mg  Mg84  1  0.49871852  0.66468971  0.74947352  1
  Mg  Mg85  1  0.83613764  0.66576866  0.24408639  1
  Mg  Mg86  1  0.33483169  0.41501328  0.25314018  1
  Mg  Mg87  1  0.33470206  0.92001244  0.75397977  1
  Mg  Mg88  1  0.66777872  0.91589054  0.24732889  1
  Mg  Mg89  1  0.66551941  0.08819785  0.75248702  1
  Mg  Mg90  1  0.17202301  0.16433478  0.74880755  1
  Mg  Mg91  1  0.16719123  0.66566372  0.75008461  1
  Mg  Mg92  1  0.83715774  0.83493036  0.24875855  1
  Mg  Mg93  1  0.83109915  0.33358831  0.24988200  1
  Mg  Mg94  1  0.16653773  0.66699596  0.24520658  1
  Mg  Mg95  1  0.66728609  0.57880186  0.74982760  1
  Fe  Fe96  1  0.02931698  0.66923373  0.10483930  1
  Fe  Fe97  1  0.97359581  0.83001668  0.89143664  1
  Fe  Fe98  1  0.35892795  0.16674023  0.61193964  1
  Fe  Fe99  1  0.35224751  0.83127844  0.10505546  1
  Fe  Fe100  1  0.80763215  0.08220845  0.89265364  1
  Fe  Fe101  1  0.52591028  0.58434701  0.10527617  1
  Fe  Fe102  1  0.85797742  0.41412745  0.60694025  1
  Fe  Fe103  1  0.80678207  0.08318910  0.39443769  1
  Fe  Fe104  1  0.30824812  0.15996879  0.39589741  1
  Fe  Fe105  1  0.30511541  0.66924386  0.89253476  1
  Fe  Fe106  1  0.52959848  0.91550069  0.10620491  1
  Fe  Fe107  1  0.31285132  0.33190888  0.39408126  1
  Fe  Fe108  1  0.63033183  0.16696021  0.39330357  1
  Fe  Fe109  1  0.53090983  0.08199714  0.61050615  1
  Fe  Fe110  1  0.18897399  0.58399885  0.60700488  1
  Fe  Fe111  1  0.85337557  0.92168513  0.61087941  1
  Fe  Fe112  1  0.47431553  0.92156440  0.89131685  1
  Si  Si113  1  0.52190113  0.41757513  0.61398530  1
  Si  Si114  1  0.69092365  0.33152082  0.11477678  1
  Si  Si115  1  0.85575327  0.41478050  0.11360313  1
  Si  Si116  1  0.02598050  0.83776071  0.61415675  1
  Si  Si117  1  0.13518215  0.58028091  0.88652635  1
  Si  Si118  1  0.30762546  0.66939118  0.38236312  1
  Si  Si119  1  0.35642362  0.33807246  0.61384950  1
  Si  Si120  1  0.68963960  0.16766518  0.11567808  1
  Si  Si121  1  0.81009637  0.41792296  0.88515279  1
  Si  Si122  1  0.13803542  0.41797705  0.38754877  1
  Si  Si123  1  0.14387645  0.58303371  0.38287240  1
  Si  Si124  1  0.69032366  0.66401577  0.61574164  1
  Si  Si125  1  0.02708544  0.16174236  0.61613087  1
  Si  Si126  1  0.02122862  0.67279709  0.61181990  1
  Si  Si127  1  0.80826225  0.58005550  0.88486845  1
  Si  Si128  1  0.02709037  0.84117244  0.11081997  1
  Si  Si129  1  0.97845952  0.82820656  0.38343949  1
  Si  Si130  1  0.97368759  0.33688433  0.38472987  1
  Si  Si131  1  0.80068560  0.90987536  0.89180057  1
  Si  Si132  1  0.19681072  0.57766798  0.11104379  1
  Si  Si133  1  0.19085267  0.41275673  0.61340259  1
  Si  Si134  1  0.97424302  0.66022455  0.88617436  1
  Si  Si135  1  0.14737253  0.08742616  0.88689144  1
  Si  Si136  1  0.52177123  0.41278494  0.11112005  1
  Si  Si137  1  0.68786226  0.82823767  0.61391320  1
  Si  Si138  1  0.47696392  0.42731691  0.38671733  1
  Si  Si139  1  0.64691831  0.82976816  0.38322482  1
  Si  Si140  1  0.47857983  0.09048904  0.88979960  1
  Si  Si141  1  0.64344516  0.66218603  0.88386185  1
  Si  Si142  1  0.97687762  0.66415073  0.38188953  1
  Si  Si143  1  0.69659393  0.17086415  0.61749852  1
  Si  Si144  1  0.19346434  0.91235527  0.61710760  1
  Si  Si145  1  0.13637632  0.92291414  0.88751065  1
  Si  Si146  1  0.52664343  0.58252797  0.61418835  1
  Si  Si147  1  0.52158893  0.08635163  0.11362457  1
  Si  Si148  1  0.47968751  0.90887805  0.38504592  1
  Si  Si149  1  0.52309374  0.91155986  0.61374706  1
  Si  Si150  1  0.64377112  0.33720125  0.88503489  1
  Si  Si151  1  0.64672257  0.66705879  0.38165009  1
  Si  Si152  1  0.14015968  0.91539940  0.38390415  1
  Si  Si153  1  0.80826730  0.41835604  0.38265617  1
  Si  Si154  1  0.31074873  0.33436905  0.88524926  1
  Si  Si155  1  0.13221022  0.08247808  0.38991783  1
  Si  Si156  1  0.68334513  0.33302569  0.61239438  1
  Si  Si157  1  0.18667384  0.08800470  0.11753298  1
  Si  Si158  1  0.81407606  0.91157298  0.38688290  1
  Si  Si159  1  0.97229484  0.17263239  0.38905747  1
  Si  Si160  1  0.36183687  0.66480838  0.61136967  1
  Si  Si161  1  0.81077162  0.58312632  0.38136453  1
  Si  Si162  1  0.03034450  0.32668644  0.61099052  1
  Si  Si163  1  0.30226820  0.84100416  0.88964140  1
  Si  Si164  1  0.31071487  0.17008573  0.88590266  1
  Si  Si165  1  0.19169460  0.92388477  0.10958569  1
  Si  Si166  1  0.97899724  0.33390183  0.88639735  1
  Si  Si167  1  0.47703951  0.59165601  0.38232441  1
  Si  Si168  1  0.18914346  0.07689033  0.61433653  1
  Si  Si169  1  0.47792397  0.41570704  0.88457612  1
  Si  Si170  1  0.64086644  0.34074422  0.38716966  1
  Si  Si171  1  0.35645722  0.33137104  0.11550864  1
  Si  Si172  1  0.47322600  0.07038803  0.38952499  1
  Si  Si173  1  0.02177156  0.16816632  0.11621583  1
  Si  Si174  1  0.30757424  0.83474883  0.38335423  1
  Si  Si175  1  0.86269902  0.57924844  0.10967104  1
  Si  Si176  1  0.70032695  0.66764799  0.10838176  1
  Si  Si177  1  0.85672822  0.09029400  0.61710574  1
  Si  Si178  1  0.35789875  0.82999384  0.61684889  1
  Si  Si179  1  0.98087410  0.16807633  0.89042920  1
  Si  Si180  1  0.18979868  0.41332622  0.11503216  1
  Si  Si181  1  0.63925857  0.17308262  0.88957954  1
  Si  Si182  1  0.14201824  0.41270082  0.88468745  1
  Si  Si183  1  0.85637817  0.08595926  0.11755896  1
  Si  Si184  1  0.35290848  0.66398107  0.10990054  1
  Si  Si185  1  0.63577228  0.82666159  0.88722427  1
  Si  Si186  1  0.85665431  0.58665241  0.61138665  1
  Si  Si187  1  0.86554356  0.92185756  0.11716857  1
  Si  Si188  1  0.35601305  0.16882461  0.11942100  1
  Si  Si189  1  0.47627576  0.58187141  0.88591617  1
  Si  Si190  1  0.02257911  0.33300195  0.11557532  1
  Si  Si191  1  0.70479352  0.83489543  0.11086251  1
  O  O192  1  0.26779301  0.12418734  0.08866767  1
  O  O193  1  0.26372636  0.10790481  0.58020239  1
  O  O194  1  0.28782994  0.59458027  0.08888691  1
  O  O195  1  0.28578137  0.61629946  0.57262246  1
  O  O196  1  0.60033314  0.12886274  0.08493161  1
  O  O197  1  0.63091443  0.11094677  0.58282913  1
  O  O198  1  0.62070389  0.62117673  0.07315072  1
  O  O199  1  0.61003516  0.61183483  0.58545870  1
  O  O200  1  0.93513264  0.12241157  0.08710448  1
  O  O201  1  0.94218473  0.11532172  0.58816931  1
  O  O202  1  0.94228022  0.60143132  0.07645521  1
  O  O203  1  0.93317748  0.62897250  0.58283127  1
  O  O204  1  0.10326140  0.36678266  0.08620841  1
  O  O205  1  0.11820124  0.35171930  0.58569452  1
  O  O206  1  0.10663406  0.87495556  0.08122857  1
  O  O207  1  0.11458978  0.85889114  0.58737779  1
  O  O208  1  0.43684413  0.36318399  0.08452862  1
  O  O209  1  0.43569236  0.37365928  0.58322755  1
  O  O210  1  0.44809584  0.85028606  0.07004043  1
  O  O211  1  0.43888968  0.86037696  0.58717821  1
  O  O212  1  0.77058533  0.36808398  0.08546494  1
  O  O213  1  0.75654928  0.36518947  0.57408471  1
  O  O214  1  0.79253017  0.86388056  0.08732332  1
  O  O215  1  0.76393686  0.85664740  0.57877285  1
  O  O216  1  0.26928434  0.37732929  0.08584711  1
  O  O217  1  0.27802028  0.39347026  0.58528193  1
  O  O218  1  0.26650019  0.89843391  0.07181308  1
  O  O219  1  0.27440609  0.87907047  0.58709036  1
  O  O220  1  0.60302771  0.37357713  0.08475221  1
  O  O221  1  0.59707481  0.38147249  0.58054421  1
  O  O222  1  0.63053838  0.88632748  0.07642951  1
  O  O223  1  0.60003055  0.87087930  0.58408559  1
  O  O224  1  0.93747706  0.38079186  0.08535050  1
  O  O225  1  0.95212675  0.37437656  0.57382109  1
  O  O226  1  0.95005234  0.89982248  0.08808686  1
  O  O227  1  0.95239992  0.89137177  0.57927117  1
  O  O228  1  0.10116799  0.13634704  0.08454678  1
  O  O229  1  0.10147045  0.12158944  0.58427549  1
  O  O230  1  0.12464551  0.63141144  0.07501277  1
  O  O231  1  0.09465129  0.64383917  0.57380486  1
  O  O232  1  0.43517974  0.13560476  0.08748116  1
  O  O233  1  0.44248972  0.13688936  0.56779676  1
  O  O234  1  0.43581667  0.64656721  0.07754482  1
  O  O235  1  0.44923784  0.63778569  0.58452426  1
  O  O236  1  0.76910875  0.12949864  0.08753513  1
  O  O237  1  0.78816411  0.15434776  0.59327761  1
  O  O238  1  0.78382228  0.63340516  0.08249885  1
  O  O239  1  0.77163989  0.63695345  0.58455768  1
  O  O240  1  0.04875154  0.11621479  0.41754433  1
  O  O241  1  0.07215417  0.12686122  0.91890707  1
  O  O242  1  0.06311624  0.61883975  0.41072246  1
  O  O243  1  0.04655197  0.59938161  0.91361976  1
  O  O244  1  0.38204905  0.08172012  0.41154953  1
  O  O245  1  0.39508684  0.12474433  0.91771322  1
  O  O246  1  0.39826276  0.62957171  0.41191439  1
  O  O247  1  0.40417151  0.61460148  0.92249865  1
  O  O248  1  0.71937055  0.11013786  0.43452973  1
  O  O249  1  0.71941606  0.12711821  0.92775195  1
  O  O250  1  0.72986439  0.61664049  0.41055341  1
  O  O251  1  0.72662053  0.61304890  0.91355411  1
  O  O252  1  0.21283395  0.36780745  0.42321823  1
  O  O253  1  0.23169618  0.37075284  0.91558210  1
  O  O254  1  0.23115321  0.87496570  0.41383465  1
  O  O255  1  0.21359534  0.86716878  0.91360290  1
  O  O256  1  0.56608777  0.38577522  0.41499238  1
  O  O257  1  0.56568819  0.37437160  0.91784752  1
  O  O258  1  0.56351392  0.85721044  0.41257271  1
  O  O259  1  0.55455389  0.84828334  0.91887676  1
  O  O260  1  0.88887230  0.36632430  0.41147520  1
  O  O261  1  0.89842089  0.37207757  0.91432339  1
  O  O262  1  0.89511006  0.85615286  0.41189688  1
  O  O263  1  0.87416932  0.85299862  0.92231637  1
  O  O264  1  0.04808531  0.39518800  0.41142610  1
  O  O265  1  0.06595733  0.37816474  0.92049825  1
  O  O266  1  0.06542618  0.87111658  0.41490218  1
  O  O267  1  0.05658072  0.90029526  0.92104676  1
  O  O268  1  0.40033565  0.40059807  0.42100988  1
  O  O269  1  0.39811638  0.37936538  0.91467688  1
  O  O270  1  0.39946415  0.87114452  0.41424476  1
  O  O271  1  0.37211510  0.90076873  0.91840821  1
  O  O272  1  0.72657184  0.39117341  0.41214663  1
  O  O273  1  0.73242891  0.38084873  0.91723911  1
  O  O274  1  0.73162570  0.87586602  0.41399512  1
  O  O275  1  0.71403301  0.88006384  0.91692013  1
  O  O276  1  0.21224776  0.12525064  0.42874827  1
  O  O277  1  0.23219980  0.13438271  0.91717567  1
  O  O278  1  0.23007965  0.62915369  0.41129355  1
  O  O279  1  0.21304724  0.62726364  0.92526008  1
  O  O280  1  0.53972540  0.12839132  0.42839509  1
  O  O281  1  0.55397313  0.14853536  0.91923531  1
  O  O282  1  0.56314877  0.63850909  0.41012480  1
  O  O283  1  0.56540153  0.62569341  0.91375267  1
  O  O284  1  0.89252585  0.15303595  0.42286684  1
  O  O285  1  0.91058011  0.13112978  0.92673631  1
  O  O286  1  0.89628675  0.62955477  0.41094961  1
  O  O287  1  0.88910188  0.63109802  0.91401866  1
  O  O288  1  0.16794013  0.00782911  0.08466396  1
  O  O289  1  0.17095065  -0.00734436  0.58672173  1
  O  O290  1  0.17246763  0.49433898  0.08448406  1
  O  O291  1  0.15765460  0.48897320  0.58026757  1
  O  O292  1  0.50620194  0.01071594  0.07514231  1
  O  O293  1  0.50557147  -0.01261309  0.57742039  1
  O  O294  1  0.50661265  0.48900549  0.07330674  1
  O  O295  1  0.50783909  0.50135798  0.58378849  1
  O  O296  1  0.84102054  0.00345700  0.08917458  1
  O  O297  1  0.82510991  0.01523679  0.58077604  1
  O  O298  1  0.83596466  0.49611067  0.08458764  1
  O  O299  1  0.84257751  0.51066104  0.57321761  1
  O  O300  1  0.00609055  0.25106681  0.08669514  1
  O  O301  1  0.01556183  0.24270294  0.58482716  1
  O  O302  1  0.00000313  0.76404182  0.07699077  1
  O  O303  1  0.00053180  0.75625646  0.58584428  1
  O  O304  1  0.33860875  0.25028975  0.08470751  1
  O  O305  1  0.32976490  0.26118508  0.58198130  1
  O  O306  1  0.30777806  0.73768922  0.08188523  1
  O  O307  1  0.34280465  0.74886006  0.58458522  1
  O  O308  1  0.68253857  0.24992671  0.08492324  1
  O  O309  1  0.66547833  0.24958317  0.58461793  1
  O  O310  1  0.69397819  0.75142970  0.08277187  1
  O  O311  1  0.66577678  0.74467362  0.58685089  1
  O  O312  1  0.13925507  -0.00350329  0.41427389  1
  O  O313  1  0.16357408  0.00534376  0.91512366  1
  O  O314  1  0.15658150  0.50217509  0.41343644  1
  O  O315  1  0.15506483  0.49562592  0.91132158  1
  O  O316  1  0.50224676  -0.01307148  0.41864683  1
  O  O317  1  0.50418758  0.01402824  0.92545814  1
  O  O318  1  0.49570832  0.51162692  0.41309350  1
  O  O319  1  0.49148757  0.49812824  0.91326606  1
  O  O320  1  0.83983494  -0.01276768  0.42172164  1
  O  O321  1  0.82159503  -0.01205089  0.92649098  1
  O  O322  1  0.82911894  0.50111615  0.40976269  1
  O  O323  1  0.82560126  0.49972306  0.91879019  1
  O  O324  1  0.34468622  0.24681702  0.43563308  1
  O  O325  1  0.32288132  0.25289356  0.91729253  1
  O  O326  1  0.31291678  0.75113376  0.41338321  1
  O  O327  1  0.32553559  0.76311406  0.92387972  1
  O  O328  1  0.65431535  0.26433583  0.42281289  1
  O  O329  1  0.65593862  0.25680360  0.91817974  1
  O  O330  1  0.66714463  0.74747157  0.41304277  1
  O  O331  1  0.66314839  0.74341482  0.91316692  1
  O  O332  1  1.00136007  0.25663367  0.41272465  1
  O  O333  1  0.99221347  0.25239986  0.91860674  1
  O  O334  1  0.99316526  0.74530252  0.41195779  1
  O  O335  1  1.00363253  0.73561038  0.92164369  1
  O  O336  1  0.19798745  0.08738668  0.19577107  1
  O  O337  1  0.20394224  0.08020167  0.69429401  1
  O  O338  1  0.20919063  0.58067161  0.19251531  1
  O  O339  1  0.21532080  0.59161990  0.69627701  1
  O  O340  1  0.54589329  0.08014313  0.19301313  1
  O  O341  1  0.54541627  0.08288204  0.70253538  1
  O  O342  1  0.54633616  0.58306964  0.19762976  1
  O  O343  1  0.54329124  0.58334027  0.69441350  1
  O  O344  1  0.87707331  0.08650477  0.19767647  1
  O  O345  1  0.87865722  0.08331895  0.69767812  1
  O  O346  1  0.87900262  0.58115868  0.19112119  1
  O  O347  1  0.87449660  0.58523421  0.69222722  1
  O  O348  1  0.04022951  0.33458861  0.19579084  1
  O  O349  1  0.04426075  0.33006303  0.69196886  1
  O  O350  1  0.04497010  0.83625386  0.19208520  1
  O  O351  1  0.04355178  0.83658799  0.69488151  1
  O  O352  1  0.37643097  0.33638512  0.19526376  1
  O  O353  1  0.37816956  0.33657183  0.69479891  1
  O  O354  1  0.37785939  0.83173008  0.19784159  1
  O  O355  1  0.37397057  0.83019398  0.69684831  1
  O  O356  1  0.71045945  0.33490311  0.19503502  1
  O  O357  1  0.69873251  0.33488907  0.69059750  1
  O  O358  1  0.71721376  0.83269343  0.19232401  1
  O  O359  1  0.70757772  0.83057166  0.69493238  1
  O  O360  1  0.20740128  0.41602306  0.19521362  1
  O  O361  1  0.21374763  0.40904317  0.69344638  1
  O  O362  1  0.21195104  0.91492740  0.18932430  1
  O  O363  1  0.21045447  0.91493674  0.69730481  1
  O  O364  1  0.54184256  0.41803004  0.19211437  1
  O  O365  1  0.53771483  0.41942361  0.69338055  1
  O  O366  1  0.54934731  0.91416637  0.19885178  1
  O  O367  1  0.54373416  0.91240757  0.69431714  1
  O  O368  1  0.87628071  0.41561260  0.19419981  1
  O  O369  1  0.88143250  0.41983126  0.69646601  1
  O  O370  1  0.87995969  0.91927937  0.19774461  1
  O  O371  1  0.87419586  0.91818642  0.70226391  1
  O  O372  1  0.03833969  0.16897240  0.19635408  1
  O  O373  1  0.04669344  0.16413543  0.69663839  1
  O  O374  1  0.04608379  0.66670243  0.19727489  1
  O  O375  1  0.04111943  0.66860534  0.69269858  1
  O  O376  1  0.37680165  0.17487983  0.19758841  1
  O  O377  1  0.38055732  0.16811699  0.70222747  1
  O  O378  1  0.37562717  0.66485005  0.19203586  1
  O  O379  1  0.37920494  0.66541710  0.69202059  1
  O  O380  1  0.70955195  0.16973369  0.19550825  1
  O  O381  1  0.71170367  0.16813685  0.69755935  1
  O  O382  1  0.71445543  0.66573761  0.18993538  1
  O  O383  1  0.70836761  0.66469141  0.69604044  1
  O  O384  1  0.11655985  0.08838971  0.31000413  1
  O  O385  1  0.12606875  0.08621576  0.80676179  1
  O  O386  1  0.12540263  0.58276110  0.30247111  1
  O  O387  1  0.11721746  0.59043417  0.80713162  1
  O  O388  1  0.47092115  0.07220978  0.31079359  1
  O  O389  1  0.46085608  0.08541926  0.81027448  1
  O  O390  1  0.45632793  0.58788882  0.30216529  1
  O  O391  1  0.45811361  0.58399060  0.80520622  1
  O  O392  1  0.78737171  0.08352249  0.30160856  1
  O  O393  1  0.78767827  0.08073857  0.80166640  1
  O  O394  1  0.79223504  0.58398136  0.30069500  1
  O  O395  1  0.79031026  0.58185663  0.80465578  1
  O  O396  1  0.28906525  0.33656039  0.30135137  1
  O  O397  1  0.29169985  0.33392868  0.80533234  1
  O  O398  1  0.28927487  0.83020232  0.30363862  1
  O  O399  1  0.28760427  0.83561642  0.80791758  1
  O  O400  1  0.62348648  0.33876880  0.30587800  1
  O  O401  1  0.62165812  0.33779702  0.80670138  1
  O  O402  1  0.62979686  0.82911758  0.30306558  1
  O  O403  1  0.62110987  0.82886815  0.80594611  1
  O  O404  1  0.95408839  0.33603284  0.30376556  1
  O  O405  1  0.96852134  0.33232725  0.80763936  1
  O  O406  1  0.96031493  0.83082130  0.30290260  1
  O  O407  1  0.95495798  0.83087711  0.79990523  1
  O  O408  1  0.12210794  0.41784443  0.30597437  1
  O  O409  1  0.12029663  0.40668943  0.80576850  1
  O  O410  1  0.12039235  0.91138511  0.30451899  1
  O  O411  1  0.11980768  0.92037450  0.80637382  1
  O  O412  1  0.45912578  0.42298163  0.30541088  1
  O  O413  1  0.45886726  0.41526870  0.80474193  1
  O  O414  1  0.45977109  0.91038285  0.30536778  1
  O  O415  1  0.45599222  0.91741128  0.79960317  1
  O  O416  1  0.79072047  0.41874122  0.30194802  1
  O  O417  1  0.78893774  0.42462516  0.80730799  1
  O  O418  1  0.79369758  0.91296382  0.30570215  1
  O  O419  1  0.78537494  0.91244561  0.81016987  1
  O  O420  1  0.28055506  0.17721509  0.30678152  1
  O  O421  1  0.28894345  0.17213004  0.80686054  1
  O  O422  1  0.28999994  0.66703687  0.30201631  1
  O  O423  1  0.28923857  0.66841546  0.80113213  1
  O  O424  1  0.62258881  0.16798749  0.30210622  1
  O  O425  1  0.62215032  0.16666934  0.81026239  1
  O  O426  1  0.62952341  0.66723647  0.30147300  1
  O  O427  1  0.62383122  0.66411918  0.80345774  1
  O  O428  1  0.95391701  0.17020534  0.30760791  1
  O  O429  1  0.96343917  0.16582194  0.81012326  1
  O  O430  1  0.95701498  0.66468181  0.30161768  1
  O  O431  1  0.95445169  0.66446821  0.80504005  1
  F  F432  1  0.03735625  0.00325045  0.20185784  1
  F  F433  1  0.04492293  0.00101918  0.70523396  1
  F  F434  1  0.04555251  0.49766250  0.20085988  1
  F  F435  1  0.03441199  0.50029044  0.69794675  1
  F  F436  1  0.38498823  -0.00805279  0.19822596  1
  F  F437  1  0.37753444  -0.00255599  0.70026903  1
  F  F438  1  0.37806858  0.49896600  0.20231796  1
  F  F439  1  0.38103403  0.50146554  0.70249549  1
  F  F440  1  0.71514165  -0.00134770  0.20162882  1
  F  F441  1  0.70981286  -0.00442282  0.70386667  1
  F  F442  1  0.71308725  0.49920431  0.19883534  1
  F  F443  1  0.71286243  0.50702183  0.69640051  1
  F  F444  1  0.20400372  0.25224640  0.19984016  1
  F  F445  1  0.21389776  0.24896775  0.70194922  1
  F  F446  1  0.21100915  0.75028695  0.20070498  1
  F  F447  1  0.21000695  0.75498151  0.70253425  1
  F  F448  1  0.54903025  0.26324935  0.19704541  1
  F  F449  1  0.53980385  0.24911140  0.70207350  1
  F  F450  1  0.54969053  0.74858408  0.19903485  1
  F  F451  1  0.54403121  0.74856164  0.70241280  1
  F  F452  1  0.87642590  0.25086123  0.20274270  1
  F  F453  1  0.88637186  0.23844460  0.70347048  1
  F  F454  1  0.88181597  0.75038256  0.19978570  1
  F  F455  1  0.87506931  0.74747208  0.70084328  1
  F  F456  1  0.28364014  -0.01789327  0.30186359  1
  F  F457  1  0.28454970  -0.00156097  0.80030069  1
  F  F458  1  0.28826550  0.50310995  0.29701477  1
  F  F459  1  0.30310894  0.49807767  0.80356122  1
  F  F460  1  0.62731828  -0.00361544  0.29864941  1
  F  F461  1  0.62078712  -0.00333970  0.80034283  1
  F  F462  1  0.62521352  0.50091994  0.29623582  1
  F  F463  1  0.61836038  0.50622070  0.80136709  1
  F  F464  1  0.95481918  -0.00036556  0.30073672  1
  F  F465  1  0.95577241  0.00224870  0.80181647  1
  F  F466  1  0.95482682  0.50185400  0.29516284  1
  F  F467  1  0.95440492  0.50139301  0.79849046  1
  F  F468  1  0.11546199  0.25327821  0.29865027  1
  F  F469  1  0.12432486  0.24820439  0.79666800  1
  F  F470  1  0.12393299  0.75101444  0.29671802  1
  F  F471  1  0.11919165  0.75092485  0.79666652  1
  F  F472  1  0.45460962  0.25955420  0.30273918  1
  F  F473  1  0.45546721  0.25588460  0.80142364  1
  F  F474  1  0.45822869  0.74623911  0.29531892  1
  F  F475  1  0.45436596  0.74768691  0.79738182  1
  F  F476  1  0.78605749  0.25395267  0.29816451  1
  F  F477  1  0.79837710  0.23827063  0.81626362  1
  F  F478  1  0.79173680  0.74756243  0.29424476  1
  F  F479  1  0.78641276  0.74723353  0.79709800  1
