# generated using pymatgen
data_K24Na3Li5Mg64Fe17Si79(O5F)48
_symmetry_space_group_name_H-M   'P 1'
_cell_length_a   16.09319910
_cell_length_b   18.59236699
_cell_length_c   20.55558693
_cell_angle_alpha   89.99851805
_cell_angle_beta   100.00316871
_cell_angle_gamma   89.98767343
_symmetry_Int_Tables_number   1
_chemical_formula_structural   K24Na3Li5Mg64Fe17Si79(O5F)48
_chemical_formula_sum   'K24 Na3 Li5 Mg64 Fe17 Si79 O240 F48'
_cell_volume   6056.95241211
_cell_formula_units_Z   1
loop_
 _symmetry_equiv_pos_site_id
 _symmetry_equiv_pos_as_xyz
  1  'x, y, z'
loop_
 _atom_site_type_symbol
 _atom_site_label
 _atom_site_symmetry_multiplicity
 _atom_site_fract_x
 _atom_site_fract_y
 _atom_site_fract_z
 _atom_site_occupancy
  K  K0  1  -0.00723308  0.01305549  0.00827271  1
  K  K1  1  -0.00241459  0.00950090  0.49257337  1
  K  K2  1  -0.01689704  0.48812171  -0.00140128  1
  K  K3  1  -0.00191565  0.49879340  0.49981313  1
  K  K4  1  0.33040477  0.00826124  -0.00029488  1
  K  K5  1  0.32759529  0.01060973  0.50150366  1
  K  K6  1  0.33120745  0.49812643  -0.00463367  1
  K  K7  1  0.32775189  0.50066272  0.50289748  1
  K  K8  1  0.68062058  0.00054710  0.00979208  1
  K  K9  1  0.66772579  0.00731019  0.49973505  1
  K  K10  1  0.68161579  0.50321894  0.00277114  1
  K  K11  1  0.68012077  0.49740218  0.50660419  1
  K  K12  1  0.15482772  0.25304254  -0.00263555  1
  K  K13  1  0.15364909  0.24236441  0.49619340  1
  K  K14  1  0.16640341  0.74890484  0.00041175  1
  K  K15  1  0.15441008  0.74743735  0.49282585  1
  K  K16  1  0.50579054  0.24804355  -0.00081908  1
  K  K17  1  0.50800790  0.25298123  0.50609700  1
  K  K18  1  0.50703999  0.73729559  -0.00057294  1
  K  K19  1  0.50371195  0.74351593  0.50289641  1
  K  K20  1  0.85022144  0.25337136  0.00462806  1
  K  K21  1  0.84739331  0.26329260  0.49940531  1
  K  K22  1  0.84447186  0.75325940  0.01186205  1
  K  K23  1  0.83430526  0.74295339  0.49300417  1
  Na  Na24  1  0.00026670  0.75035219  0.24943077  1
  Na  Na25  1  0.66704565  0.57983352  0.24501767  1
  Na  Na26  1  0.83694750  0.32839262  0.25032309  1
  Li  Li27  1  0.00008417  0.24743181  0.25791600  1
  Li  Li28  1  0.16731281  0.00225536  0.75232173  1
  Li  Li29  1  0.16540037  0.33372527  0.74512933  1
  Li  Li30  1  0.49839319  0.33327468  0.74756580  1
  Li  Li31  1  0.15662269  0.17020716  0.26375102  1
  Mg  Mg32  1  0.33014719  0.25273402  0.74831930  1
  Mg  Mg33  1  0.83596025  0.00088535  0.25042201  1
  Mg  Mg34  1  0.33472171  0.74948504  0.24899934  1
  Mg  Mg35  1  0.33322927  0.74890064  0.75083422  1
  Mg  Mg36  1  0.83299247  -0.00030124  0.75240344  1
  Mg  Mg37  1  0.50087968  0.49833849  0.24497167  1
  Mg  Mg38  1  0.83363091  0.50009287  0.24776707  1
  Mg  Mg39  1  0.66564883  0.24745611  0.24737023  1
  Mg  Mg40  1  0.16536906  0.00316087  0.25383885  1
  Mg  Mg41  1  0.00212984  0.75164052  0.75130182  1
  Mg  Mg42  1  0.66462855  0.74951694  0.74496756  1
  Mg  Mg43  1  0.49880701  0.00148536  0.24777706  1
  Mg  Mg44  1  0.16791009  0.50031208  0.25284535  1
  Mg  Mg45  1  0.66850985  0.74888722  0.24529918  1
  Mg  Mg46  1  0.16652216  0.49582956  0.75106645  1
  Mg  Mg47  1  0.66477482  0.25282581  0.74763815  1
  Mg  Mg48  1  0.49837074  0.00077857  0.74587921  1
  Mg  Mg49  1  0.32866162  0.24856825  0.25143778  1
  Mg  Mg50  1  0.83294164  0.49866423  0.74844377  1
  Mg  Mg51  1  0.49877664  0.49461930  0.74812397  1
  Mg  Mg52  1  0.00108441  0.25030017  0.75417478  1
  Mg  Mg53  1  0.33699819  0.58357252  0.24824774  1
  Mg  Mg54  1  0.49615784  0.16434471  0.24695908  1
  Mg  Mg55  1  0.33192030  0.91783452  0.74969859  1
  Mg  Mg56  1  0.00085473  0.58432161  0.75139050  1
  Mg  Mg57  1  0.50043417  0.83405167  0.24900756  1
  Mg  Mg58  1  0.49711493  0.17009051  0.74713792  1
  Mg  Mg59  1  0.00247708  0.41234274  0.75132806  1
  Mg  Mg60  1  0.66493141  0.08418096  0.24813419  1
  Mg  Mg61  1  0.32988087  0.41293068  0.74801149  1
  Mg  Mg62  1  0.83376796  0.33540318  0.74976553  1
  Mg  Mg63  1  0.33218848  0.41505348  0.25070257  1
  Mg  Mg64  1  0.00417764  0.08895008  0.25506407  1
  Mg  Mg65  1  0.66603109  0.58401186  0.74718417  1
  Mg  Mg66  1  0.66252930  0.91591488  0.74537480  1
  Mg  Mg67  1  0.66584068  0.91662579  0.24684118  1
  Mg  Mg68  1  0.49790609  0.83511214  0.74548344  1
  Mg  Mg69  1  0.00402522  0.91834961  0.75166850  1
  Mg  Mg70  1  0.83206885  0.83400481  0.74757756  1
  Mg  Mg71  1  0.00258659  0.08313320  0.75342230  1
  Mg  Mg72  1  -0.00039003  0.91677560  0.25210605  1
  Mg  Mg73  1  -0.00071573  0.41431460  0.25118103  1
  Mg  Mg74  1  0.66682540  0.41355242  0.74911371  1
  Mg  Mg75  1  0.83402159  0.66482876  0.24846858  1
  Mg  Mg76  1  -0.00233246  0.58467393  0.24959877  1
  Mg  Mg77  1  0.16723781  0.66593601  0.25156290  1
  Mg  Mg78  1  0.33306557  0.91702098  0.25076312  1
  Mg  Mg79  1  0.16377354  0.32945041  0.25506682  1
  Mg  Mg80  1  0.16998552  0.83616497  0.75214056  1
  Mg  Mg81  1  0.49877275  0.33257980  0.24740121  1
  Mg  Mg82  1  0.16645103  0.83387938  0.25118256  1
  Mg  Mg83  1  0.16389109  0.16561603  0.75136997  1
  Mg  Mg84  1  0.83705369  0.16759319  0.25034078  1
  Mg  Mg85  1  0.66479972  0.08503602  0.74760036  1
  Mg  Mg86  1  0.32800926  0.08587032  0.25253318  1
  Mg  Mg87  1  0.66733509  0.41478261  0.24635355  1
  Mg  Mg88  1  0.32960339  0.08437378  0.75010408  1
  Mg  Mg89  1  0.83396003  0.83424933  0.24899367  1
  Mg  Mg90  1  0.83470121  0.16622600  0.75117689  1
  Mg  Mg91  1  0.50296382  0.66467834  0.24476162  1
  Mg  Mg92  1  0.83085520  0.66669988  0.74756512  1
  Mg  Mg93  1  0.49814787  0.66326774  0.74822851  1
  Mg  Mg94  1  0.16999234  0.66572630  0.75308664  1
  Mg  Mg95  1  0.33213102  0.58226459  0.75158080  1
  Fe  Fe96  1  0.19350733  0.41648226  0.60834871  1
  Fe  Fe97  1  0.52005073  0.08458518  0.10742047  1
  Fe  Fe98  1  0.86237585  0.91825958  0.10989991  1
  Fe  Fe99  1  0.97653083  0.15945109  0.89305955  1
  Fe  Fe100  1  0.14666140  0.08286083  0.39595281  1
  Fe  Fe101  1  0.69417493  0.66834807  0.10522075  1
  Fe  Fe102  1  0.86597974  0.58181028  0.10539541  1
  Fe  Fe103  1  0.97366117  0.66426443  0.39337944  1
  Fe  Fe104  1  0.97655357  0.33438675  0.89480913  1
  Fe  Fe105  1  0.80087344  0.42066969  0.89123946  1
  Fe  Fe106  1  0.97227144  0.17218660  0.39531061  1
  Fe  Fe107  1  0.69480599  0.33577480  0.60734249  1
  Fe  Fe108  1  0.03057744  0.32632646  0.61181871  1
  Fe  Fe109  1  0.52277501  0.91858543  0.60576620  1
  Fe  Fe110  1  0.51988609  0.57756757  0.10325457  1
  Fe  Fe111  1  0.31321258  0.66555675  0.89204254  1
  Fe  Fe112  1  0.68781213  0.66524930  0.60682168  1
  Si  Si113  1  0.19949492  0.58311537  0.11605154  1
  Si  Si114  1  0.19719052  0.91758556  0.11570474  1
  Si  Si115  1  0.80460625  0.91070508  0.88368681  1
  Si  Si116  1  0.47269766  0.08324789  0.38583913  1
  Si  Si117  1  0.86122602  0.91293875  0.61582527  1
  Si  Si118  1  0.35537123  0.82874560  0.61126554  1
  Si  Si119  1  0.14935950  0.58352460  0.38945786  1
  Si  Si120  1  0.69118800  0.16324980  0.61173038  1
  Si  Si121  1  0.51870608  0.08757322  0.61119820  1
  Si  Si122  1  0.02828216  0.83674690  0.61627465  1
  Si  Si123  1  0.47366750  0.91731573  0.38508166  1
  Si  Si124  1  0.14638904  0.91223891  0.38965148  1
  Si  Si125  1  0.51729423  0.40776047  0.10863423  1
  Si  Si126  1  0.31472275  0.83550947  0.88839617  1
  Si  Si127  1  0.63959518  0.83406520  0.38452447  1
  Si  Si128  1  0.86683854  0.42217962  0.60984597  1
  Si  Si129  1  0.85566977  0.07599662  0.61612425  1
  Si  Si130  1  0.68762021  0.33117071  0.11371196  1
  Si  Si131  1  0.97768735  0.83603492  0.88548798  1
  Si  Si132  1  0.85902775  0.41206069  0.11341127  1
  Si  Si133  1  0.31467197  0.66528092  0.38498253  1
  Si  Si134  1  0.35903692  0.66934033  0.11264068  1
  Si  Si135  1  0.80419735  0.91830584  0.38586570  1
  Si  Si136  1  0.51732480  0.57849239  0.61091759  1
  Si  Si137  1  0.80320184  0.41998274  0.38426334  1
  Si  Si138  1  0.80684550  0.59276172  0.88547103  1
  Si  Si139  1  0.80389186  0.58218189  0.38897711  1
  Si  Si140  1  0.63878576  0.16583569  0.88294724  1
  Si  Si141  1  0.86292275  0.09012839  0.11445100  1
  Si  Si142  1  0.03222842  0.16848087  0.12165628  1
  Si  Si143  1  0.97334877  0.67029970  0.88472879  1
  Si  Si144  1  0.35522966  0.66418436  0.61455061  1
  Si  Si145  1  0.14338584  0.42264648  0.88991855  1
  Si  Si146  1  0.31429288  0.17121744  0.39047514  1
  Si  Si147  1  0.63546038  0.66796553  0.88212246  1
  Si  Si148  1  0.19106960  0.08045042  0.11697552  1
  Si  Si149  1  0.14607437  0.91408120  0.88600098  1
  Si  Si150  1  0.03081306  0.67214280  0.61759849  1
  Si  Si151  1  0.80047049  0.07745166  0.88761349  1
  Si  Si152  1  0.31278191  0.33573838  0.38754641  1
  Si  Si153  1  0.35785702  0.83201379  0.11564118  1
  Si  Si154  1  0.47731791  0.41801567  0.38391130  1
  Si  Si155  1  0.35168584  0.33069357  0.11562142  1
  Si  Si156  1  0.47898718  0.57320057  0.88576042  1
  Si  Si157  1  0.03523253  0.83397223  0.11305057  1
  Si  Si158  1  0.36086815  0.33438825  0.61238177  1
  Si  Si159  1  0.47791664  0.58271546  0.38409135  1
  Si  Si160  1  0.64054791  0.33143851  0.38294861  1
  Si  Si161  1  0.47235612  0.08742855  0.88226174  1
  Si  Si162  1  0.35402755  0.17071234  0.61414076  1
  Si  Si163  1  0.63568046  0.16677732  0.38357206  1
  Si  Si164  1  0.80084861  0.08385263  0.38716171  1
  Si  Si165  1  0.31061547  0.83000156  0.38516428  1
  Si  Si166  1  0.30664423  0.16848261  0.88569729  1
  Si  Si167  1  0.19522469  0.91578406  0.61588595  1
  Si  Si168  1  0.63808377  0.67057284  0.38316902  1
  Si  Si169  1  0.51774329  0.91559690  0.11215877  1
  Si  Si170  1  0.02132777  0.15709735  0.61465644  1
  Si  Si171  1  0.34980959  0.16862289  0.11281378  1
  Si  Si172  1  0.19106840  0.41882804  0.11699511  1
  Si  Si173  1  0.69322682  0.83675753  0.60898875  1
  Si  Si174  1  0.18831514  0.58513605  0.61403988  1
  Si  Si175  1  0.14653564  0.07822105  0.88877321  1
  Si  Si176  1  0.13885827  0.58733926  0.88888991  1
  Si  Si177  1  0.69396875  0.16650504  0.11123073  1
  Si  Si178  1  0.19292280  0.08179124  0.61712429  1
  Si  Si179  1  0.63592571  0.83254332  0.88235622  1
  Si  Si180  1  0.47448138  0.92265136  0.88349401  1
  Si  Si181  1  0.97268196  0.83904745  0.39005196  1
  Si  Si182  1  0.97757014  0.34409085  0.38955017  1
  Si  Si183  1  0.30589922  0.33438511  0.88477409  1
  Si  Si184  1  0.86568948  0.58857042  0.61303724  1
  Si  Si185  1  0.02934550  0.33267164  0.11888189  1
  Si  Si186  1  0.14711601  0.41809860  0.38798329  1
  Si  Si187  1  0.63581987  0.33025011  0.88541677  1
  Si  Si188  1  0.03837669  0.66464397  0.11238546  1
  Si  Si189  1  0.47216591  0.40966778  0.88181205  1
  Si  Si190  1  0.68476585  0.83798725  0.10950717  1
  Si  Si191  1  0.52420709  0.41597712  0.61279131  1
  O  O192  1  0.26843192  0.11639766  0.08463379  1
  O  O193  1  0.27111283  0.11972915  0.58594763  1
  O  O194  1  0.28251064  0.61128680  0.08717204  1
  O  O195  1  0.27334060  0.61426936  0.58622344  1
  O  O196  1  0.61676635  0.11593151  0.07498934  1
  O  O197  1  0.60395967  0.11618137  0.58430108  1
  O  O198  1  0.61186103  0.60283479  0.06719526  1
  O  O199  1  0.59394274  0.60485370  0.57481500  1
  O  O200  1  0.94263738  0.13007002  0.08799504  1
  O  O201  1  0.94009955  0.10212955  0.58872364  1
  O  O202  1  0.96312158  0.61640591  0.07340773  1
  O  O203  1  0.95220465  0.61955892  0.58828352  1
  O  O204  1  0.10465976  0.37495630  0.08692766  1
  O  O205  1  0.11926968  0.34768010  0.56963205  1
  O  O206  1  0.11975996  0.86438648  0.08404855  1
  O  O207  1  0.10767159  0.87103225  0.58630727  1
  O  O208  1  0.43670067  0.35063034  0.08526328  1
  O  O209  1  0.45101384  0.35472296  0.58790503  1
  O  O210  1  0.44326019  0.85414915  0.08713986  1
  O  O211  1  0.43270131  0.85400875  0.57586708  1
  O  O212  1  0.77094135  0.36461714  0.08886670  1
  O  O213  1  0.78451447  0.37719734  0.57368207  1
  O  O214  1  0.76197120  0.86919325  0.07574568  1
  O  O215  1  0.78577534  0.85690207  0.58673993  1
  O  O216  1  0.27269270  0.38546548  0.08758049  1
  O  O217  1  0.29368720  0.39205996  0.57591506  1
  O  O218  1  0.28183124  0.88916050  0.08742823  1
  O  O219  1  0.27030847  0.87722955  0.58314136  1
  O  O220  1  0.60001448  0.37443454  0.08053264  1
  O  O221  1  0.60142703  0.39614095  0.57476849  1
  O  O222  1  0.60392455  0.89432991  0.08485479  1
  O  O223  1  0.62670213  0.89897770  0.57842357  1
  O  O224  1  0.93697646  0.36650998  0.08743578  1
  O  O225  1  0.94752005  0.39550684  0.57906006  1
  O  O226  1  0.95353114  0.87686346  0.07476877  1
  O  O227  1  0.94552366  0.88604228  0.58729488  1
  O  O228  1  0.10500893  0.12520770  0.08819550  1
  O  O229  1  0.10311568  0.12050387  0.58713510  1
  O  O230  1  0.12508039  0.63857278  0.08452665  1
  O  O231  1  0.11549671  0.64787838  0.58947958  1
  O  O232  1  0.42757865  0.14647377  0.07652676  1
  O  O233  1  0.43834097  0.14258866  0.58552627  1
  O  O234  1  0.43547017  0.64979494  0.07558023  1
  O  O235  1  0.43510510  0.63205612  0.58352333  1
  O  O236  1  0.78013607  0.14049995  0.08522150  1
  O  O237  1  0.76988388  0.12069481  0.58484803  1
  O  O238  1  0.78415707  0.64431189  0.06447605  1
  O  O239  1  0.78832386  0.63862579  0.57779388  1
  O  O240  1  0.06331164  0.11860940  0.43786687  1
  O  O241  1  0.07205050  0.10162071  0.92742166  1
  O  O242  1  0.07881316  0.61776183  0.42677626  1
  O  O243  1  0.05129041  0.61631289  0.91404539  1
  O  O244  1  0.40018139  0.12244042  0.41939114  1
  O  O245  1  0.39496297  0.12381274  0.91368187  1
  O  O246  1  0.39960195  0.61854591  0.41526985  1
  O  O247  1  0.40287538  0.60150988  0.92129735  1
  O  O248  1  0.71796282  0.11915162  0.41371191  1
  O  O249  1  0.71640907  0.11152666  0.91290866  1
  O  O250  1  0.72384230  0.62667220  0.41302540  1
  O  O251  1  0.72808598  0.63542982  0.91048521  1
  O  O252  1  0.23216373  0.36917485  0.41684950  1
  O  O253  1  0.23094974  0.37474749  0.91574335  1
  O  O254  1  0.22727941  0.85552638  0.41454703  1
  O  O255  1  0.22889813  0.86410716  0.91547976  1
  O  O256  1  0.56327518  0.37197825  0.41262283  1
  O  O257  1  0.54559727  0.35085372  0.90972787  1
  O  O258  1  0.56180723  0.87430086  0.41405851  1
  O  O259  1  0.56272156  0.87866264  0.91147715  1
  O  O260  1  0.89770301  0.38889700  0.41437233  1
  O  O261  1  0.89047674  0.36916840  0.93511982  1
  O  O262  1  0.89589222  0.88373427  0.41883931  1
  O  O263  1  0.89549333  0.87072502  0.91261644  1
  O  O264  1  0.06548385  0.39138942  0.41884923  1
  O  O265  1  0.07272844  0.39165877  0.92895088  1
  O  O266  1  0.06376440  0.88043068  0.41835562  1
  O  O267  1  0.06330308  0.88211263  0.91582902  1
  O  O268  1  0.39733367  0.38545319  0.41510791  1
  O  O269  1  0.39144470  0.38111562  0.91505253  1
  O  O270  1  0.39477908  0.87930179  0.41398850  1
  O  O271  1  0.39365032  0.89220653  0.91417285  1
  O  O272  1  0.73110067  0.36939565  0.41255743  1
  O  O273  1  0.70551873  0.38444409  0.92373766  1
  O  O274  1  0.72875651  0.87438863  0.41525737  1
  O  O275  1  0.72954359  0.86644700  0.91174324  1
  O  O276  1  0.24271882  0.14096637  0.42842989  1
  O  O277  1  0.23309858  0.12636615  0.91708086  1
  O  O278  1  0.23784530  0.62988831  0.41640123  1
  O  O279  1  0.21297935  0.64126652  0.92305193  1
  O  O280  1  0.55935405  0.12767984  0.41466345  1
  O  O281  1  0.55596772  0.13503859  0.91163731  1
  O  O282  1  0.56112491  0.63073105  0.41385047  1
  O  O283  1  0.56420116  0.62219914  0.91205077  1
  O  O284  1  0.88087610  0.12575177  0.42671989  1
  O  O285  1  0.88348555  0.11638233  0.92577048  1
  O  O286  1  0.88854974  0.61762838  0.43123800  1
  O  O287  1  0.88864265  0.64603544  0.91198655  1
  O  O288  1  0.17774620  -0.00153561  0.08461235  1
  O  O289  1  0.18640415  -0.00145199  0.58771578  1
  O  O290  1  0.17913693  0.50122061  0.08753272  1
  O  O291  1  0.15906569  0.51140340  0.57672825  1
  O  O292  1  0.48320286  -0.00881120  0.07883871  1
  O  O293  1  0.49079821  0.01183073  0.57521781  1
  O  O294  1  0.48682675  0.48254913  0.07306631  1
  O  O295  1  0.48666107  0.49676291  0.58592596  1
  O  O296  1  0.84939647  0.01334843  0.07601677  1
  O  O297  1  0.83659193  -0.00644414  0.58646345  1
  O  O298  1  0.84718832  0.48648095  0.07233342  1
  O  O299  1  0.84993572  0.50712330  0.58413092  1
  O  O300  1  0.03077055  0.25027616  0.09040953  1
  O  O301  1  -0.00366268  0.23269508  0.57930954  1
  O  O302  1  0.02675834  0.74954122  0.08765876  1
  O  O303  1  0.00976582  0.75438800  0.58839995  1
  O  O304  1  0.31969245  0.25090877  0.08827087  1
  O  O305  1  0.33571018  0.25154208  0.58381436  1
  O  O306  1  0.32511243  0.75188115  0.08911983  1
  O  O307  1  0.33209504  0.74539701  0.58557903  1
  O  O308  1  0.67433884  0.24915000  0.08291887  1
  O  O309  1  0.67737176  0.23998412  0.57501872  1
  O  O310  1  0.65335718  0.76151886  0.07720585  1
  O  O311  1  0.66202884  0.75986850  0.57628706  1
  O  O312  1  0.17444285  -0.01330152  0.42663583  1
  O  O313  1  0.17146195  -0.00557339  0.91486790  1
  O  O314  1  0.17166304  0.50019734  0.41550537  1
  O  O315  1  0.16377460  0.50637544  0.91813325  1
  O  O316  1  0.48416271  -0.00013797  0.41419649  1
  O  O317  1  0.48860539  0.00530388  0.91171675  1
  O  O318  1  0.49211318  0.50037945  0.41310901  1
  O  O319  1  0.50133496  0.49007473  0.91155176  1
  O  O320  1  0.80236727  -0.00014373  0.41581209  1
  O  O321  1  0.80441854  -0.00794892  0.91330296  1
  O  O322  1  0.79494373  0.49933701  0.41811592  1
  O  O323  1  0.82075877  0.51690465  0.92224329  1
  O  O324  1  0.33705852  0.25506250  0.41673975  1
  O  O325  1  0.31664978  0.25105806  0.91581033  1
  O  O326  1  0.33282148  0.74781605  0.41349299  1
  O  O327  1  0.34238535  0.75970599  0.92334901  1
  O  O328  1  0.64375875  0.24909965  0.41317844  1
  O  O329  1  0.65657252  0.24648739  0.91339880  1
  O  O330  1  0.64574586  0.75249741  0.41575654  1
  O  O331  1  0.63211453  0.75069509  0.91072220  1
  O  O332  1  0.98314453  0.26810587  0.42813721  1
  O  O333  1  0.99990306  0.24551938  0.93526539  1
  O  O334  1  0.97988183  0.76106980  0.42573320  1
  O  O335  1  0.99456242  0.75318964  0.91350977  1
  O  O336  1  0.21439056  0.07624083  0.19592268  1
  O  O337  1  0.21177585  0.08386470  0.69664754  1
  O  O338  1  0.21525600  0.58275205  0.19677917  1
  O  O339  1  0.20741952  0.58377238  0.69497359  1
  O  O340  1  0.54202093  0.08309907  0.19937855  1
  O  O341  1  0.53964915  0.08431917  0.69231076  1
  O  O342  1  0.53091317  0.58069630  0.19428422  1
  O  O343  1  0.53940202  0.58282847  0.69184581  1
  O  O344  1  0.87641156  0.08225254  0.19465550  1
  O  O345  1  0.87238480  0.07814326  0.69638048  1
  O  O346  1  0.87834862  0.58235528  0.19730245  1
  O  O347  1  0.87941987  0.58822730  0.69420134  1
  O  O348  1  0.04924282  0.33826481  0.19787482  1
  O  O349  1  0.04455402  0.33009186  0.70220779  1
  O  O350  1  0.05148610  0.84171566  0.19283287  1
  O  O351  1  0.04548945  0.83533545  0.69664122  1
  O  O352  1  0.37367599  0.33277874  0.19612624  1
  O  O353  1  0.37113156  0.33242834  0.69225976  1
  O  O354  1  0.37639249  0.83420729  0.19636704  1
  O  O355  1  0.37461273  0.83241586  0.69255861  1
  O  O356  1  0.69655177  0.32966676  0.19285794  1
  O  O357  1  0.71157977  0.33230979  0.69843337  1
  O  O358  1  0.70569789  0.83781684  0.19138838  1
  O  O359  1  0.70929348  0.83481544  0.69105895  1
  O  O360  1  0.21113393  0.41809852  0.19730551  1
  O  O361  1  0.21132877  0.41924500  0.69951292  1
  O  O362  1  0.21333023  0.91659537  0.19625996  1
  O  O363  1  0.21358400  0.91257806  0.69555285  1
  O  O364  1  0.53737185  0.41157878  0.18975114  1
  O  O365  1  0.54661120  0.41908869  0.69289544  1
  O  O366  1  0.53800572  0.91697650  0.19366699  1
  O  O367  1  0.54211723  0.91733792  0.69795648  1
  O  O368  1  0.88224328  0.42163068  0.19242717  1
  O  O369  1  0.87886233  0.42024651  0.69096942  1
  O  O370  1  0.87897508  0.91781949  0.20141513  1
  O  O371  1  0.87851327  0.91513910  0.69646677  1
  O  O372  1  0.04839878  0.16566370  0.19996463  1
  O  O373  1  0.04244842  0.16048182  0.69510838  1
  O  O374  1  0.05417692  0.65813772  0.19224268  1
  O  O375  1  0.04639656  0.67077387  0.69812727  1
  O  O376  1  0.37213247  0.16601302  0.19388342  1
  O  O377  1  0.37342749  0.16665659  0.69434152  1
  O  O378  1  0.37669595  0.66826629  0.19397096  1
  O  O379  1  0.37673242  0.66542246  0.69494649  1
  O  O380  1  0.70625710  0.16423360  0.19209656  1
  O  O381  1  0.70950560  0.16394188  0.69276974  1
  O  O382  1  0.71568371  0.67339858  0.19629409  1
  O  O383  1  0.70976317  0.66752969  0.69867769  1
  O  O384  1  0.12378446  0.07995801  0.30543192  1
  O  O385  1  0.12404763  0.08209035  0.80887264  1
  O  O386  1  0.12983185  0.58437528  0.30857520  1
  O  O387  1  0.12268381  0.58728682  0.80775262  1
  O  O388  1  0.45351698  0.08295201  0.30560195  1
  O  O389  1  0.45489368  0.08461970  0.80199063  1
  O  O390  1  0.45646711  0.58286898  0.30417864  1
  O  O391  1  0.45809680  0.58002866  0.80475694  1
  O  O392  1  0.78624399  0.08190908  0.30625599  1
  O  O393  1  0.78659792  0.08012768  0.80653261  1
  O  O394  1  0.79780759  0.58186004  0.31000430  1
  O  O395  1  0.79074071  0.58708293  0.80455591  1
  O  O396  1  0.29347060  0.33544557  0.30723094  1
  O  O397  1  0.29244186  0.33173568  0.80564056  1
  O  O398  1  0.29385374  0.83270699  0.30483085  1
  O  O399  1  0.29439076  0.83426872  0.80719847  1
  O  O400  1  0.61992585  0.33034071  0.30289165  1
  O  O401  1  0.62488995  0.33157533  0.80552907  1
  O  O402  1  0.62124926  0.83591695  0.30426520  1
  O  O403  1  0.62128790  0.83305701  0.80194745  1
  O  O404  1  0.96698767  0.33891908  0.31096015  1
  O  O405  1  0.95239473  0.33377676  0.80218330  1
  O  O406  1  0.95349579  0.84135573  0.31040664  1
  O  O407  1  0.95817214  0.83522963  0.80501137  1
  O  O408  1  0.12984823  0.41797854  0.30775985  1
  O  O409  1  0.11986822  0.42412846  0.81036960  1
  O  O410  1  0.12743369  0.91441035  0.30860229  1
  O  O411  1  0.12352846  0.91208836  0.80643899  1
  O  O412  1  0.45592941  0.41539375  0.30361092  1
  O  O413  1  0.45167990  0.41565079  0.80229365  1
  O  O414  1  0.45623128  0.91676122  0.30470987  1
  O  O415  1  0.45545899  0.91820872  0.80318061  1
  O  O416  1  0.78379135  0.42229055  0.30519067  1
  O  O417  1  0.78811172  0.41932436  0.79893998  1
  O  O418  1  0.78600088  0.91750477  0.30569984  1
  O  O419  1  0.78782869  0.91324676  0.80312750  1
  O  O420  1  0.29825577  0.16805583  0.31033075  1
  O  O421  1  0.28947659  0.16635221  0.80582593  1
  O  O422  1  0.29565563  0.66547872  0.30465952  1
  O  O423  1  0.29067477  0.66710395  0.79997473  1
  O  O424  1  0.61764212  0.16635380  0.30348815  1
  O  O425  1  0.62129685  0.16503411  0.80248207  1
  O  O426  1  0.61683584  0.67562629  0.30436502  1
  O  O427  1  0.61829998  0.66781120  0.80159897  1
  O  O428  1  0.95252699  0.16400551  0.30511784  1
  O  O429  1  0.95353217  0.16266664  0.80071413  1
  O  O430  1  0.95352346  0.66090788  0.30381529  1
  O  O431  1  0.95693309  0.67055779  0.80406674  1
  F  F432  1  0.04589890  -0.00107761  0.20400870  1
  F  F433  1  0.04120152  -0.00087737  0.70358345  1
  F  F434  1  0.05044025  0.49997917  0.20527363  1
  F  F435  1  0.04541276  0.50330133  0.70448661  1
  F  F436  1  0.37684956  0.00059312  0.20378501  1
  F  F437  1  0.37656770  0.00052869  0.69980955  1
  F  F438  1  0.37590071  0.49727087  0.20188142  1
  F  F439  1  0.37698488  0.50121329  0.70212163  1
  F  F440  1  0.71138780  0.00089358  0.20212887  1
  F  F441  1  0.71212918  -0.00024255  0.70235726  1
  F  F442  1  0.71592222  0.48781612  0.19475213  1
  F  F443  1  0.71177243  0.50391540  0.69909441  1
  F  F444  1  0.21441936  0.25616940  0.20286485  1
  F  F445  1  0.21198423  0.24280971  0.70179199  1
  F  F446  1  0.21490864  0.75010200  0.20231624  1
  F  F447  1  0.21102305  0.75263892  0.70279785  1
  F  F448  1  0.54090699  0.24767840  0.20023783  1
  F  F449  1  0.54651967  0.24514850  0.69864861  1
  F  F450  1  0.54301703  0.75319292  0.20050482  1
  F  F451  1  0.54203087  0.74959366  0.69902825  1
  F  F452  1  0.87658357  0.23953384  0.19464913  1
  F  F453  1  0.87520008  0.24814178  0.70101553  1
  F  F454  1  0.86791478  0.75315992  0.19902044  1
  F  F455  1  0.88111199  0.75232140  0.70210726  1
  F  F456  1  0.29092491  -0.00179386  0.30153301  1
  F  F457  1  0.29544502  -0.00026060  0.80022052  1
  F  F458  1  0.29193030  0.50097172  0.29957726  1
  F  F459  1  0.28867358  0.50146021  0.80030957  1
  F  F460  1  0.61980513  -0.00202110  0.29797691  1
  F  F461  1  0.62030619  0.00123827  0.79646291  1
  F  F462  1  0.61352144  0.48633729  0.29861952  1
  F  F463  1  0.62071687  0.50176418  0.79517949  1
  F  F464  1  0.95573493  0.00176995  0.30112416  1
  F  F465  1  0.95298633  -0.00337945  0.80130706  1
  F  F466  1  0.95826728  0.49871773  0.29894883  1
  F  F467  1  0.95299477  0.50326523  0.79711989  1
  F  F468  1  0.13083258  0.25439566  0.31005814  1
  F  F469  1  0.11934340  0.23967926  0.80432002  1
  F  F470  1  0.13801711  0.74974543  0.30289784  1
  F  F471  1  0.12289503  0.75248778  0.79984643  1
  F  F472  1  0.45361562  0.24936256  0.29637487  1
  F  F473  1  0.44966501  0.24444926  0.79802473  1
  F  F474  1  0.45471133  0.75041061  0.29730466  1
  F  F475  1  0.45580641  0.75085053  0.79559212  1
  F  F476  1  0.77790316  0.23852114  0.30152338  1
  F  F477  1  0.78531173  0.24537197  0.79817793  1
  F  F478  1  0.78507343  0.75651773  0.30087370  1
  F  F479  1  0.78738985  0.75350563  0.79656734  1
