# generated using pymatgen
data_K24Na3Li5Mg64Fe17Si79(O5F)48
_symmetry_space_group_name_H-M   'P 1'
_cell_length_a   16.09545444
_cell_length_b   18.58179479
_cell_length_c   20.54853778
_cell_angle_alpha   90.02031292
_cell_angle_beta   100.00926604
_cell_angle_gamma   89.98583708
_symmetry_Int_Tables_number   1
_chemical_formula_structural   K24Na3Li5Mg64Fe17Si79(O5F)48
_chemical_formula_sum   'K24 Na3 Li5 Mg64 Fe17 Si79 O240 F48'
_cell_volume   6052.16639056
_cell_formula_units_Z   1
loop_
 _symmetry_equiv_pos_site_id
 _symmetry_equiv_pos_as_xyz
  1  'x, y, z'
loop_
 _atom_site_type_symbol
 _atom_site_label
 _atom_site_symmetry_multiplicity
 _atom_site_fract_x
 _atom_site_fract_y
 _atom_site_fract_z
 _atom_site_occupancy
  K  K0  1  0.00552713  -0.00231698  -0.00752279  1
  K  K1  1  0.01119419  0.00146007  0.50334070  1
  K  K2  1  0.00917056  0.50047172  0.00061765  1
  K  K3  1  0.01266835  0.49480189  0.50472852  1
  K  K4  1  0.33239093  -0.00190349  -0.00222811  1
  K  K5  1  0.33409178  0.00130130  0.50233391  1
  K  K6  1  0.32939592  0.50506625  0.00049316  1
  K  K7  1  0.32401246  0.49363767  0.49658677  1
  K  K8  1  0.66272291  0.00511831  -0.01095207  1
  K  K9  1  0.66360868  -0.00237899  0.51213079  1
  K  K10  1  0.66690491  0.49127736  0.00222410  1
  K  K11  1  0.66969035  0.50487882  0.50012609  1
  K  K12  1  0.15530628  0.24783260  0.00378759  1
  K  K13  1  0.15676224  0.25090261  0.49427608  1
  K  K14  1  0.16306342  0.76302614  -0.01189893  1
  K  K15  1  0.17768773  0.75271264  0.50856611  1
  K  K16  1  0.51496782  0.24121180  0.00217333  1
  K  K17  1  0.50080164  0.24373135  0.50112825  1
  K  K18  1  0.49856863  0.75146683  -0.00290313  1
  K  K19  1  0.50520869  0.75550110  0.50740828  1
  K  K20  1  0.82389083  0.24200565  0.00021110  1
  K  K21  1  0.84230352  0.24734640  0.50053211  1
  K  K22  1  0.83678038  0.75338661  -0.01354859  1
  K  K23  1  0.82855761  0.75229806  0.51264753  1
  Na  Na24  1  0.16583822  0.50289727  0.74737325  1
  Na  Na25  1  0.16377557  0.67268258  0.75566196  1
  Na  Na26  1  0.66536839  0.91761588  0.74655084  1
  Li  Li27  1  0.00521336  0.75381699  0.75440922  1
  Li  Li28  1  0.66853390  0.75586552  0.75034150  1
  Li  Li29  1  0.66263969  0.08437667  0.24506095  1
  Li  Li30  1  0.50271225  0.15998613  0.75189979  1
  Li  Li31  1  0.33644504  0.91646841  0.75125746  1
  Mg  Mg32  1  0.33120431  0.74905773  0.25498016  1
  Mg  Mg33  1  0.17119158  -0.00113720  0.75355382  1
  Mg  Mg34  1  0.50093109  0.50188768  0.75055419  1
  Mg  Mg35  1  0.49851425  0.50012265  0.24806661  1
  Mg  Mg36  1  0.66786993  0.24627194  0.24269562  1
  Mg  Mg37  1  0.00029171  0.24925409  0.24929120  1
  Mg  Mg38  1  0.82897956  -0.00032147  0.24705454  1
  Mg  Mg39  1  -0.00125631  0.75015945  0.25218229  1
  Mg  Mg40  1  0.66364665  0.24888471  0.74723083  1
  Mg  Mg41  1  0.16581232  0.49910646  0.25305607  1
  Mg  Mg42  1  0.16609033  0.00093925  0.25375098  1
  Mg  Mg43  1  0.83347731  -0.00232368  0.75030927  1
  Mg  Mg44  1  0.33242901  0.75283084  0.75193346  1
  Mg  Mg45  1  0.00180342  0.25163496  0.74720904  1
  Mg  Mg46  1  0.49859798  0.00094391  0.74930736  1
  Mg  Mg47  1  0.50218765  0.00189923  0.25117858  1
  Mg  Mg48  1  0.83132698  0.49953441  0.24538986  1
  Mg  Mg49  1  0.83407394  0.50257385  0.74798417  1
  Mg  Mg50  1  0.66262834  0.74808047  0.24859432  1
  Mg  Mg51  1  0.33387174  0.24782364  0.25265194  1
  Mg  Mg52  1  0.33689427  0.25040254  0.74956657  1
  Mg  Mg53  1  0.33448834  0.58422593  0.25414402  1
  Mg  Mg54  1  0.33388088  0.41461402  0.25206128  1
  Mg  Mg55  1  0.33293801  0.41900201  0.74901778  1
  Mg  Mg56  1  0.33693733  0.08326866  0.75013396  1
  Mg  Mg57  1  0.66784429  0.58800164  0.74953751  1
  Mg  Mg58  1  0.49678901  0.66260534  0.25001340  1
  Mg  Mg59  1  0.00179030  0.41778790  0.74725024  1
  Mg  Mg60  1  0.83656871  0.83047053  0.75235861  1
  Mg  Mg61  1  0.16933283  0.66586452  0.25740047  1
  Mg  Mg62  1  0.50310157  0.16287520  0.24834188  1
  Mg  Mg63  1  0.16426613  0.16488699  0.25183555  1
  Mg  Mg64  1  0.66402926  0.41379555  0.24207721  1
  Mg  Mg65  1  0.16936101  0.16649821  0.74963759  1
  Mg  Mg66  1  0.82947544  0.83335683  0.24966685  1
  Mg  Mg67  1  0.16630868  0.33585620  0.74775291  1
  Mg  Mg68  1  0.00070040  0.08421366  0.24945601  1
  Mg  Mg69  1  0.50128889  0.33184376  0.75002922  1
  Mg  Mg70  1  0.66245919  0.08426192  0.74923966  1
  Mg  Mg71  1  0.66683902  0.41663062  0.75000895  1
  Mg  Mg72  1  0.16836101  0.83541333  0.75606139  1
  Mg  Mg73  1  0.49790932  0.83368877  0.25097624  1
  Mg  Mg74  1  0.00030129  0.58408177  0.25329048  1
  Mg  Mg75  1  0.82987354  0.66590119  0.24841859  1
  Mg  Mg76  1  0.00357718  0.91385026  0.75208264  1
  Mg  Mg77  1  -0.00034004  0.91568367  0.25409087  1
  Mg  Mg78  1  0.83213058  0.16559498  0.74946942  1
  Mg  Mg79  1  0.16944192  0.83418399  0.25796797  1
  Mg  Mg80  1  0.83063766  0.16288026  0.24527639  1
  Mg  Mg81  1  0.83544684  0.67111538  0.75089803  1
  Mg  Mg82  1  0.00267660  0.08398943  0.75062773  1
  Mg  Mg83  1  0.50271616  0.67023616  0.74890270  1
  Mg  Mg84  1  0.16389973  0.33400294  0.25087715  1
  Mg  Mg85  1  0.50115933  0.83491401  0.74653099  1
  Mg  Mg86  1  0.33498844  0.91529105  0.25673789  1
  Mg  Mg87  1  0.66159801  0.58305443  0.24690590  1
  Mg  Mg88  1  0.33264581  0.58592725  0.75091614  1
  Mg  Mg89  1  0.83138270  0.33329030  0.24424651  1
  Mg  Mg90  1  0.00156873  0.58701093  0.75083497  1
  Mg  Mg91  1  0.50080262  0.33210885  0.24658187  1
  Mg  Mg92  1  0.83388957  0.33521040  0.74745060  1
  Mg  Mg93  1  0.33533264  0.08394977  0.25145683  1
  Mg  Mg94  1  0.66277924  0.91735271  0.24609530  1
  Mg  Mg95  1  0.00059236  0.41463942  0.24786649  1
  Fe  Fe96  1  0.02233668  0.16456705  0.10742991  1
  Fe  Fe97  1  0.52093300  0.08854776  0.60871684  1
  Fe  Fe98  1  0.02270877  0.33603390  0.10682487  1
  Fe  Fe99  1  0.31051542  0.66374050  0.39648235  1
  Fe  Fe100  1  0.52434917  0.08083744  0.10750903  1
  Fe  Fe101  1  0.47825853  0.57705754  0.39316744  1
  Fe  Fe102  1  0.13916668  0.08552144  0.39248434  1
  Fe  Fe103  1  0.69338834  0.33223974  0.10434063  1
  Fe  Fe104  1  0.31532578  0.83512224  0.39634235  1
  Fe  Fe105  1  0.51929620  0.58223814  0.10621608  1
  Fe  Fe106  1  0.63668091  0.16365286  0.88765577  1
  Fe  Fe107  1  0.14199048  0.41550520  0.39182064  1
  Fe  Fe108  1  0.02751016  0.33241339  0.60713498  1
  Fe  Fe109  1  0.69128968  0.83066049  0.61068557  1
  Fe  Fe110  1  0.48195031  0.08533261  0.39054878  1
  Fe  Fe111  1  0.97943820  0.83068592  0.89193872  1
  Fe  Fe112  1  0.15050157  0.92230158  0.89501515  1
  Si  Si113  1  0.86264887  0.91681873  0.61221574  1
  Si  Si114  1  0.35157294  0.17320569  0.61310698  1
  Si  Si115  1  0.85492039  0.91012289  0.11546724  1
  Si  Si116  1  0.19716314  0.42143897  0.61177437  1
  Si  Si117  1  0.97303625  0.16975706  0.88346801  1
  Si  Si118  1  0.80290405  0.91736420  0.38387896  1
  Si  Si119  1  0.51829878  0.91066699  0.11145785  1
  Si  Si120  1  0.35770782  0.16863066  0.11294536  1
  Si  Si121  1  0.14027416  0.57787261  0.88835983  1
  Si  Si122  1  0.81049617  0.91544115  0.88747452  1
  Si  Si123  1  0.03019932  0.83578686  0.61567947  1
  Si  Si124  1  0.14439004  0.09444731  0.88789943  1
  Si  Si125  1  0.19739284  0.41752601  0.11332894  1
  Si  Si126  1  0.80175512  0.41962254  0.38092336  1
  Si  Si127  1  0.96629750  0.66734169  0.38596584  1
  Si  Si128  1  0.30966620  0.17172047  0.88497111  1
  Si  Si129  1  0.69841794  0.15953374  0.10794917  1
  Si  Si130  1  0.35899911  0.82975189  0.61657977  1
  Si  Si131  1  0.64214852  0.83175744  0.38303088  1
  Si  Si132  1  0.64501345  0.33056340  0.38033945  1
  Si  Si133  1  0.80682958  0.41841089  0.88387461  1
  Si  Si134  1  0.97266691  0.33580755  0.88417861  1
  Si  Si135  1  0.19163777  0.58317873  0.11757106  1
  Si  Si136  1  0.96384648  0.16642349  0.38614562  1
  Si  Si137  1  0.48413838  0.40934774  0.38563514  1
  Si  Si138  1  0.63979679  0.83400830  0.88366799  1
  Si  Si139  1  0.86207960  0.58570672  0.61400408  1
  Si  Si140  1  0.13699819  0.91221300  0.39318531  1
  Si  Si141  1  0.52486888  0.57955883  0.61478385  1
  Si  Si142  1  0.36004152  0.66500090  0.61463943  1
  Si  Si143  1  0.80644391  0.58339582  0.88583782  1
  Si  Si144  1  0.86217228  0.07331736  0.11168978  1
  Si  Si145  1  0.52411288  0.41374110  0.61524507  1
  Si  Si146  1  0.47654938  0.58623242  0.88583970  1
  Si  Si147  1  0.85956897  0.59080837  0.11495690  1
  Si  Si148  1  0.30959562  0.16712509  0.38918157  1
  Si  Si149  1  0.31177692  0.33576725  0.88488370  1
  Si  Si150  1  0.97666284  0.65851559  0.89122208  1
  Si  Si151  1  0.31558651  0.33168473  0.38782591  1
  Si  Si152  1  0.14227059  0.41238653  0.88649071  1
  Si  Si153  1  0.64062112  0.33560910  0.88600583  1
  Si  Si154  1  0.19605648  0.91418416  0.61834219  1
  Si  Si155  1  0.35621588  0.33065567  0.11548078  1
  Si  Si156  1  0.68742228  0.83052459  0.11366839  1
  Si  Si157  1  0.86179302  0.08266868  0.61521307  1
  Si  Si158  1  0.69195058  0.66057809  0.61224970  1
  Si  Si159  1  0.02862043  0.16085942  0.61220648  1
  Si  Si160  1  0.35706031  0.33686255  0.61500704  1
  Si  Si161  1  0.48464273  0.91879737  0.38866631  1
  Si  Si162  1  0.80290434  0.58356127  0.38274976  1
  Si  Si163  1  0.51539016  0.91834112  0.60873084  1
  Si  Si164  1  0.96695951  0.83281351  0.38694832  1
  Si  Si165  1  0.19429976  0.58823921  0.61496283  1
  Si  Si166  1  0.19702831  0.08311260  0.11400065  1
  Si  Si167  1  0.80163993  0.08144553  0.38100328  1
  Si  Si168  1  0.13472957  0.58885156  0.39186742  1
  Si  Si169  1  0.64521286  0.17160386  0.38296415  1
  Si  Si170  1  0.51687213  0.41237637  0.10769905  1
  Si  Si171  1  0.31383370  0.82782334  0.89083430  1
  Si  Si172  1  0.81063763  0.08220817  0.88691427  1
  Si  Si173  1  0.69280160  0.33714354  0.61346041  1
  Si  Si174  1  0.96407457  0.33363589  0.38485263  1
  Si  Si175  1  0.35237340  0.67029463  0.11300842  1
  Si  Si176  1  0.30933819  0.66303300  0.88770720  1
  Si  Si177  1  0.46606795  0.07718929  0.88794924  1
  Si  Si178  1  0.19088180  0.91816839  0.11929453  1
  Si  Si179  1  0.64152831  0.66919443  0.88506035  1
  Si  Si180  1  0.02543874  0.66992412  0.61611121  1
  Si  Si181  1  0.64182892  0.66910556  0.38654514  1
  Si  Si182  1  0.19569636  0.07961287  0.61610647  1
  Si  Si183  1  0.02578787  0.83339899  0.11862767  1
  Si  Si184  1  0.86072132  0.42660646  0.10816477  1
  Si  Si185  1  0.47544924  0.42106854  0.88409228  1
  Si  Si186  1  0.69843706  0.17048744  0.61099193  1
  Si  Si187  1  0.69244308  0.66631521  0.11126332  1
  Si  Si188  1  0.85720798  0.41976578  0.61070468  1
  Si  Si189  1  0.47595481  0.91191355  0.88495943  1
  Si  Si190  1  0.02813327  0.66735111  0.11809335  1
  Si  Si191  1  0.35315755  0.83202505  0.11744570  1
  O  O192  1  0.28291743  0.10918787  0.08642619  1
  O  O193  1  0.26677728  0.12389618  0.58421817  1
  O  O194  1  0.26869142  0.61931070  0.08629813  1
  O  O195  1  0.27208532  0.62345597  0.58148309  1
  O  O196  1  0.62373694  0.10458163  0.07649985  1
  O  O197  1  0.61512606  0.12928746  0.57584789  1
  O  O198  1  0.62010605  0.61218454  0.07617845  1
  O  O199  1  0.60718577  0.60878087  0.58582515  1
  O  O200  1  0.94342297  0.09023892  0.07851988  1
  O  O201  1  0.94219116  0.11465541  0.58508319  1
  O  O202  1  0.94301621  0.62123875  0.08725368  1
  O  O203  1  0.93673298  0.62714114  0.58217599  1
  O  O204  1  0.12226532  0.36785729  0.07593380  1
  O  O205  1  0.11734874  0.37595740  0.57409304  1
  O  O206  1  0.10507033  0.87073872  0.09080371  1
  O  O207  1  0.10773768  0.87320465  0.58390416  1
  O  O208  1  0.44098377  0.35127937  0.08558210  1
  O  O209  1  0.44139622  0.36439827  0.58615920  1
  O  O210  1  0.43713534  0.85529061  0.08663197  1
  O  O211  1  0.43152223  0.86648625  0.58127562  1
  O  O212  1  0.78376396  0.37672868  0.07208207  1
  O  O213  1  0.76193118  0.38617975  0.58334532  1
  O  O214  1  0.77157096  0.86041826  0.08634156  1
  O  O215  1  0.78263738  0.87211378  0.57448534  1
  O  O216  1  0.28470105  0.39157826  0.08711692  1
  O  O217  1  0.28355833  0.39454808  0.58471330  1
  O  O218  1  0.27193034  0.88453081  0.09026047  1
  O  O219  1  0.26997365  0.87194806  0.58740410  1
  O  O220  1  0.59588827  0.38751216  0.07358736  1
  O  O221  1  0.60185428  0.37639472  0.58496745  1
  O  O222  1  0.60201912  0.87609434  0.08429687  1
  O  O223  1  0.59349751  0.88400603  0.57797578  1
  O  O224  1  0.94672182  0.41264195  0.07963414  1
  O  O225  1  0.92305621  0.37686535  0.57411250  1
  O  O226  1  0.93711382  0.87532893  0.08825375  1
  O  O227  1  0.94631661  0.88390524  0.58418082  1
  O  O228  1  0.12201234  0.13376797  0.07772515  1
  O  O229  1  0.10369922  0.11499736  0.58570102  1
  O  O230  1  0.10541968  0.62929513  0.08841799  1
  O  O231  1  0.10496919  0.63177106  0.58610662  1
  O  O232  1  0.43737909  0.14971778  0.07803328  1
  O  O233  1  0.42806940  0.14931028  0.57702513  1
  O  O234  1  0.42860798  0.64617006  0.07576041  1
  O  O235  1  0.43955981  0.62629248  0.58634944  1
  O  O236  1  0.78511192  0.12828060  0.08333491  1
  O  O237  1  0.78092542  0.13376839  0.58458725  1
  O  O238  1  0.78321946  0.64719995  0.08727637  1
  O  O239  1  0.77114163  0.62215820  0.58177321  1
  O  O240  1  0.04465011  0.12311325  0.42445931  1
  O  O241  1  0.06451610  0.13488695  0.91416718  1
  O  O242  1  0.04414715  0.61471253  0.41533261  1
  O  O243  1  0.06358421  0.61142652  0.92333854  1
  O  O244  1  0.38222799  0.11044635  0.42111898  1
  O  O245  1  0.38524571  0.11651644  0.91588273  1
  O  O246  1  0.38279108  0.58957474  0.42955537  1
  O  O247  1  0.39837841  0.61995346  0.91834227  1
  O  O248  1  0.72075879  0.11282802  0.41060493  1
  O  O249  1  0.74138506  0.12070917  0.92312760  1
  O  O250  1  0.72316148  0.61503689  0.41327925  1
  O  O251  1  0.73017498  0.62562208  0.91509238  1
  O  O252  1  0.23992099  0.36036464  0.42390705  1
  O  O253  1  0.23101680  0.36852063  0.91565451  1
  O  O254  1  0.21049169  0.85636264  0.42339869  1
  O  O255  1  0.25163923  0.87233002  0.92993486  1
  O  O256  1  0.55893188  0.34811638  0.41001756  1
  O  O257  1  0.56463246  0.38107966  0.91332845  1
  O  O258  1  0.55811924  0.85490303  0.41203461  1
  O  O259  1  0.56786873  0.87584754  0.91849521  1
  O  O260  1  0.88081742  0.36810656  0.41185769  1
  O  O261  1  0.89783399  0.37976454  0.91314702  1
  O  O262  1  0.88440437  0.86601659  0.41421270  1
  O  O263  1  0.88838758  0.87036847  0.92843632  1
  O  O264  1  0.04606673  0.37686414  0.42128682  1
  O  O265  1  0.06362357  0.37358873  0.91628860  1
  O  O266  1  0.04786739  0.88209269  0.41684229  1
  O  O267  1  0.07092996  0.88096415  0.93821782  1
  O  O268  1  0.39996715  0.38185736  0.41425032  1
  O  O269  1  0.39587442  0.38487982  0.91340978  1
  O  O270  1  0.40214858  0.90329635  0.42167125  1
  O  O271  1  0.40997132  0.85999727  0.91640126  1
  O  O272  1  0.71773339  0.39132782  0.40901372  1
  O  O273  1  0.73026389  0.37896082  0.91280499  1
  O  O274  1  0.72091835  0.88610341  0.41221167  1
  O  O275  1  0.72577234  0.88005790  0.91176468  1
  O  O276  1  0.22549151  0.15205180  0.42114272  1
  O  O277  1  0.22398693  0.15009524  0.91325840  1
  O  O278  1  0.20247036  0.64960628  0.42088711  1
  O  O279  1  0.23146521  0.62006146  0.91519257  1
  O  O280  1  0.56556901  0.15566168  0.41874870  1
  O  O281  1  0.55057512  0.11760202  0.92414205  1
  O  O282  1  0.56570587  0.64573414  0.42290821  1
  O  O283  1  0.56347946  0.63079065  0.91614276  1
  O  O284  1  0.88131855  0.13243926  0.41362928  1
  O  O285  1  0.90223448  0.12371158  0.91338770  1
  O  O286  1  0.88325876  0.63521462  0.41272040  1
  O  O287  1  0.89713151  0.61758918  0.92021290  1
  O  O288  1  0.17717661  -0.00108013  0.08804859  1
  O  O289  1  0.19207014  -0.00313014  0.58745301  1
  O  O290  1  0.17979626  0.50178164  0.08632848  1
  O  O291  1  0.18140319  0.50544450  0.58550973  1
  O  O292  1  0.49365250  -0.01381562  0.07540146  1
  O  O293  1  0.49428549  -0.00343413  0.57366882  1
  O  O294  1  0.48187125  0.48973784  0.07673567  1
  O  O295  1  0.50864803  0.49625522  0.58652470  1
  O  O296  1  0.83227587  -0.00955456  0.08630583  1
  O  O297  1  0.84854152  0.00131399  0.58463487  1
  O  O298  1  0.83273979  0.51154332  0.08519194  1
  O  O299  1  0.85513627  0.50341954  0.58371756  1
  O  O300  1  -0.01390450  0.25041224  0.06533766  1
  O  O301  1  0.01905441  0.23736757  0.57459636  1
  O  O302  1  0.01605840  0.75025972  0.08996351  1
  O  O303  1  0.01697265  0.75283469  0.58503084  1
  O  O304  1  0.32271284  0.25076699  0.08769960  1
  O  O305  1  0.32676846  0.25719454  0.58683540  1
  O  O306  1  0.32320062  0.75252498  0.08761873  1
  O  O307  1  0.34833053  0.74708920  0.58585752  1
  O  O308  1  0.68020398  0.23798804  0.07255512  1
  O  O309  1  0.69459365  0.25565187  0.58337026  1
  O  O310  1  0.66984135  0.74890339  0.08401962  1
  O  O311  1  0.67523619  0.73604693  0.57383272  1
  O  O312  1  0.15467156  -0.00891810  0.42677966  1
  O  O313  1  0.16393842  0.01950974  0.92619475  1
  O  O314  1  0.15595778  0.51032985  0.42541573  1
  O  O315  1  0.15479968  0.49408816  0.91850429  1
  O  O316  1  0.52774690  -0.00573918  0.41616202  1
  O  O317  1  0.46912951  -0.00683605  0.91630572  1
  O  O318  1  0.52006078  0.48349665  0.42035122  1
  O  O319  1  0.48764527  0.50317612  0.91400328  1
  O  O320  1  0.82107456  -0.00066589  0.41196159  1
  O  O321  1  0.82064109  -0.00059866  0.91574457  1
  O  O322  1  0.82124957  0.50146928  0.41145932  1
  O  O323  1  0.80890785  0.50017356  0.91410174  1
  O  O324  1  0.34357857  0.24959110  0.41229942  1
  O  O325  1  0.33295054  0.25407890  0.91360172  1
  O  O326  1  0.35614674  0.74900123  0.43291635  1
  O  O327  1  0.31721789  0.74353947  0.92110973  1
  O  O328  1  0.68285805  0.25273519  0.40946210  1
  O  O329  1  0.64637980  0.25896609  0.92155316  1
  O  O330  1  0.67378984  0.75139147  0.41042700  1
  O  O331  1  0.65215875  0.75101484  0.91670111  1
  O  O332  1  0.96907258  0.25046674  0.41270172  1
  O  O333  1  0.97374814  0.25294352  0.91157698  1
  O  O334  1  0.98038843  0.74978127  0.41521668  1
  O  O335  1  0.98797072  0.73540616  0.92782886  1
  O  O336  1  0.21224971  0.08314154  0.19500522  1
  O  O337  1  0.21138879  0.08392644  0.69635077  1
  O  O338  1  0.20748080  0.58264390  0.19780127  1
  O  O339  1  0.22015957  0.58849470  0.69297726  1
  O  O340  1  0.54273930  0.08094275  0.19760779  1
  O  O341  1  0.54344990  0.08226060  0.69837953  1
  O  O342  1  0.54355150  0.58340437  0.19773349  1
  O  O343  1  0.54382449  0.58185174  0.69535020  1
  O  O344  1  0.87847160  0.07751135  0.19298149  1
  O  O345  1  0.87978067  0.08501134  0.69562318  1
  O  O346  1  0.87732797  0.58731909  0.19570588  1
  O  O347  1  0.87625757  0.58448479  0.69429455  1
  O  O348  1  0.04275847  0.33222254  0.19938847  1
  O  O349  1  0.04487958  0.33396772  0.69879504  1
  O  O350  1  0.04174809  0.83301593  0.19913385  1
  O  O351  1  0.04881135  0.83744598  0.69467904  1
  O  O352  1  0.37523255  0.33224760  0.19618757  1
  O  O353  1  0.37789191  0.33669410  0.69549428  1
  O  O354  1  0.37520885  0.83265702  0.19763688  1
  O  O355  1  0.37871517  0.82914957  0.69590706  1
  O  O356  1  0.71188895  0.33314084  0.19620496  1
  O  O357  1  0.71100409  0.33675511  0.69404478  1
  O  O358  1  0.70730249  0.83025098  0.19426829  1
  O  O359  1  0.72096343  0.82597344  0.69783412  1
  O  O360  1  0.21161631  0.41666119  0.19414064  1
  O  O361  1  0.21516363  0.41168320  0.69144175  1
  O  O362  1  0.20728088  0.91706983  0.19953754  1
  O  O363  1  0.21004361  0.91749311  0.69745945  1
  O  O364  1  0.53954860  0.41501572  0.18957239  1
  O  O365  1  0.54405000  0.41733157  0.69566656  1
  O  O366  1  0.53990147  0.91223744  0.19231429  1
  O  O367  1  0.52985259  0.91874152  0.68897988  1
  O  O368  1  0.87527534  0.42051344  0.19006023  1
  O  O369  1  0.87450477  0.41694928  0.69175661  1
  O  O370  1  0.87549327  0.91130629  0.19602636  1
  O  O371  1  0.87957817  0.91862730  0.69262701  1
  O  O372  1  0.04280514  0.16697469  0.20002541  1
  O  O373  1  0.04546263  0.16641959  0.69325055  1
  O  O374  1  0.04298072  0.66694726  0.19856276  1
  O  O375  1  0.03528689  0.66643867  0.69424718  1
  O  O376  1  0.37515900  0.16825035  0.19384748  1
  O  O377  1  0.36934573  0.16988785  0.69321387  1
  O  O378  1  0.37378872  0.66762278  0.19352935  1
  O  O379  1  0.37883167  0.66477493  0.69490853  1
  O  O380  1  0.71389482  0.16611183  0.18858220  1
  O  O381  1  0.71465924  0.17137982  0.69160067  1
  O  O382  1  0.70828752  0.66630416  0.19266454  1
  O  O383  1  0.71330067  0.65994559  0.69218509  1
  O  O384  1  0.12040900  0.08136167  0.30079163  1
  O  O385  1  0.12469898  0.08906959  0.80694619  1
  O  O386  1  0.11926961  0.58490683  0.30973642  1
  O  O387  1  0.11386850  0.57985259  0.81060670  1
  O  O388  1  0.45479084  0.08419285  0.29916984  1
  O  O389  1  0.45149841  0.08039874  0.80833730  1
  O  O390  1  0.45537746  0.58114894  0.30050162  1
  O  O391  1  0.46007945  0.58548726  0.80556664  1
  O  O392  1  0.79045203  0.08049101  0.30134735  1
  O  O393  1  0.79265163  0.08493540  0.80597087  1
  O  O394  1  0.78699320  0.58369393  0.30212412  1
  O  O395  1  0.78957217  0.58299044  0.80548402  1
  O  O396  1  0.29183865  0.33377986  0.30657919  1
  O  O397  1  0.29122609  0.33603378  0.80456816  1
  O  O398  1  0.28950316  0.83288758  0.30320595  1
  O  O399  1  0.29089750  0.82897021  0.81128218  1
  O  O400  1  0.62426741  0.33304244  0.30008850  1
  O  O401  1  0.62417317  0.33630719  0.80500430  1
  O  O402  1  0.62395619  0.83212164  0.30226455  1
  O  O403  1  0.61531332  0.82766950  0.80567976  1
  O  O404  1  0.95024870  0.33519031  0.30400566  1
  O  O405  1  0.95499645  0.33572830  0.80383137  1
  O  O406  1  0.95152364  0.83174715  0.30620304  1
  O  O407  1  0.95614052  0.83607416  0.80182352  1
  O  O408  1  0.12127268  0.41796000  0.30023930  1
  O  O409  1  0.12131801  0.41014465  0.80732387  1
  O  O410  1  0.11983475  0.91454035  0.31111219  1
  O  O411  1  0.12383046  0.92151936  0.80345215  1
  O  O412  1  0.46067049  0.41328969  0.30436153  1
  O  O413  1  0.45830796  0.41862664  0.80376944  1
  O  O414  1  0.46082317  0.91549668  0.30681767  1
  O  O415  1  0.46150845  0.91470186  0.80564183  1
  O  O416  1  0.78787503  0.41984545  0.30072897  1
  O  O417  1  0.79043427  0.41770931  0.80325947  1
  O  O418  1  0.78787992  0.91439602  0.30354949  1
  O  O419  1  0.80218138  0.91703678  0.80802986  1
  O  O420  1  0.29014656  0.16575245  0.30715571  1
  O  O421  1  0.29149974  0.17090083  0.80460745  1
  O  O422  1  0.28905106  0.66544061  0.30244449  1
  O  O423  1  0.30086975  0.66611167  0.80892955  1
  O  O424  1  0.62454774  0.17203891  0.30292242  1
  O  O425  1  0.62561722  0.17026006  0.79785362  1
  O  O426  1  0.62428311  0.66650571  0.30534404  1
  O  O427  1  0.62204422  0.66354329  0.80564467  1
  O  O428  1  0.95153459  0.16460563  0.30540905  1
  O  O429  1  0.95687997  0.16942565  0.80276037  1
  O  O430  1  0.95142374  0.66802559  0.30519009  1
  O  O431  1  0.95428191  0.65751651  0.81152787  1
  F  F432  1  0.04415453  -0.00584631  0.20341690  1
  F  F433  1  0.04796705  0.00425561  0.70223462  1
  F  F434  1  0.04427851  0.50500211  0.20253418  1
  F  F435  1  0.03039850  0.50112164  0.69649414  1
  F  F436  1  0.37621022  -0.00450768  0.20382288  1
  F  F437  1  0.37703569  0.00351704  0.70134397  1
  F  F438  1  0.37502333  0.49779726  0.20256819  1
  F  F439  1  0.38220729  0.50131169  0.70126754  1
  F  F440  1  0.71494339  -0.01103932  0.19538588  1
  F  F441  1  0.71933083  0.01214526  0.69863933  1
  F  F442  1  0.71094025  0.50192866  0.19780998  1
  F  F443  1  0.71146498  0.49995208  0.70197763  1
  F  F444  1  0.21208351  0.24992305  0.20597627  1
  F  F445  1  0.21259518  0.25112894  0.70257159  1
  F  F446  1  0.20538673  0.74993386  0.20406602  1
  F  F447  1  0.21663219  0.76060988  0.70100664  1
  F  F448  1  0.54479441  0.24954206  0.19835194  1
  F  F449  1  0.54892067  0.26237912  0.69486857  1
  F  F450  1  0.54320490  0.74884218  0.20161165  1
  F  F451  1  0.53916072  0.74869798  0.69724700  1
  F  F452  1  0.87905029  0.24867130  0.20067604  1
  F  F453  1  0.87948612  0.25112853  0.70054623  1
  F  F454  1  0.87749153  0.74994820  0.20184532  1
  F  F455  1  0.87716969  0.74791211  0.70077633  1
  F  F456  1  0.28714476  0.00038754  0.29961620  1
  F  F457  1  0.28672272  0.00844084  0.80278017  1
  F  F458  1  0.28711613  0.49796668  0.29869480  1
  F  F459  1  0.30307560  0.50023386  0.80271691  1
  F  F460  1  0.62235834  -0.00718712  0.29699840  1
  F  F461  1  0.61812860  0.00811030  0.80337259  1
  F  F462  1  0.62322998  0.49634317  0.29411665  1
  F  F463  1  0.62295474  0.50064907  0.79812595  1
  F  F464  1  0.95080583  -0.00234587  0.29779736  1
  F  F465  1  0.95651913  0.00310993  0.79748898  1
  F  F466  1  0.95065618  0.50050672  0.29633732  1
  F  F467  1  0.95129964  0.49655163  0.79789766  1
  F  F468  1  0.12134508  0.25057369  0.30193537  1
  F  F469  1  0.12260345  0.24943276  0.79785559  1
  F  F470  1  0.11644540  0.75001568  0.30096861  1
  F  F471  1  0.12181840  0.76348650  0.81080453  1
  F  F472  1  0.45645413  0.24995576  0.29515176  1
  F  F473  1  0.45367752  0.25665606  0.79949651  1
  F  F474  1  0.45580619  0.74856543  0.29690037  1
  F  F475  1  0.45526984  0.74847792  0.79863307  1
  F  F476  1  0.78918855  0.24791370  0.29421739  1
  F  F477  1  0.78916270  0.25301707  0.79566192  1
  F  F478  1  0.78587235  0.74865531  0.29652650  1
  F  F479  1  0.79565772  0.74626788  0.80534439  1
