# generated using pymatgen
data_K24Na3Li5Mg64Fe17Si79(O5F)48
_symmetry_space_group_name_H-M   'P 1'
_cell_length_a   16.10585334
_cell_length_b   18.60257218
_cell_length_c   20.56470453
_cell_angle_alpha   90.01586685
_cell_angle_beta   100.01074272
_cell_angle_gamma   90.00150996
_symmetry_Int_Tables_number   1
_chemical_formula_structural   K24Na3Li5Mg64Fe17Si79(O5F)48
_chemical_formula_sum   'K24 Na3 Li5 Mg64 Fe17 Si79 O240 F48'
_cell_volume   6067.59084545
_cell_formula_units_Z   1
loop_
 _symmetry_equiv_pos_site_id
 _symmetry_equiv_pos_as_xyz
  1  'x, y, z'
loop_
 _atom_site_type_symbol
 _atom_site_label
 _atom_site_symmetry_multiplicity
 _atom_site_fract_x
 _atom_site_fract_y
 _atom_site_fract_z
 _atom_site_occupancy
  K  K0  1  -0.00338527  0.00203730  -0.00652461  1
  K  K1  1  0.00181833  0.00785721  0.50717890  1
  K  K2  1  0.00846611  0.51450659  -0.00193964  1
  K  K3  1  0.00588447  0.51103016  0.50743672  1
  K  K4  1  0.32392843  0.00158500  0.00235482  1
  K  K5  1  0.34007733  -0.00905572  0.50218331  1
  K  K6  1  0.32190632  0.49020233  0.00361724  1
  K  K7  1  0.31426102  0.50841649  0.49334228  1
  K  K8  1  0.67512146  -0.00021538  -0.01333386  1
  K  K9  1  0.66039587  0.00549236  0.50753293  1
  K  K10  1  0.67062136  0.50581011  -0.00905892  1
  K  K11  1  0.67240232  0.50584537  0.50195087  1
  K  K12  1  0.17108900  0.25006872  -0.00106453  1
  K  K13  1  0.16793710  0.25112960  0.50617052  1
  K  K14  1  0.16944759  0.74853103  0.00172253  1
  K  K15  1  0.18677546  0.74490118  0.50356211  1
  K  K16  1  0.48813827  0.25836829  -0.00643155  1
  K  K17  1  0.49298385  0.24327154  0.50012422  1
  K  K18  1  0.49783234  0.74861173  -0.00448314  1
  K  K19  1  0.48905956  0.75348804  0.50012663  1
  K  K20  1  0.83000530  0.24442350  -0.00670281  1
  K  K21  1  0.83493858  0.24309753  0.51202294  1
  K  K22  1  0.83245528  0.74719831  -0.00851843  1
  K  K23  1  0.82452442  0.74501668  0.50343017  1
  Na  Na24  1  0.00305908  0.24939145  0.75277975  1
  Na  Na25  1  0.66883136  0.08081668  0.75847987  1
  Na  Na26  1  0.00307471  0.58303382  0.75147974  1
  Li  Li27  1  0.33440012  0.75110887  0.74193067  1
  Li  Li28  1  0.17661042  0.50449441  0.24235317  1
  Li  Li29  1  0.66313138  0.91445577  0.25277848  1
  Li  Li30  1  0.33467136  0.91536492  0.25046162  1
  Li  Li31  1  0.32294153  0.58395224  0.24971325  1
  Mg  Mg32  1  0.32852832  0.24977447  0.74881660  1
  Mg  Mg33  1  0.49868452  0.50090998  0.25203991  1
  Mg  Mg34  1  0.49806767  0.50019966  0.75120072  1
  Mg  Mg35  1  0.17118335  -0.00025121  0.24541361  1
  Mg  Mg36  1  0.50124816  -0.00119275  0.74769247  1
  Mg  Mg37  1  0.83438975  0.50149018  0.25261726  1
  Mg  Mg38  1  0.66746830  0.24816581  0.25421553  1
  Mg  Mg39  1  -0.00006956  0.24962359  0.24750080  1
  Mg  Mg40  1  0.83458448  0.49978537  0.75589128  1
  Mg  Mg41  1  0.82989610  -0.00247747  0.25079192  1
  Mg  Mg42  1  0.49879630  -0.00264367  0.25302723  1
  Mg  Mg43  1  0.66766417  0.75005426  0.75196079  1
  Mg  Mg44  1  0.33151121  0.74880189  0.24914803  1
  Mg  Mg45  1  0.16500585  0.50188542  0.74723597  1
  Mg  Mg46  1  0.33380908  0.25055232  0.24828103  1
  Mg  Mg47  1  0.00099053  0.74908878  0.75040529  1
  Mg  Mg48  1  0.83203944  -0.00045861  0.75193597  1
  Mg  Mg49  1  0.00100903  0.74975100  0.24821366  1
  Mg  Mg50  1  0.16653881  0.00021566  0.74289346  1
  Mg  Mg51  1  0.66582847  0.75113294  0.25327009  1
  Mg  Mg52  1  0.66711162  0.24844528  0.75544360  1
  Mg  Mg53  1  0.16426594  0.33511595  0.74790602  1
  Mg  Mg54  1  0.16791149  0.16545780  0.24637855  1
  Mg  Mg55  1  0.49690729  0.66472957  0.25420976  1
  Mg  Mg56  1  0.66965913  0.41628042  0.25453119  1
  Mg  Mg57  1  0.66547512  0.07940110  0.25336395  1
  Mg  Mg58  1  0.49833565  0.83266473  0.74762555  1
  Mg  Mg59  1  0.00012805  0.08342266  0.24741505  1
  Mg  Mg60  1  0.83426714  0.66542033  0.25210117  1
  Mg  Mg61  1  0.83683058  0.16536970  0.75529363  1
  Mg  Mg62  1  -0.00007688  0.91486602  0.74926088  1
  Mg  Mg63  1  0.16582698  0.16441891  0.74603629  1
  Mg  Mg64  1  0.33152986  0.08254158  0.74585778  1
  Mg  Mg65  1  0.83510285  0.33348391  0.25377033  1
  Mg  Mg66  1  0.83083941  0.83436830  0.25113184  1
  Mg  Mg67  1  0.83593327  0.33332647  0.75496243  1
  Mg  Mg68  1  0.66921760  0.58353442  0.75292802  1
  Mg  Mg69  1  0.32962458  0.42131300  0.24637110  1
  Mg  Mg70  1  0.50053396  0.33397557  0.25048887  1
  Mg  Mg71  1  0.49662125  0.33402966  0.75260127  1
  Mg  Mg72  1  0.33432802  0.08055594  0.24881985  1
  Mg  Mg73  1  0.16925698  0.66811025  0.74497760  1
  Mg  Mg74  1  0.83508908  0.66496805  0.75403380  1
  Mg  Mg75  1  0.00044425  0.91640208  0.24765614  1
  Mg  Mg76  1  0.16586919  0.33705591  0.24619105  1
  Mg  Mg77  1  0.49934567  0.83459824  0.25227196  1
  Mg  Mg78  1  0.49919601  0.16662802  0.75172908  1
  Mg  Mg79  1  0.33028412  0.58762338  0.74447757  1
  Mg  Mg80  1  0.49926842  0.16322064  0.25125909  1
  Mg  Mg81  1  0.16930076  0.83244599  0.74392137  1
  Mg  Mg82  1  0.16944714  0.83453534  0.24668975  1
  Mg  Mg83  1  0.66873812  0.58469809  0.25435090  1
  Mg  Mg84  1  0.83236435  0.83432300  0.75283651  1
  Mg  Mg85  1  0.00247926  0.41764635  0.24765569  1
  Mg  Mg86  1  0.16687056  0.66270285  0.24603781  1
  Mg  Mg87  1  0.49792840  0.66751089  0.74814298  1
  Mg  Mg88  1  0.66720530  0.41521595  0.75530126  1
  Mg  Mg89  1  0.32891171  0.41628884  0.74799719  1
  Mg  Mg90  1  0.83239595  0.16400666  0.25199459  1
  Mg  Mg91  1  0.00300972  0.58394153  0.24807997  1
  Mg  Mg92  1  0.00250507  0.41757976  0.75109330  1
  Mg  Mg93  1  0.33201496  0.91342808  0.74347478  1
  Mg  Mg94  1  0.66920355  0.91525765  0.75051737  1
  Mg  Mg95  1  -0.00007236  0.08416374  0.74956799  1
  Fe  Fe96  1  0.81445809  0.58384900  0.89433147  1
  Fe  Fe97  1  0.02053652  0.16903816  0.60570114  1
  Fe  Fe98  1  0.36210296  0.83405055  0.60747290  1
  Fe  Fe99  1  0.47375959  0.08409712  0.39179871  1
  Fe  Fe100  1  0.18969437  0.08312597  0.60422209  1
  Fe  Fe101  1  0.14009934  0.42488567  0.89115328  1
  Fe  Fe102  1  0.81306384  0.08888258  0.89678246  1
  Fe  Fe103  1  0.02131574  0.66806054  0.10752409  1
  Fe  Fe104  1  0.18868574  0.41497267  0.10706983  1
  Fe  Fe105  1  0.81240474  0.58411652  0.39271932  1
  Fe  Fe106  1  0.69231051  0.83164354  0.61116774  1
  Fe  Fe107  1  0.81061165  0.91425936  0.89495866  1
  Fe  Fe108  1  0.30261311  0.32861554  0.88790654  1
  Fe  Fe109  1  0.19067784  0.08507800  0.10609197  1
  Fe  Fe110  1  0.30515343  0.66201462  0.38684445  1
  Fe  Fe111  1  0.18770598  0.58566058  0.60502447  1
  Fe  Fe112  1  0.97641873  0.33525327  0.89256492  1
  Si  Si113  1  0.52759314  0.09062273  0.61794293  1
  Si  Si114  1  0.14035993  0.08492317  0.38183925  1
  Si  Si115  1  0.69472172  0.33361101  0.61810562  1
  Si  Si116  1  0.52938790  0.92502898  0.60985581  1
  Si  Si117  1  0.85394830  0.57928490  0.11422435  1
  Si  Si118  1  0.19410215  0.58865040  0.10741764  1
  Si  Si119  1  0.53043622  0.07974821  0.11590251  1
  Si  Si120  1  0.64541554  0.33285818  0.38765043  1
  Si  Si121  1  0.85409005  0.08313498  0.11675285  1
  Si  Si122  1  0.30950537  0.15977979  0.88512986  1
  Si  Si123  1  0.47858069  0.41399406  0.38606780  1
  Si  Si124  1  0.80479826  0.41061373  0.89285556  1
  Si  Si125  1  0.35749418  0.33272998  0.61320284  1
  Si  Si126  1  0.30854419  0.83773015  0.88107857  1
  Si  Si127  1  0.63830170  0.66514635  0.39001722  1
  Si  Si128  1  0.81403738  0.41301457  0.39043635  1
  Si  Si129  1  0.63279572  0.33710956  0.88884469  1
  Si  Si130  1  0.14506239  0.91521866  0.88197861  1
  Si  Si131  1  0.52505765  0.91491734  0.11642960  1
  Si  Si132  1  0.85457917  0.58560655  0.61683915  1
  Si  Si133  1  0.36448384  0.66721547  0.11445686  1
  Si  Si134  1  0.69553598  0.16983922  0.61970241  1
  Si  Si135  1  0.85393932  0.91919216  0.11546782  1
  Si  Si136  1  0.15364527  0.59180147  0.88505833  1
  Si  Si137  1  0.97612823  0.32652882  0.38611553  1
  Si  Si138  1  0.52561598  0.41159617  0.61667371  1
  Si  Si139  1  0.80895768  0.91393495  0.38612390  1
  Si  Si140  1  0.01656592  0.33100664  0.11178348  1
  Si  Si141  1  0.14374664  0.07835828  0.88343370  1
  Si  Si142  1  0.97552797  0.67354382  0.38735453  1
  Si  Si143  1  0.19016314  0.91207557  0.11025577  1
  Si  Si144  1  0.98253810  0.83238643  0.88764115  1
  Si  Si145  1  0.63678844  0.66654307  0.88743349  1
  Si  Si146  1  0.47219949  0.08034821  0.88457045  1
  Si  Si147  1  0.69320520  0.33112352  0.11868704  1
  Si  Si148  1  0.30742017  0.83355447  0.38381804  1
  Si  Si149  1  0.98429106  0.67082204  0.88757389  1
  Si  Si150  1  0.13606951  0.41396957  0.38361992  1
  Si  Si151  1  0.47802862  0.91373853  0.38812725  1
  Si  Si152  1  0.46948474  0.58654621  0.88322904  1
  Si  Si153  1  0.64201532  0.83065679  0.38648637  1
  Si  Si154  1  0.36766825  0.66109721  0.60825855  1
  Si  Si155  1  0.53253444  0.41884870  0.11797691  1
  Si  Si156  1  0.63160964  0.17268985  0.89162534  1
  Si  Si157  1  0.30303144  0.17246203  0.38663848  1
  Si  Si158  1  0.64632833  0.16770676  0.38988246  1
  Si  Si159  1  0.02160580  0.83359983  0.61357791  1
  Si  Si160  1  0.18512421  0.91190220  0.60586788  1
  Si  Si161  1  0.01838759  0.83796039  0.11080046  1
  Si  Si162  1  0.14363736  0.92077519  0.38182656  1
  Si  Si163  1  0.69121798  0.16634470  0.11798144  1
  Si  Si164  1  0.97391043  0.16176086  0.38405418  1
  Si  Si165  1  0.13268999  0.58053706  0.38479169  1
  Si  Si166  1  0.98482642  0.16458731  0.89095843  1
  Si  Si167  1  0.36694918  0.16721096  0.11193655  1
  Si  Si168  1  0.31052072  0.67534151  0.88041949  1
  Si  Si169  1  0.47199541  0.91803802  0.88286775  1
  Si  Si170  1  0.47631656  0.57878338  0.38811576  1
  Si  Si171  1  0.01645254  0.16749067  0.11162333  1
  Si  Si172  1  0.46846135  0.42168339  0.88740638  1
  Si  Si173  1  0.36077178  0.83108845  0.11492564  1
  Si  Si174  1  0.68877034  0.66360831  0.61413886  1
  Si  Si175  1  0.30717721  0.33829574  0.38404074  1
  Si  Si176  1  0.97894582  0.83790792  0.38435176  1
  Si  Si177  1  0.36228093  0.16729229  0.61208768  1
  Si  Si178  1  0.01869012  0.67241658  0.61123042  1
  Si  Si179  1  0.69219824  0.66781872  0.11638493  1
  Si  Si180  1  0.52870640  0.58407414  0.11702107  1
  Si  Si181  1  0.85440614  0.07989679  0.61317230  1
  Si  Si182  1  0.18892661  0.41477305  0.60782260  1
  Si  Si183  1  0.86090741  0.91510952  0.61372628  1
  Si  Si184  1  0.53098425  0.57585872  0.61620385  1
  Si  Si185  1  0.80840602  0.07994001  0.38718694  1
  Si  Si186  1  0.85633835  0.42204704  0.61616186  1
  Si  Si187  1  0.63341927  0.83205676  0.88732891  1
  Si  Si188  1  0.02022353  0.33949782  0.61109182  1
  Si  Si189  1  0.69143132  0.83201274  0.11660303  1
  Si  Si190  1  0.85488063  0.41506036  0.11744692  1
  Si  Si191  1  0.36771972  0.33310965  0.11379271  1
  O  O192  1  0.28183821  0.12939790  0.07455758  1
  O  O193  1  0.29000411  0.11480026  0.57519295  1
  O  O194  1  0.27979707  0.62363921  0.08211579  1
  O  O195  1  0.28594810  0.61440193  0.57503810  1
  O  O196  1  0.60999091  0.11688991  0.08705839  1
  O  O197  1  0.60823940  0.12638180  0.59012057  1
  O  O198  1  0.60520107  0.62357368  0.08668822  1
  O  O199  1  0.61559279  0.60200330  0.58871245  1
  O  O200  1  0.93478910  0.11325899  0.08731791  1
  O  O201  1  0.92382530  0.11108950  0.57261601  1
  O  O202  1  0.92845836  0.60578083  0.07762218  1
  O  O203  1  0.93445963  0.62020207  0.58762919  1
  O  O204  1  0.09468230  0.35352875  0.07773197  1
  O  O205  1  0.10366841  0.36662476  0.57948494  1
  O  O206  1  0.10166762  0.86744842  0.08183178  1
  O  O207  1  0.10568366  0.85427186  0.58319993  1
  O  O208  1  0.44881912  0.37303325  0.08777440  1
  O  O209  1  0.43950339  0.36714664  0.58499266  1
  O  O210  1  0.43546405  0.87508910  0.08404939  1
  O  O211  1  0.44812100  0.88106602  0.57237125  1
  O  O212  1  0.77458954  0.36131971  0.08948775  1
  O  O213  1  0.77044511  0.37374503  0.58666658  1
  O  O214  1  0.77009609  0.87014148  0.08703267  1
  O  O215  1  0.79100465  0.85841611  0.57881930  1
  O  O216  1  0.28365212  0.37209050  0.07849519  1
  O  O217  1  0.27111129  0.37563819  0.58112057  1
  O  O218  1  0.26899020  0.86785551  0.08467172  1
  O  O219  1  0.26146636  0.88195030  0.57150278  1
  O  O220  1  0.61194867  0.38166312  0.08914001  1
  O  O221  1  0.60468685  0.37425575  0.58762016  1
  O  O222  1  0.60249098  0.87403864  0.08714705  1
  O  O223  1  0.61171282  0.90131083  0.57922299  1
  O  O224  1  0.93497761  0.38494017  0.08717030  1
  O  O225  1  0.93801742  0.39437767  0.58514740  1
  O  O226  1  0.93825951  0.89506319  0.08677944  1
  O  O227  1  0.94949724  0.89441713  0.58640511  1
  O  O228  1  0.09292899  0.14135616  0.07652890  1
  O  O229  1  0.10543960  0.14162803  0.56009525  1
  O  O230  1  0.11631643  0.64047366  0.07269183  1
  O  O231  1  0.09157904  0.64334934  0.57240059  1
  O  O232  1  0.44629908  0.12554727  0.08551706  1
  O  O233  1  0.45037166  0.14455943  0.58637647  1
  O  O234  1  0.44293446  0.62719894  0.08513947  1
  O  O235  1  0.45133555  0.62415354  0.58259511  1
  O  O236  1  0.77308269  0.13548053  0.08919835  1
  O  O237  1  0.76755922  0.12789148  0.58679873  1
  O  O238  1  0.76800993  0.62772803  0.08710599  1
  O  O239  1  0.77175657  0.63368705  0.58451591  1
  O  O240  1  0.05675437  0.11283897  0.41066553  1
  O  O241  1  0.06365104  0.10541131  0.91560329  1
  O  O242  1  0.05326094  0.61827884  0.41403810  1
  O  O243  1  0.06821092  0.62046254  0.91153702  1
  O  O244  1  0.38391738  0.12921641  0.42457514  1
  O  O245  1  0.38621265  0.10128290  0.91266211  1
  O  O246  1  0.39782966  0.60243746  0.42170611  1
  O  O247  1  0.39166640  0.62410154  0.91285102  1
  O  O248  1  0.73311526  0.12052714  0.41717011  1
  O  O249  1  0.71518373  0.13094915  0.92616814  1
  O  O250  1  0.71655113  0.61602741  0.42476551  1
  O  O251  1  0.71913760  0.62429187  0.92484159  1
  O  O252  1  0.23079145  0.38009228  0.41303016  1
  O  O253  1  0.21694918  0.35629598  0.92966790  1
  O  O254  1  0.22879367  0.87630530  0.41137791  1
  O  O255  1  0.22706297  0.86511068  0.91369731  1
  O  O256  1  0.56204803  0.36315323  0.41567524  1
  O  O257  1  0.55603910  0.37762269  0.91717807  1
  O  O258  1  0.56305011  0.86428702  0.41710697  1
  O  O259  1  0.54896582  0.86429571  0.91453082  1
  O  O260  1  0.89363569  0.35704472  0.41489373  1
  O  O261  1  0.87263214  0.35011853  0.92256577  1
  O  O262  1  0.89789939  0.87085384  0.41486740  1
  O  O263  1  0.90651579  0.85549394  0.92491060  1
  O  O264  1  0.06408404  0.36851203  0.41645282  1
  O  O265  1  0.04505918  0.40964154  0.92778054  1
  O  O266  1  0.06124175  0.88932694  0.41094396  1
  O  O267  1  0.06440284  0.88614601  0.91304659  1
  O  O268  1  0.39732640  0.37935937  0.41458902  1
  O  O269  1  0.39582811  0.38932210  0.92300728  1
  O  O270  1  0.39492092  0.87834454  0.41270929  1
  O  O271  1  0.38784196  0.89133117  0.91221624  1
  O  O272  1  0.72857304  0.38170629  0.41665722  1
  O  O273  1  0.71599563  0.38393500  0.91860936  1
  O  O274  1  0.73056752  0.87550485  0.41458636  1
  O  O275  1  0.71445780  0.87478896  0.92534087  1
  O  O276  1  0.21723293  0.13975611  0.41062283  1
  O  O277  1  0.22690755  0.12705211  0.91293960  1
  O  O278  1  0.21717655  0.61851395  0.42292451  1
  O  O279  1  0.22858501  0.65215601  0.91303076  1
  O  O280  1  0.57171086  0.13967486  0.42581264  1
  O  O281  1  0.54823173  0.13536335  0.91719003  1
  O  O282  1  0.55582273  0.63304789  0.41790361  1
  O  O283  1  0.55409541  0.63201067  0.91457204  1
  O  O284  1  0.89570699  0.12479870  0.41392443  1
  O  O285  1  0.90989041  0.14322767  0.93176232  1
  O  O286  1  0.89734257  0.65129403  0.42324601  1
  O  O287  1  0.90977548  0.64202073  0.92518001  1
  O  O288  1  0.18250943  -0.01041578  0.07324996  1
  O  O289  1  0.15501488  -0.01036156  0.57461024  1
  O  O290  1  0.17988698  0.50914010  0.07378722  1
  O  O291  1  0.17356015  0.49118548  0.57024919  1
  O  O292  1  0.52045184  -0.00239938  0.08630416  1
  O  O293  1  0.51145781  0.01067484  0.58589687  1
  O  O294  1  0.52340920  0.50099472  0.08848340  1
  O  O295  1  0.51470084  0.49326393  0.58723406  1
  O  O296  1  0.82999415  0.00169651  0.08971519  1
  O  O297  1  0.83288366  -0.00330328  0.58620028  1
  O  O298  1  0.82678236  0.49565433  0.09040626  1
  O  O299  1  0.83670802  0.50362533  0.58564256  1
  O  O300  1  -0.01717477  0.24892511  0.08868213  1
  O  O301  1  -0.00999099  0.26383417  0.57618368  1
  O  O302  1  -0.01159905  0.76201878  0.07723055  1
  O  O303  1  -0.01184542  0.75452050  0.58365253  1
  O  O304  1  0.37294564  0.25036315  0.08583688  1
  O  O305  1  0.34570836  0.25082899  0.58361631  1
  O  O306  1  0.35925453  0.74952682  0.08220052  1
  O  O307  1  0.35886162  0.74000476  0.57458455  1
  O  O308  1  0.67360111  0.24900393  0.09031911  1
  O  O309  1  0.68681227  0.25189102  0.58656994  1
  O  O310  1  0.68119282  0.74973236  0.08545349  1
  O  O311  1  0.65932205  0.73846122  0.57771186  1
  O  O312  1  0.15958437  0.00337706  0.41050752  1
  O  O313  1  0.16712498  -0.00374708  0.91188531  1
  O  O314  1  0.13345716  0.49571661  0.41169841  1
  O  O315  1  0.18344157  0.51678512  0.92044880  1
  O  O316  1  0.49453391  -0.00912205  0.42499969  1
  O  O317  1  0.49735108  -0.00112642  0.91324391  1
  O  O318  1  0.50220762  0.49473154  0.41529920  1
  O  O319  1  0.48578253  0.50540544  0.91371484  1
  O  O320  1  0.81910781  -0.00267453  0.41578811  1
  O  O321  1  0.82766997  0.00052307  0.94014160  1
  O  O322  1  0.83812652  0.48935583  0.42513596  1
  O  O323  1  0.82592728  0.48915177  0.92697338  1
  O  O324  1  0.31170180  0.25660661  0.41506448  1
  O  O325  1  0.33695663  0.23508361  0.92086744  1
  O  O326  1  0.31732162  0.75672767  0.42084950  1
  O  O327  1  0.33548104  0.75698199  0.91034066  1
  O  O328  1  0.66845289  0.25147411  0.41552099  1
  O  O329  1  0.63693742  0.25631757  0.92179060  1
  O  O330  1  0.65619197  0.74868339  0.41664949  1
  O  O331  1  0.64032129  0.74908201  0.91624399  1
  O  O332  1  0.98868040  0.24329728  0.41357049  1
  O  O333  1  1.02212007  0.24284995  0.91615415  1
  O  O334  1  1.00227853  0.75687236  0.41256328  1
  O  O335  1  1.01547498  0.75216294  0.91468519  1
  O  O336  1  0.21222975  0.08486033  0.19795248  1
  O  O337  1  0.21317106  0.08256349  0.69659037  1
  O  O338  1  0.20640959  0.58745144  0.18710985  1
  O  O339  1  0.21081729  0.58438703  0.69601624  1
  O  O340  1  0.54768583  0.08284715  0.19605930  1
  O  O341  1  0.53657468  0.08656874  0.69703768  1
  O  O342  1  0.54672263  0.58339498  0.19732230  1
  O  O343  1  0.54584602  0.57915170  0.69672324  1
  O  O344  1  0.87378385  0.08334700  0.19730197  1
  O  O345  1  0.87686057  0.08225999  0.69346060  1
  O  O346  1  0.87493545  0.58295196  0.19505005  1
  O  O347  1  0.86640595  0.58343868  0.69569711  1
  O  O348  1  0.03781396  0.33207189  0.19316112  1
  O  O349  1  0.04518887  0.34015392  0.69028605  1
  O  O350  1  0.03936512  0.83631856  0.19198881  1
  O  O351  1  0.04175096  0.83357872  0.69419511  1
  O  O352  1  0.38189516  0.33257882  0.19491218  1
  O  O353  1  0.37773945  0.33409937  0.69328854  1
  O  O354  1  0.38041237  0.82980219  0.19436635  1
  O  O355  1  0.38135914  0.83500688  0.69790097  1
  O  O356  1  0.71098356  0.33153412  0.19938121  1
  O  O357  1  0.70842010  0.33475999  0.69823701  1
  O  O358  1  0.71096752  0.83006454  0.19616308  1
  O  O359  1  0.71123858  0.82988864  0.70249162  1
  O  O360  1  0.21154894  0.41404089  0.19777624  1
  O  O361  1  0.21084035  0.41757722  0.68803269  1
  O  O362  1  0.20438080  0.91633325  0.19026850  1
  O  O363  1  0.20740291  0.91489774  0.68758502  1
  O  O364  1  0.54964973  0.41636787  0.19836058  1
  O  O365  1  0.54242553  0.41348287  0.69709952  1
  O  O366  1  0.54036813  0.91536312  0.19583979  1
  O  O367  1  0.54363395  0.91818977  0.69117853  1
  O  O368  1  0.87370686  0.41426110  0.19825588  1
  O  O369  1  0.87101092  0.41910899  0.69576093  1
  O  O370  1  0.87375101  0.91699413  0.19597296  1
  O  O371  1  0.87867396  0.91409411  0.69445448  1
  O  O372  1  0.03924165  0.16581225  0.19304068  1
  O  O373  1  0.04857359  0.15687350  0.69529948  1
  O  O374  1  0.04186559  0.66797085  0.19936760  1
  O  O375  1  0.04582809  0.67538666  0.69054700  1
  O  O376  1  0.37898876  0.16746254  0.19290968  1
  O  O377  1  0.37665669  0.16796649  0.69310092  1
  O  O378  1  0.38356748  0.67007351  0.19374832  1
  O  O379  1  0.38351277  0.66041329  0.68886910  1
  O  O380  1  0.70939693  0.16604484  0.19860025  1
  O  O381  1  0.71283989  0.17422692  0.69856572  1
  O  O382  1  0.70842050  0.66817682  0.19669115  1
  O  O383  1  0.70726818  0.66610885  0.69492841  1
  O  O384  1  0.12074981  0.08464265  0.30152663  1
  O  O385  1  0.12527602  0.07865614  0.80357768  1
  O  O386  1  0.11896673  0.58441594  0.30512221  1
  O  O387  1  0.13794427  0.58832770  0.80545741  1
  O  O388  1  0.45570756  0.08397974  0.30014291  1
  O  O389  1  0.45610332  0.08234475  0.80425741  1
  O  O390  1  0.46482367  0.58030859  0.30811097  1
  O  O391  1  0.45457230  0.58436326  0.80299848  1
  O  O392  1  0.78983325  0.08179671  0.30674143  1
  O  O393  1  0.80105461  0.08218805  0.80663270  1
  O  O394  1  0.78934166  0.58301223  0.30069087  1
  O  O395  1  0.78790713  0.58314518  0.80293198  1
  O  O396  1  0.29252225  0.33445435  0.30412663  1
  O  O397  1  0.28872107  0.33373341  0.79596561  1
  O  O398  1  0.28801577  0.83182028  0.30366748  1
  O  O399  1  0.28662308  0.83946652  0.80207206  1
  O  O400  1  0.62597420  0.33291000  0.30696974  1
  O  O401  1  0.61852098  0.33460464  0.80823790  1
  O  O402  1  0.62287165  0.83013705  0.30672587  1
  O  O403  1  0.61954432  0.83209541  0.80682238  1
  O  O404  1  0.95665149  0.32953595  0.30558469  1
  O  O405  1  0.95197020  0.34169841  0.80239091  1
  O  O406  1  0.95662665  0.83684117  0.30372859  1
  O  O407  1  0.95995317  0.83419159  0.80664678  1
  O  O408  1  0.11643606  0.40741376  0.30479776  1
  O  O409  1  0.12538391  0.41902585  0.79871730  1
  O  O410  1  0.12280674  0.91924321  0.30134031  1
  O  O411  1  0.12603252  0.91499560  0.80171374  1
  O  O412  1  0.46109743  0.41366203  0.30587243  1
  O  O413  1  0.45428813  0.41805056  0.80633224  1
  O  O414  1  0.46393485  0.91581680  0.30803602  1
  O  O415  1  0.45513249  0.91794864  0.80307199  1
  O  O416  1  0.79246826  0.41442235  0.30913306  1
  O  O417  1  0.78570679  0.41488686  0.81110227  1
  O  O418  1  0.79379112  0.91626747  0.30641082  1
  O  O419  1  0.79107860  0.91624238  0.80325272  1
  O  O420  1  0.29084189  0.17071605  0.30587795  1
  O  O421  1  0.29366823  0.16314053  0.80444513  1
  O  O422  1  0.28528856  0.66849879  0.29670887  1
  O  O423  1  0.29388002  0.67030007  0.80120440  1
  O  O424  1  0.62645783  0.16602466  0.30875852  1
  O  O425  1  0.61461725  0.17609746  0.81182084  1
  O  O426  1  0.62366019  0.66537599  0.30869794  1
  O  O427  1  0.62236986  0.66469697  0.80658687  1
  O  O428  1  0.95487361  0.16446133  0.30356057  1
  O  O429  1  0.95686266  0.15732516  0.81110978  1
  O  O430  1  0.95425855  0.67028909  0.30645540  1
  O  O431  1  0.95521705  0.67448879  0.80822210  1
  F  F432  1  0.04315213  0.00090325  0.19990363  1
  F  F433  1  0.04431522  -0.00305911  0.70075386  1
  F  F434  1  0.03452166  0.49917711  0.19818342  1
  F  F435  1  0.04706149  0.49504175  0.69552190  1
  F  F436  1  0.38198702  0.00130788  0.19908004  1
  F  F437  1  0.37977483  0.00019551  0.69957064  1
  F  F438  1  0.38824548  0.49248384  0.19708591  1
  F  F439  1  0.38112904  0.49791013  0.70003340  1
  F  F440  1  0.71365408  0.00449355  0.20133991  1
  F  F441  1  0.71485684  -0.00745622  0.69890328  1
  F  F442  1  0.71103136  0.49706065  0.20373290  1
  F  F443  1  0.70881236  0.49608394  0.70519693  1
  F  F444  1  0.21301125  0.25021118  0.20129230  1
  F  F445  1  0.21285399  0.24773001  0.69508807  1
  F  F446  1  0.21034561  0.75342729  0.19701381  1
  F  F447  1  0.21008137  0.75113502  0.69635602  1
  F  F448  1  0.54883853  0.24895168  0.20479262  1
  F  F449  1  0.54505728  0.25214458  0.70409619  1
  F  F450  1  0.54642645  0.74805638  0.20461416  1
  F  F451  1  0.54779715  0.74837752  0.70163492  1
  F  F452  1  0.87470623  0.24852991  0.20403126  1
  F  F453  1  0.86445226  0.24947548  0.70208987  1
  F  F454  1  0.87589180  0.75115809  0.20353665  1
  F  F455  1  0.87764663  0.74992219  0.70509725  1
  F  F456  1  0.28656003  0.00205192  0.29865276  1
  F  F457  1  0.28866541  -0.00337235  0.79361266  1
  F  F458  1  0.29482270  0.49875161  0.29897677  1
  F  F459  1  0.29155925  0.50102918  0.79412705  1
  F  F460  1  0.62083653  0.00212401  0.30139029  1
  F  F461  1  0.61433866  -0.01194529  0.80259364  1
  F  F462  1  0.62322290  0.49866028  0.30065568  1
  F  F463  1  0.61831499  0.49894324  0.80062195  1
  F  F464  1  0.95393338  0.00056327  0.29653690  1
  F  F465  1  0.95750982  -0.00282605  0.79622656  1
  F  F466  1  0.95426016  0.49844261  0.29843605  1
  F  F467  1  0.95085727  0.49432449  0.80137289  1
  F  F468  1  0.12029544  0.24843006  0.29434209  1
  F  F469  1  0.13997975  0.24842091  0.79804398  1
  F  F470  1  0.12046357  0.75551670  0.29568995  1
  F  F471  1  0.12405440  0.75222136  0.79522590  1
  F  F472  1  0.45653600  0.24983947  0.29811549  1
  F  F473  1  0.45099399  0.25054979  0.79733830  1
  F  F474  1  0.45518617  0.75007333  0.29982380  1
  F  F475  1  0.46214156  0.74833157  0.79881342  1
  F  F476  1  0.78908751  0.24812337  0.30144544  1
  F  F477  1  0.78537926  0.25117888  0.80388807  1
  F  F478  1  0.78802358  0.75053534  0.30005891  1
  F  F479  1  0.78788971  0.74727246  0.80233948  1
