# generated using pymatgen
data_K24Na3Li5Mg64Fe17Si79(O5F)48
_symmetry_space_group_name_H-M   'P 1'
_cell_length_a   16.09771941
_cell_length_b   18.59315795
_cell_length_c   20.57861225
_cell_angle_alpha   89.98920482
_cell_angle_beta   99.98743240
_cell_angle_gamma   90.05050435
_symmetry_Int_Tables_number   1
_chemical_formula_structural   K24Na3Li5Mg64Fe17Si79(O5F)48
_chemical_formula_sum   'K24 Na3 Li5 Mg64 Fe17 Si79 O240 F48'
_cell_volume   6065.98975190
_cell_formula_units_Z   1
loop_
 _symmetry_equiv_pos_site_id
 _symmetry_equiv_pos_as_xyz
  1  'x, y, z'
loop_
 _atom_site_type_symbol
 _atom_site_label
 _atom_site_symmetry_multiplicity
 _atom_site_fract_x
 _atom_site_fract_y
 _atom_site_fract_z
 _atom_site_occupancy
  K  K0  1  -0.00126210  -0.00880993  0.00134369  1
  K  K1  1  0.01315542  -0.02138402  0.49810038  1
  K  K2  1  0.01255341  0.50364198  0.00926610  1
  K  K3  1  0.00773828  0.50550054  0.49437931  1
  K  K4  1  0.32791998  0.00162498  -0.00413862  1
  K  K5  1  0.31573593  0.00278688  0.49940252  1
  K  K6  1  0.32795384  0.50403935  0.00235511  1
  K  K7  1  0.32585368  0.50565746  0.48560557  1
  K  K8  1  0.67797465  -0.00913355  0.00162356  1
  K  K9  1  0.67157700  -0.00019032  0.49746737  1
  K  K10  1  0.67341880  0.50158898  0.00534605  1
  K  K11  1  0.66542323  0.50327660  0.49424878  1
  K  K12  1  0.16348939  0.25781614  -0.00292037  1
  K  K13  1  0.18295564  0.25002472  0.49920688  1
  K  K14  1  0.17363607  0.74394624  0.00266135  1
  K  K15  1  0.15128298  0.75303156  0.49765662  1
  K  K16  1  0.49478083  0.24880088  -0.00081247  1
  K  K17  1  0.49026067  0.26667965  0.49717915  1
  K  K18  1  0.49909828  0.75313686  0.00092338  1
  K  K19  1  0.49033867  0.74892328  0.49774974  1
  K  K20  1  0.85323478  0.25132308  0.00391188  1
  K  K21  1  0.83971761  0.25296830  0.49683857  1
  K  K22  1  0.84752388  0.74949858  0.01252762  1
  K  K23  1  0.84618185  0.74886696  0.49713860  1
  Na  Na24  1  0.33220553  0.25160098  0.75888988  1
  Na  Na25  1  0.49643982  0.83147473  0.74856475  1
  Na  Na26  1  0.33368224  0.58198790  0.25419635  1
  Li  Li27  1  0.16712520  0.50494289  0.25169039  1
  Li  Li28  1  0.33197579  0.74363711  0.24669840  1
  Li  Li29  1  0.83405132  0.16633780  0.24787878  1
  Li  Li30  1  0.00697039  0.58152055  0.24160038  1
  Li  Li31  1  0.33328472  0.58388413  0.75071557  1
  Mg  Mg32  1  0.49747087  0.50098324  0.74794344  1
  Mg  Mg33  1  0.49776417  0.50101998  0.25152821  1
  Mg  Mg34  1  0.83611313  0.49867922  0.24781018  1
  Mg  Mg35  1  0.50107652  -0.00223873  0.24996725  1
  Mg  Mg36  1  0.83192457  0.00177383  0.74944166  1
  Mg  Mg37  1  0.67013598  0.74879702  0.24220296  1
  Mg  Mg38  1  0.33377365  0.74846512  0.74834205  1
  Mg  Mg39  1  0.66445159  0.75035597  0.74598990  1
  Mg  Mg40  1  0.66783939  0.24822533  0.25227792  1
  Mg  Mg41  1  0.16847996  0.50031387  0.75362583  1
  Mg  Mg42  1  -0.00258177  0.25046746  0.75486965  1
  Mg  Mg43  1  0.83479836  0.00068448  0.24666355  1
  Mg  Mg44  1  0.83356133  0.50034128  0.74844127  1
  Mg  Mg45  1  0.49652221  -0.00009330  0.75108988  1
  Mg  Mg46  1  -0.00096575  0.25057954  0.25081547  1
  Mg  Mg47  1  0.16569312  -0.00007487  0.75125735  1
  Mg  Mg48  1  0.33151688  0.25009757  0.25730263  1
  Mg  Mg49  1  -0.00020173  0.74510085  0.24579124  1
  Mg  Mg50  1  0.00194867  0.74926644  0.74481535  1
  Mg  Mg51  1  0.16662411  -0.00071299  0.25318350  1
  Mg  Mg52  1  0.66354104  0.25038362  0.74996012  1
  Mg  Mg53  1  0.83458905  0.33442871  0.75268867  1
  Mg  Mg54  1  0.16750856  0.33488645  0.75658273  1
  Mg  Mg55  1  0.00139817  0.08544052  0.75452524  1
  Mg  Mg56  1  0.00234060  0.91517275  0.74974914  1
  Mg  Mg57  1  0.33248766  0.42001199  0.75316176  1
  Mg  Mg58  1  0.49761371  0.33491391  0.25449702  1
  Mg  Mg59  1  0.16909263  0.16714889  0.25624455  1
  Mg  Mg60  1  0.83313687  0.33033788  0.24862855  1
  Mg  Mg61  1  0.66481667  0.58236769  0.24432746  1
  Mg  Mg62  1  0.83246830  0.83520708  0.74583851  1
  Mg  Mg63  1  0.49866997  0.66620377  0.24815433  1
  Mg  Mg64  1  0.00171477  0.41494320  0.75405208  1
  Mg  Mg65  1  0.83485996  0.83310356  0.24346494  1
  Mg  Mg66  1  0.17004063  0.33822711  0.25635777  1
  Mg  Mg67  1  0.33358798  0.08358682  0.25570372  1
  Mg  Mg68  1  0.83361769  0.66581989  0.74477774  1
  Mg  Mg69  1  -0.00271775  0.08498778  0.24995491  1
  Mg  Mg70  1  0.49618855  0.16720726  0.75164680  1
  Mg  Mg71  1  0.16858411  0.66457824  0.24787938  1
  Mg  Mg72  1  0.16607674  0.16599771  0.75373145  1
  Mg  Mg73  1  0.49758081  0.66545031  0.74811131  1
  Mg  Mg74  1  0.66376658  0.08433038  0.75033787  1
  Mg  Mg75  1  0.16942988  0.83018473  0.24891452  1
  Mg  Mg76  1  0.66912255  0.08397559  0.24976198  1
  Mg  Mg77  1  0.33061917  0.91424991  0.74804936  1
  Mg  Mg78  1  0.66623238  0.58566037  0.74657023  1
  Mg  Mg79  1  0.49934256  0.16486085  0.25445469  1
  Mg  Mg80  1  0.32963696  0.08501652  0.75151881  1
  Mg  Mg81  1  0.49984411  0.83040820  0.24677983  1
  Mg  Mg82  1  0.49768154  0.33480571  0.75051011  1
  Mg  Mg83  1  0.16827778  0.83416450  0.74913730  1
  Mg  Mg84  1  0.66419652  0.41382458  0.24916774  1
  Mg  Mg85  1  0.66916243  0.91467583  0.24551225  1
  Mg  Mg86  1  0.66358076  0.91666165  0.74858738  1
  Mg  Mg87  1  -0.00173616  0.91306406  0.24631657  1
  Mg  Mg88  1  0.33458697  0.91265990  0.25088450  1
  Mg  Mg89  1  0.33305485  0.41829450  0.25772641  1
  Mg  Mg90  1  0.00220340  0.42026107  0.25164842  1
  Mg  Mg91  1  0.17078630  0.66408341  0.74893071  1
  Mg  Mg92  1  0.83405687  0.16692255  0.75361728  1
  Mg  Mg93  1  0.66636237  0.41687983  0.74993755  1
  Mg  Mg94  1  0.83674834  0.66211384  0.24538255  1
  Mg  Mg95  1  -0.00059902  0.58321781  0.74795655  1
  Fe  Fe96  1  0.97015062  0.82722749  0.38496451  1
  Fe  Fe97  1  0.86262429  0.58163539  0.10889574  1
  Fe  Fe98  1  0.31484340  0.83190496  0.88958413  1
  Fe  Fe99  1  0.31320043  0.16076528  0.39665974  1
  Fe  Fe100  1  0.97295120  0.33621912  0.89519851  1
  Fe  Fe101  1  0.14481278  0.42340107  0.89488495  1
  Fe  Fe102  1  0.48038735  0.42849346  0.39548522  1
  Fe  Fe103  1  0.68708416  0.83198154  0.10455519  1
  Fe  Fe104  1  0.86281139  0.91785367  0.10415727  1
  Fe  Fe105  1  0.97198112  0.16203124  0.89472578  1
  Fe  Fe106  1  0.85386949  0.57893676  0.60690534  1
  Fe  Fe107  1  0.19624804  0.91896852  0.60648889  1
  Fe  Fe108  1  0.14199847  0.07677165  0.89450075  1
  Fe  Fe109  1  0.30992338  0.33748190  0.39792265  1
  Fe  Fe110  1  0.02201373  0.83052450  0.60850446  1
  Fe  Fe111  1  0.51978218  0.57875949  0.10849214  1
  Fe  Fe112  1  0.30894438  0.16735462  0.89556597  1
  Si  Si113  1  0.52675285  0.58379818  0.61245658  1
  Si  Si114  1  0.47675255  0.41956869  0.88600678  1
  Si  Si115  1  0.68854286  0.16510042  0.11564635  1
  Si  Si116  1  0.63570705  0.16897057  0.88383157  1
  Si  Si117  1  0.97181212  0.16874486  0.38427357  1
  Si  Si118  1  0.96815012  0.83467723  0.88311094  1
  Si  Si119  1  0.63619321  0.33394047  0.88379604  1
  Si  Si120  1  0.80348356  0.91754662  0.88262290  1
  Si  Si121  1  0.19779436  0.58401907  0.11551487  1
  Si  Si122  1  0.97294444  0.66942647  0.88238985  1
  Si  Si123  1  0.68901129  0.32897610  0.61555215  1
  Si  Si124  1  0.14256070  0.58533298  0.38326378  1
  Si  Si125  1  0.64192755  0.16347950  0.38697548  1
  Si  Si126  1  0.36047007  0.17045347  0.61671459  1
  Si  Si127  1  0.64104656  0.66816640  0.88347087  1
  Si  Si128  1  0.30826976  0.83619618  0.38509916  1
  Si  Si129  1  0.19033241  0.09060108  0.61140771  1
  Si  Si130  1  0.02732949  0.65737965  0.60992913  1
  Si  Si131  1  0.36098541  0.66437321  0.61307510  1
  Si  Si132  1  0.68962911  0.66205033  0.10726074  1
  Si  Si133  1  0.47896717  0.92246544  0.88628580  1
  Si  Si134  1  0.52139881  0.08577366  0.11637607  1
  Si  Si135  1  0.85397122  0.92182123  0.61086725  1
  Si  Si136  1  0.64219097  0.32964443  0.38914667  1
  Si  Si137  1  0.47926777  0.58140450  0.88273601  1
  Si  Si138  1  0.97269465  0.66032676  0.38452119  1
  Si  Si139  1  0.03438828  0.66586255  0.10941901  1
  Si  Si140  1  0.36036887  0.83650331  0.11463041  1
  Si  Si141  1  0.19153447  0.08207583  0.11860500  1
  Si  Si142  1  0.64872669  0.67194693  0.38235252  1
  Si  Si143  1  0.85263253  0.41036556  0.61211121  1
  Si  Si144  1  0.02433106  0.33454087  0.61606237  1
  Si  Si145  1  0.36022927  0.67247879  0.11147513  1
  Si  Si146  1  0.79877296  0.41875524  0.88674285  1
  Si  Si147  1  0.68685661  0.16498728  0.61529459  1
  Si  Si148  1  0.19789754  0.91832686  0.11590348  1
  Si  Si149  1  0.68843143  0.67268227  0.60888012  1
  Si  Si150  1  0.31677290  0.66562562  0.88336957  1
  Si  Si151  1  0.14568774  0.59354053  0.88690997  1
  Si  Si152  1  0.68906336  0.32886531  0.11433728  1
  Si  Si153  1  0.48157239  0.07315825  0.39008770  1
  Si  Si154  1  0.52194571  0.92156539  0.11127195  1
  Si  Si155  1  0.14199029  0.91495508  0.38445916  1
  Si  Si156  1  0.52719006  0.41830578  0.61467821  1
  Si  Si157  1  0.14178531  0.90679374  0.88977173  1
  Si  Si158  1  0.03110836  0.33555091  0.11901120  1
  Si  Si159  1  0.68821496  0.83882020  0.61171666  1
  Si  Si160  1  0.36106364  0.83010807  0.60858305  1
  Si  Si161  1  0.52029607  0.08307497  0.61384399  1
  Si  Si162  1  0.35633048  0.32853673  0.11922604  1
  Si  Si163  1  0.80509442  0.92149406  0.38558043  1
  Si  Si164  1  0.13411052  0.08219698  0.38871910  1
  Si  Si165  1  0.36103620  0.33794290  0.61793685  1
  Si  Si166  1  0.85727551  0.40954907  0.11264188  1
  Si  Si167  1  0.30526850  0.67249550  0.38538084  1
  Si  Si168  1  0.19206510  0.41587397  0.61606429  1
  Si  Si169  1  0.80789195  0.08516304  0.38345661  1
  Si  Si170  1  0.64130998  0.83268749  0.88192479  1
  Si  Si171  1  0.02299651  0.16992940  0.61562651  1
  Si  Si172  1  0.85970850  0.08940889  0.11228601  1
  Si  Si173  1  0.80504872  0.41210533  0.38294586  1
  Si  Si174  1  0.02979491  0.17003653  0.11796821  1
  Si  Si175  1  0.13621273  0.41853323  0.38977619  1
  Si  Si176  1  0.19620542  0.58137937  0.61526534  1
  Si  Si177  1  0.80621727  0.58519278  0.88286984  1
  Si  Si178  1  0.31368295  0.34046970  0.89291138  1
  Si  Si179  1  0.48185265  0.59734108  0.38966175  1
  Si  Si180  1  0.79725001  0.08397240  0.88694139  1
  Si  Si181  1  0.97278733  0.33477688  0.38521812  1
  Si  Si182  1  0.47998365  0.90876703  0.38445447  1
  Si  Si183  1  0.19690256  0.41891123  0.11973056  1
  Si  Si184  1  0.80529799  0.57754751  0.38185562  1
  Si  Si185  1  0.35656387  0.16584517  0.11932004  1
  Si  Si186  1  0.47726079  0.08288947  0.88821857  1
  Si  Si187  1  0.52081554  0.40854777  0.11327082  1
  Si  Si188  1  0.64497931  0.83370482  0.38155122  1
  Si  Si189  1  0.52463953  0.91968104  0.61372878  1
  Si  Si190  1  0.85533164  0.08784352  0.61492020  1
  Si  Si191  1  0.03652712  0.83148596  0.10976480  1
  O  O192  1  0.27440732  0.11505584  0.09184124  1
  O  O193  1  0.26757780  0.13724580  0.58562081  1
  O  O194  1  0.27439658  0.62346839  0.08475289  1
  O  O195  1  0.27560280  0.61713177  0.58512309  1
  O  O196  1  0.60310165  0.11679798  0.08606779  1
  O  O197  1  0.60347624  0.11589744  0.58569756  1
  O  O198  1  0.62113534  0.59919350  0.07986278  1
  O  O199  1  0.60062047  0.62673569  0.58202312  1
  O  O200  1  0.93686184  0.13670029  0.08750679  1
  O  O201  1  0.93344823  0.12656308  0.58579673  1
  O  O202  1  0.95101544  0.62407468  0.07269098  1
  O  O203  1  0.95546693  0.59917471  0.57875005  1
  O  O204  1  0.10584148  0.37881935  0.08985803  1
  O  O205  1  0.10276659  0.37335081  0.58658208  1
  O  O206  1  0.12024608  0.86629653  0.08389915  1
  O  O207  1  0.10365926  0.86718500  0.56580961  1
  O  O208  1  0.44057216  0.35252100  0.08908406  1
  O  O209  1  0.43788231  0.37734415  0.58662967  1
  O  O210  1  0.44000250  0.86980679  0.08364713  1
  O  O211  1  0.44902798  0.86310978  0.58615074  1
  O  O212  1  0.77176014  0.35891680  0.08579650  1
  O  O213  1  0.77301352  0.35339454  0.58626135  1
  O  O214  1  0.77369270  0.86246093  0.06264627  1
  O  O215  1  0.76545010  0.87702299  0.58215395  1
  O  O216  1  0.27346218  0.37751093  0.08946879  1
  O  O217  1  0.26954435  0.37522117  0.58708591  1
  O  O218  1  0.28077083  0.89076535  0.08671197  1
  O  O219  1  0.28539250  0.87738347  0.56858530  1
  O  O220  1  0.60370854  0.37463924  0.08430324  1
  O  O221  1  0.60519445  0.37766855  0.58630642  1
  O  O222  1  0.59849558  0.89910352  0.07505037  1
  O  O223  1  0.60633459  0.88949209  0.58286325  1
  O  O224  1  0.93811296  0.36877466  0.08748329  1
  O  O225  1  0.93590244  0.37668424  0.58503917  1
  O  O226  1  0.95667203  0.87684734  0.07296969  1
  O  O227  1  0.92637001  0.88898504  0.57583831  1
  O  O228  1  0.10571154  0.12741168  0.08935230  1
  O  O229  1  0.10121815  0.13564900  0.58463585  1
  O  O230  1  0.11260457  0.62708994  0.07924869  1
  O  O231  1  0.11385834  0.62916272  0.58288685  1
  O  O232  1  0.43946698  0.13751660  0.08918965  1
  O  O233  1  0.43615579  0.13044116  0.58401271  1
  O  O234  1  0.43260738  0.64271556  0.07201980  1
  O  O235  1  0.43716138  0.62295458  0.58241823  1
  O  O236  1  0.77019579  0.13462754  0.08663689  1
  O  O237  1  0.76846698  0.13410555  0.58531810  1
  O  O238  1  0.77389212  0.64475681  0.07569953  1
  O  O239  1  0.76317657  0.64252026  0.57349743  1
  O  O240  1  0.05285278  0.11915204  0.41609758  1
  O  O241  1  0.04231029  0.08777162  0.92656551  1
  O  O242  1  0.06427766  0.62171427  0.41467628  1
  O  O243  1  0.06385813  0.63302844  0.91289176  1
  O  O244  1  0.40600930  0.09762682  0.42633571  1
  O  O245  1  0.40105027  0.10251334  0.92603561  1
  O  O246  1  0.39941175  0.63695744  0.41470740  1
  O  O247  1  0.39280001  0.60507109  0.90912360  1
  O  O248  1  0.73040693  0.12151868  0.41566917  1
  O  O249  1  0.70930343  0.11065710  0.91172284  1
  O  O250  1  0.73029117  0.62016755  0.41264436  1
  O  O251  1  0.72889208  0.62450080  0.91242913  1
  O  O252  1  0.21414687  0.37349680  0.42984834  1
  O  O253  1  0.23892917  0.36636555  0.93143823  1
  O  O254  1  0.23800909  0.88508351  0.41408396  1
  O  O255  1  0.21069115  0.84529911  0.91789108  1
  O  O256  1  0.57611128  0.36877424  0.42731721  1
  O  O257  1  0.55309425  0.36148883  0.91326418  1
  O  O258  1  0.56064082  0.85630623  0.41269232  1
  O  O259  1  0.56099890  0.86767398  0.90920127  1
  O  O260  1  0.89278838  0.37016155  0.41433592  1
  O  O261  1  0.87127563  0.36735317  0.92343321  1
  O  O262  1  0.88431098  0.87496090  0.42072117  1
  O  O263  1  0.88906877  0.87230315  0.91186175  1
  O  O264  1  0.05211737  0.38510485  0.41793050  1
  O  O265  1  0.05308975  0.40102651  0.93356603  1
  O  O266  1  0.07581133  0.86874009  0.41725678  1
  O  O267  1  0.05179272  0.88032644  0.91422469  1
  O  O268  1  0.39816880  0.39448907  0.43924814  1
  O  O269  1  0.39464183  0.39770913  0.91743966  1
  O  O270  1  0.40034550  0.87522551  0.41466897  1
  O  O271  1  0.40317171  0.89801139  0.92383124  1
  O  O272  1  0.73508916  0.36717609  0.41577256  1
  O  O273  1  0.71064161  0.39156036  0.91164059  1
  O  O274  1  0.71850696  0.89198547  0.41176198  1
  O  O275  1  0.72553217  0.88032475  0.91207201  1
  O  O276  1  0.21737369  0.12174601  0.42672512  1
  O  O277  1  0.22054793  0.14252974  0.93788865  1
  O  O278  1  0.23226640  0.62714068  0.41741197  1
  O  O279  1  0.22944183  0.64434710  0.91200600  1
  O  O280  1  0.56828420  0.12063846  0.41747415  1
  O  O281  1  0.55281492  0.14352006  0.91339330  1
  O  O282  1  0.56586247  0.65055482  0.41527978  1
  O  O283  1  0.56146072  0.63294929  0.91299570  1
  O  O284  1  0.89043791  0.13496438  0.41311417  1
  O  O285  1  0.86888708  0.13629401  0.92345529  1
  O  O286  1  0.89850437  0.61049597  0.41135389  1
  O  O287  1  0.89575736  0.62694040  0.91012788  1
  O  O288  1  0.17734209  0.00064087  0.08811659  1
  O  O289  1  0.18334981  0.01504209  0.57260224  1
  O  O290  1  0.19147410  0.49994031  0.08692456  1
  O  O291  1  0.18396233  0.49812278  0.58512841  1
  O  O292  1  0.49501338  0.00546387  0.08772066  1
  O  O293  1  0.50460654  0.00141023  0.58256615  1
  O  O294  1  0.49499428  0.48366586  0.07668872  1
  O  O295  1  0.52366289  0.50036581  0.58497199  1
  O  O296  1  0.85090683  0.01458940  0.07210949  1
  O  O297  1  0.83653304  0.00649775  0.58472167  1
  O  O298  1  0.84146074  0.48579906  0.07543676  1
  O  O299  1  0.82414908  0.48498644  0.57498448  1
  O  O300  1  0.03104725  0.25265906  0.09052673  1
  O  O301  1  0.01059934  0.25240531  0.58515698  1
  O  O302  1  0.03057654  0.74927197  0.07956403  1
  O  O303  1  0.00083857  0.73538824  0.57826220  1
  O  O304  1  0.33444231  0.24651580  0.08978032  1
  O  O305  1  0.35856388  0.25453782  0.59095214  1
  O  O306  1  0.33698067  0.75649783  0.08353959  1
  O  O307  1  0.35501053  0.74546537  0.58014239  1
  O  O308  1  0.67007473  0.24668629  0.08505208  1
  O  O309  1  0.66692058  0.24697838  0.58691171  1
  O  O310  1  0.64974405  0.73915667  0.07905651  1
  O  O311  1  0.66857784  0.75699601  0.58309810  1
  O  O312  1  0.13829664  -0.00232922  0.41293425  1
  O  O313  1  0.17280498  -0.01795199  0.92519690  1
  O  O314  1  0.14793132  0.50327316  0.41546025  1
  O  O315  1  0.16581197  0.51896832  0.92571869  1
  O  O316  1  0.50685658  -0.01076527  0.41420525  1
  O  O317  1  0.51593659  0.00300409  0.91300493  1
  O  O318  1  0.50229212  0.52316640  0.43040388  1
  O  O319  1  0.50697705  0.50047967  0.91294660  1
  O  O320  1  0.81855464  0.00443669  0.41604322  1
  O  O321  1  0.81229611  -0.00049504  0.91213560  1
  O  O322  1  0.80610090  0.49474370  0.41150309  1
  O  O323  1  0.81208723  0.50322202  0.91215780  1
  O  O324  1  0.33402170  0.24767303  0.43809934  1
  O  O325  1  0.34951063  0.26190395  0.91863611  1
  O  O326  1  0.31101610  0.75520775  0.41812894  1
  O  O327  1  0.35208429  0.73959481  0.91925318  1
  O  O328  1  0.65237695  0.24514437  0.41662256  1
  O  O329  1  0.65977039  0.25157843  0.91133395  1
  O  O330  1  0.67534445  0.75378883  0.41066321  1
  O  O331  1  0.65376518  0.75054950  0.91192508  1
  O  O332  1  0.98423591  0.25148332  0.41490758  1
  O  O333  1  1.00344275  0.24886407  0.93556974  1
  O  O334  1  0.97306457  0.73587483  0.42386871  1
  O  O335  1  0.97423504  0.75175312  0.91199234  1
  O  O336  1  0.20914683  0.08164250  0.19889700  1
  O  O337  1  0.20767596  0.08524325  0.69146148  1
  O  O338  1  0.20566569  0.58531833  0.19341270  1
  O  O339  1  0.20794640  0.58078681  0.69458544  1
  O  O340  1  0.54214446  0.08464204  0.19692185  1
  O  O341  1  0.54128855  0.08418830  0.69425107  1
  O  O342  1  0.54346072  0.58129830  0.20032837  1
  O  O343  1  0.54502340  0.58281974  0.69263647  1
  O  O344  1  0.87842203  0.08284648  0.19232455  1
  O  O345  1  0.87149572  0.08525854  0.69489343  1
  O  O346  1  0.87815670  0.57900531  0.19920006  1
  O  O347  1  0.87578436  0.58246795  0.69879457  1
  O  O348  1  0.04574629  0.33410931  0.19902881  1
  O  O349  1  0.04076717  0.33374270  0.69572807  1
  O  O350  1  0.04844500  0.83390806  0.19022143  1
  O  O351  1  0.04382770  0.83362854  0.70052930  1
  O  O352  1  0.37702704  0.32756932  0.19907502  1
  O  O353  1  0.38066168  0.34216765  0.69699366  1
  O  O354  1  0.38056552  0.83878203  0.19416704  1
  O  O355  1  0.36722983  0.83146624  0.68766737  1
  O  O356  1  0.70713740  0.32976272  0.19478514  1
  O  O357  1  0.70717581  0.33238490  0.69583416  1
  O  O358  1  0.71286322  0.83453842  0.19716691  1
  O  O359  1  0.70819331  0.83631950  0.69205885  1
  O  O360  1  0.21378091  0.41496931  0.19872077  1
  O  O361  1  0.21016075  0.41647075  0.69581356  1
  O  O362  1  0.21279886  0.91802222  0.19623232  1
  O  O363  1  0.20813529  0.91880235  0.69832552  1
  O  O364  1  0.54438518  0.41072391  0.19390010  1
  O  O365  1  0.54548687  0.41737836  0.69497340  1
  O  O366  1  0.54274824  0.91847082  0.19244997  1
  O  O367  1  0.54666942  0.92525191  0.69280900  1
  O  O368  1  0.87398746  0.41193171  0.19328299  1
  O  O369  1  0.87084723  0.41543313  0.69276158  1
  O  O370  1  0.87729697  0.91921736  0.19625868  1
  O  O371  1  0.87157540  0.91910778  0.69175574  1
  O  O372  1  0.04605119  0.16695783  0.19822147  1
  O  O373  1  0.03890420  0.16871610  0.69532250  1
  O  O374  1  0.04719517  0.66926948  0.18915789  1
  O  O375  1  0.04400941  0.66168408  0.69151422  1
  O  O376  1  0.37842907  0.16416244  0.19953691  1
  O  O377  1  0.38136872  0.16176970  0.69544563  1
  O  O378  1  0.38498107  0.67287216  0.19027094  1
  O  O379  1  0.37988059  0.66735030  0.69223086  1
  O  O380  1  0.70290626  0.16635849  0.19521426  1
  O  O381  1  0.70653994  0.16578382  0.69552193  1
  O  O382  1  0.71052334  0.66311930  0.18965777  1
  O  O383  1  0.70912804  0.66826868  0.68988412  1
  O  O384  1  0.12118334  0.08400212  0.30775344  1
  O  O385  1  0.12046100  0.08162712  0.80094445  1
  O  O386  1  0.12601262  0.58750492  0.30479915  1
  O  O387  1  0.12326318  0.58643141  0.80613162  1
  O  O388  1  0.46091008  0.07895024  0.30914143  1
  O  O389  1  0.45790597  0.08485702  0.80699524  1
  O  O390  1  0.46926011  0.58740892  0.31083793  1
  O  O391  1  0.46573310  0.58165406  0.80326044  1
  O  O392  1  0.78852331  0.08203258  0.30403514  1
  O  O393  1  0.78477175  0.08387959  0.80559753  1
  O  O394  1  0.78591204  0.57974598  0.30210666  1
  O  O395  1  0.78686212  0.58543415  0.80239756  1
  O  O396  1  0.28989638  0.33130791  0.30570080  1
  O  O397  1  0.28741404  0.34600699  0.81267099  1
  O  O398  1  0.28955766  0.83734402  0.30573568  1
  O  O399  1  0.29123312  0.83136705  0.79813245  1
  O  O400  1  0.62323318  0.33053692  0.30823556  1
  O  O401  1  0.62146825  0.33437015  0.80325598  1
  O  O402  1  0.62417843  0.83486046  0.30169316  1
  O  O403  1  0.63232300  0.83211397  0.80258753  1
  O  O404  1  0.95511497  0.33190284  0.30531564  1
  O  O405  1  0.95229850  0.33438390  0.80134837  1
  O  O406  1  0.95507150  0.83012372  0.29395848  1
  O  O407  1  0.95081621  0.83364947  0.80273934  1
  O  O408  1  0.11883394  0.41181148  0.31047662  1
  O  O409  1  0.12142161  0.41868121  0.80227703  1
  O  O410  1  0.12432887  0.91513719  0.30356392  1
  O  O411  1  0.12156272  0.91377532  0.80857007  1
  O  O412  1  0.45939441  0.41723482  0.30390354  1
  O  O413  1  0.45980953  0.41829665  0.80560909  1
  O  O414  1  0.45987206  0.91363915  0.30437438  1
  O  O415  1  0.45268021  0.92432495  0.80649953  1
  O  O416  1  0.78692529  0.41150638  0.30298685  1
  O  O417  1  0.78594647  0.41790183  0.80535577  1
  O  O418  1  0.78910992  0.92094566  0.30523859  1
  O  O419  1  0.78767948  0.91755911  0.80197887  1
  O  O420  1  0.29024354  0.16409085  0.30407140  1
  O  O421  1  0.28261847  0.15753040  0.80523789  1
  O  O422  1  0.28386139  0.67555787  0.30729638  1
  O  O423  1  0.29193703  0.66740567  0.80346521  1
  O  O424  1  0.62332531  0.16373345  0.30671688  1
  O  O425  1  0.62101202  0.16786960  0.80315426  1
  O  O426  1  0.63000340  0.66918675  0.30252660  1
  O  O427  1  0.62503662  0.66642572  0.80297594  1
  O  O428  1  0.95876102  0.16798459  0.30486669  1
  O  O429  1  0.95187614  0.16646141  0.80120919  1
  O  O430  1  0.95455265  0.66816170  0.30518580  1
  O  O431  1  0.95569362  0.66899438  0.80197211  1
  F  F432  1  0.04710672  0.00137634  0.20337309  1
  F  F433  1  0.04046554  0.00014043  0.70186164  1
  F  F434  1  0.04160890  0.49470142  0.19989340  1
  F  F435  1  0.04439212  0.49954647  0.70301216  1
  F  F436  1  0.37893816  0.00095159  0.20571437  1
  F  F437  1  0.37799791  0.00159274  0.70115075  1
  F  F438  1  0.38190544  0.48962419  0.20035316  1
  F  F439  1  0.38126522  0.49656437  0.69974062  1
  F  F440  1  0.71106963  0.00220152  0.19974268  1
  F  F441  1  0.71030031  0.00223901  0.70090890  1
  F  F442  1  0.71194427  0.49445710  0.20093075  1
  F  F443  1  0.71065763  0.49981692  0.70033788  1
  F  F444  1  0.20977837  0.24892750  0.20455066  1
  F  F445  1  0.19814869  0.25279433  0.70279474  1
  F  F446  1  0.20904766  0.75146308  0.19896211  1
  F  F447  1  0.21046711  0.74636412  0.69899440  1
  F  F448  1  0.54474299  0.24804115  0.20677496  1
  F  F449  1  0.54446482  0.25085145  0.69924485  1
  F  F450  1  0.54816138  0.75075461  0.19939523  1
  F  F451  1  0.54977898  0.73969611  0.69559466  1
  F  F452  1  0.88066459  0.25217151  0.20021540  1
  F  F453  1  0.87163835  0.25001456  0.70043733  1
  F  F454  1  0.87869394  0.74606694  0.19542299  1
  F  F455  1  0.87724975  0.75136293  0.69820134  1
  F  F456  1  0.28930447  -0.00197217  0.30055838  1
  F  F457  1  0.28789746  -0.00025438  0.79668300  1
  F  F458  1  0.29037835  0.49056444  0.31193306  1
  F  F459  1  0.28800976  0.50118231  0.79878458  1
  F  F460  1  0.62238230  -0.00067221  0.29590770  1
  F  F461  1  0.62122773  0.00092311  0.79727492  1
  F  F462  1  0.62464091  0.49648466  0.29792754  1
  F  F463  1  0.62212066  0.50149976  0.79536224  1
  F  F464  1  0.95563470  0.00142731  0.29808140  1
  F  F465  1  0.94989421  -0.00208371  0.79599341  1
  F  F466  1  0.94676745  0.48708802  0.30547915  1
  F  F467  1  0.95265877  0.50027411  0.79832990  1
  F  F468  1  0.11974939  0.24968115  0.30127647  1
  F  F469  1  0.11785557  0.25100016  0.80142048  1
  F  F470  1  0.11924236  0.75076485  0.29596035  1
  F  F471  1  0.12052174  0.74563764  0.79527854  1
  F  F472  1  0.45697937  0.24684806  0.30305308  1
  F  F473  1  0.47050027  0.25191945  0.80215058  1
  F  F474  1  0.46488786  0.75112936  0.29934004  1
  F  F475  1  0.45283568  0.74002613  0.79947000  1
  F  F476  1  0.78588589  0.25196887  0.29964768  1
  F  F477  1  0.78286546  0.25047559  0.79759462  1
  F  F478  1  0.79031191  0.74699538  0.29313817  1
  F  F479  1  0.78731413  0.74987783  0.79245669  1
