# generated using pymatgen
data_K24Na3Li5Mg64Fe17Si79(O5F)48
_symmetry_space_group_name_H-M   'P 1'
_cell_length_a   16.08846397
_cell_length_b   18.57705216
_cell_length_c   20.54343417
_cell_angle_alpha   90.00848935
_cell_angle_beta   99.99602662
_cell_angle_gamma   89.99140472
_symmetry_Int_Tables_number   1
_chemical_formula_structural   K24Na3Li5Mg64Fe17Si79(O5F)48
_chemical_formula_sum   'K24 Na3 Li5 Mg64 Fe17 Si79 O240 F48'
_cell_volume   6046.73850791
_cell_formula_units_Z   1
loop_
 _symmetry_equiv_pos_site_id
 _symmetry_equiv_pos_as_xyz
  1  'x, y, z'
loop_
 _atom_site_type_symbol
 _atom_site_label
 _atom_site_symmetry_multiplicity
 _atom_site_fract_x
 _atom_site_fract_y
 _atom_site_fract_z
 _atom_site_occupancy
  K  K0  1  0.00930225  0.00950886  0.00294477  1
  K  K1  1  0.00467923  0.00399758  0.49795089  1
  K  K2  1  0.00981837  0.49034671  0.00278270  1
  K  K3  1  0.00889180  0.49627325  0.49925754  1
  K  K4  1  0.31863635  0.00054313  0.00459202  1
  K  K5  1  0.32677146  0.00465247  0.49442260  1
  K  K6  1  0.33708126  0.49220551  0.00795554  1
  K  K7  1  0.33283080  0.49601760  0.49714123  1
  K  K8  1  0.66348757  0.00685648  0.00025209  1
  K  K9  1  0.67041714  0.00573990  0.50604528  1
  K  K10  1  0.65866236  0.48670107  -0.00634852  1
  K  K11  1  0.66632716  0.49729428  0.50449246  1
  K  K12  1  0.17283604  0.25103889  0.00544296  1
  K  K13  1  0.17375232  0.24738353  0.49513596  1
  K  K14  1  0.18498127  0.75985247  0.01251637  1
  K  K15  1  0.16459048  0.74670605  0.49495535  1
  K  K16  1  0.49357513  0.25328678  -0.00928520  1
  K  K17  1  0.49852549  0.24455214  0.50551322  1
  K  K18  1  0.49120563  0.74915932  0.00240003  1
  K  K19  1  0.50261482  0.75380902  0.49934587  1
  K  K20  1  0.83014544  0.24316662  -0.00338320  1
  K  K21  1  0.83594554  0.25076579  0.50541256  1
  K  K22  1  0.83145257  0.75151276  -0.00436776  1
  K  K23  1  0.83188449  0.74967080  0.50012441  1
  Na  Na24  1  0.66087997  0.24792876  0.74141918  1
  Na  Na25  1  0.49747011  0.66868783  0.24951570  1
  Na  Na26  1  0.33376236  0.41962136  0.25078351  1
  Li  Li27  1  0.00379836  0.24929430  0.24687779  1
  Li  Li28  1  0.66147120  0.75008714  0.74548638  1
  Li  Li29  1  0.50421301  0.16811500  0.74619246  1
  Li  Li30  1  0.33982967  0.41550977  0.75399183  1
  Li  Li31  1  0.66724276  0.08409699  0.24933249  1
  Mg  Mg32  1  0.49806047  0.49964087  0.24982023  1
  Mg  Mg33  1  0.17182787  0.49761669  0.75108799  1
  Mg  Mg34  1  0.66929191  0.24678945  0.24932556  1
  Mg  Mg35  1  0.33908839  0.25236283  0.75832515  1
  Mg  Mg36  1  0.50201978  0.00209136  0.74774412  1
  Mg  Mg37  1  -0.00098434  0.74963210  0.25061175  1
  Mg  Mg38  1  0.50313335  0.00228679  0.24898010  1
  Mg  Mg39  1  0.16469456  0.50123952  0.24916700  1
  Mg  Mg40  1  0.16730561  0.00169415  0.75556602  1
  Mg  Mg41  1  0.83339185  0.00082342  0.74600573  1
  Mg  Mg42  1  0.33494111  0.75297755  0.25006373  1
  Mg  Mg43  1  0.16737340  0.00267902  0.25061425  1
  Mg  Mg44  1  0.33239106  0.25052615  0.24996241  1
  Mg  Mg45  1  0.83126210  0.00197555  0.24776843  1
  Mg  Mg46  1  0.83264707  0.49967934  0.25117502  1
  Mg  Mg47  1  0.49831329  0.50026974  0.74983696  1
  Mg  Mg48  1  0.33528475  0.74927175  0.74780954  1
  Mg  Mg49  1  0.83177401  0.49925860  0.74616386  1
  Mg  Mg50  1  0.00100105  0.74838602  0.75057260  1
  Mg  Mg51  1  0.66378008  0.75121102  0.25008465  1
  Mg  Mg52  1  -0.00027300  0.24971142  0.74896554  1
  Mg  Mg53  1  0.82950989  0.83150802  0.74782504  1
  Mg  Mg54  1  0.16840834  0.83401071  0.75283258  1
  Mg  Mg55  1  0.16449736  0.16770672  0.25139805  1
  Mg  Mg56  1  0.66736012  0.41472110  0.25045844  1
  Mg  Mg57  1  0.83546132  0.16578354  0.24876403  1
  Mg  Mg58  1  0.33794486  0.08607743  0.75602563  1
  Mg  Mg59  1  0.16921337  0.83591818  0.25192418  1
  Mg  Mg60  1  0.50070110  0.83423120  0.74763397  1
  Mg  Mg61  1  0.50008450  0.66701061  0.74893577  1
  Mg  Mg62  1  0.83210252  0.16535543  0.74659220  1
  Mg  Mg63  1  0.33696544  0.58223122  0.75212481  1
  Mg  Mg64  1  0.66350260  0.08381152  0.74402623  1
  Mg  Mg65  1  0.16857019  0.16553668  0.75597445  1
  Mg  Mg66  1  -0.00021243  0.58431756  0.25163868  1
  Mg  Mg67  1  0.00228871  0.08693835  0.25239078  1
  Mg  Mg68  1  0.16999388  0.66548587  0.25308303  1
  Mg  Mg69  1  0.66332015  0.91371127  0.74591776  1
  Mg  Mg70  1  0.49760521  0.33335331  0.75412480  1
  Mg  Mg71  1  0.83263913  0.83451227  0.25039434  1
  Mg  Mg72  1  -0.00001750  0.58286966  0.74838780  1
  Mg  Mg73  1  0.33506152  0.91703168  0.75106932  1
  Mg  Mg74  1  0.66634932  0.91960897  0.24695663  1
  Mg  Mg75  1  -0.00054760  0.91489199  0.75079459  1
  Mg  Mg76  1  0.00227835  0.41383557  0.24951984  1
  Mg  Mg77  1  0.33303187  0.08582257  0.24975392  1
  Mg  Mg78  1  0.66337427  0.58406077  0.25187760  1
  Mg  Mg79  1  0.50312793  0.16522411  0.24945806  1
  Mg  Mg80  1  0.50046847  0.33237459  0.24929541  1
  Mg  Mg81  1  0.82956852  0.66673055  0.74822635  1
  Mg  Mg82  1  0.00050940  0.08410444  0.75093921  1
  Mg  Mg83  1  0.16563581  0.33330717  0.24986374  1
  Mg  Mg84  1  0.66216026  0.41552845  0.74709511  1
  Mg  Mg85  1  0.00174942  0.91651046  0.25186555  1
  Mg  Mg86  1  0.49803135  0.83633271  0.24701850  1
  Mg  Mg87  1  0.17082388  0.33345858  0.75328073  1
  Mg  Mg88  1  0.33464605  0.58447584  0.24866875  1
  Mg  Mg89  1  0.83746578  0.33165560  0.24965888  1
  Mg  Mg90  1  0.33217148  0.91591366  0.24882687  1
  Mg  Mg91  1  0.16969185  0.66385009  0.75025904  1
  Mg  Mg92  1  0.82935221  0.33420445  0.74346947  1
  Mg  Mg93  1  0.83059914  0.66604644  0.25185980  1
  Mg  Mg94  1  0.66236898  0.58680633  0.74750546  1
  Mg  Mg95  1  -0.00148382  0.41575798  0.74688853  1
  Fe  Fe96  1  0.47639608  0.57946824  0.39094605  1
  Fe  Fe97  1  0.36498856  0.83395226  0.10468598  1
  Fe  Fe98  1  0.31603317  0.83451524  0.39125154  1
  Fe  Fe99  1  0.18798784  0.41520504  0.10859498  1
  Fe  Fe100  1  0.01810922  0.17033277  0.11057683  1
  Fe  Fe101  1  0.31304745  0.16642596  0.39162454  1
  Fe  Fe102  1  0.51880371  0.91492156  0.60700162  1
  Fe  Fe103  1  0.35284933  0.66856629  0.60975707  1
  Fe  Fe104  1  0.14088095  0.58440337  0.39009128  1
  Fe  Fe105  1  0.85856443  0.41979796  0.60606762  1
  Fe  Fe106  1  0.68908888  0.16512397  0.60338408  1
  Fe  Fe107  1  0.52397644  0.58520035  0.60828665  1
  Fe  Fe108  1  0.18810751  0.91977737  0.10847729  1
  Fe  Fe109  1  0.13691979  0.08298879  0.39419446  1
  Fe  Fe110  1  0.86316439  0.08075835  0.60700142  1
  Fe  Fe111  1  0.13967512  0.08312761  0.89437517  1
  Fe  Fe112  1  0.47804081  0.41758115  0.89301055  1
  Si  Si113  1  0.68514826  0.33941067  0.60732482  1
  Si  Si114  1  0.85289860  0.58592211  0.11492434  1
  Si  Si115  1  0.80078941  0.58320516  0.38598745  1
  Si  Si116  1  0.48329230  0.92169630  0.38498701  1
  Si  Si117  1  0.86089306  0.90749354  0.61216698  1
  Si  Si118  1  0.14159190  0.58268939  0.88584894  1
  Si  Si119  1  0.35579812  0.66258833  0.11030870  1
  Si  Si120  1  0.81018150  0.91659632  0.88428595  1
  Si  Si121  1  0.85690961  0.91350551  0.11507988  1
  Si  Si122  1  0.86130045  0.59201484  0.61175897  1
  Si  Si123  1  0.01585938  0.33648986  0.10964380  1
  Si  Si124  1  0.64533877  0.32813854  0.38462536  1
  Si  Si125  1  0.19901931  0.08736735  0.62093710  1
  Si  Si126  1  0.96391089  0.16779639  0.38803993  1
  Si  Si127  1  0.51732056  0.08207118  0.60963647  1
  Si  Si128  1  0.80700883  0.08124756  0.88436013  1
  Si  Si129  1  0.85659124  0.42209056  0.11476398  1
  Si  Si130  1  0.48247061  0.08264954  0.38581626  1
  Si  Si131  1  0.69759409  0.33229504  0.11431032  1
  Si  Si132  1  0.80748756  0.41726448  0.38521231  1
  Si  Si133  1  0.03420718  0.16644259  0.61510181  1
  Si  Si134  1  0.03290019  0.83230649  0.61650711  1
  Si  Si135  1  0.01775405  0.66782082  0.11416149  1
  Si  Si136  1  0.64417822  0.83606337  0.38351715  1
  Si  Si137  1  0.97221837  0.66147441  0.88507817  1
  Si  Si138  1  0.47752849  0.08161221  0.88781291  1
  Si  Si139  1  0.19585288  0.41128727  0.61921704  1
  Si  Si140  1  0.51769768  0.41589987  0.61340031  1
  Si  Si141  1  0.18540596  0.58790111  0.10972970  1
  Si  Si142  1  0.19213575  0.92429113  0.61886442  1
  Si  Si143  1  0.31135158  0.66625511  0.38804815  1
  Si  Si144  1  0.13920660  0.90971374  0.88905597  1
  Si  Si145  1  0.80357197  0.58266482  0.88428988  1
  Si  Si146  1  0.96745670  0.83171630  0.38592542  1
  Si  Si147  1  0.52533390  0.57688829  0.11431508  1
  Si  Si148  1  0.03286219  0.66666510  0.61550669  1
  Si  Si149  1  0.03160974  0.33120608  0.61354488  1
  Si  Si150  1  0.80405080  0.41705380  0.88340827  1
  Si  Si151  1  0.69493101  0.83146384  0.11486760  1
  Si  Si152  1  0.36443446  0.16471310  0.11296048  1
  Si  Si153  1  0.34785328  0.83430605  0.61317770  1
  Si  Si154  1  0.97233307  0.82717856  0.88515923  1
  Si  Si155  1  0.30774999  0.66623398  0.88690411  1
  Si  Si156  1  0.47550323  0.91640487  0.88723605  1
  Si  Si157  1  0.69325755  0.83161711  0.61274562  1
  Si  Si158  1  0.48494197  0.41272210  0.38653883  1
  Si  Si159  1  0.19159155  0.09162201  0.11092123  1
  Si  Si160  1  0.69542062  0.66696696  0.61362173  1
  Si  Si161  1  0.36509259  0.32923470  0.11187914  1
  Si  Si162  1  0.53493278  0.92077286  0.10950428  1
  Si  Si163  1  0.69527918  0.16815913  0.11418637  1
  Si  Si164  1  0.53097715  0.41278022  0.11398706  1
  Si  Si165  1  0.64286612  0.83671400  0.88520513  1
  Si  Si166  1  0.31301443  0.16614316  0.89316920  1
  Si  Si167  1  0.01990874  0.83169825  0.11291230  1
  Si  Si168  1  0.30934870  0.83202779  0.88578034  1
  Si  Si169  1  0.64163422  0.16016792  0.88311291  1
  Si  Si170  1  0.96879290  0.17172703  0.88730557  1
  Si  Si171  1  0.97273329  0.33429336  0.38481095  1
  Si  Si172  1  0.64241524  0.16612996  0.38227881  1
  Si  Si173  1  0.64263457  0.67198968  0.38670524  1
  Si  Si174  1  0.30536223  0.33288657  0.89153688  1
  Si  Si175  1  0.80612443  0.92003537  0.38397716  1
  Si  Si176  1  0.68622591  0.66684011  0.11411748  1
  Si  Si177  1  0.13761668  0.90973716  0.39220496  1
  Si  Si178  1  0.52994944  0.08595481  0.11363727  1
  Si  Si179  1  0.64375290  0.32848210  0.88739002  1
  Si  Si180  1  0.64219303  0.67211953  0.88548476  1
  Si  Si181  1  0.31378452  0.33369863  0.38735346  1
  Si  Si182  1  0.19190960  0.57475350  0.61416353  1
  Si  Si183  1  0.47890330  0.58880129  0.89157029  1
  Si  Si184  1  0.36009361  0.16901893  0.62198941  1
  Si  Si185  1  0.97027926  0.33740861  0.88330095  1
  Si  Si186  1  0.14302011  0.41260350  0.38887107  1
  Si  Si187  1  0.85462417  0.07755101  0.11111288  1
  Si  Si188  1  0.35889916  0.33062476  0.62034549  1
  Si  Si189  1  0.80366007  0.08347974  0.38210298  1
  Si  Si190  1  0.13877608  0.41581839  0.88568944  1
  Si  Si191  1  0.96656054  0.66567323  0.38841856  1
  O  O192  1  0.27952500  0.11894302  0.08455705  1
  O  O193  1  0.28312257  0.11203406  0.59234282  1
  O  O194  1  0.26439584  0.62373031  0.07865478  1
  O  O195  1  0.26783314  0.59907718  0.57825313  1
  O  O196  1  0.60442039  0.13020910  0.08412345  1
  O  O197  1  0.59412991  0.10626877  0.57248487  1
  O  O198  1  0.60031218  0.62164678  0.08349913  1
  O  O199  1  0.62753451  0.60873041  0.57952457  1
  O  O200  1  0.92969979  0.10374220  0.07450455  1
  O  O201  1  0.96533223  0.10995399  0.57954640  1
  O  O202  1  0.93367133  0.61761338  0.08442769  1
  O  O203  1  0.94340081  0.62867454  0.58504087  1
  O  O204  1  0.09184273  0.36089442  0.07111351  1
  O  O205  1  0.12026898  0.35470134  0.58857650  1
  O  O206  1  0.09527818  0.85699548  0.07674935  1
  O  O207  1  0.10925194  0.87442783  0.58875596  1
  O  O208  1  0.44778226  0.36534051  0.08400151  1
  O  O209  1  0.44118512  0.35627677  0.58885212  1
  O  O210  1  0.45687059  0.87593522  0.07035740  1
  O  O211  1  0.42903313  0.85061485  0.57892256  1
  O  O212  1  0.77377101  0.37259285  0.08419948  1
  O  O213  1  0.76127551  0.36859049  0.57004229  1
  O  O214  1  0.77966303  0.85699931  0.08619619  1
  O  O215  1  0.78323491  0.85084947  0.58644517  1
  O  O216  1  0.28345048  0.37469323  0.07788676  1
  O  O217  1  0.27959272  0.38505274  0.58976351  1
  O  O218  1  0.27005578  0.88299266  0.06421203  1
  O  O219  1  0.27537682  0.89888456  0.59027851  1
  O  O220  1  0.61064064  0.37619492  0.08483857  1
  O  O221  1  0.60163554  0.39197980  0.58277349  1
  O  O222  1  0.62050311  0.88744328  0.08425386  1
  O  O223  1  0.61988479  0.88527141  0.57743698  1
  O  O224  1  0.93831572  0.39754039  0.08417064  1
  O  O225  1  0.95672400  0.38308799  0.57751582  1
  O  O226  1  0.93699504  0.88324739  0.08403585  1
  O  O227  1  0.94343836  0.87022689  0.58557932  1
  O  O228  1  0.11984218  0.14988521  0.08067662  1
  O  O229  1  0.12532569  0.14544581  0.59253450  1
  O  O230  1  0.09943328  0.63941187  0.08361080  1
  O  O231  1  0.10659580  0.62392376  0.58631115  1
  O  O232  1  0.44088508  0.12541554  0.08151494  1
  O  O233  1  0.44163451  0.14406310  0.59055346  1
  O  O234  1  0.43297536  0.61271328  0.08685385  1
  O  O235  1  0.44763583  0.65476331  0.57274926  1
  O  O236  1  0.76742833  0.12435081  0.08233723  1
  O  O237  1  0.77864759  0.13742534  0.56169530  1
  O  O238  1  0.76837575  0.63420603  0.08497436  1
  O  O239  1  0.78598020  0.65057361  0.58734443  1
  O  O240  1  0.04266793  0.12260535  0.42666959  1
  O  O241  1  0.05320049  0.13342998  0.92571222  1
  O  O242  1  0.04629463  0.62085312  0.42455604  1
  O  O243  1  0.06251499  0.62150844  0.91483959  1
  O  O244  1  0.40482383  0.10307640  0.42185537  1
  O  O245  1  0.40607973  0.12736389  0.91904102  1
  O  O246  1  0.37428337  0.60065466  0.41785263  1
  O  O247  1  0.39745553  0.62817021  0.91862030  1
  O  O248  1  0.71814971  0.10879360  0.40921261  1
  O  O249  1  0.72787756  0.11410411  0.91624443  1
  O  O250  1  0.72324312  0.61809781  0.41712550  1
  O  O251  1  0.73158844  0.62829699  0.91554021  1
  O  O252  1  0.23092123  0.36778643  0.41584587  1
  O  O253  1  0.22098819  0.36826848  0.91762715  1
  O  O254  1  0.21521884  0.85740091  0.42266689  1
  O  O255  1  0.23052507  0.86878938  0.91438826  1
  O  O256  1  0.56167542  0.35278215  0.41414597  1
  O  O257  1  0.57660047  0.36278979  0.92928317  1
  O  O258  1  0.56245884  0.86529551  0.41256318  1
  O  O259  1  0.56541874  0.87475669  0.91719701  1
  O  O260  1  0.89708915  0.37773373  0.41541912  1
  O  O261  1  0.89820746  0.38440618  0.91265820  1
  O  O262  1  0.88763148  0.86935000  0.41382107  1
  O  O263  1  0.89647428  0.86984836  0.91435344  1
  O  O264  1  0.06414438  0.37028377  0.41678626  1
  O  O265  1  0.05863855  0.37981364  0.91385680  1
  O  O266  1  0.05220829  0.87446105  0.41803844  1
  O  O267  1  0.06531396  0.86022721  0.91509845  1
  O  O268  1  0.39563934  0.38866878  0.41001470  1
  O  O269  1  0.38540007  0.37880346  0.92767135  1
  O  O270  1  0.40414963  0.90187201  0.41988851  1
  O  O271  1  0.39850469  0.87354021  0.91548246  1
  O  O272  1  0.72835397  0.37914940  0.41306871  1
  O  O273  1  0.73662562  0.36903247  0.91617780  1
  O  O274  1  0.72494380  0.88854139  0.41337157  1
  O  O275  1  0.73159113  0.88041465  0.91548751  1
  O  O276  1  0.22827180  0.13541137  0.43530461  1
  O  O277  1  0.24518888  0.12400257  0.92858250  1
  O  O278  1  0.22261812  0.65398475  0.41600369  1
  O  O279  1  0.22915773  0.62635700  0.91566777  1
  O  O280  1  0.55989711  0.14031105  0.41236246  1
  O  O281  1  0.56732637  0.12190236  0.91877009  1
  O  O282  1  0.56228678  0.64968751  0.41828073  1
  O  O283  1  0.56352123  0.64019870  0.91861469  1
  O  O284  1  0.87859484  0.13798153  0.41564186  1
  O  O285  1  0.88828748  0.13208980  0.91370585  1
  O  O286  1  0.88295995  0.63253895  0.41505038  1
  O  O287  1  0.89679943  0.61877132  0.91458012  1
  O  O288  1  0.16618455  0.01419781  0.07613172  1
  O  O289  1  0.16944201  0.00658027  0.59213563  1
  O  O290  1  0.16616225  0.51059450  0.07405263  1
  O  O291  1  0.16551755  0.49146077  0.59001717  1
  O  O292  1  0.53099896  0.00479457  0.08194878  1
  O  O293  1  0.47895608  0.00608128  0.57739137  1
  O  O294  1  0.52235635  0.49472780  0.08263308  1
  O  O295  1  0.48517665  0.49203010  0.58044423  1
  O  O296  1  0.82909031  -0.00650732  0.08571470  1
  O  O297  1  0.84240441  -0.01624417  0.57597222  1
  O  O298  1  0.83242817  0.50424556  0.08621426  1
  O  O299  1  0.84189679  0.51595710  0.57466571  1
  O  O300  1  -0.02446724  0.26088010  0.07931751  1
  O  O301  1  0.01149967  0.24840815  0.58640170  1
  O  O302  1  -0.00920644  0.74897856  0.08595085  1
  O  O303  1  0.03113851  0.74975157  0.58733977  1
  O  O304  1  0.35698810  0.24614494  0.08083110  1
  O  O305  1  0.33196831  0.24934413  0.59093520  1
  O  O306  1  0.35846981  0.73785101  0.07094611  1
  O  O307  1  0.30155038  0.75947319  0.58799762  1
  O  O308  1  0.69069050  0.25071128  0.08304817  1
  O  O309  1  0.65648521  0.26022164  0.57901973  1
  O  O310  1  0.67244072  0.74967587  0.08514069  1
  O  O311  1  0.66991050  0.74896170  0.58591533  1
  O  O312  1  0.14873478  -0.01219259  0.42753495  1
  O  O313  1  0.14110186  -0.01332254  0.92446801  1
  O  O314  1  0.15341550  0.49021482  0.42541637  1
  O  O315  1  0.14925224  0.49955643  0.91427702  1
  O  O316  1  0.52048245  0.00220968  0.40949466  1
  O  O317  1  0.48327019  -0.00170082  0.91913237  1
  O  O318  1  0.51632914  0.48746729  0.42275783  1
  O  O319  1  0.49623169  0.51269646  0.92905557  1
  O  O320  1  0.82600023  0.00158355  0.41241715  1
  O  O321  1  0.82440234  -0.00146836  0.91493339  1
  O  O322  1  0.81535954  0.50034001  0.41357947  1
  O  O323  1  0.80310946  0.50011452  0.91364569  1
  O  O324  1  0.34035567  0.25957325  0.42705620  1
  O  O325  1  0.31818917  0.24964186  0.92147436  1
  O  O326  1  0.35272031  0.74224558  0.41798214  1
  O  O327  1  0.31546452  0.74950749  0.91534783  1
  O  O328  1  0.67102677  0.24665320  0.41244089  1
  O  O329  1  0.65810557  0.24295441  0.91198992  1
  O  O330  1  0.67145300  0.75525487  0.41236766  1
  O  O331  1  0.65781710  0.75464858  0.91630493  1
  O  O332  1  0.97186749  0.25260349  0.41400014  1
  O  O333  1  0.96925671  0.25626470  0.91394039  1
  O  O334  1  0.97231306  0.74971689  0.41580606  1
  O  O335  1  0.97251647  0.74412149  0.91420502  1
  O  O336  1  0.21105705  0.08561203  0.19183572  1
  O  O337  1  0.21460885  0.08383496  0.70140223  1
  O  O338  1  0.20496428  0.58678848  0.19017137  1
  O  O339  1  0.20909598  0.58150231  0.69526442  1
  O  O340  1  0.54311407  0.08464143  0.19306435  1
  O  O341  1  0.54320436  0.07803446  0.69019884  1
  O  O342  1  0.55107149  0.57484074  0.19312242  1
  O  O343  1  0.54316362  0.58428535  0.70116623  1
  O  O344  1  0.87454676  0.08132261  0.19177367  1
  O  O345  1  0.88287957  0.08140308  0.70015409  1
  O  O346  1  0.87192838  0.58569072  0.19541140  1
  O  O347  1  0.87924177  0.58591614  0.69316979  1
  O  O348  1  0.03962298  0.33838000  0.19021836  1
  O  O349  1  0.04578800  0.33323527  0.69486190  1
  O  O350  1  0.03777774  0.83274189  0.19399986  1
  O  O351  1  0.04666883  0.83159822  0.69721370  1
  O  O352  1  0.38381384  0.32565274  0.19160875  1
  O  O353  1  0.37435262  0.33122488  0.69974960  1
  O  O354  1  0.37936016  0.83681414  0.19617584  1
  O  O355  1  0.37256836  0.83595136  0.69532195  1
  O  O356  1  0.71335837  0.33329190  0.19457559  1
  O  O357  1  0.71246862  0.34452163  0.68777496  1
  O  O358  1  0.71249286  0.83205968  0.19508532  1
  O  O359  1  0.71196931  0.83473799  0.69339200  1
  O  O360  1  0.19800742  0.41773171  0.19822384  1
  O  O361  1  0.20900417  0.41429669  0.69900121  1
  O  O362  1  0.20715888  0.91920679  0.20049876  1
  O  O363  1  0.20848423  0.91869740  0.69962143  1
  O  O364  1  0.54829482  0.41393488  0.19414638  1
  O  O365  1  0.54124242  0.41690955  0.69423663  1
  O  O366  1  0.54647389  0.91946289  0.19012203  1
  O  O367  1  0.54203259  0.91624469  0.69925987  1
  O  O368  1  0.87319694  0.41920507  0.19504103  1
  O  O369  1  0.87925490  0.41896853  0.69824089  1
  O  O370  1  0.87618094  0.91412898  0.19548218  1
  O  O371  1  0.87954588  0.91167508  0.69362037  1
  O  O372  1  0.04252197  0.16558117  0.20055963  1
  O  O373  1  0.04621969  0.16751777  0.69620827  1
  O  O374  1  0.03446406  0.66724177  0.19423393  1
  O  O375  1  0.04670026  0.66649083  0.69634617  1
  O  O376  1  0.38260687  0.16576996  0.19316353  1
  O  O377  1  0.37277714  0.16801117  0.70176348  1
  O  O378  1  0.36444524  0.66904812  0.18943388  1
  O  O379  1  0.37684052  0.66610534  0.70287755  1
  O  O380  1  0.71413806  0.16977262  0.19353571  1
  O  O381  1  0.71828199  0.15547712  0.69372599  1
  O  O382  1  0.70776806  0.66637027  0.19439319  1
  O  O383  1  0.71296160  0.66480542  0.69423931  1
  O  O384  1  0.12279803  0.08171815  0.30195042  1
  O  O385  1  0.12089824  0.08286508  0.80247710  1
  O  O386  1  0.11771397  0.58450577  0.29810781  1
  O  O387  1  0.12267898  0.58390860  0.80549648  1
  O  O388  1  0.46055554  0.08470302  0.30455162  1
  O  O389  1  0.45695276  0.07738988  0.80861491  1
  O  O390  1  0.45278931  0.57517061  0.30077965  1
  O  O391  1  0.45887703  0.58621611  0.81142080  1
  O  O392  1  0.79166314  0.08239444  0.30237516  1
  O  O393  1  0.79022672  0.07925207  0.80479348  1
  O  O394  1  0.78723547  0.58298486  0.30514089  1
  O  O395  1  0.78994965  0.58389314  0.80431405  1
  O  O396  1  0.28911090  0.32608844  0.30790767  1
  O  O397  1  0.28683715  0.33079359  0.81174857  1
  O  O398  1  0.28897269  0.83460796  0.29982417  1
  O  O399  1  0.29096393  0.83290718  0.80539637  1
  O  O400  1  0.62843861  0.33083893  0.30387883  1
  O  O401  1  0.62177779  0.33917751  0.80844373  1
  O  O402  1  0.62673081  0.83664056  0.30293944  1
  O  O403  1  0.62323956  0.83685773  0.80613743  1
  O  O404  1  0.95349519  0.33886204  0.30519577  1
  O  O405  1  0.95721683  0.33543000  0.80330203  1
  O  O406  1  0.95270915  0.83189646  0.30522054  1
  O  O407  1  0.95636407  0.82994171  0.80480184  1
  O  O408  1  0.12050689  0.41630844  0.30820931  1
  O  O409  1  0.12191816  0.41706097  0.80540583  1
  O  O410  1  0.11856148  0.91291604  0.31047040  1
  O  O411  1  0.12199968  0.91276388  0.80800125  1
  O  O412  1  0.47291018  0.41372957  0.30631997  1
  O  O413  1  0.46018648  0.41974306  0.80335731  1
  O  O414  1  0.46281783  0.92033913  0.30393268  1
  O  O415  1  0.45632933  0.91640426  0.80726726  1
  O  O416  1  0.79017408  0.41636103  0.30459752  1
  O  O417  1  0.78736583  0.41789038  0.80351257  1
  O  O418  1  0.78965208  0.91710628  0.30355940  1
  O  O419  1  0.79236450  0.91509162  0.80425351  1
  O  O420  1  0.29003480  0.16653318  0.29900489  1
  O  O421  1  0.29189994  0.16537735  0.81245065  1
  O  O422  1  0.29179668  0.66829242  0.30549147  1
  O  O423  1  0.28811166  0.66696636  0.80682714  1
  O  O424  1  0.62340949  0.16927075  0.30256608  1
  O  O425  1  0.62133716  0.15522392  0.80497007  1
  O  O426  1  0.63436254  0.66915789  0.30674213  1
  O  O427  1  0.62379737  0.66777243  0.80644822  1
  O  O428  1  0.94980434  0.16205078  0.30816144  1
  O  O429  1  0.95759657  0.16881780  0.80671189  1
  O  O430  1  0.95174882  0.66642775  0.30710572  1
  O  O431  1  0.95702356  0.66362698  0.80476499  1
  F  F432  1  0.04242994  -0.00253960  0.20296220  1
  F  F433  1  0.04690329  -0.00441233  0.70395783  1
  F  F434  1  0.03686324  0.50065698  0.20070153  1
  F  F435  1  0.04770912  0.50083395  0.70307455  1
  F  F436  1  0.38098525  0.00201777  0.20189556  1
  F  F437  1  0.37649070  0.00114235  0.70583169  1
  F  F438  1  0.38309895  0.50691176  0.19271637  1
  F  F439  1  0.37788556  0.50396414  0.70388903  1
  F  F440  1  0.71576495  -0.00578926  0.19580346  1
  F  F441  1  0.71363772  -0.00448993  0.70086480  1
  F  F442  1  0.71328639  0.49973636  0.20172447  1
  F  F443  1  0.71182304  0.50275049  0.70197507  1
  F  F444  1  0.21195536  0.25229496  0.19978989  1
  F  F445  1  0.21425813  0.24811233  0.70921470  1
  F  F446  1  0.20645434  0.74951614  0.20184691  1
  F  F447  1  0.20946959  0.75029487  0.70524651  1
  F  F448  1  0.54925924  0.25023942  0.19972192  1
  F  F449  1  0.52712835  0.25338640  0.70114746  1
  F  F450  1  0.55172706  0.76047549  0.19599302  1
  F  F451  1  0.54138938  0.75096489  0.70302208  1
  F  F452  1  0.87228372  0.25008249  0.20031252  1
  F  F453  1  0.88227033  0.25087437  0.69844600  1
  F  F454  1  0.87562404  0.74867603  0.20245294  1
  F  F455  1  0.88264915  0.74842003  0.70181162  1
  F  F456  1  0.29025116  0.00249915  0.29747097  1
  F  F457  1  0.28920540  -0.00191267  0.80314779  1
  F  F458  1  0.27991980  0.51166941  0.29820720  1
  F  F459  1  0.28421747  0.50855179  0.80475266  1
  F  F460  1  0.62325748  -0.00165862  0.29522541  1
  F  F461  1  0.62426752  -0.00158797  0.79768567  1
  F  F462  1  0.62639409  0.49796737  0.29845118  1
  F  F463  1  0.62514939  0.50075673  0.79892225  1
  F  F464  1  0.95131724  -0.00165792  0.29714232  1
  F  F465  1  0.95510142  -0.00488329  0.80003882  1
  F  F466  1  0.95128302  0.50120467  0.29829753  1
  F  F467  1  0.95546455  0.50247603  0.79866811  1
  F  F468  1  0.12330150  0.25302102  0.29865922  1
  F  F469  1  0.11960614  0.25117506  0.80084471  1
  F  F470  1  0.11679437  0.75007071  0.29674931  1
  F  F471  1  0.12146510  0.74802691  0.80055456  1
  F  F472  1  0.45803669  0.24871517  0.29652203  1
  F  F473  1  0.45269815  0.25769796  0.81161350  1
  F  F474  1  0.45452865  0.76103369  0.29961925  1
  F  F475  1  0.45449457  0.75435950  0.80089802  1
  F  F476  1  0.78882753  0.25088821  0.29878377  1
  F  F477  1  0.80028331  0.25194649  0.79678883  1
  F  F478  1  0.78780258  0.75082845  0.29798724  1
  F  F479  1  0.79796196  0.74920860  0.80109766  1
