# generated using pymatgen
data_K24Na3Li5Mg64Fe17Si79(O5F)48
_symmetry_space_group_name_H-M   'P 1'
_cell_length_a   16.11685437
_cell_length_b   18.62075408
_cell_length_c   20.58267393
_cell_angle_alpha   90.00781799
_cell_angle_beta   100.03828149
_cell_angle_gamma   90.00164331
_symmetry_Int_Tables_number   1
_chemical_formula_structural   K24Na3Li5Mg64Fe17Si79(O5F)48
_chemical_formula_sum   'K24 Na3 Li5 Mg64 Fe17 Si79 O240 F48'
_cell_volume   6082.46376220
_cell_formula_units_Z   1
loop_
 _symmetry_equiv_pos_site_id
 _symmetry_equiv_pos_as_xyz
  1  'x, y, z'
loop_
 _atom_site_type_symbol
 _atom_site_label
 _atom_site_symmetry_multiplicity
 _atom_site_fract_x
 _atom_site_fract_y
 _atom_site_fract_z
 _atom_site_occupancy
  K  K0  1  -0.01950143  -0.00751262  -0.00915565  1
  K  K1  1  -0.01103666  -0.01059671  0.50838438  1
  K  K2  1  -0.00897958  0.50588141  -0.01194499  1
  K  K3  1  -0.01806341  0.50757365  0.50572396  1
  K  K4  1  0.33515472  -0.00621542  -0.00291729  1
  K  K5  1  0.33112069  -0.01161076  0.50240186  1
  K  K6  1  0.33636930  0.51409935  0.00315141  1
  K  K7  1  0.32983802  0.50432521  0.49932331  1
  K  K8  1  0.68246582  -0.00356248  -0.00482858  1
  K  K9  1  0.67462446  -0.01074787  0.50795787  1
  K  K10  1  0.68405996  0.50810908  0.00013087  1
  K  K11  1  0.68192861  0.50304833  0.50587996  1
  K  K12  1  0.15979130  0.25993325  -0.00629368  1
  K  K13  1  0.16385092  0.25784322  0.50582687  1
  K  K14  1  0.17514628  0.74172935  0.00578364  1
  K  K15  1  0.16842563  0.74110146  0.49346404  1
  K  K16  1  0.50369133  0.25877187  -0.00617056  1
  K  K17  1  0.51166674  0.26454395  0.50460720  1
  K  K18  1  0.51866377  0.73668078  0.00438408  1
  K  K19  1  0.50091344  0.74328303  0.49589353  1
  K  K20  1  0.81852517  0.25202291  -0.01598796  1
  K  K21  1  0.83238518  0.25898328  0.50079707  1
  K  K22  1  0.82919546  0.74481988  -0.00245991  1
  K  K23  1  0.83236744  0.74450120  0.50583139  1
  Na  Na24  1  0.83781220  0.49901529  0.75106692  1
  Na  Na25  1  0.66714093  0.08029454  0.24907421  1
  Na  Na26  1  0.83028254  0.66697663  0.25085488  1
  Li  Li27  1  0.67122629  0.74844831  0.74849980  1
  Li  Li28  1  0.33204529  0.74810873  0.25887920  1
  Li  Li29  1  0.33247330  0.08309759  0.74864576  1
  Li  Li30  1  -0.00226735  0.41906875  0.75749883  1
  Li  Li31  1  0.66437780  0.58896092  0.24731341  1
  Mg  Mg32  1  0.50054486  0.50021034  0.74577748  1
  Mg  Mg33  1  0.16794687  0.00275777  0.75072329  1
  Mg  Mg34  1  0.16902449  0.50202480  0.25268716  1
  Mg  Mg35  1  -0.00013144  0.25500886  0.75260245  1
  Mg  Mg36  1  0.00063278  0.74898954  0.25201377  1
  Mg  Mg37  1  0.50160958  0.50190915  0.24710579  1
  Mg  Mg38  1  0.00091620  0.24987369  0.25214241  1
  Mg  Mg39  1  0.50116938  -0.00111129  0.25128035  1
  Mg  Mg40  1  0.82786306  0.50415176  0.25105579  1
  Mg  Mg41  1  0.33322933  0.24752285  0.74745996  1
  Mg  Mg42  1  0.83252170  -0.00010977  0.25074873  1
  Mg  Mg43  1  0.16254376  0.49947396  0.75090500  1
  Mg  Mg44  1  0.66672087  0.25147760  0.75085644  1
  Mg  Mg45  1  0.33418071  0.24940289  0.24797236  1
  Mg  Mg46  1  0.16859503  -0.00260411  0.25348059  1
  Mg  Mg47  1  0.66802197  0.25013523  0.24989461  1
  Mg  Mg48  1  0.66439332  0.74778541  0.24742851  1
  Mg  Mg49  1  0.33187742  0.75204527  0.75044516  1
  Mg  Mg50  1  0.83076614  -0.00212157  0.75206340  1
  Mg  Mg51  1  0.49647383  -0.00018448  0.74939100  1
  Mg  Mg52  1  -0.00348660  0.75051973  0.74868158  1
  Mg  Mg53  1  0.17112397  0.66615778  0.25250071  1
  Mg  Mg54  1  0.83366634  0.33588674  0.74997286  1
  Mg  Mg55  1  0.66618213  0.41687502  0.74712128  1
  Mg  Mg56  1  0.16840096  0.16636960  0.74792014  1
  Mg  Mg57  1  0.16715282  0.33388303  0.24779722  1
  Mg  Mg58  1  -0.00109593  0.08535033  0.74921004  1
  Mg  Mg59  1  0.16344833  0.83628207  0.74945885  1
  Mg  Mg60  1  0.50233664  0.33387231  0.24794734  1
  Mg  Mg61  1  0.83335029  0.33559766  0.25142881  1
  Mg  Mg62  1  0.50295564  0.16546345  0.24955728  1
  Mg  Mg63  1  0.66574118  0.91524158  0.24850900  1
  Mg  Mg64  1  0.66840913  0.58601144  0.74916400  1
  Mg  Mg65  1  0.66722889  0.08308781  0.75148046  1
  Mg  Mg66  1  0.66798562  0.91300964  0.75255406  1
  Mg  Mg67  1  0.83266385  0.16615256  0.25110930  1
  Mg  Mg68  1  0.50026984  0.33493602  0.74713882  1
  Mg  Mg69  1  0.00172013  0.91513510  0.25443274  1
  Mg  Mg70  1  -0.00074126  0.41606883  0.25187001  1
  Mg  Mg71  1  0.16540582  0.33443181  0.74970216  1
  Mg  Mg72  1  -0.00040469  0.58332443  0.75063474  1
  Mg  Mg73  1  0.83321733  0.66778800  0.75173327  1
  Mg  Mg74  1  0.33247541  0.41498076  0.74797526  1
  Mg  Mg75  1  0.00016665  0.58443244  0.25332436  1
  Mg  Mg76  1  0.49667643  0.83255427  0.25137982  1
  Mg  Mg77  1  0.33436565  0.91248138  0.25468935  1
  Mg  Mg78  1  0.50096248  0.83310867  0.75148678  1
  Mg  Mg79  1  0.33162743  0.92019296  0.74994701  1
  Mg  Mg80  1  0.16520413  0.66677268  0.74960848  1
  Mg  Mg81  1  -0.00325955  0.91618637  0.75072747  1
  Mg  Mg82  1  0.83229479  0.16421301  0.75041821  1
  Mg  Mg83  1  0.49905784  0.66619362  0.24632296  1
  Mg  Mg84  1  0.50059529  0.66842415  0.74806501  1
  Mg  Mg85  1  0.33327523  0.41691116  0.24617839  1
  Mg  Mg86  1  0.16797666  0.16469047  0.24986312  1
  Mg  Mg87  1  0.49731092  0.16429517  0.75020348  1
  Mg  Mg88  1  0.83283787  0.83512551  0.75124083  1
  Mg  Mg89  1  0.33239653  0.58401433  0.74931293  1
  Mg  Mg90  1  0.33383116  0.58966881  0.24860671  1
  Mg  Mg91  1  0.83250102  0.83320345  0.25053632  1
  Mg  Mg92  1  0.66842935  0.41937652  0.24816944  1
  Mg  Mg93  1  0.00042804  0.08348172  0.25164758  1
  Mg  Mg94  1  0.33549001  0.08270680  0.25102673  1
  Mg  Mg95  1  0.17170642  0.83063770  0.25477642  1
  Fe  Fe96  1  0.31084759  0.83330971  0.39582910  1
  Fe  Fe97  1  0.85620082  0.91372644  0.60908637  1
  Fe  Fe98  1  0.98326057  0.66461250  0.89177819  1
  Fe  Fe99  1  0.80921463  0.42348832  0.38981608  1
  Fe  Fe100  1  0.14610428  0.41569008  0.88771412  1
  Fe  Fe101  1  0.80554669  0.41374503  0.89153875  1
  Fe  Fe102  1  0.52921768  0.58023479  0.10782698  1
  Fe  Fe103  1  0.98350712  0.83286776  0.89365621  1
  Fe  Fe104  1  0.97441961  0.67038979  0.39186327  1
  Fe  Fe105  1  0.85801844  0.58642403  0.60909397  1
  Fe  Fe106  1  0.80466564  0.91070673  0.89518986  1
  Fe  Fe107  1  0.80843675  0.08756201  0.89160123  1
  Fe  Fe108  1  0.69236882  0.33184179  0.60723650  1
  Fe  Fe109  1  0.19537238  0.58425568  0.11050586  1
  Fe  Fe110  1  0.52283575  0.42226181  0.60617235  1
  Fe  Fe111  1  0.30928377  0.66055958  0.39444923  1
  Fe  Fe112  1  0.69704810  0.66571458  0.10636138  1
  Si  Si113  1  0.97735024  0.32945819  0.38851794  1
  Si  Si114  1  0.03224121  0.33197835  0.61387953  1
  Si  Si115  1  0.69190580  0.83839286  0.11188407  1
  Si  Si116  1  0.80500267  0.91677042  0.38516752  1
  Si  Si117  1  0.97681990  0.33152012  0.88998902  1
  Si  Si118  1  0.19606489  0.41556860  0.61360770  1
  Si  Si119  1  0.63117167  0.16818622  0.88784235  1
  Si  Si120  1  0.52291372  0.08521945  0.11383442  1
  Si  Si121  1  0.31312408  0.16764801  0.38497215  1
  Si  Si122  1  0.47551112  0.57694270  0.38558107  1
  Si  Si123  1  0.47608251  0.41389055  0.38027977  1
  Si  Si124  1  0.97570664  0.84107410  0.38948034  1
  Si  Si125  1  0.68608054  0.66837608  0.61257716  1
  Si  Si126  1  0.35573908  0.16218152  0.11339705  1
  Si  Si127  1  0.98302808  0.16752028  0.88764828  1
  Si  Si128  1  0.35753820  0.32894658  0.61016574  1
  Si  Si129  1  0.46667541  0.41921892  0.88295489  1
  Si  Si130  1  0.35474711  0.83492837  0.61730869  1
  Si  Si131  1  0.19027837  0.07931277  0.11554222  1
  Si  Si132  1  0.85854773  0.08452272  0.11607276  1
  Si  Si133  1  0.14790301  0.08743724  0.88401931  1
  Si  Si134  1  0.68555509  0.16160994  0.61217934  1
  Si  Si135  1  0.51973816  0.91493809  0.61611818  1
  Si  Si136  1  0.63937310  0.83347190  0.38404989  1
  Si  Si137  1  0.35614360  0.67160251  0.61619881  1
  Si  Si138  1  0.02642200  0.32872140  0.11505476  1
  Si  Si139  1  0.63019672  0.83142236  0.88799883  1
  Si  Si140  1  0.87030604  0.57694834  0.11390711  1
  Si  Si141  1  0.46908884  0.91577374  0.88521837  1
  Si  Si142  1  0.48051944  0.08663682  0.38606587  1
  Si  Si143  1  0.18996592  0.08386708  0.61383326  1
  Si  Si144  1  0.35739191  0.32682340  0.11270112  1
  Si  Si145  1  0.31165562  0.33295870  0.38268201  1
  Si  Si146  1  0.19711913  0.58103405  0.61527296  1
  Si  Si147  1  0.47099021  0.07928173  0.88369539  1
  Si  Si148  1  0.36491314  0.67228466  0.11040492  1
  Si  Si149  1  0.52247345  0.40908591  0.11000861  1
  Si  Si150  1  0.64420813  0.16977105  0.38460453  1
  Si  Si151  1  0.79997706  0.58956088  0.38815318  1
  Si  Si152  1  0.63121608  0.33441583  0.88787349  1
  Si  Si153  1  0.68394260  0.83355219  0.61280596  1
  Si  Si154  1  0.13567228  0.57484737  0.39244162  1
  Si  Si155  1  0.52110927  0.07962183  0.61471631  1
  Si  Si156  1  0.52487138  0.92040223  0.11332679  1
  Si  Si157  1  0.81033277  0.08257961  0.38602050  1
  Si  Si158  1  0.14412934  0.40941970  0.38522896  1
  Si  Si159  1  0.80378152  0.59013978  0.88970353  1
  Si  Si160  1  0.13954956  0.92180411  0.39050657  1
  Si  Si161  1  0.14438389  0.92455723  0.88643593  1
  Si  Si162  1  0.03390379  0.66738074  0.61195701  1
  Si  Si163  1  0.69346538  0.33169947  0.11292578  1
  Si  Si164  1  0.86126575  0.91950714  0.11845083  1
  Si  Si165  1  0.03165927  0.83233638  0.61112162  1
  Si  Si166  1  0.47889263  0.92211990  0.38924759  1
  Si  Si167  1  0.31131326  0.16585502  0.88173385  1
  Si  Si168  1  0.97657794  0.16352160  0.38722849  1
  Si  Si169  1  0.31037095  0.32709248  0.88457171  1
  Si  Si170  1  0.46869630  0.58398803  0.88227246  1
  Si  Si171  1  0.63273614  0.66894521  0.38343824  1
  Si  Si172  1  0.85855815  0.08652976  0.61162606  1
  Si  Si173  1  0.86236779  0.41229202  0.11435486  1
  Si  Si174  1  0.15155783  0.58120841  0.88731802  1
  Si  Si175  1  0.02567145  0.16417573  0.11582642  1
  Si  Si176  1  0.63998754  0.33278446  0.38439501  1
  Si  Si177  1  0.02595814  0.16871281  0.61301530  1
  Si  Si178  1  0.02936724  0.66857581  0.11629889  1
  Si  Si179  1  0.86688044  0.40925872  0.61257478  1
  Si  Si180  1  0.14592656  0.08677242  0.38650517  1
  Si  Si181  1  0.30406079  0.83666094  0.88419415  1
  Si  Si182  1  0.69293093  0.16817480  0.11444216  1
  Si  Si183  1  0.36000504  0.83917635  0.11564374  1
  Si  Si184  1  0.30718278  0.67216902  0.88392934  1
  Si  Si185  1  0.19240239  0.92034770  0.61458081  1
  Si  Si186  1  0.19042747  0.91462700  0.11671639  1
  Si  Si187  1  0.51763196  0.59034727  0.61172365  1
  Si  Si188  1  0.63399531  0.66521939  0.88256650  1
  Si  Si189  1  0.19180313  0.41244326  0.11162419  1
  Si  Si190  1  0.35693341  0.16440673  0.61400925  1
  Si  Si191  1  0.02447561  0.83345120  0.11967654  1
  O  O192  1  0.27001926  0.11480982  0.08596294  1
  O  O193  1  0.26994982  0.11908030  0.58445423  1
  O  O194  1  0.28279044  0.62680857  0.07490603  1
  O  O195  1  0.27702693  0.61828350  0.58691221  1
  O  O196  1  0.60231882  0.12637257  0.08825329  1
  O  O197  1  0.60391122  0.10660483  0.58530073  1
  O  O198  1  0.61098201  0.60927070  0.06128221  1
  O  O199  1  0.59853102  0.62297167  0.58330425  1
  O  O200  1  0.93680822  0.12312790  0.08749300  1
  O  O201  1  0.93461480  0.13191428  0.58318931  1
  O  O202  1  0.95365426  0.61126975  0.08836203  1
  O  O203  1  0.94789560  0.63161301  0.57469047  1
  O  O204  1  0.10735633  0.36141603  0.08704219  1
  O  O205  1  0.11075136  0.37014175  0.58375790  1
  O  O206  1  0.10490290  0.86809085  0.08923225  1
  O  O207  1  0.10817358  0.87647333  0.58274815  1
  O  O208  1  0.44059007  0.35384192  0.08412747  1
  O  O209  1  0.43073523  0.35869443  0.57396623  1
  O  O210  1  0.43519451  0.88015400  0.08262518  1
  O  O211  1  0.43453986  0.86761437  0.58720597  1
  O  O212  1  0.77221599  0.37101358  0.08555468  1
  O  O213  1  0.79161536  0.35614244  0.57721010  1
  O  O214  1  0.77137924  0.88254883  0.08788430  1
  O  O215  1  0.75416651  0.86726707  0.57342076  1
  O  O216  1  0.27127110  0.37125363  0.08440958  1
  O  O217  1  0.27019469  0.37477736  0.58183499  1
  O  O218  1  0.27099009  0.88321535  0.08624841  1
  O  O219  1  0.27394598  0.88608248  0.58746567  1
  O  O220  1  0.60334115  0.37011896  0.08264580  1
  O  O221  1  0.60830109  0.39238747  0.56395526  1
  O  O222  1  0.60475515  0.88644527  0.08457324  1
  O  O223  1  0.59638084  0.88106486  0.58414506  1
  O  O224  1  0.93794349  0.36894408  0.08525244  1
  O  O225  1  0.95042620  0.37809920  0.58166151  1
  O  O226  1  0.94166973  0.88380304  0.09121407  1
  O  O227  1  0.94449705  0.86793983  0.57470856  1
  O  O228  1  0.10389814  0.12490131  0.08762181  1
  O  O229  1  0.10197772  0.12644512  0.58247119  1
  O  O230  1  0.10707517  0.64785636  0.08039962  1
  O  O231  1  0.11274681  0.62555735  0.58455518  1
  O  O232  1  0.43426878  0.12767097  0.08204346  1
  O  O233  1  0.43604687  0.12728798  0.58408577  1
  O  O234  1  0.44296689  0.64682443  0.07543669  1
  O  O235  1  0.43973770  0.64891918  0.58702726  1
  O  O236  1  0.76902115  0.12475671  0.08613911  1
  O  O237  1  0.76818809  0.12769210  0.58481281  1
  O  O238  1  0.79189583  0.62391526  0.07817858  1
  O  O239  1  0.75822112  0.63819450  0.57399601  1
  O  O240  1  0.06605998  0.12191135  0.41540527  1
  O  O241  1  0.06724747  0.11579505  0.91510729  1
  O  O242  1  0.05387363  0.59785886  0.42386316  1
  O  O243  1  0.07091206  0.59789321  0.92139182  1
  O  O244  1  0.39790426  0.12047963  0.41390767  1
  O  O245  1  0.38733713  0.10919944  0.91174707  1
  O  O246  1  0.39892031  0.59506446  0.42351611  1
  O  O247  1  0.39185091  0.62436246  0.91175484  1
  O  O248  1  0.73076786  0.12284418  0.41173644  1
  O  O249  1  0.71752534  0.13294580  0.92517417  1
  O  O250  1  0.71347958  0.61974430  0.41390905  1
  O  O251  1  0.71918191  0.62385657  0.91721735  1
  O  O252  1  0.23075647  0.36267029  0.41290734  1
  O  O253  1  0.23159840  0.34607996  0.91922076  1
  O  O254  1  0.21470696  0.87316215  0.42838860  1
  O  O255  1  0.22555927  0.87079406  0.91465257  1
  O  O256  1  0.54954113  0.35498151  0.40691041  1
  O  O257  1  0.55164085  0.37520591  0.91444838  1
  O  O258  1  0.56566313  0.87560503  0.41568719  1
  O  O259  1  0.54485916  0.86186828  0.91601471  1
  O  O260  1  0.90584157  0.36561122  0.42255957  1
  O  O261  1  0.89554494  0.35031111  0.92411312  1
  O  O262  1  0.89183224  0.87488620  0.41607426  1
  O  O263  1  0.89336664  0.85436860  0.93522858  1
  O  O264  1  0.07081090  0.36576933  0.41532224  1
  O  O265  1  0.05268219  0.38493247  0.92362960  1
  O  O266  1  0.04897436  0.90331756  0.41373319  1
  O  O267  1  0.06694028  0.90677866  0.92241050  1
  O  O268  1  0.39279783  0.38397478  0.41005370  1
  O  O269  1  0.39043200  0.38043683  0.91332920  1
  O  O270  1  0.40356716  0.89746937  0.42589859  1
  O  O271  1  0.38494957  0.88813416  0.91343847  1
  O  O272  1  0.71467643  0.38320967  0.41975878  1
  O  O273  1  0.71547323  0.37068484  0.92754193  1
  O  O274  1  0.72690155  0.87816350  0.41318936  1
  O  O275  1  0.70794723  0.87611076  0.92762336  1
  O  O276  1  0.23145920  0.13493211  0.41382500  1
  O  O277  1  0.22812592  0.14066949  0.91293656  1
  O  O278  1  0.21647740  0.62068633  0.42783097  1
  O  O279  1  0.22688458  0.64287271  0.91366229  1
  O  O280  1  0.56396185  0.13532302  0.41460516  1
  O  O281  1  0.55166698  0.12844911  0.91622185  1
  O  O282  1  0.55369564  0.63280398  0.41333673  1
  O  O283  1  0.55532545  0.62627898  0.91178404  1
  O  O284  1  0.90017992  0.12357072  0.41760300  1
  O  O285  1  0.90799337  0.14083608  0.92435936  1
  O  O286  1  0.87021693  0.65043498  0.41570131  1
  O  O287  1  0.88362344  0.63895581  0.92338331  1
  O  O288  1  0.17632467  -0.00244377  0.08674896  1
  O  O289  1  0.18086317  0.00190018  0.58338279  1
  O  O290  1  0.17687136  0.48904964  0.07666989  1
  O  O291  1  0.18941998  0.49854771  0.58536700  1
  O  O292  1  0.51399280  0.00353054  0.08322527  1
  O  O293  1  0.50038480  -0.00282256  0.58672027  1
  O  O294  1  0.49873947  0.48456504  0.07480925  1
  O  O295  1  0.48629761  0.51540137  0.57677418  1
  O  O296  1  0.85365858  0.00227825  0.08892221  1
  O  O297  1  0.85271007  0.00936195  0.57480512  1
  O  O298  1  0.85907126  0.49294414  0.08335992  1
  O  O299  1  0.85019507  0.48968004  0.58184273  1
  O  O300  1  0.01795592  0.24568554  0.08671990  1
  O  O301  1  0.02491542  0.24969502  0.58074356  1
  O  O302  1  0.00171789  0.75242496  0.09240180  1
  O  O303  1  0.04068229  0.75033121  0.58463462  1
  O  O304  1  0.33900635  0.24380295  0.08457789  1
  O  O305  1  0.33757610  0.24514898  0.58270538  1
  O  O306  1  0.34713911  0.75838080  0.08620779  1
  O  O307  1  0.33105636  0.75367432  0.58986423  1
  O  O308  1  0.68613479  0.24903100  0.08137358  1
  O  O309  1  0.66207473  0.23657155  0.57508793  1
  O  O310  1  0.68234049  0.76313037  0.07371548  1
  O  O311  1  0.66177074  0.75144592  0.58602765  1
  O  O312  1  0.16187839  0.00631105  0.41642769  1
  O  O313  1  0.17813240  0.00682339  0.91104220  1
  O  O314  1  0.15720065  0.48902239  0.41662068  1
  O  O315  1  0.19404691  0.50536803  0.91458446  1
  O  O316  1  0.50156042  0.00625067  0.41526957  1
  O  O317  1  0.48719837  -0.00236028  0.91482553  1
  O  O318  1  0.50502259  0.49309074  0.40888864  1
  O  O319  1  0.47330735  0.50182318  0.91138064  1
  O  O320  1  0.81403318  0.00005296  0.41510519  1
  O  O321  1  0.82031388  0.00119769  0.93551091  1
  O  O322  1  0.82551642  0.51419758  0.42835761  1
  O  O323  1  0.81730935  0.50960688  0.92163576  1
  O  O324  1  0.32977566  0.25033676  0.41205753  1
  O  O325  1  0.34298866  0.24516809  0.91111306  1
  O  O326  1  0.33721515  0.74738205  0.43851515  1
  O  O327  1  0.32483022  0.75493330  0.91210236  1
  O  O328  1  0.65960533  0.25043644  0.41508624  1
  O  O329  1  0.62561334  0.25098651  0.91524091  1
  O  O330  1  0.64664584  0.75197859  0.41507187  1
  O  O331  1  0.63684109  0.74704375  0.91262147  1
  O  O332  1  0.98892997  0.24501717  0.41605588  1
  O  O333  1  1.01132299  0.24861582  0.91421256  1
  O  O334  1  1.00417527  0.76604500  0.42477103  1
  O  O335  1  1.03069160  0.74892621  0.92932784  1
  O  O336  1  0.21030395  0.08239475  0.19611707  1
  O  O337  1  0.20525365  0.08382275  0.69317817  1
  O  O338  1  0.21178098  0.58036343  0.20215896  1
  O  O339  1  0.21382103  0.58348163  0.69540296  1
  O  O340  1  0.53220130  0.08350096  0.19295536  1
  O  O341  1  0.53915844  0.08238576  0.69488308  1
  O  O342  1  0.54093609  0.58167534  0.19821301  1
  O  O343  1  0.53653436  0.58656771  0.69252147  1
  O  O344  1  0.87787346  0.08576898  0.19647005  1
  O  O345  1  0.87868669  0.08520968  0.69224515  1
  O  O346  1  0.88451104  0.57179907  0.19347469  1
  O  O347  1  0.88163031  0.59313165  0.69798739  1
  O  O348  1  0.04404098  0.32934757  0.19584783  1
  O  O349  1  0.05017682  0.32458745  0.69255924  1
  O  O350  1  0.04648487  0.83711995  0.20003497  1
  O  O351  1  0.04664847  0.83684620  0.69180086  1
  O  O352  1  0.37589919  0.32885459  0.19325585  1
  O  O353  1  0.37504374  0.33101699  0.69115143  1
  O  O354  1  0.38108820  0.84446942  0.19457885  1
  O  O355  1  0.37378459  0.83580256  0.69746895  1
  O  O356  1  0.71028277  0.32964733  0.19308043  1
  O  O357  1  0.70728549  0.33016549  0.69907186  1
  O  O358  1  0.70825913  0.83649812  0.19264064  1
  O  O359  1  0.70671769  0.83808885  0.69230832  1
  O  O360  1  0.21071151  0.41215215  0.19283530  1
  O  O361  1  0.21415790  0.41491967  0.69336086  1
  O  O362  1  0.20957849  0.91893982  0.19684653  1
  O  O363  1  0.20915881  0.91964211  0.69480687  1
  O  O364  1  0.54212076  0.41066900  0.19071203  1
  O  O365  1  0.54130555  0.41622471  0.69863292  1
  O  O366  1  0.54177508  0.91988854  0.19360580  1
  O  O367  1  0.53878090  0.91633815  0.69615979  1
  O  O368  1  0.88163019  0.40961106  0.19429354  1
  O  O369  1  0.88442527  0.40421046  0.69182058  1
  O  O370  1  0.87964326  0.92021772  0.19883310  1
  O  O371  1  0.87769894  0.91985868  0.69953717  1
  O  O372  1  0.04452742  0.16458098  0.19659522  1
  O  O373  1  0.04462464  0.16633818  0.69313152  1
  O  O374  1  0.04788989  0.66637571  0.19698084  1
  O  O375  1  0.04916420  0.66948286  0.69248524  1
  O  O376  1  0.37479417  0.16383225  0.19390074  1
  O  O377  1  0.37744183  0.16675431  0.69342134  1
  O  O378  1  0.38061522  0.66536133  0.19049311  1
  O  O379  1  0.37351018  0.66926244  0.69651760  1
  O  O380  1  0.71490275  0.17280483  0.19364410  1
  O  O381  1  0.70379518  0.16447615  0.69292145  1
  O  O382  1  0.69922106  0.66985480  0.19401422  1
  O  O383  1  0.70851474  0.66485078  0.69236744  1
  O  O384  1  0.12614426  0.08586273  0.30590470  1
  O  O385  1  0.12598806  0.08651757  0.80368374  1
  O  O386  1  0.12203590  0.57728675  0.31108485  1
  O  O387  1  0.13147740  0.58615315  0.80599741  1
  O  O388  1  0.45837732  0.08607400  0.30553304  1
  O  O389  1  0.45749683  0.08086870  0.80422138  1
  O  O390  1  0.45440611  0.58019161  0.30498927  1
  O  O391  1  0.45227539  0.58409834  0.80199598  1
  O  O392  1  0.80121187  0.08351297  0.30685717  1
  O  O393  1  0.78756635  0.08312596  0.79894397  1
  O  O394  1  0.78410712  0.57565292  0.30946029  1
  O  O395  1  0.78318925  0.59313851  0.80963089  1
  O  O396  1  0.29066690  0.33003754  0.30223792  1
  O  O397  1  0.29259760  0.33003398  0.80349446  1
  O  O398  1  0.28835325  0.83777445  0.30459204  1
  O  O399  1  0.28729895  0.83661532  0.80380588  1
  O  O400  1  0.62382416  0.33069315  0.30319605  1
  O  O401  1  0.61726338  0.33225764  0.80754831  1
  O  O402  1  0.62037226  0.83563035  0.30385306  1
  O  O403  1  0.61558472  0.83844811  0.80821897  1
  O  O404  1  0.95973775  0.32984726  0.30734249  1
  O  O405  1  0.95584082  0.32952479  0.80942320  1
  O  O406  1  0.95638420  0.83797273  0.30862686  1
  O  O407  1  0.95921731  0.83433252  0.80061715  1
  O  O408  1  0.12490545  0.41043194  0.30472297  1
  O  O409  1  0.12677772  0.41481850  0.79720247  1
  O  O410  1  0.12472780  0.92031180  0.30928785  1
  O  O411  1  0.12571067  0.92032426  0.80543733  1
  O  O412  1  0.45410272  0.41259958  0.29984501  1
  O  O413  1  0.45141245  0.41713171  0.80275788  1
  O  O414  1  0.45773832  0.92009390  0.30821815  1
  O  O415  1  0.45260722  0.91702744  0.80496866  1
  O  O416  1  0.78945051  0.41509694  0.29824002  1
  O  O417  1  0.78136367  0.40893517  0.80212002  1
  O  O418  1  0.78897475  0.91936492  0.30501630  1
  O  O419  1  0.78612282  0.91659395  0.80268037  1
  O  O420  1  0.29234443  0.16606102  0.30431707  1
  O  O421  1  0.28955243  0.16748476  0.80226642  1
  O  O422  1  0.28918578  0.66501764  0.30347854  1
  O  O423  1  0.29005966  0.67004833  0.80346148  1
  O  O424  1  0.62109950  0.17197047  0.30516168  1
  O  O425  1  0.61817710  0.16518251  0.80694536  1
  O  O426  1  0.61539948  0.67415857  0.30444895  1
  O  O427  1  0.61648273  0.66432726  0.80302678  1
  O  O428  1  0.95920282  0.16472709  0.30662897  1
  O  O429  1  0.96120514  0.16526646  0.80655467  1
  O  O430  1  0.96561941  0.66843670  0.30205102  1
  O  O431  1  0.95970314  0.66981822  0.80014081  1
  F  F432  1  0.04733390  0.00169925  0.20488422  1
  F  F433  1  0.04688189  0.00190298  0.70246411  1
  F  F434  1  0.04845288  0.49555776  0.20562342  1
  F  F435  1  0.05256253  0.51214846  0.69500446  1
  F  F436  1  0.37768318  0.00122553  0.20442612  1
  F  F437  1  0.37836210  -0.00382770  0.69847696  1
  F  F438  1  0.37714821  0.49797036  0.20052779  1
  F  F439  1  0.37623905  0.50018612  0.69971129  1
  F  F440  1  0.71733565  -0.00744661  0.19786108  1
  F  F441  1  0.70563613  -0.00050255  0.70023228  1
  F  F442  1  0.71386594  0.49236634  0.19432082  1
  F  F443  1  0.69636880  0.50234800  0.69788491  1
  F  F444  1  0.21189747  0.24657762  0.20070443  1
  F  F445  1  0.21291908  0.24903938  0.69895255  1
  F  F446  1  0.20405766  0.75184810  0.20073616  1
  F  F447  1  0.21285696  0.75314336  0.70130581  1
  F  F448  1  0.54472180  0.24784794  0.19957623  1
  F  F449  1  0.54327707  0.24725400  0.70287805  1
  F  F450  1  0.54249095  0.75612044  0.19925462  1
  F  F451  1  0.53355039  0.75293145  0.69984319  1
  F  F452  1  0.88160103  0.24808047  0.20423394  1
  F  F453  1  0.88006346  0.24580381  0.70484858  1
  F  F454  1  0.88503886  0.76415718  0.19924387  1
  F  F455  1  0.87669643  0.75484824  0.69793215  1
  F  F456  1  0.28891102  0.00392514  0.30046244  1
  F  F457  1  0.28660063  -0.00119943  0.79858216  1
  F  F458  1  0.28859254  0.49076804  0.29982922  1
  F  F459  1  0.29000048  0.49948250  0.79547752  1
  F  F460  1  0.61779174  -0.00789301  0.30067273  1
  F  F461  1  0.61692944  0.00035762  0.79720432  1
  F  F462  1  0.61530937  0.48873007  0.29829688  1
  F  F463  1  0.61673554  0.50338331  0.79859740  1
  F  F464  1  0.95632925  0.00271689  0.29956804  1
  F  F465  1  0.95700746  0.00419442  0.79823257  1
  F  F466  1  0.95452539  0.49535681  0.29924752  1
  F  F467  1  0.97252564  0.50266446  0.80369555  1
  F  F468  1  0.12437601  0.24770653  0.29800990  1
  F  F469  1  0.12413279  0.24744837  0.79670403  1
  F  F470  1  0.12213472  0.75128353  0.30099084  1
  F  F471  1  0.12383129  0.75290970  0.79535708  1
  F  F472  1  0.45374927  0.24796061  0.29540835  1
  F  F473  1  0.45292127  0.24977441  0.79610786  1
  F  F474  1  0.45720153  0.75091078  0.29729893  1
  F  F475  1  0.45108360  0.75109182  0.79948077  1
  F  F476  1  0.79016086  0.24883204  0.29934066  1
  F  F477  1  0.78608109  0.24380800  0.79905823  1
  F  F478  1  0.77957707  0.76419950  0.30108999  1
  F  F479  1  0.78875689  0.75258454  0.79570480  1
