# generated using pymatgen
data_K24Na3Li5Mg64Fe17Si79(O5F)48
_symmetry_space_group_name_H-M   'P 1'
_cell_length_a   16.08485460
_cell_length_b   18.57143965
_cell_length_c   20.54244634
_cell_angle_alpha   89.99076604
_cell_angle_beta   100.01077292
_cell_angle_gamma   90.02714916
_symmetry_Int_Tables_number   1
_chemical_formula_structural   K24Na3Li5Mg64Fe17Si79(O5F)48
_chemical_formula_sum   'K24 Na3 Li5 Mg64 Fe17 Si79 O240 F48'
_cell_volume   6042.98998641
_cell_formula_units_Z   1
loop_
 _symmetry_equiv_pos_site_id
 _symmetry_equiv_pos_as_xyz
  1  'x, y, z'
loop_
 _atom_site_type_symbol
 _atom_site_label
 _atom_site_symmetry_multiplicity
 _atom_site_fract_x
 _atom_site_fract_y
 _atom_site_fract_z
 _atom_site_occupancy
  K  K0  1  0.00777039  -0.00381537  0.00368061  1
  K  K1  1  0.00238956  0.00604748  0.50036323  1
  K  K2  1  -0.00523927  0.49165895  0.01297337  1
  K  K3  1  0.01655710  0.49655537  0.49562924  1
  K  K4  1  0.33066070  0.00106728  0.00349574  1
  K  K5  1  0.33777728  -0.00445602  0.50164967  1
  K  K6  1  0.31610450  0.50121535  0.00122848  1
  K  K7  1  0.31992537  0.50215949  0.49901373  1
  K  K8  1  0.65993859  0.00025365  -0.00127248  1
  K  K9  1  0.66416931  -0.00626295  0.50010103  1
  K  K10  1  0.67141980  0.50319670  0.00364689  1
  K  K11  1  0.65705598  0.49721901  0.50128293  1
  K  K12  1  0.17184756  0.25173663  0.00458359  1
  K  K13  1  0.16711775  0.25855607  0.50042301  1
  K  K14  1  0.17362503  0.75275692  0.00915536  1
  K  K15  1  0.17286681  0.74823901  0.49309634  1
  K  K16  1  0.49520331  0.24418125  0.00488449  1
  K  K17  1  0.49286976  0.24504398  0.50070888  1
  K  K18  1  0.50205158  0.74963180  -0.00126043  1
  K  K19  1  0.49363580  0.75413380  0.50159396  1
  K  K20  1  0.82828512  0.24344928  0.00198111  1
  K  K21  1  0.83635739  0.24555609  0.49625705  1
  K  K22  1  0.83078019  0.75017183  0.00524544  1
  K  K23  1  0.83450102  0.75171136  0.50023376  1
  Na  Na24  1  0.50122839  0.00106112  0.75508270  1
  Na  Na25  1  0.00157006  0.41947295  0.24708104  1
  Na  Na26  1  0.33641460  0.42183225  0.74067718  1
  Li  Li27  1  0.15696504  0.50151374  0.24490932  1
  Li  Li28  1  0.49358496  0.50146494  0.74266490  1
  Li  Li29  1  0.66738339  0.08454286  0.24352373  1
  Li  Li30  1  0.82726360  0.16399432  0.24880007  1
  Li  Li31  1  0.16123093  0.65983915  0.24509330  1
  Mg  Mg32  1  0.66896555  0.24534738  0.24891482  1
  Mg  Mg33  1  0.16591600  0.00182017  0.74846733  1
  Mg  Mg34  1  0.66753953  0.75074593  0.24847623  1
  Mg  Mg35  1  0.32902152  0.74741781  0.25078112  1
  Mg  Mg36  1  0.82871904  0.00375187  0.25024411  1
  Mg  Mg37  1  0.83462144  0.49995908  0.74865058  1
  Mg  Mg38  1  0.50037438  0.49962173  0.25174211  1
  Mg  Mg39  1  0.33513936  0.75275813  0.75294607  1
  Mg  Mg40  1  0.16758564  -0.00199146  0.25043523  1
  Mg  Mg41  1  0.00443943  0.75066316  0.24779003  1
  Mg  Mg42  1  0.33485057  0.25105226  0.74533571  1
  Mg  Mg43  1  0.83715891  0.50036920  0.24874631  1
  Mg  Mg44  1  0.66776442  0.25041976  0.75348053  1
  Mg  Mg45  1  0.00136783  0.24997756  0.74718898  1
  Mg  Mg46  1  -0.00001483  0.75013089  0.74617555  1
  Mg  Mg47  1  0.66639718  0.74725178  0.75000076  1
  Mg  Mg48  1  0.50533032  -0.00043239  0.25072949  1
  Mg  Mg49  1  0.16955465  0.50276718  0.74481846  1
  Mg  Mg50  1  0.33364685  0.25138190  0.24862521  1
  Mg  Mg51  1  -0.00413765  0.24941015  0.25095893  1
  Mg  Mg52  1  0.83254274  -0.00015602  0.75186544  1
  Mg  Mg53  1  0.49857121  0.83379811  0.24969049  1
  Mg  Mg54  1  0.83254363  0.83380148  0.74966851  1
  Mg  Mg55  1  0.50127553  0.83413615  0.75592007  1
  Mg  Mg56  1  0.49926718  0.16693384  0.75034988  1
  Mg  Mg57  1  0.49972791  0.66221959  0.74874888  1
  Mg  Mg58  1  0.32707279  0.41845440  0.25114189  1
  Mg  Mg59  1  0.66865158  0.58460733  0.24982273  1
  Mg  Mg60  1  -0.00137223  0.08581358  0.74883064  1
  Mg  Mg61  1  0.83357433  0.83629319  0.24929387  1
  Mg  Mg62  1  0.50363035  0.16408445  0.24714000  1
  Mg  Mg63  1  0.32803990  0.58170679  0.25391180  1
  Mg  Mg64  1  0.66765569  0.91467510  0.75575755  1
  Mg  Mg65  1  0.50018407  0.33378448  0.24891413  1
  Mg  Mg66  1  0.83391167  0.33069960  0.25006481  1
  Mg  Mg67  1  0.00240129  0.41661613  0.74606382  1
  Mg  Mg68  1  0.00128594  0.58553897  0.74672486  1
  Mg  Mg69  1  0.83436385  0.16460098  0.75267242  1
  Mg  Mg70  1  0.33430297  0.08506755  0.74943202  1
  Mg  Mg71  1  0.16503929  0.83525068  0.75077435  1
  Mg  Mg72  1  0.49825342  0.66529896  0.25127774  1
  Mg  Mg73  1  0.66884490  0.41526776  0.25010360  1
  Mg  Mg74  1  -0.00472761  0.08419163  0.25181952  1
  Mg  Mg75  1  0.33476331  0.58568704  0.74525719  1
  Mg  Mg76  1  0.33497675  0.91819155  0.75521973  1
  Mg  Mg77  1  0.83644490  0.66642168  0.24829721  1
  Mg  Mg78  1  -0.00373128  0.91690374  0.74776807  1
  Mg  Mg79  1  0.16717150  0.83150072  0.25102625  1
  Mg  Mg80  1  0.16564798  0.66789544  0.74645590  1
  Mg  Mg81  1  0.16475433  0.16548152  0.24909865  1
  Mg  Mg82  1  0.66855431  0.08326585  0.75495038  1
  Mg  Mg83  1  0.16391474  0.33492160  0.24760703  1
  Mg  Mg84  1  0.83359570  0.66456766  0.74718778  1
  Mg  Mg85  1  0.16519933  0.16703955  0.74647633  1
  Mg  Mg86  1  0.66392309  0.91880552  0.25018804  1
  Mg  Mg87  1  0.33201699  0.91317938  0.24968280  1
  Mg  Mg88  1  0.83435360  0.33398694  0.75046791  1
  Mg  Mg89  1  0.33439945  0.08349870  0.24709966  1
  Mg  Mg90  1  0.66312984  0.41821100  0.74913198  1
  Mg  Mg91  1  0.00289248  0.58390584  0.24679112  1
  Mg  Mg92  1  0.16854336  0.33583810  0.74466096  1
  Mg  Mg93  1  0.49790433  0.33716015  0.74637649  1
  Mg  Mg94  1  0.00061591  0.91657008  0.25099928  1
  Mg  Mg95  1  0.66420473  0.58053118  0.74962052  1
  Fe  Fe96  1  0.18214345  0.41509731  0.10681662  1
  Fe  Fe97  1  0.52507425  0.91099635  0.11019052  1
  Fe  Fe98  1  0.14340954  0.41600081  0.38940918  1
  Fe  Fe99  1  0.52232053  0.57911101  0.61075159  1
  Fe  Fe100  1  0.36216288  0.16027661  0.60795236  1
  Fe  Fe101  1  0.19308841  0.42024812  0.60628438  1
  Fe  Fe102  1  0.02295055  0.16654122  0.60823688  1
  Fe  Fe103  1  0.85324905  0.91958676  0.61052365  1
  Fe  Fe104  1  0.18415499  0.58383136  0.11316654  1
  Fe  Fe105  1  0.02170117  0.66966929  0.60676209  1
  Fe  Fe106  1  0.19920641  0.91641500  0.10828820  1
  Fe  Fe107  1  0.47512341  0.91792129  0.89625023  1
  Fe  Fe108  1  0.02258039  0.83801677  0.10904337  1
  Fe  Fe109  1  0.52179495  0.08077193  0.10838728  1
  Fe  Fe110  1  0.86048084  0.57898880  0.10831706  1
  Fe  Fe111  1  0.31048769  0.83425835  0.39364295  1
  Fe  Fe112  1  0.80731290  0.08153913  0.89379420  1
  Si  Si113  1  0.30734458  0.66698524  0.88504127  1
  Si  Si114  1  0.64408342  0.82523489  0.89098936  1
  Si  Si115  1  0.97494564  0.67144822  0.38534068  1
  Si  Si116  1  0.01789831  0.16027041  0.11528699  1
  Si  Si117  1  0.64271558  0.16944878  0.38559580  1
  Si  Si118  1  0.80971494  0.90877045  0.89041794  1
  Si  Si119  1  0.85466006  0.41762824  0.61435045  1
  Si  Si120  1  0.47144559  0.58311173  0.88495823  1
  Si  Si121  1  0.14371771  0.41772138  0.88275580  1
  Si  Si122  1  0.01818278  0.33645657  0.60856592  1
  Si  Si123  1  0.69277964  0.33269261  0.61560601  1
  Si  Si124  1  0.80774848  0.41866186  0.38537275  1
  Si  Si125  1  0.35848990  0.83927253  0.61798334  1
  Si  Si126  1  0.96877885  0.32869130  0.38811917  1
  Si  Si127  1  0.64295121  0.33971955  0.88631330  1
  Si  Si128  1  0.47846783  0.41373700  0.38566242  1
  Si  Si129  1  0.64214134  0.66489867  0.38691292  1
  Si  Si130  1  0.68945480  0.33012102  0.11402517  1
  Si  Si131  1  0.80470905  0.91694024  0.38650667  1
  Si  Si132  1  0.14105338  0.08315854  0.88532950  1
  Si  Si133  1  0.36036096  0.34056524  0.11338556  1
  Si  Si134  1  0.85771865  0.58041781  0.61152552  1
  Si  Si135  1  0.30168471  0.83341871  0.89012120  1
  Si  Si136  1  0.31055267  0.16288793  0.38431484  1
  Si  Si137  1  0.52619688  0.41092347  0.61025364  1
  Si  Si138  1  0.68927225  0.82589401  0.61350801  1
  Si  Si139  1  0.69360032  0.66099434  0.61328628  1
  Si  Si140  1  0.47685122  0.57969655  0.38723739  1
  Si  Si141  1  0.13931613  0.58795205  0.38554388  1
  Si  Si142  1  0.64389565  0.33367412  0.38558587  1
  Si  Si143  1  0.31399745  0.32918526  0.38761575  1
  Si  Si144  1  0.13762226  0.92081047  0.39092836  1
  Si  Si145  1  0.63760707  0.17356898  0.89002668  1
  Si  Si146  1  0.81229214  0.41662300  0.88488496  1
  Si  Si147  1  0.01869095  0.32160958  0.11138297  1
  Si  Si148  1  0.64213954  0.83077904  0.38612481  1
  Si  Si149  1  0.47267125  0.09287716  0.88894528  1
  Si  Si150  1  0.36221700  0.67533498  0.61334936  1
  Si  Si151  1  0.01999292  0.67132749  0.10888799  1
  Si  Si152  1  0.69145680  0.16638357  0.11300354  1
  Si  Si153  1  0.19095156  0.91494536  0.61750330  1
  Si  Si154  1  0.47545418  0.41763198  0.88272318  1
  Si  Si155  1  0.85341110  0.08482524  0.61230074  1
  Si  Si156  1  0.81127289  0.58200252  0.88429808  1
  Si  Si157  1  0.19548100  0.59366188  0.60861818  1
  Si  Si158  1  0.85228877  0.40928339  0.11162164  1
  Si  Si159  1  0.52736301  0.58477530  0.11619724  1
  Si  Si160  1  0.97748719  0.16937303  0.88864828  1
  Si  Si161  1  0.85702016  0.92253856  0.11530100  1
  Si  Si162  1  0.80982038  0.58497008  0.38585520  1
  Si  Si163  1  0.36522494  0.82325353  0.11350685  1
  Si  Si164  1  0.64289978  0.65980696  0.88623780  1
  Si  Si165  1  0.02378186  0.83928487  0.61135202  1
  Si  Si166  1  0.80444472  0.08146508  0.38455582  1
  Si  Si167  1  0.53822832  0.08225155  0.61497325  1
  Si  Si168  1  0.52918022  0.41843593  0.11533721  1
  Si  Si169  1  0.97458774  0.82915915  0.88449487  1
  Si  Si170  1  0.85338522  0.08310918  0.11732658  1
  Si  Si171  1  0.69205040  0.66875802  0.11260632  1
  Si  Si172  1  0.97076676  0.83708038  0.38680661  1
  Si  Si173  1  0.97955064  0.33501765  0.88446848  1
  Si  Si174  1  0.35819806  0.65934708  0.11592071  1
  Si  Si175  1  0.97054759  0.16468245  0.38608530  1
  Si  Si176  1  0.30404599  0.16837564  0.88563655  1
  Si  Si177  1  0.47979910  0.91910655  0.38885599  1
  Si  Si178  1  0.47864751  0.08455420  0.38509069  1
  Si  Si179  1  0.18980377  0.08887643  0.11213420  1
  Si  Si180  1  0.13550408  0.91688535  0.88446196  1
  Si  Si181  1  0.97669065  0.66484527  0.88444311  1
  Si  Si182  1  0.35604969  0.17415850  0.11253096  1
  Si  Si183  1  0.53068056  0.91352062  0.61892115  1
  Si  Si184  1  0.31396966  0.66366016  0.38999636  1
  Si  Si185  1  0.36359510  0.32851771  0.60718657  1
  Si  Si186  1  0.19280563  0.07872214  0.61079861  1
  Si  Si187  1  0.30860072  0.33244468  0.88234389  1
  Si  Si188  1  0.69658483  0.16966464  0.61732745  1
  Si  Si189  1  0.69756211  0.83514227  0.11446938  1
  Si  Si190  1  0.13970872  0.08686124  0.38662243  1
  Si  Si191  1  0.14222032  0.58257412  0.88292896  1
  O  O192  1  0.26380503  0.13611463  0.08503257  1
  O  O193  1  0.27738936  0.09181576  0.57948140  1
  O  O194  1  0.28674096  0.60503686  0.08096747  1
  O  O195  1  0.28232953  0.62329171  0.58390416  1
  O  O196  1  0.61778058  0.11511839  0.07471532  1
  O  O197  1  0.62332158  0.11179816  0.58630650  1
  O  O198  1  0.60580018  0.62020801  0.08590944  1
  O  O199  1  0.62280725  0.60538304  0.57889764  1
  O  O200  1  0.93976126  0.10458498  0.08752688  1
  O  O201  1  0.93420943  0.10212512  0.57752795  1
  O  O202  1  0.95286195  0.60993410  0.07308484  1
  O  O203  1  0.93724323  0.59927858  0.57661521  1
  O  O204  1  0.09342571  0.34779884  0.07329780  1
  O  O205  1  0.09641812  0.36312196  0.57487344  1
  O  O206  1  0.10920582  0.86358027  0.06478697  1
  O  O207  1  0.11638182  0.85745108  0.58839935  1
  O  O208  1  0.44739019  0.36861037  0.08643864  1
  O  O209  1  0.45516185  0.34926928  0.58314944  1
  O  O210  1  0.45368627  0.83197275  0.08650362  1
  O  O211  1  0.43899988  0.87483090  0.58933072  1
  O  O212  1  0.77003131  0.35703022  0.08176821  1
  O  O213  1  0.77697500  0.36113560  0.58689406  1
  O  O214  1  0.78598064  0.85941534  0.08977838  1
  O  O215  1  0.76579246  0.85335433  0.57804527  1
  O  O216  1  0.28437846  0.38917153  0.07590821  1
  O  O217  1  0.29375237  0.38940769  0.57960240  1
  O  O218  1  0.29572154  0.88050953  0.07816747  1
  O  O219  1  0.27681888  0.89057700  0.58958041  1
  O  O220  1  0.60955989  0.38480831  0.08553119  1
  O  O221  1  0.61429463  0.38431328  0.58330837  1
  O  O222  1  0.62643612  0.88952184  0.07938118  1
  O  O223  1  0.60237374  0.87205258  0.58422680  1
  O  O224  1  0.93310864  0.37073203  0.08575664  1
  O  O225  1  0.93823686  0.39473620  0.58469042  1
  O  O226  1  0.93771888  0.90854959  0.08078609  1
  O  O227  1  0.95758070  0.90279463  0.58281934  1
  O  O228  1  0.10128281  0.13410041  0.08551579  1
  O  O229  1  0.11890598  0.13323138  0.57635174  1
  O  O230  1  0.10899205  0.65909088  0.08239363  1
  O  O231  1  0.12337893  0.65189398  0.57817130  1
  O  O232  1  0.42894356  0.14283065  0.07634203  1
  O  O233  1  0.45891632  0.12649726  0.57516157  1
  O  O234  1  0.44570772  0.63432616  0.08766066  1
  O  O235  1  0.44226107  0.65161984  0.58064589  1
  O  O236  1  0.78132528  0.14296273  0.08793730  1
  O  O237  1  0.78303596  0.15039338  0.58942655  1
  O  O238  1  0.76407870  0.63679821  0.07533167  1
  O  O239  1  0.78199201  0.63918196  0.58642111  1
  O  O240  1  0.06419754  0.12909420  0.41639975  1
  O  O241  1  0.06473645  0.12256966  0.91544800  1
  O  O242  1  0.06492697  0.63456171  0.41698468  1
  O  O243  1  0.06221016  0.61796286  0.91205402  1
  O  O244  1  0.39589558  0.11545624  0.41421097  1
  O  O245  1  0.39038034  0.12626493  0.91818173  1
  O  O246  1  0.39905917  0.61258547  0.41924409  1
  O  O247  1  0.39683927  0.62591469  0.91659383  1
  O  O248  1  0.72982558  0.12495780  0.41599181  1
  O  O249  1  0.71596095  0.12541602  0.92610519  1
  O  O250  1  0.73184711  0.62364159  0.41672735  1
  O  O251  1  0.72957482  0.61305931  0.91401161  1
  O  O252  1  0.24349625  0.36347137  0.42447989  1
  O  O253  1  0.23233828  0.37529927  0.91196730  1
  O  O254  1  0.22106340  0.87963172  0.42786878  1
  O  O255  1  0.21554387  0.86564644  0.91432461  1
  O  O256  1  0.56681847  0.37108157  0.41652676  1
  O  O257  1  0.56741670  0.38050754  0.91722945  1
  O  O258  1  0.56815264  0.87317696  0.41641202  1
  O  O259  1  0.57004849  0.85777118  0.92553925  1
  O  O260  1  0.89057304  0.37157557  0.41662514  1
  O  O261  1  0.89899089  0.37075742  0.91373568  1
  O  O262  1  0.89346912  0.87603396  0.41738095  1
  O  O263  1  0.89332329  0.85690019  0.91500073  1
  O  O264  1  0.05524102  0.36626275  0.42205993  1
  O  O265  1  0.06497754  0.38164957  0.91339603  1
  O  O266  1  0.05551580  0.88336256  0.41750354  1
  O  O267  1  0.05373118  0.88330772  0.91207044  1
  O  O268  1  0.40491533  0.37120039  0.41560916  1
  O  O269  1  0.39911211  0.37335866  0.91134634  1
  O  O270  1  0.40905494  0.88855462  0.42854306  1
  O  O271  1  0.38012496  0.87932183  0.92790865  1
  O  O272  1  0.72802630  0.38208838  0.41479712  1
  O  O273  1  0.73254450  0.38271853  0.91521245  1
  O  O274  1  0.73116424  0.87193448  0.41642857  1
  O  O275  1  0.73359403  0.86669824  0.91943735  1
  O  O276  1  0.23058663  0.12776365  0.41417456  1
  O  O277  1  0.22731198  0.12793075  0.91601954  1
  O  O278  1  0.23082038  0.62834942  0.41496783  1
  O  O279  1  0.22974239  0.62575720  0.91319283  1
  O  O280  1  0.56216613  0.13419674  0.41568045  1
  O  O281  1  0.54995320  0.15056216  0.91562165  1
  O  O282  1  0.56579379  0.62389686  0.41652473  1
  O  O283  1  0.56420044  0.62120532  0.91550952  1
  O  O284  1  0.89712792  0.11811647  0.41547398  1
  O  O285  1  0.90378018  0.13934372  0.92527851  1
  O  O286  1  0.89684927  0.62956220  0.41436501  1
  O  O287  1  0.89577726  0.62999832  0.91346926  1
  O  O288  1  0.18206643  0.01265141  0.07478140  1
  O  O289  1  0.16141609  -0.00534562  0.58877796  1
  O  O290  1  0.15131060  0.50060800  0.06441408  1
  O  O291  1  0.17239462  0.51546059  0.57574337  1
  O  O292  1  0.48285323  -0.00539152  0.06990373  1
  O  O293  1  0.52745537  -0.00344410  0.59097904  1
  O  O294  1  0.51494038  0.50151119  0.08694083  1
  O  O295  1  0.49809545  0.48638440  0.57386796  1
  O  O296  1  0.81940978  0.00318869  0.08930307  1
  O  O297  1  0.80889735  0.01031398  0.58288887  1
  O  O298  1  0.83361106  0.48528081  0.07305812  1
  O  O299  1  0.82278494  0.49828655  0.58766689  1
  O  O300  1  -0.01031244  0.23913983  0.08327323  1
  O  O301  1  -0.01610075  0.25869490  0.57907635  1
  O  O302  1  -0.02113775  0.74826318  0.07956949  1
  O  O303  1  -0.01229555  0.76336198  0.57863757  1
  O  O304  1  0.34208367  0.25792657  0.08600201  1
  O  O305  1  0.33468253  0.25172473  0.57119747  1
  O  O306  1  0.33259781  0.74095814  0.08893829  1
  O  O307  1  0.33793839  0.75893706  0.58654286  1
  O  O308  1  0.66728781  0.24973510  0.08345945  1
  O  O309  1  0.66977973  0.25079532  0.58755186  1
  O  O310  1  0.67322038  0.75231691  0.08696836  1
  O  O311  1  0.66694411  0.74298362  0.58674706  1
  O  O312  1  0.14305233  0.00558468  0.41853068  1
  O  O313  1  0.15047305  -0.00032721  0.91371751  1
  O  O314  1  0.14546760  0.51065845  0.42294456  1
  O  O315  1  0.15518432  0.50016926  0.91157506  1
  O  O316  1  0.50018157  0.00341725  0.41490911  1
  O  O317  1  0.49740173  0.01513314  0.92151067  1
  O  O318  1  0.49210905  0.49633749  0.41478204  1
  O  O319  1  0.47655987  0.50016602  0.91431490  1
  O  O320  1  0.80712745  -0.00096449  0.41687272  1
  O  O321  1  0.82691117  -0.01358473  0.92547313  1
  O  O322  1  0.81823243  0.50176070  0.41483266  1
  O  O323  1  0.82789728  0.49943263  0.91313057  1
  O  O324  1  0.33015706  0.24421883  0.41349833  1
  O  O325  1  0.31225220  0.25113009  0.91624814  1
  O  O326  1  0.33110443  0.74044016  0.42822961  1
  O  O327  1  0.31173438  0.74851859  0.91629297  1
  O  O328  1  0.65728017  0.25201306  0.41714142  1
  O  O329  1  0.65477817  0.25809472  0.91658522  1
  O  O330  1  0.64941341  0.74778391  0.41656532  1
  O  O331  1  0.65860090  0.74044552  0.91787153  1
  O  O332  1  0.96688258  0.24523691  0.41822074  1
  O  O333  1  0.99744035  0.25372771  0.91422967  1
  O  O334  1  0.97725612  0.75428162  0.41611092  1
  O  O335  1  0.99490500  0.74696562  0.91317172  1
  O  O336  1  0.20888821  0.08488253  0.19341630  1
  O  O337  1  0.20798249  0.08324299  0.69272810  1
  O  O338  1  0.21385844  0.57992137  0.20225068  1
  O  O339  1  0.21027459  0.59010972  0.69051826  1
  O  O340  1  0.54237524  0.08202788  0.19988289  1
  O  O341  1  0.55284365  0.09073468  0.69472454  1
  O  O342  1  0.54580520  0.58260341  0.19685241  1
  O  O343  1  0.54804068  0.58335286  0.70137472  1
  O  O344  1  0.87622013  0.08147659  0.19688183  1
  O  O345  1  0.87631665  0.08471928  0.69408803  1
  O  O346  1  0.87489599  0.58376861  0.19975909  1
  O  O347  1  0.87715186  0.58180561  0.69305359  1
  O  O348  1  0.04418384  0.32036723  0.19093743  1
  O  O349  1  0.03887746  0.33485316  0.69068205  1
  O  O350  1  0.04480219  0.83726021  0.20172005  1
  O  O351  1  0.04216996  0.83561921  0.69348765  1
  O  O352  1  0.37880248  0.33745934  0.19451411  1
  O  O353  1  0.38249791  0.32419669  0.68775422  1
  O  O354  1  0.37846319  0.82902580  0.19511921  1
  O  O355  1  0.37609311  0.83508830  0.69809669  1
  O  O356  1  0.70660059  0.33279165  0.19446090  1
  O  O357  1  0.71160605  0.33390137  0.69630300  1
  O  O358  1  0.71104664  0.83355558  0.19579990  1
  O  O359  1  0.70948760  0.82941849  0.69480160  1
  O  O360  1  0.21339428  0.41080538  0.19681864  1
  O  O361  1  0.20052846  0.41919064  0.69618653  1
  O  O362  1  0.21103775  0.91808155  0.20071001  1
  O  O363  1  0.20932095  0.91594670  0.69834533  1
  O  O364  1  0.54640604  0.41795345  0.19592825  1
  O  O365  1  0.54758068  0.41279070  0.69072646  1
  O  O366  1  0.54452913  0.91449613  0.20279339  1
  O  O367  1  0.55134534  0.90744055  0.69812671  1
  O  O368  1  0.86226560  0.41441915  0.19131181  1
  O  O369  1  0.87551708  0.41630711  0.69521348  1
  O  O370  1  0.87560147  0.92000106  0.19658355  1
  O  O371  1  0.87540350  0.91665286  0.70273638  1
  O  O372  1  0.04022530  0.16250460  0.19571501  1
  O  O373  1  0.04372850  0.16677576  0.70066982  1
  O  O374  1  0.03234775  0.66952038  0.19005285  1
  O  O375  1  0.04357215  0.66802197  0.69920439  1
  O  O376  1  0.37612867  0.16893389  0.19371362  1
  O  O377  1  0.37911750  0.16553074  0.69978026  1
  O  O378  1  0.37908388  0.66133426  0.19696820  1
  O  O379  1  0.37747744  0.67400979  0.69449392  1
  O  O380  1  0.70610509  0.16890209  0.19238247  1
  O  O381  1  0.71193316  0.17032803  0.69784612  1
  O  O382  1  0.70984290  0.66663333  0.19397577  1
  O  O383  1  0.71135626  0.66281628  0.69476932  1
  O  O384  1  0.12306092  0.08479235  0.30620425  1
  O  O385  1  0.12389442  0.08335503  0.80513751  1
  O  O386  1  0.11633616  0.58728141  0.30666892  1
  O  O387  1  0.12360990  0.58422389  0.80271388  1
  O  O388  1  0.45727060  0.08544675  0.30517458  1
  O  O389  1  0.45200105  0.09344942  0.80913363  1
  O  O390  1  0.46273567  0.58212869  0.30711647  1
  O  O391  1  0.45226641  0.58835735  0.80602794  1
  O  O392  1  0.78776451  0.08092551  0.30593464  1
  O  O393  1  0.79092549  0.08372890  0.80183144  1
  O  O394  1  0.78749299  0.58525859  0.30585632  1
  O  O395  1  0.79331931  0.58256284  0.80391921  1
  O  O396  1  0.29591577  0.32979385  0.30689768  1
  O  O397  1  0.28795831  0.32728041  0.80335631  1
  O  O398  1  0.29138310  0.83293953  0.30274900  1
  O  O399  1  0.28692077  0.83407328  0.80896094  1
  O  O400  1  0.62404741  0.33419959  0.30531126  1
  O  O401  1  0.62651653  0.33671706  0.80607505  1
  O  O402  1  0.62534253  0.82918109  0.30629141  1
  O  O403  1  0.62677415  0.82799403  0.80981003  1
  O  O404  1  0.95011041  0.32620823  0.30838354  1
  O  O405  1  0.95876210  0.33540052  0.80389623  1
  O  O406  1  0.95247935  0.83716062  0.30681255  1
  O  O407  1  0.95731302  0.82981561  0.80403757  1
  O  O408  1  0.13240694  0.41424669  0.30212008  1
  O  O409  1  0.12196563  0.41711180  0.80289575  1
  O  O410  1  0.12253452  0.92122274  0.31060822  1
  O  O411  1  0.11981283  0.91786698  0.80397841  1
  O  O412  1  0.46270771  0.41430680  0.30545921  1
  O  O413  1  0.46624365  0.41683248  0.80433199  1
  O  O414  1  0.45642456  0.91583097  0.30861460  1
  O  O415  1  0.45100759  0.90836145  0.80647907  1
  O  O416  1  0.78902886  0.41822266  0.30506976  1
  O  O417  1  0.79370628  0.41609860  0.80462154  1
  O  O418  1  0.78830361  0.91579658  0.30644723  1
  O  O419  1  0.79026649  0.91170271  0.80932726  1
  O  O420  1  0.29111549  0.16402242  0.30384524  1
  O  O421  1  0.28520765  0.16728526  0.80541896  1
  O  O422  1  0.30442592  0.66660005  0.31076087  1
  O  O423  1  0.28988770  0.66911034  0.80470457  1
  O  O424  1  0.62099800  0.17265595  0.30664270  1
  O  O425  1  0.62477291  0.16985112  0.80901354  1
  O  O426  1  0.62511604  0.66517508  0.30648234  1
  O  O427  1  0.62618270  0.66387933  0.80633024  1
  O  O428  1  0.95858000  0.16524099  0.30674231  1
  O  O429  1  0.95706647  0.16818333  0.80773755  1
  O  O430  1  0.95528505  0.67213826  0.30551268  1
  O  O431  1  0.95519859  0.66520738  0.80401890  1
  F  F432  1  0.04526015  0.00218630  0.20561407  1
  F  F433  1  0.04444228  0.00114613  0.70316817  1
  F  F434  1  0.04022947  0.50974798  0.19125748  1
  F  F435  1  0.04397594  0.50190254  0.70064077  1
  F  F436  1  0.37950107  -0.00093219  0.20482970  1
  F  F437  1  0.36677763  -0.00047517  0.70173185  1
  F  F438  1  0.38314539  0.49860013  0.20413483  1
  F  F439  1  0.38099214  0.51590996  0.69208968  1
  F  F440  1  0.71167087  -0.00419355  0.20222539  1
  F  F441  1  0.71070168  -0.00338862  0.70449598  1
  F  F442  1  0.71008086  0.50051891  0.20251100  1
  F  F443  1  0.71496744  0.49809420  0.70168315  1
  F  F444  1  0.21344191  0.24729718  0.20288148  1
  F  F445  1  0.21108601  0.24935228  0.69923425  1
  F  F446  1  0.21193040  0.74992629  0.20353503  1
  F  F447  1  0.21358146  0.75376204  0.70436743  1
  F  F448  1  0.54543943  0.25248536  0.20100345  1
  F  F449  1  0.55002243  0.25103840  0.70501101  1
  F  F450  1  0.54742253  0.74625253  0.20443958  1
  F  F451  1  0.54576404  0.74950138  0.70571194  1
  F  F452  1  0.87773049  0.25169604  0.20126631  1
  F  F453  1  0.87771040  0.25048403  0.70477118  1
  F  F454  1  0.87677135  0.75316280  0.20353396  1
  F  F455  1  0.87717234  0.74909379  0.70145434  1
  F  F456  1  0.28938842  0.00415052  0.29958122  1
  F  F457  1  0.28402504  0.00249369  0.80062637  1
  F  F458  1  0.31048540  0.49781906  0.31002034  1
  F  F459  1  0.28404495  0.51332675  0.79919081  1
  F  F460  1  0.62074137  -0.00790282  0.30782890  1
  F  F461  1  0.63609251  -0.00073644  0.80634308  1
  F  F462  1  0.62356175  0.49980908  0.29956209  1
  F  F463  1  0.63772863  0.49834549  0.80502638  1
  F  F464  1  0.95293084  0.00010058  0.30073995  1
  F  F465  1  0.95676949  0.00233829  0.79986673  1
  F  F466  1  0.94917488  0.50844256  0.30383229  1
  F  F467  1  0.95602007  0.50014830  0.79649343  1
  F  F468  1  0.12112360  0.24697594  0.29768360  1
  F  F469  1  0.12201821  0.25403887  0.79648722  1
  F  F470  1  0.11799151  0.75599734  0.30394780  1
  F  F471  1  0.12088615  0.75196240  0.79854407  1
  F  F472  1  0.45580949  0.24975508  0.29616927  1
  F  F473  1  0.45643945  0.25460663  0.79838872  1
  F  F474  1  0.45839819  0.74895388  0.29945714  1
  F  F475  1  0.45631045  0.74740926  0.80084888  1
  F  F476  1  0.78272175  0.25602219  0.30168934  1
  F  F477  1  0.79019127  0.25241614  0.80104408  1
  F  F478  1  0.78732715  0.74984072  0.29834352  1
  F  F479  1  0.78880305  0.74676281  0.79719708  1
