# generated using pymatgen
data_K24Na3Li5Mg64Fe17Si79(O5F)48
_symmetry_space_group_name_H-M   'P 1'
_cell_length_a   16.09154262
_cell_length_b   18.58014219
_cell_length_c   20.54581261
_cell_angle_alpha   89.98558689
_cell_angle_beta   100.00312155
_cell_angle_gamma   90.01496669
_symmetry_Int_Tables_number   1
_chemical_formula_structural   K24Na3Li5Mg64Fe17Si79(O5F)48
_chemical_formula_sum   'K24 Na3 Li5 Mg64 Fe17 Si79 O240 F48'
_cell_volume   6049.46958910
_cell_formula_units_Z   1
loop_
 _symmetry_equiv_pos_site_id
 _symmetry_equiv_pos_as_xyz
  1  'x, y, z'
loop_
 _atom_site_type_symbol
 _atom_site_label
 _atom_site_symmetry_multiplicity
 _atom_site_fract_x
 _atom_site_fract_y
 _atom_site_fract_z
 _atom_site_occupancy
  K  K0  1  0.01074722  -0.00012339  -0.00095402  1
  K  K1  1  0.01243437  -0.00091339  0.50868832  1
  K  K2  1  0.00802448  0.50094821  -0.00272359  1
  K  K3  1  0.01134194  0.50121093  0.50750043  1
  K  K4  1  0.33517178  -0.00649391  -0.00236802  1
  K  K5  1  0.32633037  0.00184992  0.50289995  1
  K  K6  1  0.33042606  0.49929620  -0.00475215  1
  K  K7  1  0.34417790  0.50228893  0.50506229  1
  K  K8  1  0.66414553  -0.00302624  -0.00028430  1
  K  K9  1  0.66075038  -0.00194926  0.50593048  1
  K  K10  1  0.66333144  0.50066311  -0.00032558  1
  K  K11  1  0.66363138  0.49506285  0.50199724  1
  K  K12  1  0.17608233  0.25219225  -0.00814236  1
  K  K13  1  0.17553721  0.25172381  0.50675418  1
  K  K14  1  0.17677354  0.74700097  -0.00511806  1
  K  K15  1  0.17838564  0.75460935  0.51343655  1
  K  K16  1  0.48581784  0.24904968  -0.00855979  1
  K  K17  1  0.49740630  0.25443830  0.50232935  1
  K  K18  1  0.49499848  0.75419016  -0.00349216  1
  K  K19  1  0.49444345  0.75068611  0.50236194  1
  K  K20  1  0.83792733  0.24058726  -0.01068057  1
  K  K21  1  0.83249661  0.25234676  0.51501889  1
  K  K22  1  0.83209034  0.75233415  -0.00020451  1
  K  K23  1  0.83316281  0.74473552  0.49763767  1
  Na  Na24  1  0.66841829  0.74940385  0.25123794  1
  Na  Na25  1  0.33413898  0.92029304  0.24722668  1
  Na  Na26  1  0.66278048  0.91984608  0.74904776  1
  Li  Li27  1  0.34114860  0.74492165  0.76267109  1
  Li  Li28  1  0.16790871  0.49985761  0.75087314  1
  Li  Li29  1  0.49082676  0.66790759  0.75331328  1
  Li  Li30  1  0.83149641  0.17389742  0.74337513  1
  Li  Li31  1  0.83134875  0.32472540  0.74221217  1
  Mg  Mg32  1  0.33264128  0.25041649  0.25688719  1
  Mg  Mg33  1  0.49929970  0.50279196  0.25432362  1
  Mg  Mg34  1  0.82913784  0.00183593  0.74663933  1
  Mg  Mg35  1  0.16808662  0.00074782  0.25008785  1
  Mg  Mg36  1  0.49789512  0.00065628  0.75313864  1
  Mg  Mg37  1  0.00070158  0.24846651  0.24770071  1
  Mg  Mg38  1  0.50220418  -0.00143811  0.25064377  1
  Mg  Mg39  1  0.83250303  0.49675088  0.74424404  1
  Mg  Mg40  1  0.16640472  -0.00106148  0.75095681  1
  Mg  Mg41  1  -0.00732546  0.25181304  0.74332420  1
  Mg  Mg42  1  0.83279821  0.50066989  0.25192412  1
  Mg  Mg43  1  0.66087426  0.74965662  0.74759296  1
  Mg  Mg44  1  0.83471920  -0.00149987  0.24705766  1
  Mg  Mg45  1  0.67354409  0.24993542  0.74757703  1
  Mg  Mg46  1  0.33714980  0.75149801  0.24964921  1
  Mg  Mg47  1  0.50041708  0.50207097  0.75031656  1
  Mg  Mg48  1  0.16799108  0.50134111  0.24866775  1
  Mg  Mg49  1  0.66667219  0.24954383  0.25156107  1
  Mg  Mg50  1  -0.00093160  0.74938916  0.74812561  1
  Mg  Mg51  1  0.33081710  0.25093739  0.75308782  1
  Mg  Mg52  1  0.00175603  0.75020336  0.24618384  1
  Mg  Mg53  1  0.83061640  0.66602844  0.74837986  1
  Mg  Mg54  1  0.66649611  0.91457088  0.24958994  1
  Mg  Mg55  1  0.16501674  0.33670628  0.74922469  1
  Mg  Mg56  1  0.33281681  0.91187334  0.75131142  1
  Mg  Mg57  1  0.16646403  0.33458899  0.25249859  1
  Mg  Mg58  1  0.66428643  0.58469141  0.25124518  1
  Mg  Mg59  1  0.50045245  0.16649074  0.75212200  1
  Mg  Mg60  1  0.66344007  0.58447287  0.74833328  1
  Mg  Mg61  1  0.66658204  0.08555480  0.74668509  1
  Mg  Mg62  1  0.49996390  0.16494664  0.25337516  1
  Mg  Mg63  1  0.82932247  0.83417899  0.74858208  1
  Mg  Mg64  1  0.50171159  0.66641874  0.25245996  1
  Mg  Mg65  1  0.16753998  0.83430305  0.24781560  1
  Mg  Mg66  1  0.66431845  0.41523290  0.25091229  1
  Mg  Mg67  1  0.16831979  0.66626628  0.24723310  1
  Mg  Mg68  1  0.33356431  0.08565303  0.25424968  1
  Mg  Mg69  1  0.00171892  0.58175452  0.74926004  1
  Mg  Mg70  1  0.33088400  0.41727293  0.75141584  1
  Mg  Mg71  1  0.83303917  0.33369442  0.24973382  1
  Mg  Mg72  1  0.16706114  0.16574741  0.25160587  1
  Mg  Mg73  1  0.33469281  0.41672529  0.25485186  1
  Mg  Mg74  1  0.33295478  0.08494782  0.75236127  1
  Mg  Mg75  1  0.00221249  0.91466195  0.24742977  1
  Mg  Mg76  1  0.50203281  0.83439025  0.25121548  1
  Mg  Mg77  1  0.00121762  0.08447780  0.24919453  1
  Mg  Mg78  1  0.83422797  0.16536841  0.24792365  1
  Mg  Mg79  1  0.83409453  0.83250912  0.24900241  1
  Mg  Mg80  1  -0.00430357  0.08528141  0.74667026  1
  Mg  Mg81  1  0.83331560  0.66563740  0.25248976  1
  Mg  Mg82  1  0.49898273  0.33533728  0.25320154  1
  Mg  Mg83  1  0.17126401  0.83111313  0.74980125  1
  Mg  Mg84  1  0.66716255  0.08358631  0.24873956  1
  Mg  Mg85  1  0.50237068  0.33474326  0.74985321  1
  Mg  Mg86  1  0.17079538  0.66540649  0.75231277  1
  Mg  Mg87  1  -0.00123505  0.41559636  0.74518567  1
  Mg  Mg88  1  0.49650884  0.83006165  0.74910165  1
  Mg  Mg89  1  -0.00075364  0.41614709  0.24914608  1
  Mg  Mg90  1  0.00170555  0.58483988  0.24845275  1
  Mg  Mg91  1  0.67026049  0.41459260  0.74582020  1
  Mg  Mg92  1  0.33406519  0.58535952  0.75371781  1
  Mg  Mg93  1  0.33366167  0.58601115  0.25249928  1
  Mg  Mg94  1  -0.00121906  0.91552769  0.74791394  1
  Mg  Mg95  1  0.16555880  0.16727293  0.74916592  1
  Fe  Fe96  1  0.47696924  0.41986747  0.39365798  1
  Fe  Fe97  1  0.30928161  0.34112025  0.89202956  1
  Fe  Fe98  1  0.48242545  0.08297626  0.89183532  1
  Fe  Fe99  1  0.02668307  0.33625413  0.60571863  1
  Fe  Fe100  1  0.31140794  0.83432137  0.89216592  1
  Fe  Fe101  1  0.31218387  0.65787022  0.89475195  1
  Fe  Fe102  1  0.30697016  0.16540634  0.39443186  1
  Fe  Fe103  1  0.19074796  0.91675193  0.60935313  1
  Fe  Fe104  1  0.53153565  0.58332471  0.10940754  1
  Fe  Fe105  1  0.02402682  0.16418180  0.10875538  1
  Fe  Fe106  1  0.30668493  0.16315496  0.89313971  1
  Fe  Fe107  1  0.52685000  0.91518565  0.10891853  1
  Fe  Fe108  1  0.36272769  0.67029880  0.11210403  1
  Fe  Fe109  1  0.19495240  0.58007620  0.10946267  1
  Fe  Fe110  1  0.02650157  0.83460351  0.10718331  1
  Fe  Fe111  1  0.69519616  0.33025697  0.60682596  1
  Fe  Fe112  1  0.64481945  0.66980400  0.39525120  1
  Si  Si113  1  0.81364587  0.92107117  0.38563910  1
  Si  Si114  1  0.86526065  0.58240067  0.11614395  1
  Si  Si115  1  0.13369425  0.91656391  0.88623831  1
  Si  Si116  1  0.80681567  0.58261281  0.88343640  1
  Si  Si117  1  0.68882001  0.15986065  0.60873511  1
  Si  Si118  1  0.81115282  0.57734493  0.38977419  1
  Si  Si119  1  0.19102948  0.08780031  0.61167578  1
  Si  Si120  1  0.85309541  0.91138351  0.61132538  1
  Si  Si121  1  0.96461856  0.16610438  0.87859364  1
  Si  Si122  1  0.64206259  0.82693511  0.88361400  1
  Si  Si123  1  0.47315345  0.59040787  0.39476585  1
  Si  Si124  1  0.85479139  0.58819728  0.61248176  1
  Si  Si125  1  0.97387010  0.16754266  0.38498256  1
  Si  Si126  1  0.97403580  0.33161944  0.38412393  1
  Si  Si127  1  0.36169808  0.16701601  0.11974073  1
  Si  Si128  1  0.64617375  0.17233497  0.88539014  1
  Si  Si129  1  0.64449271  0.66528671  0.88400233  1
  Si  Si130  1  0.01914706  0.82993460  0.61085625  1
  Si  Si131  1  0.01960642  0.33301456  0.11371411  1
  Si  Si132  1  0.01939693  0.16473026  0.60917958  1
  Si  Si133  1  0.68684354  0.83269896  0.61372639  1
  Si  Si134  1  0.96752961  0.83414009  0.88339139  1
  Si  Si135  1  0.48572381  0.41720844  0.88665378  1
  Si  Si136  1  0.30210463  0.33862186  0.39304042  1
  Si  Si137  1  0.52142745  0.08197482  0.61272014  1
  Si  Si138  1  0.81239011  0.08458264  0.38429950  1
  Si  Si139  1  0.70425642  0.66281335  0.11389167  1
  Si  Si140  1  0.64903497  0.84135860  0.39151705  1
  Si  Si141  1  0.13098474  0.58302388  0.88660621  1
  Si  Si142  1  0.19691115  0.08510524  0.11333250  1
  Si  Si143  1  0.96852508  0.66904003  0.88356707  1
  Si  Si144  1  0.64674775  0.16262106  0.38642383  1
  Si  Si145  1  0.85760625  0.41932537  0.11540290  1
  Si  Si146  1  0.19856682  0.41863839  0.61090510  1
  Si  Si147  1  0.48010101  0.91546102  0.38862343  1
  Si  Si148  1  0.80263669  0.08066408  0.88185005  1
  Si  Si149  1  0.19386944  0.92021283  0.11305992  1
  Si  Si150  1  0.97416378  0.83104291  0.38491021  1
  Si  Si151  1  0.80495937  0.91691670  0.88352098  1
  Si  Si152  1  0.48355827  0.57865798  0.88656453  1
  Si  Si153  1  0.64818798  0.33494716  0.88339970  1
  Si  Si154  1  0.35619489  0.83419566  0.11486165  1
  Si  Si155  1  0.80845148  0.42003669  0.88197354  1
  Si  Si156  1  0.02455413  0.66604593  0.11047794  1
  Si  Si157  1  0.69371171  0.16852140  0.11462673  1
  Si  Si158  1  0.35590964  0.33001192  0.11889109  1
  Si  Si159  1  0.13031273  0.41664576  0.88596268  1
  Si  Si160  1  0.68777831  0.66901044  0.61281360  1
  Si  Si161  1  0.85401864  0.07934736  0.11225157  1
  Si  Si162  1  0.97303360  0.66559040  0.38523529  1
  Si  Si163  1  0.36387585  0.33600345  0.61530496  1
  Si  Si164  1  0.12999601  0.08388965  0.88478797  1
  Si  Si165  1  0.36098429  0.83169832  0.61130510  1
  Si  Si166  1  0.35933961  0.17072127  0.61504604  1
  Si  Si167  1  0.19464995  0.58484792  0.61545714  1
  Si  Si168  1  0.52370804  0.58404970  0.61536207  1
  Si  Si169  1  0.52752699  0.41918758  0.61233232  1
  Si  Si170  1  0.51977927  0.91686646  0.61452250  1
  Si  Si171  1  0.13872979  0.58613179  0.38616181  1
  Si  Si172  1  0.13531271  0.07852755  0.38940657  1
  Si  Si173  1  0.69269634  0.33337771  0.11491650  1
  Si  Si174  1  0.14104010  0.91296374  0.38613657  1
  Si  Si175  1  0.85730670  0.07604016  0.61155265  1
  Si  Si176  1  0.85905527  0.91758606  0.11276182  1
  Si  Si177  1  0.48021279  0.08156893  0.39154207  1
  Si  Si178  1  0.52222840  0.41139867  0.11346049  1
  Si  Si179  1  0.64499018  0.32834508  0.38824501  1
  Si  Si180  1  0.18770943  0.41058375  0.11493845  1
  Si  Si181  1  0.70008840  0.83168280  0.11306709  1
  Si  Si182  1  0.80984468  0.41198841  0.38579070  1
  Si  Si183  1  0.52580212  0.08840741  0.11458360  1
  Si  Si184  1  0.02532989  0.66395667  0.61443432  1
  Si  Si185  1  0.30389778  0.66876242  0.38867254  1
  Si  Si186  1  0.13459702  0.42033809  0.38535857  1
  Si  Si187  1  0.30906763  0.83316255  0.38613455  1
  Si  Si188  1  0.86047854  0.42468023  0.60587674  1
  Si  Si189  1  0.48460883  0.91509765  0.88797586  1
  Si  Si190  1  0.35977759  0.66594771  0.61707139  1
  Si  Si191  1  0.96734613  0.33109983  0.88022605  1
  O  O192  1  0.28666576  0.11039790  0.09076737  1
  O  O193  1  0.26773980  0.13402107  0.58551058  1
  O  O194  1  0.29169577  0.59619251  0.07696689  1
  O  O195  1  0.26835412  0.62760696  0.58294382  1
  O  O196  1  0.60751496  0.12476690  0.08661845  1
  O  O197  1  0.60060424  0.11328136  0.58003291  1
  O  O198  1  0.63299626  0.60840597  0.07791510  1
  O  O199  1  0.60310741  0.62111752  0.58461143  1
  O  O200  1  0.93213910  0.10160062  0.07680483  1
  O  O201  1  0.93566281  0.11277385  0.58071694  1
  O  O202  1  0.95142748  0.60176864  0.08820972  1
  O  O203  1  0.93602275  0.62238364  0.58323778  1
  O  O204  1  0.10785133  0.35483532  0.08861198  1
  O  O205  1  0.11919579  0.37419759  0.57070170  1
  O  O206  1  0.12172888  0.86719784  0.07360461  1
  O  O207  1  0.08604623  0.87138301  0.57417908  1
  O  O208  1  0.44004544  0.35699520  0.09033338  1
  O  O209  1  0.44151186  0.37196341  0.58464771  1
  O  O210  1  0.43518407  0.85586186  0.07855967  1
  O  O211  1  0.43952809  0.86830886  0.57858262  1
  O  O212  1  0.77311004  0.37073656  0.08694552  1
  O  O213  1  0.78184969  0.37515071  0.57113502  1
  O  O214  1  0.78615400  0.85804476  0.08448690  1
  O  O215  1  0.76282902  0.87158259  0.58138571  1
  O  O216  1  0.27250403  0.37818629  0.08915895  1
  O  O217  1  0.28179738  0.38430184  0.58332581  1
  O  O218  1  0.28669914  0.90084946  0.09534560  1
  O  O219  1  0.27515591  0.86925990  0.57257968  1
  O  O220  1  0.60481774  0.37468846  0.08548517  1
  O  O221  1  0.59971284  0.38792099  0.57508113  1
  O  O222  1  0.62246302  0.87977621  0.07604821  1
  O  O223  1  0.60281693  0.88205213  0.58752461  1
  O  O224  1  0.94228213  0.39231143  0.08782543  1
  O  O225  1  0.94167343  0.40286298  0.57245745  1
  O  O226  1  0.94043536  0.90349564  0.07852771  1
  O  O227  1  0.92465665  0.86495202  0.58145091  1
  O  O228  1  0.12336099  0.13903436  0.07774996  1
  O  O229  1  0.10146471  0.12948697  0.58163990  1
  O  O230  1  0.10548042  0.64474777  0.07809957  1
  O  O231  1  0.10236091  0.62421946  0.58440793  1
  O  O232  1  0.44763459  0.14573684  0.09165648  1
  O  O233  1  0.43433522  0.12810339  0.58415759  1
  O  O234  1  0.45956062  0.65590055  0.07710063  1
  O  O235  1  0.43616744  0.62683986  0.58429505  1
  O  O236  1  0.77296926  0.13322965  0.08566789  1
  O  O237  1  0.76682699  0.11520280  0.58157639  1
  O  O238  1  0.79272912  0.64019258  0.08572552  1
  O  O239  1  0.77101104  0.63845601  0.58437166  1
  O  O240  1  0.05090696  0.11340451  0.41482605  1
  O  O241  1  0.04693366  0.11853800  0.91106789  1
  O  O242  1  0.06129178  0.62406747  0.41660655  1
  O  O243  1  0.05218064  0.62451428  0.91551234  1
  O  O244  1  0.40921958  0.11751186  0.42763134  1
  O  O245  1  0.39269034  0.10340537  0.93350918  1
  O  O246  1  0.38476054  0.61939242  0.42015005  1
  O  O247  1  0.40688676  0.59719930  0.92433980  1
  O  O248  1  0.73003061  0.11249438  0.41406060  1
  O  O249  1  0.72750640  0.11941233  0.91423650  1
  O  O250  1  0.73873956  0.60717106  0.42740053  1
  O  O251  1  0.72684247  0.61387355  0.91475110  1
  O  O252  1  0.21549055  0.37220705  0.41690679  1
  O  O253  1  0.21834270  0.38466201  0.92515180  1
  O  O254  1  0.23246734  0.87526530  0.41625106  1
  O  O255  1  0.21652006  0.87646958  0.92333015  1
  O  O256  1  0.56850068  0.35561321  0.42259640  1
  O  O257  1  0.56650050  0.36226256  0.91455590  1
  O  O258  1  0.56738885  0.87338892  0.42334314  1
  O  O259  1  0.56146000  0.85534857  0.91437204  1
  O  O260  1  0.89089199  0.35926347  0.41296441  1
  O  O261  1  0.89005893  0.36963458  0.91187379  1
  O  O262  1  0.89807093  0.87224111  0.41524877  1
  O  O263  1  0.88923494  0.86931921  0.91479162  1
  O  O264  1  0.05202400  0.38624016  0.41233282  1
  O  O265  1  0.05380559  0.37238953  0.91499619  1
  O  O266  1  0.06598219  0.86808074  0.41482234  1
  O  O267  1  0.05095587  0.88057895  0.91307478  1
  O  O268  1  0.37873422  0.39116483  0.42469852  1
  O  O269  1  0.40922560  0.39505744  0.92358017  1
  O  O270  1  0.39847500  0.87618565  0.41462610  1
  O  O271  1  0.40498847  0.89489566  0.92264040  1
  O  O272  1  0.72998780  0.37788323  0.41467927  1
  O  O273  1  0.72754852  0.38885195  0.91321182  1
  O  O274  1  0.73169078  0.89662346  0.41766821  1
  O  O275  1  0.72512082  0.87894349  0.91088752  1
  O  O276  1  0.21733452  0.11981820  0.42765477  1
  O  O277  1  0.20915078  0.12825983  0.92284084  1
  O  O278  1  0.22299432  0.63238330  0.41730252  1
  O  O279  1  0.21731739  0.61674307  0.92534009  1
  O  O280  1  0.57032426  0.12572651  0.41775911  1
  O  O281  1  0.56916056  0.15178140  0.92224692  1
  O  O282  1  0.54459378  0.64816168  0.42678055  1
  O  O283  1  0.56417536  0.63365525  0.91353958  1
  O  O284  1  0.89010636  0.13951739  0.41373634  1
  O  O285  1  0.88755276  0.12807893  0.90987427  1
  O  O286  1  0.89920094  0.62386150  0.41610460  1
  O  O287  1  0.88830678  0.63375234  0.91270650  1
  O  O288  1  0.17472581  0.00353159  0.08444238  1
  O  O289  1  0.18580437  0.01107809  0.57393924  1
  O  O290  1  0.15909321  0.48584650  0.08002922  1
  O  O291  1  0.18989680  0.50338755  0.58303249  1
  O  O292  1  0.50584904  0.01195977  0.07933369  1
  O  O293  1  0.50649049  -0.00072719  0.58294573  1
  O  O294  1  0.50302547  0.48750455  0.07747285  1
  O  O295  1  0.50884318  0.50247335  0.58472933  1
  O  O296  1  0.81962370  -0.00189478  0.08991548  1
  O  O297  1  0.84870983  -0.00689185  0.57982330  1
  O  O298  1  0.83590538  0.50110937  0.08753687  1
  O  O299  1  0.83488032  0.50926620  0.57970982  1
  O  O300  1  -0.01441926  0.25745247  0.08085311  1
  O  O301  1  0.00020290  0.24160975  0.57271167  1
  O  O302  1  -0.01530426  0.74209591  0.08044334  1
  O  O303  1  0.01363046  0.74562540  0.58337430  1
  O  O304  1  0.33436982  0.24791879  0.09118558  1
  O  O305  1  0.35377401  0.25329869  0.58491293  1
  O  O306  1  0.31177692  0.75977750  0.08562919  1
  O  O307  1  0.35594772  0.74719409  0.58462311  1
  O  O308  1  0.68501799  0.25111128  0.08579042  1
  O  O309  1  0.67933274  0.23594035  0.56988753  1
  O  O310  1  0.68680652  0.74685132  0.08937425  1
  O  O311  1  0.67083125  0.75089671  0.58202412  1
  O  O312  1  0.13913054  -0.00568922  0.41677514  1
  O  O313  1  0.13366748  0.00044058  0.91232024  1
  O  O314  1  0.14645752  0.50295535  0.41499049  1
  O  O315  1  0.12023415  0.49978961  0.91171445  1
  O  O316  1  0.49277004  -0.00213424  0.41965637  1
  O  O317  1  0.52591565  -0.00871387  0.91561849  1
  O  O318  1  0.49761124  0.51243146  0.42946923  1
  O  O319  1  0.52210108  0.49775915  0.91060243  1
  O  O320  1  0.83788690  0.00360383  0.41298589  1
  O  O321  1  0.81537010  -0.00116943  0.91503466  1
  O  O322  1  0.83338420  0.49291610  0.41454244  1
  O  O323  1  0.82763498  0.50153622  0.91447611  1
  O  O324  1  0.31518760  0.25980239  0.42731368  1
  O  O325  1  0.32619748  0.25284296  0.93343864  1
  O  O326  1  0.31645278  0.75141770  0.41984906  1
  O  O327  1  0.33283226  0.74675761  0.93400006  1
  O  O328  1  0.66908585  0.24455620  0.41348592  1
  O  O329  1  0.67742992  0.25461741  0.91171900  1
  O  O330  1  0.67714395  0.76479501  0.42545249  1
  O  O331  1  0.66727482  0.74623282  0.91562536  1
  O  O332  1  0.99643775  0.24979926  0.41240784  1
  O  O333  1  0.97260541  0.24812684  0.91008207  1
  O  O334  1  0.97808197  0.74838394  0.41447806  1
  O  O335  1  0.97789721  0.75163603  0.91240753  1
  O  O336  1  0.20882964  0.08493900  0.19448707  1
  O  O337  1  0.20691217  0.08379699  0.69221014  1
  O  O338  1  0.21153884  0.58262756  0.20256917  1
  O  O339  1  0.21059924  0.58543199  0.69441436  1
  O  O340  1  0.54672376  0.08672936  0.19605000  1
  O  O341  1  0.54134171  0.08478506  0.69245060  1
  O  O342  1  0.54471846  0.57925720  0.20198584  1
  O  O343  1  0.54516348  0.58181285  0.69461346  1
  O  O344  1  0.87596049  0.08384102  0.19368472  1
  O  O345  1  0.87786310  0.07597166  0.69070673  1
  O  O346  1  0.88002435  0.58080545  0.19703603  1
  O  O347  1  0.87405494  0.58676206  0.69289301  1
  O  O348  1  0.03910041  0.33397215  0.19519300  1
  O  O349  1  0.04444531  0.33396908  0.69673924  1
  O  O350  1  0.04488218  0.83291789  0.19960657  1
  O  O351  1  0.03620688  0.83287393  0.69151840  1
  O  O352  1  0.37423720  0.33150808  0.19962202  1
  O  O353  1  0.38018366  0.33438336  0.69528621  1
  O  O354  1  0.38268003  0.82899397  0.19509110  1
  O  O355  1  0.37805891  0.83831290  0.69040823  1
  O  O356  1  0.71093428  0.33248852  0.19573871  1
  O  O357  1  0.70936487  0.33299382  0.69694270  1
  O  O358  1  0.71829657  0.84062270  0.19316189  1
  O  O359  1  0.71295232  0.82681686  0.69237115  1
  O  O360  1  0.20779253  0.41390325  0.19651382  1
  O  O361  1  0.21193792  0.41496818  0.69048569  1
  O  O362  1  0.19689762  0.91941181  0.19277918  1
  O  O363  1  0.20772840  0.91742453  0.70013957  1
  O  O364  1  0.54515656  0.41204339  0.19452545  1
  O  O365  1  0.54483170  0.41759707  0.69316576  1
  O  O366  1  0.54791522  0.91822743  0.20103446  1
  O  O367  1  0.53065930  0.91863258  0.69328125  1
  O  O368  1  0.87524116  0.41670791  0.19615421  1
  O  O369  1  0.87843860  0.42429575  0.68631800  1
  O  O370  1  0.87935070  0.91635321  0.19435002  1
  O  O371  1  0.87292393  0.91387615  0.69153683  1
  O  O372  1  0.04489259  0.16621505  0.20119718  1
  O  O373  1  0.03943172  0.16501985  0.68988617  1
  O  O374  1  0.04291857  0.66561673  0.19282756  1
  O  O375  1  0.03933830  0.66506746  0.69428352  1
  O  O376  1  0.37945546  0.16917191  0.20036120  1
  O  O377  1  0.37773857  0.17014409  0.69469357  1
  O  O378  1  0.37942358  0.66590344  0.20534992  1
  O  O379  1  0.37570902  0.66160836  0.69533972  1
  O  O380  1  0.71163747  0.16832294  0.19561401  1
  O  O381  1  0.70290102  0.16528870  0.68837968  1
  O  O382  1  0.72098341  0.65616613  0.19398914  1
  O  O383  1  0.70837640  0.66714454  0.69302747  1
  O  O384  1  0.12123032  0.08183155  0.30869988  1
  O  O385  1  0.11813286  0.08368029  0.80351496  1
  O  O386  1  0.12039837  0.58430424  0.30606558  1
  O  O387  1  0.11638598  0.58918687  0.80670201  1
  O  O388  1  0.46146791  0.08434707  0.31073893  1
  O  O389  1  0.45422888  0.08597373  0.79942790  1
  O  O390  1  0.45450547  0.58361139  0.31374983  1
  O  O391  1  0.45904889  0.57931909  0.80662045  1
  O  O392  1  0.79313882  0.08445172  0.30377502  1
  O  O393  1  0.78444787  0.07748059  0.80271000  1
  O  O394  1  0.79313856  0.58037892  0.30871775  1
  O  O395  1  0.78948519  0.58340010  0.80301109  1
  O  O396  1  0.28701790  0.33550247  0.31113168  1
  O  O397  1  0.28727200  0.33463859  0.79966199  1
  O  O398  1  0.28590767  0.82847944  0.30721106  1
  O  O399  1  0.28806840  0.83204590  0.80104887  1
  O  O400  1  0.62637180  0.33067549  0.30695620  1
  O  O401  1  0.62579058  0.33528830  0.80341238  1
  O  O402  1  0.62692914  0.84285603  0.31201129  1
  O  O403  1  0.62127029  0.82524715  0.80447906  1
  O  O404  1  0.95561322  0.33225252  0.30347915  1
  O  O405  1  0.95313865  0.33366018  0.80091468  1
  O  O406  1  0.95705207  0.83343525  0.30493878  1
  O  O407  1  0.95203495  0.83290833  0.80272958  1
  O  O408  1  0.11942877  0.41877830  0.30478855  1
  O  O409  1  0.11750266  0.41339188  0.80611177  1
  O  O410  1  0.12363140  0.91596958  0.30619888  1
  O  O411  1  0.11749956  0.91478834  0.80512514  1
  O  O412  1  0.45698622  0.41657005  0.30169695  1
  O  O413  1  0.46214867  0.41523586  0.80561630  1
  O  O414  1  0.46716611  0.91844180  0.30966161  1
  O  O415  1  0.45971529  0.91470502  0.80655505  1
  O  O416  1  0.79124810  0.41351710  0.30503958  1
  O  O417  1  0.78821443  0.42386321  0.80294664  1
  O  O418  1  0.79485169  0.91845543  0.30531581  1
  O  O419  1  0.79729295  0.91736296  0.80434146  1
  O  O420  1  0.28697367  0.16783231  0.30262130  1
  O  O421  1  0.28614435  0.16670962  0.79968205  1
  O  O422  1  0.28657414  0.66882274  0.30892626  1
  O  O423  1  0.28690839  0.66332622  0.80387468  1
  O  O424  1  0.62672331  0.16474023  0.30575100  1
  O  O425  1  0.62539945  0.16965634  0.80459435  1
  O  O426  1  0.62147457  0.65914598  0.30606158  1
  O  O427  1  0.63152950  0.66564325  0.80454778  1
  O  O428  1  0.95423138  0.16713102  0.30449713  1
  O  O429  1  0.95413287  0.16668271  0.79929106  1
  O  O430  1  0.95857085  0.66494754  0.30496102  1
  O  O431  1  0.95191575  0.66772641  0.80305691  1
  F  F432  1  0.04517996  0.00169342  0.20369095  1
  F  F433  1  0.04360124  -0.00092054  0.70031105  1
  F  F434  1  0.04415789  0.49920372  0.20264048  1
  F  F435  1  0.04132438  0.50195923  0.69996582  1
  F  F436  1  0.38646830  0.01471205  0.20333521  1
  F  F437  1  0.37470652  -0.00003823  0.70284490  1
  F  F438  1  0.37685912  0.49994282  0.20664013  1
  F  F439  1  0.38020957  0.49836936  0.70232149  1
  F  F440  1  0.71419448  0.00221649  0.20270921  1
  F  F441  1  0.71343330  0.00754963  0.69272701  1
  F  F442  1  0.71402999  0.49605602  0.20445971  1
  F  F443  1  0.71111734  0.50338906  0.69777733  1
  F  F444  1  0.21089108  0.25296189  0.20525875  1
  F  F445  1  0.20956965  0.25001517  0.69836772  1
  F  F446  1  0.21197896  0.75053324  0.20333922  1
  F  F447  1  0.19144437  0.74788599  0.69363645  1
  F  F448  1  0.54634974  0.24960627  0.20576902  1
  F  F449  1  0.54541633  0.25030421  0.70242965  1
  F  F450  1  0.53757168  0.75088733  0.20383898  1
  F  F451  1  0.54731631  0.75561878  0.69402453  1
  F  F452  1  0.87676479  0.25059451  0.20106587  1
  F  F453  1  0.87860156  0.24846114  0.69041822  1
  F  F454  1  0.88020294  0.74787772  0.20259404  1
  F  F455  1  0.87676237  0.74953023  0.69988857  1
  F  F456  1  0.28263010  0.00951552  0.30354459  1
  F  F457  1  0.28594522  0.00193804  0.79916604  1
  F  F458  1  0.28545920  0.49784414  0.30228214  1
  F  F459  1  0.29089159  0.49924527  0.79834196  1
  F  F460  1  0.62734039  0.00444215  0.30011667  1
  F  F461  1  0.61716221  0.01162368  0.79828439  1
  F  F462  1  0.62477942  0.49449478  0.30120503  1
  F  F463  1  0.62421308  0.49910365  0.79537297  1
  F  F464  1  0.95479731  -0.00012127  0.29713200  1
  F  F465  1  0.95230813  -0.00138587  0.79466858  1
  F  F466  1  0.95558914  0.49905830  0.29884398  1
  F  F467  1  0.95069916  0.50102781  0.79557395  1
  F  F468  1  0.11921265  0.25288405  0.30069537  1
  F  F469  1  0.11689946  0.24791769  0.79484840  1
  F  F470  1  0.12056684  0.74716041  0.29889871  1
  F  F471  1  0.11563658  0.75093282  0.79742548  1
  F  F472  1  0.45735954  0.24986335  0.30228332  1
  F  F473  1  0.45585553  0.25207506  0.79812812  1
  F  F474  1  0.45591491  0.75463503  0.30463712  1
  F  F475  1  0.45948405  0.75092700  0.79900393  1
  F  F476  1  0.78953996  0.24908915  0.29790388  1
  F  F477  1  0.78784819  0.24565198  0.79833658  1
  F  F478  1  0.80484385  0.75024245  0.30378418  1
  F  F479  1  0.78777456  0.74919955  0.79688542  1
