# generated using pymatgen
data_K24Na3Li5Mg64Fe17Si79(O5F)48
_symmetry_space_group_name_H-M   'P 1'
_cell_length_a   16.11424741
_cell_length_b   18.60700241
_cell_length_c   20.56047463
_cell_angle_alpha   90.00279679
_cell_angle_beta   100.00683591
_cell_angle_gamma   89.98480191
_symmetry_Int_Tables_number   1
_chemical_formula_structural   K24Na3Li5Mg64Fe17Si79(O5F)48
_chemical_formula_sum   'K24 Na3 Li5 Mg64 Fe17 Si79 O240 F48'
_cell_volume   6071.02304185
_cell_formula_units_Z   1
loop_
 _symmetry_equiv_pos_site_id
 _symmetry_equiv_pos_as_xyz
  1  'x, y, z'
loop_
 _atom_site_type_symbol
 _atom_site_label
 _atom_site_symmetry_multiplicity
 _atom_site_fract_x
 _atom_site_fract_y
 _atom_site_fract_z
 _atom_site_occupancy
  K  K0  1  -0.00747970  0.00391278  -0.00435637  1
  K  K1  1  -0.01364796  -0.00328061  0.50729090  1
  K  K2  1  -0.01370631  0.50372551  0.00356831  1
  K  K3  1  -0.00684864  0.49435201  0.48781183  1
  K  K4  1  0.33465125  0.00282758  -0.00337899  1
  K  K5  1  0.34184545  -0.00805475  0.50693608  1
  K  K6  1  0.34256734  0.49935698  0.00088774  1
  K  K7  1  0.34454932  0.50210737  0.50470096  1
  K  K8  1  0.67820024  -0.00341362  0.00206875  1
  K  K9  1  0.67501860  -0.00669542  0.50359697  1
  K  K10  1  0.66985803  0.50685093  0.00216349  1
  K  K11  1  0.67209561  0.50043224  0.49345245  1
  K  K12  1  0.17391877  0.25939330  -0.00141185  1
  K  K13  1  0.16674444  0.26256778  0.50227021  1
  K  K14  1  0.16282968  0.74554241  -0.00075835  1
  K  K15  1  0.17614373  0.74358679  0.49836766  1
  K  K16  1  0.50585463  0.25301244  0.00053732  1
  K  K17  1  0.50761442  0.25561367  0.50156869  1
  K  K18  1  0.50545340  0.74425834  -0.00389387  1
  K  K19  1  0.50316876  0.74490337  0.50400025  1
  K  K20  1  0.83404996  0.24888439  -0.00118797  1
  K  K21  1  0.82674014  0.25415392  0.49435809  1
  K  K22  1  0.82890179  0.74405875  0.00207687  1
  K  K23  1  0.81729113  0.74954575  0.49478786  1
  Na  Na24  1  0.50475670  0.50181102  0.75357931  1
  Na  Na25  1  -0.00265611  0.08226387  0.74701610  1
  Na  Na26  1  0.83226899  0.83030818  0.24949496  1
  Li  Li27  1  0.66604731  0.74496616  0.75753472  1
  Li  Li28  1  0.66792593  0.25641580  0.24139559  1
  Li  Li29  1  0.67060838  0.41072105  0.24377313  1
  Li  Li30  1  0.66280187  0.58808832  0.75704872  1
  Li  Li31  1  -0.00541207  0.57990866  0.24999057  1
  Mg  Mg32  1  -0.00348617  0.74729891  0.75154668  1
  Mg  Mg33  1  0.83231518  -0.00098808  0.24879153  1
  Mg  Mg34  1  0.33432435  0.74952649  0.74806275  1
  Mg  Mg35  1  0.33550209  0.25334902  0.24830697  1
  Mg  Mg36  1  0.00023731  0.25212799  0.24907383  1
  Mg  Mg37  1  0.83375943  0.49757634  0.24951237  1
  Mg  Mg38  1  0.82923214  0.50032249  0.75185930  1
  Mg  Mg39  1  0.66703614  0.75130550  0.25248149  1
  Mg  Mg40  1  -0.00055654  0.74683058  0.24956185  1
  Mg  Mg41  1  0.49972800  -0.00308936  0.74799258  1
  Mg  Mg42  1  0.16687081  0.50061541  0.74976521  1
  Mg  Mg43  1  0.50024202  0.00164810  0.25188920  1
  Mg  Mg44  1  0.50643197  0.49817879  0.25283823  1
  Mg  Mg45  1  -0.00112973  0.24988080  0.75032825  1
  Mg  Mg46  1  0.16262597  -0.00100021  0.74532939  1
  Mg  Mg47  1  0.83279758  0.00054198  0.75064614  1
  Mg  Mg48  1  0.16765699  0.00069985  0.25286150  1
  Mg  Mg49  1  0.33312724  0.25060688  0.74492943  1
  Mg  Mg50  1  0.66551203  0.24961392  0.74760328  1
  Mg  Mg51  1  0.33308517  0.74891076  0.25543129  1
  Mg  Mg52  1  0.16554695  0.50140265  0.24957301  1
  Mg  Mg53  1  0.33513633  0.58394152  0.74872121  1
  Mg  Mg54  1  -0.00175017  0.08420585  0.24886349  1
  Mg  Mg55  1  0.33518299  0.41633051  0.74598785  1
  Mg  Mg56  1  0.50136015  0.66506225  0.25597215  1
  Mg  Mg57  1  0.83378815  0.66468732  0.24924799  1
  Mg  Mg58  1  0.66684032  0.41890676  0.74847639  1
  Mg  Mg59  1  0.33065486  0.08285461  0.74563171  1
  Mg  Mg60  1  0.50835504  0.33401420  0.24854981  1
  Mg  Mg61  1  0.16638238  0.66419482  0.25224424  1
  Mg  Mg62  1  0.66635745  0.08664065  0.24920637  1
  Mg  Mg63  1  0.49922700  0.16417735  0.74689888  1
  Mg  Mg64  1  0.66854035  0.58199270  0.25249498  1
  Mg  Mg65  1  0.66707429  0.91561081  0.25341934  1
  Mg  Mg66  1  0.66749735  0.91167849  0.75174893  1
  Mg  Mg67  1  0.33232104  0.91435958  0.74686346  1
  Mg  Mg68  1  0.16413163  0.83370715  0.74667041  1
  Mg  Mg69  1  0.00026959  0.41605848  0.75166027  1
  Mg  Mg70  1  -0.00306472  0.41859802  0.24870731  1
  Mg  Mg71  1  0.83097268  0.83134346  0.75286264  1
  Mg  Mg72  1  0.16622936  0.33480787  0.74781314  1
  Mg  Mg73  1  0.33382657  0.58420207  0.25315550  1
  Mg  Mg74  1  0.83511415  0.16417083  0.75028751  1
  Mg  Mg75  1  0.83594075  0.33317775  0.75175975  1
  Mg  Mg76  1  0.33508763  0.91652041  0.25579923  1
  Mg  Mg77  1  0.33479235  0.08626590  0.25306668  1
  Mg  Mg78  1  0.16681404  0.83347170  0.25346088  1
  Mg  Mg79  1  -0.00382774  0.91474139  0.74758990  1
  Mg  Mg80  1  0.49814695  0.33487181  0.74657541  1
  Mg  Mg81  1  0.16626816  0.33729036  0.24614879  1
  Mg  Mg82  1  0.82877187  0.16894701  0.24739134  1
  Mg  Mg83  1  0.82696102  0.33461584  0.24560651  1
  Mg  Mg84  1  0.33461540  0.41731514  0.24775924  1
  Mg  Mg85  1  0.66913472  0.08270444  0.74864234  1
  Mg  Mg86  1  0.50525183  0.66638854  0.75228265  1
  Mg  Mg87  1  0.50034878  0.83098847  0.74808925  1
  Mg  Mg88  1  0.50398964  0.16873167  0.25036025  1
  Mg  Mg89  1  0.82890041  0.66517617  0.75372422  1
  Mg  Mg90  1  0.16726102  0.16773690  0.25129425  1
  Mg  Mg91  1  0.16329351  0.16614137  0.74579213  1
  Mg  Mg92  1  -0.00147869  0.91578582  0.25011931  1
  Mg  Mg93  1  0.50226931  0.83471082  0.25406968  1
  Mg  Mg94  1  0.16611277  0.66616628  0.75116725  1
  Mg  Mg95  1  -0.00235723  0.58403765  0.75172707  1
  Fe  Fe96  1  0.85369898  0.08449216  0.60583923  1
  Fe  Fe97  1  0.47149260  0.58365608  0.89178698  1
  Fe  Fe98  1  0.98128543  0.33709399  0.89127404  1
  Fe  Fe99  1  0.97365165  0.66274102  0.89156123  1
  Fe  Fe100  1  0.53255196  0.41749338  0.11239937  1
  Fe  Fe101  1  0.31087302  0.66315950  0.39358664  1
  Fe  Fe102  1  0.68464494  0.83793976  0.11041491  1
  Fe  Fe103  1  0.81299161  0.08671729  0.89066899  1
  Fe  Fe104  1  0.36011695  0.33132025  0.60472459  1
  Fe  Fe105  1  0.64124582  0.83286853  0.88978927  1
  Fe  Fe106  1  0.85860928  0.58733599  0.11123257  1
  Fe  Fe107  1  0.68676618  0.16420488  0.10861251  1
  Fe  Fe108  1  0.80805749  0.41528975  0.38916672  1
  Fe  Fe109  1  0.35726596  0.83451254  0.60729941  1
  Fe  Fe110  1  0.86104896  0.41277332  0.10622699  1
  Fe  Fe111  1  0.19639195  0.41883998  0.10912846  1
  Fe  Fe112  1  0.64069563  0.83560320  0.39559092  1
  Si  Si113  1  0.51675367  0.08131768  0.11357341  1
  Si  Si114  1  0.18377399  0.91841752  0.61004623  1
  Si  Si115  1  0.03268602  0.32802670  0.11161240  1
  Si  Si116  1  0.69257182  0.66461056  0.61750271  1
  Si  Si117  1  0.81160189  0.58679887  0.38887188  1
  Si  Si118  1  0.14843330  0.42283169  0.88527866  1
  Si  Si119  1  0.35696474  0.16808210  0.11626975  1
  Si  Si120  1  0.18700090  0.08306525  0.61129139  1
  Si  Si121  1  0.03004438  0.83757586  0.11582842  1
  Si  Si122  1  0.52166770  0.58526449  0.11741589  1
  Si  Si123  1  0.30538259  0.33011474  0.88279458  1
  Si  Si124  1  0.53191257  0.41851094  0.61077607  1
  Si  Si125  1  0.81125047  0.08484670  0.38562727  1
  Si  Si126  1  0.97373348  0.67113423  0.38629098  1
  Si  Si127  1  0.51645552  0.92116940  0.11516730  1
  Si  Si128  1  0.02794808  0.17296084  0.60943496  1
  Si  Si129  1  0.97735758  0.16527723  0.38468160  1
  Si  Si130  1  0.81275374  0.92108962  0.38913092  1
  Si  Si131  1  0.85717461  0.58319204  0.61455407  1
  Si  Si132  1  0.19019526  0.58370700  0.61471101  1
  Si  Si133  1  0.47985135  0.57512551  0.39017417  1
  Si  Si134  1  0.14396224  0.58316681  0.88549207  1
  Si  Si135  1  0.46790892  0.91846205  0.88583705  1
  Si  Si136  1  0.86009333  0.41850786  0.61521173  1
  Si  Si137  1  0.13765276  0.91769491  0.88284691  1
  Si  Si138  1  0.30603840  0.17053901  0.38674850  1
  Si  Si139  1  0.19480458  0.08375084  0.11713200  1
  Si  Si140  1  0.64200907  0.66337612  0.39004642  1
  Si  Si141  1  0.02838314  0.16365891  0.11616899  1
  Si  Si142  1  0.63957378  0.32714531  0.38697715  1
  Si  Si143  1  0.36147887  0.66993404  0.11896607  1
  Si  Si144  1  0.02489186  0.33680517  0.61266072  1
  Si  Si145  1  0.69510928  0.82902131  0.61712348  1
  Si  Si146  1  0.14281126  0.08094023  0.88171010  1
  Si  Si147  1  0.36560797  0.33177251  0.11177091  1
  Si  Si148  1  0.35526671  0.15771831  0.60859848  1
  Si  Si149  1  0.98341372  0.17114025  0.88945547  1
  Si  Si150  1  0.30351070  0.16537443  0.88132066  1
  Si  Si151  1  0.97922614  0.83520799  0.38643911  1
  Si  Si152  1  0.68567354  0.17248983  0.60953271  1
  Si  Si153  1  0.52856718  0.58571322  0.61628607  1
  Si  Si154  1  0.30300183  0.67142023  0.88661804  1
  Si  Si155  1  0.85635644  0.91120830  0.61188346  1
  Si  Si156  1  0.64175527  0.16273284  0.38681605  1
  Si  Si157  1  0.86238499  0.08269995  0.11275960  1
  Si  Si158  1  0.63680563  0.16458333  0.88404094  1
  Si  Si159  1  0.97980859  0.32932297  0.38711436  1
  Si  Si160  1  0.53179462  0.91736449  0.61108641  1
  Si  Si161  1  0.19459904  0.58822233  0.11349111  1
  Si  Si162  1  0.13664957  0.58268838  0.38826826  1
  Si  Si163  1  0.35833745  0.83369781  0.11937677  1
  Si  Si164  1  0.63671505  0.33044070  0.88178029  1
  Si  Si165  1  0.47120827  0.40934535  0.88590508  1
  Si  Si166  1  0.69499112  0.33767093  0.61415686  1
  Si  Si167  1  0.18909246  0.41919071  0.61097885  1
  Si  Si168  1  0.02436840  0.66493637  0.61403832  1
  Si  Si169  1  0.69414608  0.33100070  0.10597903  1
  Si  Si170  1  0.47334510  0.08912280  0.38792993  1
  Si  Si171  1  0.80280943  0.41225172  0.88581354  1
  Si  Si172  1  0.03361069  0.67321393  0.11484535  1
  Si  Si173  1  0.30562565  0.33561398  0.38468403  1
  Si  Si174  1  0.46963266  0.92402342  0.39097794  1
  Si  Si175  1  0.64206554  0.66503633  0.89086277  1
  Si  Si176  1  0.13969208  0.41697114  0.38486549  1
  Si  Si177  1  0.14299194  0.08307440  0.38690218  1
  Si  Si178  1  0.47488425  0.40941970  0.38537139  1
  Si  Si179  1  0.30133600  0.83667370  0.88322325  1
  Si  Si180  1  0.46951136  0.08437481  0.88176717  1
  Si  Si181  1  0.86388599  0.91807606  0.11331280  1
  Si  Si182  1  0.68395287  0.66877123  0.11460577  1
  Si  Si183  1  0.30746890  0.83653412  0.38971670  1
  Si  Si184  1  0.52672537  0.08276002  0.61275529  1
  Si  Si185  1  0.14137083  0.91812384  0.38769878  1
  Si  Si186  1  0.02266982  0.82945068  0.61383542  1
  Si  Si187  1  0.80325688  0.57846716  0.88696377  1
  Si  Si188  1  0.97680366  0.83287499  0.88602578  1
  Si  Si189  1  0.35738619  0.66309814  0.61147401  1
  Si  Si190  1  0.81344516  0.91687844  0.88814825  1
  Si  Si191  1  0.19553955  0.91865632  0.11835341  1
  O  O192  1  0.27539214  0.11555782  0.08743700  1
  O  O193  1  0.27191872  0.10605978  0.58235966  1
  O  O194  1  0.28092346  0.61933906  0.08821743  1
  O  O195  1  0.27083405  0.61427387  0.58462863  1
  O  O196  1  0.59481620  0.09949921  0.07742045  1
  O  O197  1  0.59201670  0.13534840  0.58258847  1
  O  O198  1  0.60620488  0.61060630  0.08958586  1
  O  O199  1  0.60465056  0.62363977  0.58281944  1
  O  O200  1  0.95174535  0.10838345  0.08899250  1
  O  O201  1  0.94866481  0.12543657  0.57512102  1
  O  O202  1  0.95563300  0.62540095  0.08020981  1
  O  O203  1  0.93739769  0.62004702  0.58526404  1
  O  O204  1  0.12010181  0.34332820  0.08465280  1
  O  O205  1  0.10040109  0.37611798  0.58184167  1
  O  O206  1  0.11182598  0.87254601  0.08760078  1
  O  O207  1  0.09838653  0.86972454  0.58366343  1
  O  O208  1  0.45090490  0.34520005  0.08257707  1
  O  O209  1  0.45134815  0.37344194  0.57205079  1
  O  O210  1  0.43725993  0.86489691  0.08794533  1
  O  O211  1  0.44523975  0.88141175  0.57338643  1
  O  O212  1  0.78063992  0.34258194  0.07545565  1
  O  O213  1  0.77725158  0.36960927  0.58554829  1
  O  O214  1  0.78595156  0.86793244  0.08182918  1
  O  O215  1  0.77333633  0.86121450  0.58370369  1
  O  O216  1  0.29292728  0.38684798  0.07718420  1
  O  O217  1  0.26094013  0.38538219  0.57420440  1
  O  O218  1  0.27582454  0.88449693  0.08960603  1
  O  O219  1  0.25885348  0.89035981  0.57408674  1
  O  O220  1  0.62809360  0.39541373  0.07636949  1
  O  O221  1  0.61619753  0.38918447  0.58174997  1
  O  O222  1  0.59516427  0.90412323  0.07956761  1
  O  O223  1  0.61137276  0.87666145  0.58571335  1
  O  O224  1  0.96052861  0.38158287  0.07649215  1
  O  O225  1  0.93868009  0.38258929  0.58482232  1
  O  O226  1  0.94997156  0.88871888  0.08628725  1
  O  O227  1  0.93518551  0.87075300  0.58354985  1
  O  O228  1  0.11152037  0.13151253  0.08774522  1
  O  O229  1  0.11303525  0.14087589  0.58227404  1
  O  O230  1  0.12140630  0.64894190  0.08819526  1
  O  O231  1  0.10468975  0.63066019  0.58464604  1
  O  O232  1  0.43676709  0.13663269  0.08575517  1
  O  O233  1  0.43188731  0.11290131  0.58250605  1
  O  O234  1  0.44569632  0.64549652  0.09075552  1
  O  O235  1  0.43677509  0.62352910  0.58419657  1
  O  O236  1  0.78617229  0.13234171  0.07764203  1
  O  O237  1  0.75342377  0.13544991  0.57082438  1
  O  O238  1  0.76449850  0.64717394  0.08129991  1
  O  O239  1  0.77063828  0.62732953  0.58405411  1
  O  O240  1  0.06216240  0.11686335  0.41507460  1
  O  O241  1  0.06120235  0.11000984  0.91035131  1
  O  O242  1  0.05581643  0.62066912  0.41587121  1
  O  O243  1  0.06398239  0.59829761  0.92066010  1
  O  O244  1  0.39773942  0.13373635  0.41625010  1
  O  O245  1  0.38863598  0.11914101  0.91053654  1
  O  O246  1  0.40886064  0.61010637  0.42748643  1
  O  O247  1  0.37785195  0.62309627  0.92576315  1
  O  O248  1  0.73070614  0.11916887  0.41505813  1
  O  O249  1  0.71233220  0.11448835  0.91998689  1
  O  O250  1  0.73287339  0.62436041  0.41855286  1
  O  O251  1  0.71815023  0.60503629  0.91304108  1
  O  O252  1  0.23163162  0.37889022  0.41410534  1
  O  O253  1  0.22696851  0.36651635  0.91203317  1
  O  O254  1  0.22522811  0.87150207  0.41694245  1
  O  O255  1  0.21895745  0.86681405  0.91332573  1
  O  O256  1  0.55469375  0.35814668  0.41580060  1
  O  O257  1  0.55423821  0.35770703  0.91136482  1
  O  O258  1  0.55223574  0.88350849  0.42850221  1
  O  O259  1  0.54373973  0.86941808  0.92175701  1
  O  O260  1  0.90848368  0.36243490  0.42428874  1
  O  O261  1  0.88006823  0.36150379  0.91973409  1
  O  O262  1  0.90176684  0.87564581  0.41430351  1
  O  O263  1  0.89281379  0.86005138  0.91360099  1
  O  O264  1  0.07055683  0.37034612  0.41714262  1
  O  O265  1  0.06919880  0.40430893  0.92026426  1
  O  O266  1  0.06356132  0.88320843  0.41867447  1
  O  O267  1  0.05474864  0.89156804  0.91220176  1
  O  O268  1  0.39448913  0.37501502  0.41556622  1
  O  O269  1  0.39272471  0.36951307  0.91557756  1
  O  O270  1  0.38423155  0.89323815  0.41538393  1
  O  O271  1  0.37938631  0.89143526  0.91112658  1
  O  O272  1  0.71896155  0.37248713  0.42566608  1
  O  O273  1  0.71691741  0.38144599  0.91070331  1
  O  O274  1  0.74272213  0.88569028  0.42710500  1
  O  O275  1  0.73267215  0.89454631  0.92071731  1
  O  O276  1  0.22996979  0.12823617  0.41594218  1
  O  O277  1  0.22740981  0.12813584  0.91354649  1
  O  O278  1  0.21978613  0.62304249  0.42791870  1
  O  O279  1  0.21459926  0.64606451  0.91086243  1
  O  O280  1  0.56415891  0.12539048  0.41947177  1
  O  O281  1  0.54949972  0.13622442  0.90935261  1
  O  O282  1  0.57110950  0.61329768  0.41816501  1
  O  O283  1  0.56541722  0.63806071  0.92803700  1
  O  O284  1  0.89649341  0.13274075  0.41426923  1
  O  O285  1  0.90617621  0.14502236  0.92535215  1
  O  O286  1  0.89390742  0.63949366  0.41749515  1
  O  O287  1  0.88073952  0.62760192  0.92480658  1
  O  O288  1  0.18143531  0.00099512  0.08882402  1
  O  O289  1  0.15836786  0.00202837  0.58423559  1
  O  O290  1  0.16868376  0.51279186  0.07674799  1
  O  O291  1  0.17027983  0.50263425  0.58535299  1
  O  O292  1  0.47678081  0.00114744  0.09071820  1
  O  O293  1  0.53476307  0.00161552  0.58342803  1
  O  O294  1  0.48917053  0.50967432  0.08408683  1
  O  O295  1  0.52016998  0.50296936  0.58631244  1
  O  O296  1  0.84891863  0.00039012  0.08304185  1
  O  O297  1  0.84372263  -0.01215490  0.57446187  1
  O  O298  1  0.83298843  0.50118806  0.06752493  1
  O  O299  1  0.84707893  0.50045982  0.58456106  1
  O  O300  1  0.00595319  0.24348157  0.08718425  1
  O  O301  1  0.01551488  0.25626643  0.57970201  1
  O  O302  1  0.01793437  0.75707858  0.08520669  1
  O  O303  1  0.01346036  0.74704557  0.58418696  1
  O  O304  1  0.33217827  0.24808082  0.08765472  1
  O  O305  1  0.34174646  0.23489534  0.57248519  1
  O  O306  1  0.33693994  0.75229010  0.09096063  1
  O  O307  1  0.34073636  0.74003656  0.57452249  1
  O  O308  1  0.65334918  0.25425834  0.07453693  1
  O  O309  1  0.67429970  0.25691681  0.58295618  1
  O  O310  1  0.64745264  0.74569414  0.08378408  1
  O  O311  1  0.68142708  0.74714256  0.58683212  1
  O  O312  1  0.15715800  0.00096755  0.41613383  1
  O  O313  1  0.16226169  -0.00105298  0.91198155  1
  O  O314  1  0.13905324  0.49808771  0.41568758  1
  O  O315  1  0.18590304  0.50361690  0.90741834  1
  O  O316  1  0.47260285  0.00817048  0.41806837  1
  O  O317  1  0.48023597  0.00322503  0.91294109  1
  O  O318  1  0.49172985  0.49046360  0.41611345  1
  O  O319  1  0.48555366  0.48666272  0.92063299  1
  O  O320  1  0.83108059  0.00468758  0.41828748  1
  O  O321  1  0.84739112  -0.00577832  0.91883232  1
  O  O322  1  0.82923298  0.50970823  0.42537389  1
  O  O323  1  0.81897786  0.49456098  0.91322433  1
  O  O324  1  0.30757294  0.25298940  0.41505097  1
  O  O325  1  0.31355674  0.24683861  0.91141569  1
  O  O326  1  0.32779822  0.75955696  0.42381931  1
  O  O327  1  0.31916961  0.75588721  0.91348496  1
  O  O328  1  0.65145974  0.24357315  0.41847270  1
  O  O329  1  0.65372340  0.24799713  0.91009785  1
  O  O330  1  0.64477785  0.74044414  0.42763479  1
  O  O331  1  0.67436257  0.74219019  0.92448033  1
  O  O332  1  0.99808153  0.24544166  0.41518119  1
  O  O333  1  1.02271425  0.24626015  0.92202733  1
  O  O334  1  0.99189371  0.75359195  0.41818687  1
  O  O335  1  1.00801407  0.75709605  0.92019942  1
  O  O336  1  0.21191322  0.08364131  0.19775950  1
  O  O337  1  0.20733802  0.08328062  0.69181088  1
  O  O338  1  0.21181028  0.58394951  0.19454406  1
  O  O339  1  0.20696109  0.58490656  0.69517493  1
  O  O340  1  0.53764891  0.08368919  0.19474016  1
  O  O341  1  0.54234680  0.08265580  0.69323764  1
  O  O342  1  0.54043705  0.58564157  0.19852952  1
  O  O343  1  0.54678224  0.59141132  0.69430282  1
  O  O344  1  0.87812856  0.08339323  0.19415084  1
  O  O345  1  0.86602842  0.08274773  0.69516229  1
  O  O346  1  0.87630202  0.58180321  0.20172686  1
  O  O347  1  0.87660101  0.58170672  0.69430643  1
  O  O348  1  0.04618811  0.33005269  0.19346793  1
  O  O349  1  0.04488465  0.33554832  0.69288031  1
  O  O350  1  0.04792008  0.83742026  0.19638236  1
  O  O351  1  0.04173740  0.82966145  0.69417743  1
  O  O352  1  0.37757001  0.33282758  0.19345544  1
  O  O353  1  0.37680358  0.33148797  0.69612891  1
  O  O354  1  0.37551593  0.83558673  0.19997036  1
  O  O355  1  0.37516714  0.83429943  0.69876096  1
  O  O356  1  0.71267704  0.32928146  0.18656838  1
  O  O357  1  0.71205398  0.33305648  0.69418714  1
  O  O358  1  0.69917157  0.83582079  0.20021646  1
  O  O359  1  0.71453505  0.83496824  0.69605273  1
  O  O360  1  0.21432126  0.41869293  0.20122485  1
  O  O361  1  0.20754322  0.41603394  0.69187089  1
  O  O362  1  0.21231232  0.91904709  0.19888808  1
  O  O363  1  0.20648107  0.91623724  0.69099742  1
  O  O364  1  0.54620812  0.41791872  0.20303207  1
  O  O365  1  0.54768113  0.40831507  0.69001034  1
  O  O366  1  0.53523635  0.91923170  0.19620859  1
  O  O367  1  0.54146958  0.91799187  0.69140786  1
  O  O368  1  0.88036157  0.41407080  0.19845479  1
  O  O369  1  0.87849490  0.41768741  0.69502359  1
  O  O370  1  0.88360771  0.92394921  0.19344371  1
  O  O371  1  0.87542011  0.91340220  0.69248769  1
  O  O372  1  0.04781771  0.16416326  0.19701557  1
  O  O373  1  0.04702091  0.17564043  0.68943249  1
  O  O374  1  0.05154446  0.67416169  0.19494279  1
  O  O375  1  0.04357973  0.66536869  0.69417471  1
  O  O376  1  0.37467932  0.16575289  0.19685696  1
  O  O377  1  0.37341461  0.16273022  0.68966834  1
  O  O378  1  0.37824444  0.66889563  0.19942981  1
  O  O379  1  0.37047299  0.66724165  0.69159475  1
  O  O380  1  0.71087692  0.16313101  0.19942213  1
  O  O381  1  0.70463493  0.16885520  0.69013057  1
  O  O382  1  0.70536002  0.66763073  0.19624201  1
  O  O383  1  0.71451880  0.66383857  0.69603233  1
  O  O384  1  0.12597158  0.08396573  0.30645175  1
  O  O385  1  0.13312495  0.08185814  0.80239527  1
  O  O386  1  0.12855862  0.58341829  0.30860977  1
  O  O387  1  0.12285124  0.58400906  0.80399109  1
  O  O388  1  0.45505804  0.08689003  0.30747247  1
  O  O389  1  0.45214677  0.08254542  0.80104954  1
  O  O390  1  0.45658787  0.58169313  0.30967603  1
  O  O391  1  0.44737867  0.59262481  0.80195293  1
  O  O392  1  0.79353312  0.08376713  0.30570491  1
  O  O393  1  0.78638300  0.08489586  0.79913031  1
  O  O394  1  0.79149438  0.58417453  0.30885668  1
  O  O395  1  0.79592692  0.58111184  0.80710292  1
  O  O396  1  0.29036548  0.33225677  0.30475365  1
  O  O397  1  0.28728387  0.33085036  0.80236891  1
  O  O398  1  0.28900264  0.83591818  0.30849479  1
  O  O399  1  0.28344915  0.83567706  0.80287220  1
  O  O400  1  0.62168347  0.32614439  0.30814624  1
  O  O401  1  0.62030168  0.33040346  0.80105506  1
  O  O402  1  0.61905942  0.83615923  0.30468651  1
  O  O403  1  0.61689694  0.83623294  0.79923042  1
  O  O404  1  0.96361672  0.33053352  0.30698648  1
  O  O405  1  0.95812079  0.33422018  0.79885266  1
  O  O406  1  0.96958396  0.83424181  0.30728324  1
  O  O407  1  0.95916659  0.83209225  0.80483229  1
  O  O408  1  0.12298537  0.41528240  0.30505027  1
  O  O409  1  0.12628218  0.41741055  0.80389436  1
  O  O410  1  0.12471608  0.91898870  0.30714104  1
  O  O411  1  0.12241477  0.91610748  0.80247372  1
  O  O412  1  0.45455329  0.41231371  0.30552577  1
  O  O413  1  0.45008594  0.40733921  0.80588647  1
  O  O414  1  0.45576161  0.92109178  0.30983141  1
  O  O415  1  0.45261115  0.91962547  0.80489661  1
  O  O416  1  0.78977143  0.41483649  0.29994992  1
  O  O417  1  0.79045220  0.41231065  0.80474298  1
  O  O418  1  0.78871156  0.92540493  0.30976084  1
  O  O419  1  0.79195186  0.91600005  0.80642725  1
  O  O420  1  0.28916718  0.16759142  0.30646880  1
  O  O421  1  0.28792225  0.16554955  0.80084339  1
  O  O422  1  0.28848366  0.66651283  0.30200148  1
  O  O423  1  0.28705591  0.66971899  0.80539527  1
  O  O424  1  0.61852342  0.15823419  0.30800723  1
  O  O425  1  0.62048251  0.16448957  0.80269944  1
  O  O426  1  0.62201003  0.66781535  0.30950976  1
  O  O427  1  0.61838961  0.66888596  0.81119542  1
  O  O428  1  0.96068818  0.16452666  0.30454167  1
  O  O429  1  0.95653414  0.17483865  0.80918831  1
  O  O430  1  0.95617669  0.67297315  0.30726536  1
  O  O431  1  0.95504072  0.66525747  0.79957142  1
  F  F432  1  0.04974072  0.00107632  0.20387320  1
  F  F433  1  0.04762482  -0.01176159  0.69488407  1
  F  F434  1  0.04871199  0.49732086  0.20284145  1
  F  F435  1  0.04502076  0.50045993  0.70209117  1
  F  F436  1  0.37549528  0.00116840  0.20662499  1
  F  F437  1  0.37694033  -0.00032228  0.69858684  1
  F  F438  1  0.38103835  0.50225196  0.20614522  1
  F  F439  1  0.36401208  0.49965608  0.69482470  1
  F  F440  1  0.71077821  0.00057010  0.20429396  1
  F  F441  1  0.70862587  -0.00366164  0.70133120  1
  F  F442  1  0.71245855  0.50593862  0.20339147  1
  F  F443  1  0.71887991  0.49016132  0.69505018  1
  F  F444  1  0.21397276  0.24775473  0.20309060  1
  F  F445  1  0.21159816  0.24998616  0.69852340  1
  F  F446  1  0.21397874  0.75552876  0.20384698  1
  F  F447  1  0.20931181  0.74955698  0.70042909  1
  F  F448  1  0.53843459  0.24751632  0.20072620  1
  F  F449  1  0.54289699  0.24699317  0.69924273  1
  F  F450  1  0.53958377  0.74921943  0.20688514  1
  F  F451  1  0.53252057  0.74932343  0.69691448  1
  F  F452  1  0.88361267  0.24703357  0.20172240  1
  F  F453  1  0.87768192  0.24921478  0.69986512  1
  F  F454  1  0.88496756  0.74189389  0.19831516  1
  F  F455  1  0.87811817  0.75066916  0.70043029  1
  F  F456  1  0.28778108  0.00277834  0.30219413  1
  F  F457  1  0.28571521  -0.00060587  0.79309167  1
  F  F458  1  0.28994739  0.50041823  0.30103106  1
  F  F459  1  0.28652904  0.49840545  0.79522651  1
  F  F460  1  0.61922498  0.00198442  0.29853507  1
  F  F461  1  0.61817938  0.00087770  0.79565181  1
  F  F462  1  0.61875961  0.51094766  0.30741666  1
  F  F463  1  0.63628164  0.49504486  0.80177548  1
  F  F464  1  0.95747776  0.00129965  0.29886408  1
  F  F465  1  0.95213376  -0.01067812  0.79898619  1
  F  F466  1  0.95650980  0.49459017  0.30411707  1
  F  F467  1  0.95435140  0.49926803  0.79705831  1
  F  F468  1  0.12429364  0.24997087  0.29853313  1
  F  F469  1  0.12420793  0.25006937  0.79544648  1
  F  F470  1  0.12378644  0.75167129  0.30066616  1
  F  F471  1  0.12065191  0.75098576  0.79611162  1
  F  F472  1  0.45224911  0.24851312  0.29919823  1
  F  F473  1  0.45235837  0.24421659  0.79483220  1
  F  F474  1  0.45340733  0.75201476  0.30310102  1
  F  F475  1  0.45062226  0.75196046  0.79906647  1
  F  F476  1  0.80035116  0.25027201  0.30072695  1
  F  F477  1  0.78540485  0.24883622  0.79486367  1
  F  F478  1  0.78447616  0.74005877  0.30325296  1
  F  F479  1  0.79515655  0.74965399  0.80151909  1
