# generated using pymatgen
data_K24Na3Li5Mg64Fe17Si79(O5F)48
_symmetry_space_group_name_H-M   'P 1'
_cell_length_a   16.10632230
_cell_length_b   18.60407896
_cell_length_c   20.57032935
_cell_angle_alpha   90.00667424
_cell_angle_beta   100.01281119
_cell_angle_gamma   90.01281051
_symmetry_Int_Tables_number   1
_chemical_formula_structural   K24Na3Li5Mg64Fe17Si79(O5F)48
_chemical_formula_sum   'K24 Na3 Li5 Mg64 Fe17 Si79 O240 F48'
_cell_volume   6069.88011800
_cell_formula_units_Z   1
loop_
 _symmetry_equiv_pos_site_id
 _symmetry_equiv_pos_as_xyz
  1  'x, y, z'
loop_
 _atom_site_type_symbol
 _atom_site_label
 _atom_site_symmetry_multiplicity
 _atom_site_fract_x
 _atom_site_fract_y
 _atom_site_fract_z
 _atom_site_occupancy
  K  K0  1  0.00984414  -0.00159481  0.00503837  1
  K  K1  1  0.00627693  -0.00963040  0.49411286  1
  K  K2  1  0.00704565  0.49657271  0.01342036  1
  K  K3  1  0.00173831  0.50773489  0.48539352  1
  K  K4  1  0.32950467  -0.00026326  0.00668857  1
  K  K5  1  0.32336599  0.00678646  0.48490504  1
  K  K6  1  0.32839677  0.49813696  0.01484310  1
  K  K7  1  0.32712148  0.50185975  0.48582708  1
  K  K8  1  0.66401052  0.01099476  0.00970806  1
  K  K9  1  0.66125454  0.00184750  0.49591533  1
  K  K10  1  0.66828342  0.49973159  0.00768099  1
  K  K11  1  0.66816072  0.49780155  0.49276722  1
  K  K12  1  0.16344554  0.24955370  0.00433362  1
  K  K13  1  0.17877440  0.26008961  0.49141309  1
  K  K14  1  0.16506425  0.75440658  0.01219797  1
  K  K15  1  0.16509050  0.75094511  0.48678299  1
  K  K16  1  0.50688511  0.24513478  0.01137006  1
  K  K17  1  0.48474465  0.26019456  0.48374012  1
  K  K18  1  0.49024913  0.75416127  0.01048785  1
  K  K19  1  0.49854701  0.74785094  0.49447614  1
  K  K20  1  0.83177578  0.25827122  0.00731416  1
  K  K21  1  0.83402384  0.25405307  0.49455765  1
  K  K22  1  0.84971277  0.74284106  0.00638794  1
  K  K23  1  0.83723835  0.74542509  0.49108604  1
  Na  Na24  1  0.66791135  0.74908451  0.74782530  1
  Na  Na25  1  0.50014301  0.16973935  0.25271060  1
  Na  Na26  1  0.32895187  0.58349568  0.24329320  1
  Li  Li27  1  0.16621562  -0.00284397  0.25129385  1
  Li  Li28  1  0.16540737  -0.00253876  0.75540921  1
  Li  Li29  1  0.16424339  0.83644579  0.24790896  1
  Li  Li30  1  0.00257168  0.57927747  0.24243919  1
  Li  Li31  1  0.00252467  0.42402655  0.24278118  1
  Mg  Mg32  1  0.00208565  0.74854160  0.74673583  1
  Mg  Mg33  1  -0.00091765  0.24828879  0.75523131  1
  Mg  Mg34  1  0.50157937  0.49982049  0.74675452  1
  Mg  Mg35  1  0.33246908  0.25100737  0.25224198  1
  Mg  Mg36  1  0.83324864  -0.00037794  0.25293427  1
  Mg  Mg37  1  0.66852601  0.25053273  0.25101237  1
  Mg  Mg38  1  0.66487450  0.24793904  0.75574232  1
  Mg  Mg39  1  0.16667543  0.50041869  0.74384041  1
  Mg  Mg40  1  0.83559956  0.49988532  0.74837926  1
  Mg  Mg41  1  0.49817519  -0.00114801  0.75359125  1
  Mg  Mg42  1  0.00298069  0.75009858  0.24894669  1
  Mg  Mg43  1  0.49949437  0.00123694  0.25338465  1
  Mg  Mg44  1  0.32849930  0.75266396  0.24688925  1
  Mg  Mg45  1  0.33307439  0.74839678  0.74856507  1
  Mg  Mg46  1  0.49809570  0.50241005  0.25013371  1
  Mg  Mg47  1  0.83288604  -0.00243638  0.75423696  1
  Mg  Mg48  1  0.00154950  0.25197861  0.24733936  1
  Mg  Mg49  1  0.66706384  0.75154040  0.25463358  1
  Mg  Mg50  1  0.33253408  0.24985642  0.74607403  1
  Mg  Mg51  1  0.16194585  0.50089581  0.24080910  1
  Mg  Mg52  1  0.84048157  0.50269398  0.24923599  1
  Mg  Mg53  1  0.16361555  0.66891673  0.24265149  1
  Mg  Mg54  1  0.00356324  0.91630090  0.24917948  1
  Mg  Mg55  1  0.33174740  0.58266189  0.74455901  1
  Mg  Mg56  1  0.83616931  0.66452361  0.74575881  1
  Mg  Mg57  1  0.16496846  0.66480379  0.74350343  1
  Mg  Mg58  1  0.83357142  0.16342619  0.75823548  1
  Mg  Mg59  1  0.49982019  0.33592077  0.25233323  1
  Mg  Mg60  1  0.32939086  0.08126961  0.75152510  1
  Mg  Mg61  1  0.66828318  0.91628961  0.25406740  1
  Mg  Mg62  1  0.50136254  0.66611691  0.74739506  1
  Mg  Mg63  1  0.49780549  0.33343265  0.74764481  1
  Mg  Mg64  1  0.00009363  0.58382418  0.74367706  1
  Mg  Mg65  1  0.33170622  0.08443562  0.25354130  1
  Mg  Mg66  1  0.66585594  0.08320783  0.75669220  1
  Mg  Mg67  1  0.49894761  0.83245356  0.75032054  1
  Mg  Mg68  1  0.16567481  0.16238618  0.75147781  1
  Mg  Mg69  1  0.66755130  0.41536074  0.75161390  1
  Mg  Mg70  1  0.00267820  0.08210554  0.25022172  1
  Mg  Mg71  1  0.33131273  0.41431235  0.74298986  1
  Mg  Mg72  1  0.16790520  0.16538103  0.25163964  1
  Mg  Mg73  1  0.66681564  0.08547233  0.25151196  1
  Mg  Mg74  1  0.00371843  0.91636839  0.75148636  1
  Mg  Mg75  1  0.83456477  0.83146709  0.75142534  1
  Mg  Mg76  1  0.16560821  0.33342978  0.74756238  1
  Mg  Mg77  1  0.32753180  0.91893053  0.25164628  1
  Mg  Mg78  1  0.66950399  0.58462224  0.25235105  1
  Mg  Mg79  1  0.16551818  0.83552454  0.75057780  1
  Mg  Mg80  1  0.49923573  0.66849851  0.25219890  1
  Mg  Mg81  1  0.49930740  0.16456685  0.75252307  1
  Mg  Mg82  1  0.83821112  0.66527127  0.25012670  1
  Mg  Mg83  1  -0.00023457  0.41309953  0.75146693  1
  Mg  Mg84  1  0.83511385  0.33260761  0.75480700  1
  Mg  Mg85  1  0.33231763  0.41822835  0.24836311  1
  Mg  Mg86  1  0.66597871  0.91419533  0.75206856  1
  Mg  Mg87  1  0.00237780  0.08072811  0.75556025  1
  Mg  Mg88  1  0.16358437  0.33709387  0.24825497  1
  Mg  Mg89  1  0.32945677  0.91550469  0.75283299  1
  Mg  Mg90  1  0.49957519  0.83463827  0.25220328  1
  Mg  Mg91  1  0.66982065  0.58526675  0.74791224  1
  Mg  Mg92  1  0.83813756  0.33666893  0.24748256  1
  Mg  Mg93  1  0.66984862  0.41664449  0.25345400  1
  Mg  Mg94  1  0.83349658  0.16710119  0.25049016  1
  Mg  Mg95  1  0.83472744  0.83512910  0.25431020  1
  Fe  Fe96  1  0.01621601  0.32896526  0.10760338  1
  Fe  Fe97  1  0.97285355  0.33449359  0.89370808  1
  Fe  Fe98  1  0.81116944  0.57881268  0.38927450  1
  Fe  Fe99  1  0.81360176  0.92331086  0.39463955  1
  Fe  Fe100  1  0.47798142  0.42452250  0.39031610  1
  Fe  Fe101  1  0.69264051  0.16858426  0.11150780  1
  Fe  Fe102  1  0.19380703  0.58524274  0.60392263  1
  Fe  Fe103  1  0.64258557  0.16590621  0.89451077  1
  Fe  Fe104  1  0.14401865  0.91565471  0.89136439  1
  Fe  Fe105  1  0.64271100  0.83545719  0.39345532  1
  Fe  Fe106  1  0.30845735  0.16680206  0.39274404  1
  Fe  Fe107  1  0.35970377  0.33365095  0.60610021  1
  Fe  Fe108  1  0.19210209  0.40941541  0.10527025  1
  Fe  Fe109  1  0.02652773  0.67098480  0.60355113  1
  Fe  Fe110  1  0.85961171  0.57543266  0.60562393  1
  Fe  Fe111  1  0.02429946  0.66878085  0.10651375  1
  Fe  Fe112  1  0.35957554  0.67102645  0.10910636  1
  Si  Si113  1  0.69419739  0.83593555  0.61605948  1
  Si  Si114  1  0.97997252  0.33206567  0.38201869  1
  Si  Si115  1  0.97875249  0.83152587  0.38742413  1
  Si  Si116  1  0.14354458  0.58509233  0.37878862  1
  Si  Si117  1  0.35609184  0.16024713  0.61384741  1
  Si  Si118  1  0.30740722  0.33463487  0.88246140  1
  Si  Si119  1  0.81626968  0.09109799  0.39049019  1
  Si  Si120  1  0.14447744  0.08553961  0.88875171  1
  Si  Si121  1  0.52573532  0.91488732  0.61613097  1
  Si  Si122  1  0.97312692  0.82926996  0.88678119  1
  Si  Si123  1  0.30423265  0.33927335  0.38762587  1
  Si  Si124  1  0.02248358  0.84041488  0.11159048  1
  Si  Si125  1  0.02100013  0.15918633  0.11434369  1
  Si  Si126  1  0.69381556  0.32803133  0.61972324  1
  Si  Si127  1  0.63861588  0.66625440  0.88469139  1
  Si  Si128  1  0.86000264  0.07873708  0.11537012  1
  Si  Si129  1  0.69883325  0.66864395  0.61101361  1
  Si  Si130  1  0.53492686  0.58589051  0.61341407  1
  Si  Si131  1  0.52858936  0.58486738  0.11384629  1
  Si  Si132  1  0.01925086  0.83938999  0.61203463  1
  Si  Si133  1  0.36717257  0.32926171  0.11217786  1
  Si  Si134  1  0.63867423  0.33807318  0.88700751  1
  Si  Si135  1  0.52350316  0.07890560  0.11433771  1
  Si  Si136  1  0.80082823  0.42251832  0.88748291  1
  Si  Si137  1  0.85660668  0.92088339  0.61739415  1
  Si  Si138  1  0.35873534  0.83211610  0.61489879  1
  Si  Si139  1  0.69220394  0.66794284  0.11555868  1
  Si  Si140  1  0.19064031  0.07826444  0.61776690  1
  Si  Si141  1  0.52878685  0.41959707  0.11768799  1
  Si  Si142  1  0.97758443  0.17068340  0.38416509  1
  Si  Si143  1  0.19252762  0.91282529  0.61555227  1
  Si  Si144  1  0.14451111  0.58401059  0.88164870  1
  Si  Si145  1  0.52427648  0.07908257  0.61760587  1
  Si  Si146  1  0.31154988  0.82712583  0.88809824  1
  Si  Si147  1  0.47223191  0.41678747  0.88287070  1
  Si  Si148  1  0.85406552  0.58635106  0.11031253  1
  Si  Si149  1  0.13784791  0.91749095  0.38267111  1
  Si  Si150  1  0.19125431  0.92427671  0.11714000  1
  Si  Si151  1  0.85426278  0.08479531  0.61976861  1
  Si  Si152  1  0.81488564  0.40804646  0.38769977  1
  Si  Si153  1  0.97897019  0.66862587  0.38364237  1
  Si  Si154  1  0.85614328  0.40588267  0.61406524  1
  Si  Si155  1  0.30358572  0.67273787  0.38193098  1
  Si  Si156  1  0.18706272  0.58233395  0.10195931  1
  Si  Si157  1  0.85224309  0.42271664  0.11167955  1
  Si  Si158  1  0.36767916  0.66513347  0.61117766  1
  Si  Si159  1  0.35800871  0.16431798  0.11562227  1
  Si  Si160  1  0.69012714  0.83169496  0.11576986  1
  Si  Si161  1  0.80694745  0.90831879  0.88739704  1
  Si  Si162  1  0.18307870  0.41487435  0.60748836  1
  Si  Si163  1  0.14466830  0.41992816  0.88433357  1
  Si  Si164  1  0.35409840  0.83989134  0.11270051  1
  Si  Si165  1  0.64537630  0.32998726  0.38996816  1
  Si  Si166  1  0.13775187  0.42168970  0.38003483  1
  Si  Si167  1  0.02432265  0.32578519  0.61508225  1
  Si  Si168  1  0.46973041  0.91413024  0.38906903  1
  Si  Si169  1  0.97747223  0.66386228  0.88294602  1
  Si  Si170  1  0.02354096  0.16054405  0.61796428  1
  Si  Si171  1  0.19186304  0.08807699  0.11552401  1
  Si  Si172  1  0.46640361  0.08248438  0.88863377  1
  Si  Si173  1  0.30452003  0.17016287  0.88436628  1
  Si  Si174  1  0.97599155  0.16058543  0.89177946  1
  Si  Si175  1  0.53410666  0.41871409  0.61276851  1
  Si  Si176  1  0.69071054  0.33859641  0.11391657  1
  Si  Si177  1  0.13588408  0.08251578  0.38818202  1
  Si  Si178  1  0.64621868  0.16385759  0.38834528  1
  Si  Si179  1  0.47269323  0.91575434  0.88733539  1
  Si  Si180  1  0.30269289  0.83652031  0.38359430  1
  Si  Si181  1  0.80770290  0.58759188  0.88468423  1
  Si  Si182  1  0.47883142  0.07906767  0.39043527  1
  Si  Si183  1  0.68841486  0.16502822  0.61990313  1
  Si  Si184  1  0.31116638  0.66365053  0.88237355  1
  Si  Si185  1  0.47532881  0.59327202  0.38699166  1
  Si  Si186  1  0.47568664  0.58104089  0.88329992  1
  Si  Si187  1  0.85470648  0.91542338  0.11551781  1
  Si  Si188  1  0.63645499  0.83408307  0.88656386  1
  Si  Si189  1  0.52506078  0.91644607  0.11600262  1
  Si  Si190  1  0.81105396  0.07363314  0.89198123  1
  Si  Si191  1  0.64289670  0.66597883  0.38845799  1
  O  O192  1  0.26700203  0.12726713  0.08185515  1
  O  O193  1  0.27035364  0.11183518  0.58746901  1
  O  O194  1  0.27195728  0.60991273  0.07489033  1
  O  O195  1  0.29680532  0.61082976  0.57569632  1
  O  O196  1  0.59244299  0.11814237  0.07773190  1
  O  O197  1  0.60547999  0.11544978  0.59065078  1
  O  O198  1  0.61453484  0.61304799  0.08643055  1
  O  O199  1  0.61332469  0.62020185  0.58317122  1
  O  O200  1  0.95007833  0.09519466  0.09053746  1
  O  O201  1  0.93515841  0.11697706  0.58997723  1
  O  O202  1  0.92612445  0.61497916  0.07100584  1
  O  O203  1  0.95431171  0.59667917  0.57142473  1
  O  O204  1  0.10415596  0.35186708  0.06523717  1
  O  O205  1  0.10370377  0.35692082  0.58449035  1
  O  O206  1  0.10199896  0.88328507  0.08583635  1
  O  O207  1  0.10375122  0.87205558  0.58505535  1
  O  O208  1  0.45070688  0.36606400  0.08710663  1
  O  O209  1  0.45645317  0.37061817  0.57707616  1
  O  O210  1  0.43705848  0.87524956  0.08490535  1
  O  O211  1  0.43852215  0.87076612  0.58715880  1
  O  O212  1  0.76781743  0.37387499  0.08183109  1
  O  O213  1  0.78042268  0.34512891  0.59151544  1
  O  O214  1  0.77038328  0.86581687  0.08559332  1
  O  O215  1  0.77434100  0.87104051  0.58642823  1
  O  O216  1  0.28674682  0.37083127  0.07207329  1
  O  O217  1  0.26173375  0.38616791  0.57457805  1
  O  O218  1  0.27072039  0.89072572  0.08489499  1
  O  O219  1  0.27117977  0.87568883  0.58438362  1
  O  O220  1  0.61027143  0.39235608  0.08651419  1
  O  O221  1  0.62142890  0.38691031  0.59027628  1
  O  O222  1  0.60366119  0.87768500  0.08640361  1
  O  O223  1  0.60626631  0.88080379  0.58756922  1
  O  O224  1  0.92698777  0.39354581  0.07589615  1
  O  O225  1  0.93774466  0.37007362  0.58628986  1
  O  O226  1  0.93497315  0.88826131  0.08259720  1
  O  O227  1  0.94180380  0.89876560  0.58893792  1
  O  O228  1  0.10527985  0.13211297  0.08459160  1
  O  O229  1  0.10125611  0.12108058  0.58903826  1
  O  O230  1  0.10992251  0.63372351  0.06493295  1
  O  O231  1  0.12569729  0.66047057  0.57065363  1
  O  O232  1  0.43013636  0.11596186  0.08751064  1
  O  O233  1  0.43631510  0.11985106  0.58787807  1
  O  O234  1  0.45402242  0.63441126  0.07518842  1
  O  O235  1  0.45553156  0.63922390  0.58626943  1
  O  O236  1  0.78708124  0.13213268  0.07899947  1
  O  O237  1  0.77063542  0.13429010  0.59043688  1
  O  O238  1  0.77114699  0.63922988  0.08239524  1
  O  O239  1  0.77360822  0.64355477  0.57381775  1
  O  O240  1  0.05091636  0.11326763  0.41619158  1
  O  O241  1  0.06089582  0.11230126  0.91861660  1
  O  O242  1  0.06535712  0.62101303  0.40897395  1
  O  O243  1  0.06261298  0.61609351  0.91057136  1
  O  O244  1  0.41013120  0.11764795  0.42794472  1
  O  O245  1  0.38152222  0.11495960  0.91411476  1
  O  O246  1  0.39187522  0.63051069  0.41132878  1
  O  O247  1  0.39381494  0.61319953  0.91134667  1
  O  O248  1  0.73467892  0.12290988  0.42122365  1
  O  O249  1  0.73345351  0.10299816  0.92449557  1
  O  O250  1  0.70961482  0.60336321  0.41720666  1
  O  O251  1  0.73044289  0.62861524  0.91440550  1
  O  O252  1  0.22045906  0.37465853  0.41331355  1
  O  O253  1  0.22843911  0.36907663  0.91189117  1
  O  O254  1  0.22437952  0.87295138  0.41408619  1
  O  O255  1  0.23643371  0.85436407  0.92389945  1
  O  O256  1  0.57576867  0.36955197  0.42529073  1
  O  O257  1  0.55353962  0.36742068  0.91391939  1
  O  O258  1  0.54204432  0.86015647  0.42452300  1
  O  O259  1  0.56138626  0.87413289  0.91853675  1
  O  O260  1  0.89814358  0.35653705  0.41476114  1
  O  O261  1  0.87578860  0.37137462  0.92250562  1
  O  O262  1  0.90464670  0.86031958  0.42465080  1
  O  O263  1  0.88484196  0.85345525  0.91328066  1
  O  O264  1  0.05844527  0.38615141  0.41120634  1
  O  O265  1  0.06712447  0.39433654  0.91827150  1
  O  O266  1  0.06352720  0.87985571  0.41686355  1
  O  O267  1  0.04736637  0.88067673  0.92348377  1
  O  O268  1  0.38399781  0.38823088  0.42147216  1
  O  O269  1  0.39084175  0.38376938  0.91090035  1
  O  O270  1  0.38319296  0.88751840  0.41605488  1
  O  O271  1  0.39829329  0.87383928  0.91686148  1
  O  O272  1  0.73872262  0.36600608  0.41777465  1
  O  O273  1  0.71104599  0.39964551  0.91079764  1
  O  O274  1  0.72185094  0.90138476  0.43326385  1
  O  O275  1  0.72506437  0.87593433  0.91630487  1
  O  O276  1  0.21731726  0.12531745  0.42709552  1
  O  O277  1  0.22035210  0.14587041  0.91321378  1
  O  O278  1  0.22915400  0.63052244  0.41323345  1
  O  O279  1  0.22772768  0.63426756  0.90988656  1
  O  O280  1  0.57101900  0.12013159  0.41663720  1
  O  O281  1  0.54593890  0.12902976  0.92392627  1
  O  O282  1  0.55268414  0.64974730  0.41464467  1
  O  O283  1  0.56194768  0.62595287  0.91535621  1
  O  O284  1  0.89131647  0.15209285  0.41367453  1
  O  O285  1  0.89861357  0.11773914  0.91867097  1
  O  O286  1  0.90481922  0.63804502  0.42053645  1
  O  O287  1  0.89633417  0.63011984  0.91232457  1
  O  O288  1  0.18065215  0.00615342  0.08454473  1
  O  O289  1  0.18014775  -0.00391652  0.58761816  1
  O  O290  1  0.16993114  0.50162523  0.07024736  1
  O  O291  1  0.15163062  0.49250433  0.57768385  1
  O  O292  1  0.51479696  -0.00360381  0.08249227  1
  O  O293  1  0.51527392  -0.00277760  0.58720778  1
  O  O294  1  0.51036098  0.50105132  0.08691735  1
  O  O295  1  0.52218863  0.50282570  0.58652620  1
  O  O296  1  0.83110221  -0.00308420  0.08752049  1
  O  O297  1  0.83277049  0.00351179  0.59087029  1
  O  O298  1  0.82522515  0.50462431  0.08337710  1
  O  O299  1  0.82509804  0.47997371  0.57846672  1
  O  O300  1  -0.01500124  0.23282476  0.07949749  1
  O  O301  1  0.01001456  0.24216248  0.58756388  1
  O  O302  1  0.00918747  0.76487650  0.07230823  1
  O  O303  1  -0.01174746  0.76558816  0.57593998  1
  O  O304  1  0.36452734  0.24500950  0.08374733  1
  O  O305  1  0.34255092  0.23719399  0.57834498  1
  O  O306  1  0.33757224  0.76474825  0.07347358  1
  O  O307  1  0.35156234  0.74992022  0.58558569  1
  O  O308  1  0.66866413  0.26168068  0.07851163  1
  O  O309  1  0.66588329  0.24665808  0.59201950  1
  O  O310  1  0.67128235  0.75008680  0.08508745  1
  O  O311  1  0.67527703  0.75373818  0.58973773  1
  O  O312  1  0.14742127  -0.00134233  0.41610204  1
  O  O313  1  0.17497096  0.00978918  0.92301692  1
  O  O314  1  0.15292773  0.50336624  0.41140714  1
  O  O315  1  0.16955407  0.50295371  0.90971730  1
  O  O316  1  0.49152651  -0.00421306  0.42002502  1
  O  O317  1  0.47760637  -0.00168648  0.91578300  1
  O  O318  1  0.49383102  0.51795804  0.42672283  1
  O  O319  1  0.49007481  0.49872680  0.91234108  1
  O  O320  1  0.84832066  0.01714181  0.42717646  1
  O  O321  1  0.82934543  -0.01085359  0.91710008  1
  O  O322  1  0.83305359  0.48490642  0.42330961  1
  O  O323  1  0.81569234  0.50612094  0.91483697  1
  O  O324  1  0.31708755  0.26119194  0.42436682  1
  O  O325  1  0.32744992  0.25251996  0.91156425  1
  O  O326  1  0.31416758  0.75460505  0.41585198  1
  O  O327  1  0.33632355  0.74372194  0.91233479  1
  O  O328  1  0.65230955  0.24600461  0.41895797  1
  O  O329  1  0.66626049  0.26198026  0.92154567  1
  O  O330  1  0.67706280  0.74217802  0.42125459  1
  O  O331  1  0.64313635  0.74988402  0.91244617  1
  O  O332  1  1.00745752  0.25110176  0.41314461  1
  O  O333  1  0.98990329  0.23916483  0.92439118  1
  O  O334  1  1.00435285  0.74987014  0.41392212  1
  O  O335  1  0.99098939  0.74551792  0.91314051  1
  O  O336  1  0.21093362  0.08725072  0.19471107  1
  O  O337  1  0.20989956  0.08277491  0.69737225  1
  O  O338  1  0.19615112  0.58494512  0.18211385  1
  O  O339  1  0.21307333  0.58281689  0.69708214  1
  O  O340  1  0.54663846  0.07602228  0.19384096  1
  O  O341  1  0.54172803  0.07933559  0.69807681  1
  O  O342  1  0.54532707  0.58583978  0.19449887  1
  O  O343  1  0.54784731  0.58422127  0.69419495  1
  O  O344  1  0.87486094  0.08190901  0.19627829  1
  O  O345  1  0.87351896  0.08376938  0.70017407  1
  O  O346  1  0.87185446  0.58706477  0.18981702  1
  O  O347  1  0.87862080  0.58001675  0.69869856  1
  O  O348  1  0.04477505  0.32981002  0.19717375  1
  O  O349  1  0.04297806  0.32816519  0.69561280  1
  O  O350  1  0.03495371  0.83605922  0.19099134  1
  O  O351  1  0.04079797  0.83493244  0.69289344  1
  O  O352  1  0.37812330  0.33001929  0.19242960  1
  O  O353  1  0.37846784  0.33194749  0.69848927  1
  O  O354  1  0.37533678  0.83901443  0.19329508  1
  O  O355  1  0.37589812  0.83366580  0.69557144  1
  O  O356  1  0.71110613  0.33566701  0.19468763  1
  O  O357  1  0.71026183  0.32956030  0.70048232  1
  O  O358  1  0.70972533  0.83311443  0.19538876  1
  O  O359  1  0.71468507  0.84216108  0.69543996  1
  O  O360  1  0.21276367  0.41372378  0.19648972  1
  O  O361  1  0.20658444  0.41372814  0.68972647  1
  O  O362  1  0.21198772  0.92130678  0.19553412  1
  O  O363  1  0.21434480  0.91087194  0.69491653  1
  O  O364  1  0.54823098  0.41866325  0.19751924  1
  O  O365  1  0.54620008  0.41678350  0.69405553  1
  O  O366  1  0.54270826  0.91760004  0.19593250  1
  O  O367  1  0.54199957  0.91598066  0.69668876  1
  O  O368  1  0.86903717  0.41922714  0.19151890  1
  O  O369  1  0.87533092  0.41145907  0.69503862  1
  O  O370  1  0.87480644  0.91553018  0.19547641  1
  O  O371  1  0.87499214  0.91787406  0.69799275  1
  O  O372  1  0.04287577  0.16368232  0.19500689  1
  O  O373  1  0.04134582  0.16343763  0.69834601  1
  O  O374  1  0.04160887  0.67121911  0.19562530  1
  O  O375  1  0.04477132  0.66742763  0.69705742  1
  O  O376  1  0.36860240  0.16628016  0.19448111  1
  O  O377  1  0.37570121  0.16252478  0.69517126  1
  O  O378  1  0.38481188  0.67815572  0.19834526  1
  O  O379  1  0.37964241  0.66571255  0.69251519  1
  O  O380  1  0.71255875  0.16661076  0.20256660  1
  O  O381  1  0.70982468  0.16374386  0.70019238  1
  O  O382  1  0.70898919  0.67014987  0.19539649  1
  O  O383  1  0.71702992  0.65974597  0.69088743  1
  O  O384  1  0.12022757  0.08745007  0.30854268  1
  O  O385  1  0.12247370  0.08615680  0.80844010  1
  O  O386  1  0.13142778  0.58433013  0.30000610  1
  O  O387  1  0.12451992  0.58252549  0.80150793  1
  O  O388  1  0.45503871  0.07707180  0.31089676  1
  O  O389  1  0.45333316  0.08216166  0.80749297  1
  O  O390  1  0.46611034  0.58520787  0.30768816  1
  O  O391  1  0.45813499  0.58227264  0.80273934  1
  O  O392  1  0.79427251  0.08491643  0.30992160  1
  O  O393  1  0.79027646  0.07849553  0.81056829  1
  O  O394  1  0.79039797  0.58370030  0.29812410  1
  O  O395  1  0.78858946  0.58481560  0.80461430  1
  O  O396  1  0.28927909  0.33422870  0.30698409  1
  O  O397  1  0.28862753  0.33308589  0.80199227  1
  O  O398  1  0.29205201  0.83549460  0.30455698  1
  O  O399  1  0.29312297  0.83092695  0.80713502  1
  O  O400  1  0.62662361  0.33287363  0.30924035  1
  O  O401  1  0.62006954  0.33433925  0.80570518  1
  O  O402  1  0.62166007  0.83549342  0.30096432  1
  O  O403  1  0.61652440  0.83917069  0.80722374  1
  O  O404  1  0.95555964  0.32841524  0.30327719  1
  O  O405  1  0.95510848  0.33146880  0.80133834  1
  O  O406  1  0.95765931  0.83555322  0.30673808  1
  O  O407  1  0.95756817  0.83246123  0.80576276  1
  O  O408  1  0.12260613  0.41948167  0.30129238  1
  O  O409  1  0.12611163  0.41597383  0.80312969  1
  O  O410  1  0.11891648  0.91782584  0.30437872  1
  O  O411  1  0.12150179  0.91406477  0.80080713  1
  O  O412  1  0.45634189  0.41945822  0.29929182  1
  O  O413  1  0.45699845  0.41782183  0.80254476  1
  O  O414  1  0.45575446  0.91639272  0.30816474  1
  O  O415  1  0.45578988  0.91495881  0.80666727  1
  O  O416  1  0.79262488  0.41304705  0.30719143  1
  O  O417  1  0.78875646  0.41863996  0.80629099  1
  O  O418  1  0.78937261  0.91819083  0.30204570  1
  O  O419  1  0.78791245  0.91310494  0.80697448  1
  O  O420  1  0.28891390  0.16709162  0.30193555  1
  O  O421  1  0.28936138  0.16772634  0.80384131  1
  O  O422  1  0.28297885  0.67678987  0.30322332  1
  O  O423  1  0.29401071  0.66495753  0.80204682  1
  O  O424  1  0.63402722  0.16646885  0.30933365  1
  O  O425  1  0.61968847  0.16493236  0.80238974  1
  O  O426  1  0.62470631  0.66775211  0.30664020  1
  O  O427  1  0.61884388  0.66014955  0.80548797  1
  O  O428  1  0.95794093  0.16716413  0.30392546  1
  O  O429  1  0.95669120  0.16263906  0.81017131  1
  O  O430  1  0.95437990  0.67296918  0.30449779  1
  O  O431  1  0.95860983  0.66536349  0.80299504  1
  F  F432  1  0.03924768  0.00065852  0.20062928  1
  F  F433  1  0.03576737  0.00238806  0.70150808  1
  F  F434  1  0.04501063  0.49986931  0.19235771  1
  F  F435  1  0.04418962  0.49486797  0.70197333  1
  F  F436  1  0.37945061  0.00109314  0.20418486  1
  F  F437  1  0.37900267  -0.00198211  0.70346836  1
  F  F438  1  0.38454100  0.49227355  0.19356853  1
  F  F439  1  0.38174410  0.49940181  0.69904009  1
  F  F440  1  0.71143465  0.00158049  0.20338420  1
  F  F441  1  0.71018458  0.00086335  0.70654920  1
  F  F442  1  0.71115464  0.49862850  0.20328884  1
  F  F443  1  0.71214964  0.49766564  0.70329283  1
  F  F444  1  0.21084799  0.25097182  0.20280009  1
  F  F445  1  0.20949895  0.24690535  0.70120258  1
  F  F446  1  0.21244153  0.75005227  0.19441413  1
  F  F447  1  0.21449284  0.75206429  0.70225339  1
  F  F448  1  0.55157843  0.26068397  0.20159023  1
  F  F449  1  0.54454429  0.24863754  0.70244663  1
  F  F450  1  0.54634426  0.75147098  0.20244668  1
  F  F451  1  0.53327663  0.75150654  0.69846906  1
  F  F452  1  0.87752936  0.24894170  0.20058038  1
  F  F453  1  0.87618582  0.24385400  0.70615746  1
  F  F454  1  0.87612686  0.75368733  0.20233658  1
  F  F455  1  0.87985683  0.75191838  0.70052926  1
  F  F456  1  0.29188617  0.00154728  0.30260299  1
  F  F457  1  0.29402781  -0.00135497  0.80124305  1
  F  F458  1  0.28255814  0.49484034  0.29727702  1
  F  F459  1  0.29072926  0.49625785  0.79385156  1
  F  F460  1  0.62183666  0.00141605  0.29986955  1
  F  F461  1  0.61941285  -0.00223955  0.80136310  1
  F  F462  1  0.62261206  0.50048153  0.29854849  1
  F  F463  1  0.62113971  0.50050366  0.79696294  1
  F  F464  1  0.95446838  0.00010311  0.29853472  1
  F  F465  1  0.95267804  -0.00167740  0.80146184  1
  F  F466  1  0.95440838  0.50145286  0.29750994  1
  F  F467  1  0.95622217  0.49747293  0.79803095  1
  F  F468  1  0.12170880  0.24863146  0.29896936  1
  F  F469  1  0.12282406  0.24906640  0.79794119  1
  F  F470  1  0.12145030  0.75106306  0.29640373  1
  F  F471  1  0.12389763  0.74971475  0.79640753  1
  F  F472  1  0.45053879  0.26066754  0.30396851  1
  F  F473  1  0.45355480  0.24830275  0.79822329  1
  F  F474  1  0.45477447  0.75477219  0.30001059  1
  F  F475  1  0.45433726  0.74830983  0.79845890  1
  F  F476  1  0.79132980  0.25343518  0.29801287  1
  F  F477  1  0.78714251  0.24796426  0.80265477  1
  F  F478  1  0.78880466  0.75077101  0.29873891  1
  F  F479  1  0.80033038  0.74725504  0.80005743  1
