# generated using pymatgen
data_K24Na3Li5Mg64Fe17Si79(O5F)48
_symmetry_space_group_name_H-M   'P 1'
_cell_length_a   16.08301388
_cell_length_b   18.58428044
_cell_length_c   20.54864151
_cell_angle_alpha   90.01620740
_cell_angle_beta   100.00451142
_cell_angle_gamma   89.97339759
_symmetry_Int_Tables_number   1
_chemical_formula_structural   K24Na3Li5Mg64Fe17Si79(O5F)48
_chemical_formula_sum   'K24 Na3 Li5 Mg64 Fe17 Si79 O240 F48'
_cell_volume   6048.41629815
_cell_formula_units_Z   1
loop_
 _symmetry_equiv_pos_site_id
 _symmetry_equiv_pos_as_xyz
  1  'x, y, z'
loop_
 _atom_site_type_symbol
 _atom_site_label
 _atom_site_symmetry_multiplicity
 _atom_site_fract_x
 _atom_site_fract_y
 _atom_site_fract_z
 _atom_site_occupancy
  K  K0  1  -0.01324784  0.00172418  -0.00865049  1
  K  K1  1  -0.00352925  0.00306759  0.50322989  1
  K  K2  1  -0.00455609  0.50076432  -0.01071081  1
  K  K3  1  -0.00770013  0.49893104  0.50417807  1
  K  K4  1  0.33154074  -0.00285442  0.00074995  1
  K  K5  1  0.33721660  -0.00359439  0.50035896  1
  K  K6  1  0.33176982  0.49949909  -0.00308658  1
  K  K7  1  0.32742431  0.50405726  0.49718367  1
  K  K8  1  0.67273737  -0.00341644  -0.01051767  1
  K  K9  1  0.66501713  0.00676727  0.50927587  1
  K  K10  1  0.66726105  0.51070674  -0.01051526  1
  K  K11  1  0.67903645  0.50842571  0.51405133  1
  K  K12  1  0.15550403  0.25143120  -0.00853008  1
  K  K13  1  0.17013587  0.25813890  0.49873339  1
  K  K14  1  0.16403703  0.74924462  0.00120277  1
  K  K15  1  0.16959033  0.74718527  0.49697773  1
  K  K16  1  0.50529661  0.25017023  -0.00727853  1
  K  K17  1  0.51014508  0.24899692  0.50479922  1
  K  K18  1  0.51092575  0.75079496  0.00035864  1
  K  K19  1  0.50761836  0.74473173  0.50485137  1
  K  K20  1  0.82493556  0.25328121  -0.01514659  1
  K  K21  1  0.83421834  0.24570556  0.50741537  1
  K  K22  1  0.81254978  0.75293239  -0.00863777  1
  K  K23  1  0.82019862  0.74173707  0.50169042  1
  Na  Na24  1  0.82768801  0.49951836  0.73958098  1
  Na  Na25  1  0.33758559  0.91753079  0.24741386  1
  Na  Na26  1  0.66613115  0.58094741  0.73825923  1
  Li  Li27  1  0.66493401  0.74706659  0.74683535  1
  Li  Li28  1  0.66175529  0.24721184  0.74271870  1
  Li  Li29  1  0.00317160  0.08247299  0.25203363  1
  Li  Li30  1  0.33425018  0.58651584  0.25608783  1
  Li  Li31  1  0.66469780  0.08693177  0.74809374  1
  Mg  Mg32  1  0.33504670  0.74793235  0.24880582  1
  Mg  Mg33  1  0.16567774  0.00048711  0.75729004  1
  Mg  Mg34  1  0.82691555  0.00132298  0.75353095  1
  Mg  Mg35  1  -0.00008739  0.25112560  0.75581409  1
  Mg  Mg36  1  0.83782434  0.00024159  0.24763837  1
  Mg  Mg37  1  -0.00049811  0.74887841  0.75414011  1
  Mg  Mg38  1  0.00064399  0.24706577  0.25343429  1
  Mg  Mg39  1  0.50416185  0.00034362  0.74854001  1
  Mg  Mg40  1  0.33102871  0.25224839  0.25504171  1
  Mg  Mg41  1  0.00080127  0.75059402  0.24963953  1
  Mg  Mg42  1  0.16830364  0.00017721  0.25062798  1
  Mg  Mg43  1  0.16725729  0.50243020  0.25540412  1
  Mg  Mg44  1  0.66625844  0.25029667  0.24840895  1
  Mg  Mg45  1  0.66806821  0.75025308  0.24377983  1
  Mg  Mg46  1  0.49509114  0.50123937  0.24792547  1
  Mg  Mg47  1  0.50150438  0.49807319  0.74491586  1
  Mg  Mg48  1  0.33517587  0.25030158  0.75242695  1
  Mg  Mg49  1  0.33471739  0.75080030  0.74911763  1
  Mg  Mg50  1  0.50112043  -0.00032359  0.24393086  1
  Mg  Mg51  1  0.16820551  0.49832018  0.75305609  1
  Mg  Mg52  1  0.83091362  0.49951466  0.24914892  1
  Mg  Mg53  1  0.82578690  0.83289278  0.74987446  1
  Mg  Mg54  1  0.66756510  0.08418120  0.24545984  1
  Mg  Mg55  1  0.82974325  0.66482372  0.24645258  1
  Mg  Mg56  1  0.82536477  0.16773026  0.75294522  1
  Mg  Mg57  1  0.00301956  0.91928382  0.24849986  1
  Mg  Mg58  1  0.83849626  0.16464626  0.25165040  1
  Mg  Mg59  1  -0.00198330  0.91533631  0.75778526  1
  Mg  Mg60  1  0.50073954  0.83520717  0.24329171  1
  Mg  Mg61  1  0.83181597  0.83452695  0.24388893  1
  Mg  Mg62  1  0.16684800  0.16450534  0.75805449  1
  Mg  Mg63  1  0.83564734  0.33282275  0.25311527  1
  Mg  Mg64  1  0.83038998  0.66808994  0.74979379  1
  Mg  Mg65  1  -0.00099784  0.58473374  0.25085243  1
  Mg  Mg66  1  0.50386553  0.83325233  0.74713042  1
  Mg  Mg67  1  0.66637553  0.58541029  0.24572035  1
  Mg  Mg68  1  0.33394379  0.58329096  0.74959937  1
  Mg  Mg69  1  0.17236328  0.83348773  0.25174923  1
  Mg  Mg70  1  0.33368356  0.41429504  0.75135506  1
  Mg  Mg71  1  0.16631579  0.16455248  0.25353204  1
  Mg  Mg72  1  0.33189880  0.41893364  0.25430940  1
  Mg  Mg73  1  0.66202445  0.41260954  0.74463217  1
  Mg  Mg74  1  0.49875606  0.16647609  0.24797371  1
  Mg  Mg75  1  0.00118555  0.41650266  0.75215013  1
  Mg  Mg76  1  0.33446144  0.08393235  0.75318319  1
  Mg  Mg77  1  0.00001164  0.41435641  0.25457251  1
  Mg  Mg78  1  0.66587515  0.41612956  0.25012948  1
  Mg  Mg79  1  0.49754715  0.66490461  0.24730892  1
  Mg  Mg80  1  0.16686890  0.83452801  0.75495379  1
  Mg  Mg81  1  0.66534913  0.91755462  0.74799597  1
  Mg  Mg82  1  0.50257004  0.66606952  0.74491561  1
  Mg  Mg83  1  0.66513684  0.91521613  0.24246762  1
  Mg  Mg84  1  -0.00076501  0.08399230  0.75766299  1
  Mg  Mg85  1  0.49967621  0.33214047  0.74562193  1
  Mg  Mg86  1  0.16718008  0.66609207  0.75176021  1
  Mg  Mg87  1  0.50245626  0.16626896  0.74729135  1
  Mg  Mg88  1  0.17111375  0.66597420  0.25209419  1
  Mg  Mg89  1  0.33419806  0.08423351  0.25171284  1
  Mg  Mg90  1  0.16766571  0.33515242  0.25677831  1
  Mg  Mg91  1  0.49724589  0.33478309  0.25135578  1
  Mg  Mg92  1  0.16912392  0.33536875  0.75329792  1
  Mg  Mg93  1  0.33490302  0.91628322  0.75011704  1
  Mg  Mg94  1  -0.00111856  0.58303230  0.75294415  1
  Mg  Mg95  1  0.82850468  0.33253237  0.74961467  1
  Fe  Fe96  1  0.52209448  0.91792697  0.60706267  1
  Fe  Fe97  1  0.51953881  0.92359907  0.10145569  1
  Fe  Fe98  1  0.80649936  0.91732458  0.89146024  1
  Fe  Fe99  1  0.31259743  0.66655702  0.39013301  1
  Fe  Fe100  1  0.69346377  0.83777533  0.10195992  1
  Fe  Fe101  1  0.14282568  0.08335783  0.89800808  1
  Fe  Fe102  1  0.69598900  0.33184085  0.60784320  1
  Fe  Fe103  1  0.68812127  0.66069315  0.10294190  1
  Fe  Fe104  1  0.30951582  0.33669595  0.39449784  1
  Fe  Fe105  1  0.14528870  0.41652908  0.89475818  1
  Fe  Fe106  1  0.80601523  0.58103266  0.38751272  1
  Fe  Fe107  1  0.97111152  0.32802881  0.39218503  1
  Fe  Fe108  1  0.19224942  0.42218933  0.61151334  1
  Fe  Fe109  1  0.35825840  0.33214888  0.61003901  1
  Fe  Fe110  1  0.68886270  0.67156198  0.60554382  1
  Fe  Fe111  1  0.52589646  0.41773071  0.60279090  1
  Fe  Fe112  1  0.86573462  0.58333527  0.60871690  1
  Si  Si113  1  0.35816468  0.82598902  0.10853138  1
  Si  Si114  1  0.51685881  0.08620938  0.61186415  1
  Si  Si115  1  0.02820138  0.32968467  0.11666766  1
  Si  Si116  1  0.03192766  0.67208106  0.61669554  1
  Si  Si117  1  0.02677681  0.83523695  0.61993117  1
  Si  Si118  1  0.35334530  0.17229497  0.11641171  1
  Si  Si119  1  0.13417214  0.42181093  0.39076506  1
  Si  Si120  1  0.63841994  0.66532144  0.88128982  1
  Si  Si121  1  0.80927607  0.91552005  0.38239680  1
  Si  Si122  1  0.48200735  0.91818312  0.38248780  1
  Si  Si123  1  0.80399261  0.08911536  0.88893844  1
  Si  Si124  1  0.51727048  0.57611072  0.10867715  1
  Si  Si125  1  0.63468375  0.66747746  0.38232348  1
  Si  Si126  1  0.86547411  0.57899359  0.10965719  1
  Si  Si127  1  0.97094417  0.67128697  0.38508015  1
  Si  Si128  1  0.79987278  0.41752470  0.88397200  1
  Si  Si129  1  0.14726269  0.91549953  0.38602001  1
  Si  Si130  1  0.18804961  0.41947896  0.11697710  1
  Si  Si131  1  0.19474667  0.91448959  0.11518763  1
  Si  Si132  1  0.86046351  0.08646081  0.11507113  1
  Si  Si133  1  0.18828419  0.58309285  0.11617239  1
  Si  Si134  1  0.64388211  0.16710901  0.38318206  1
  Si  Si135  1  0.47781965  0.58082744  0.38336110  1
  Si  Si136  1  0.35235020  0.66861391  0.61494709  1
  Si  Si137  1  0.47490242  0.41843012  0.88659807  1
  Si  Si138  1  0.18907502  0.58912373  0.61628363  1
  Si  Si139  1  0.35482281  0.66245409  0.11280753  1
  Si  Si140  1  0.86855440  0.92013051  0.11105373  1
  Si  Si141  1  0.19017920  0.07982258  0.61932355  1
  Si  Si142  1  0.68962508  0.16249443  0.61337080  1
  Si  Si143  1  0.47864081  0.42069844  0.38608714  1
  Si  Si144  1  0.19370224  0.08075349  0.11574377  1
  Si  Si145  1  0.03438386  0.32594991  0.61700684  1
  Si  Si146  1  0.80677581  0.58437237  0.88428219  1
  Si  Si147  1  0.97844341  0.83669969  0.38292666  1
  Si  Si148  1  0.02714353  0.66885146  0.11466248  1
  Si  Si149  1  0.35290567  0.83202222  0.61270221  1
  Si  Si150  1  0.63553000  0.82982654  0.88472985  1
  Si  Si151  1  0.85807666  0.08121972  0.61906423  1
  Si  Si152  1  0.03152265  0.83497911  0.11524706  1
  Si  Si153  1  0.47906424  0.08131824  0.88564989  1
  Si  Si154  1  0.02931361  0.16573756  0.11729491  1
  Si  Si155  1  0.64332243  0.83273472  0.38200050  1
  Si  Si156  1  0.35065275  0.16466920  0.61520835  1
  Si  Si157  1  0.63625192  0.33267641  0.38333955  1
  Si  Si158  1  0.80884727  0.08111520  0.38443869  1
  Si  Si159  1  0.31245591  0.66949740  0.88599478  1
  Si  Si160  1  0.69354414  0.16891472  0.11242630  1
  Si  Si161  1  0.96957689  0.17080399  0.89184489  1
  Si  Si162  1  0.13669894  0.58826252  0.38791357  1
  Si  Si163  1  0.19047888  0.91623424  0.61881533  1
  Si  Si164  1  0.47939016  0.08211174  0.38400049  1
  Si  Si165  1  0.97438674  0.66387496  0.88942328  1
  Si  Si166  1  0.35213910  0.33453720  0.11643170  1
  Si  Si167  1  0.02434662  0.16322985  0.62012063  1
  Si  Si168  1  0.51983879  0.09474941  0.10976926  1
  Si  Si169  1  0.63712409  0.17065900  0.88263244  1
  Si  Si170  1  0.80222679  0.41036147  0.38736453  1
  Si  Si171  1  0.97962307  0.15981771  0.38917738  1
  Si  Si172  1  0.52004792  0.41053863  0.11403732  1
  Si  Si173  1  0.86212466  0.41332496  0.11484379  1
  Si  Si174  1  0.14464827  0.90967075  0.89301980  1
  Si  Si175  1  0.97675568  0.82895359  0.89211038  1
  Si  Si176  1  0.69494699  0.84109076  0.60809922  1
  Si  Si177  1  0.31534484  0.33005252  0.89253934  1
  Si  Si178  1  0.14595320  0.07945661  0.38626106  1
  Si  Si179  1  0.51092408  0.58588024  0.60676783  1
  Si  Si180  1  0.14639246  0.58872913  0.89033653  1
  Si  Si181  1  0.31256982  0.83361229  0.88639114  1
  Si  Si182  1  0.86424073  0.91713974  0.61797831  1
  Si  Si183  1  0.31654304  0.16549434  0.89196798  1
  Si  Si184  1  0.96884827  0.33758068  0.89007969  1
  Si  Si185  1  0.87103190  0.40678036  0.61291903  1
  Si  Si186  1  0.69238915  0.33543902  0.11382056  1
  Si  Si187  1  0.47507217  0.58289354  0.88427191  1
  Si  Si188  1  0.63655375  0.33544962  0.88444649  1
  Si  Si189  1  0.31587077  0.83427012  0.38763905  1
  Si  Si190  1  0.47444193  0.91661707  0.88425488  1
  Si  Si191  1  0.31263918  0.16300830  0.38954957  1
  O  O192  1  0.27301306  0.11932762  0.08724509  1
  O  O193  1  0.27376554  0.10405405  0.58951789  1
  O  O194  1  0.26861396  0.61496732  0.08568175  1
  O  O195  1  0.27514209  0.61280700  0.58777534  1
  O  O196  1  0.60204470  0.13202775  0.08240037  1
  O  O197  1  0.60295528  0.11426915  0.58533740  1
  O  O198  1  0.59100518  0.60309613  0.07109203  1
  O  O199  1  0.58999310  0.61714116  0.57625575  1
  O  O200  1  0.93792094  0.12794982  0.08703837  1
  O  O201  1  0.93958546  0.11552734  0.58987864  1
  O  O202  1  0.94562761  0.61958083  0.08346817  1
  O  O203  1  0.96388074  0.61789558  0.57759686  1
  O  O204  1  0.10277179  0.37268925  0.08643071  1
  O  O205  1  0.11650546  0.34525005  0.58549831  1
  O  O206  1  0.11166258  0.86578005  0.08348317  1
  O  O207  1  0.10881168  0.86561592  0.58984602  1
  O  O208  1  0.43575274  0.36101626  0.08580442  1
  O  O209  1  0.45223895  0.34375579  0.57216883  1
  O  O210  1  0.42909224  0.85863495  0.07010384  1
  O  O211  1  0.42803052  0.85653182  0.57525561  1
  O  O212  1  0.76850476  0.37762850  0.08491128  1
  O  O213  1  0.79889916  0.35103743  0.57908706  1
  O  O214  1  0.79394490  0.87089260  0.07421367  1
  O  O215  1  0.78502298  0.86858588  0.58342831  1
  O  O216  1  0.27035567  0.38616439  0.08841145  1
  O  O217  1  0.28519224  0.40417188  0.57396142  1
  O  O218  1  0.27171497  0.87619233  0.08520563  1
  O  O219  1  0.27000133  0.88569837  0.58716498  1
  O  O220  1  0.60080988  0.37430157  0.08475500  1
  O  O221  1  0.61657745  0.39405454  0.56249097  1
  O  O222  1  0.61295353  0.90421764  0.06481826  1
  O  O223  1  0.62250564  0.89885739  0.57570740  1
  O  O224  1  0.93474146  0.36480012  0.08720205  1
  O  O225  1  0.95861550  0.38069244  0.58574323  1
  O  O226  1  0.95568833  0.89102538  0.08688982  1
  O  O227  1  0.94848443  0.88850564  0.58913937  1
  O  O228  1  0.10453652  0.12279824  0.08713775  1
  O  O229  1  0.10473780  0.12723904  0.59042609  1
  O  O230  1  0.10707324  0.63453222  0.08430771  1
  O  O231  1  0.12444546  0.65765782  0.59413133  1
  O  O232  1  0.43972119  0.15193209  0.08785707  1
  O  O233  1  0.43559484  0.14090942  0.58523670  1
  O  O234  1  0.42895790  0.62105902  0.08040951  1
  O  O235  1  0.43267623  0.64599573  0.58163905  1
  O  O236  1  0.77088299  0.12849535  0.08363857  1
  O  O237  1  0.77024524  0.12038545  0.58498191  1
  O  O238  1  0.77909659  0.61305879  0.07144434  1
  O  O239  1  0.77379452  0.63337304  0.56514733  1
  O  O240  1  0.06227350  0.10693409  0.41532780  1
  O  O241  1  0.05261392  0.12846939  0.92983436  1
  O  O242  1  0.05090767  0.61824782  0.41362110  1
  O  O243  1  0.06557910  0.62459236  0.91965055  1
  O  O244  1  0.39713489  0.11092095  0.41362481  1
  O  O245  1  0.40100665  0.11510123  0.91813897  1
  O  O246  1  0.39695974  0.59727957  0.41784451  1
  O  O247  1  0.39630395  0.62077631  0.91500085  1
  O  O248  1  0.73001581  0.12077669  0.41259884  1
  O  O249  1  0.72626989  0.13205189  0.91633000  1
  O  O250  1  0.70888316  0.61467264  0.41621438  1
  O  O251  1  0.72883882  0.62502640  0.91380832  1
  O  O252  1  0.21102884  0.36905905  0.42210545  1
  O  O253  1  0.24058933  0.35805901  0.92995132  1
  O  O254  1  0.23336766  0.87119558  0.41631464  1
  O  O255  1  0.23163156  0.86167095  0.91767673  1
  O  O256  1  0.55097318  0.35772973  0.40959002  1
  O  O257  1  0.56257190  0.37589809  0.91885608  1
  O  O258  1  0.56642110  0.87065868  0.41369500  1
  O  O259  1  0.55194051  0.86301318  0.91315958  1
  O  O260  1  0.86562595  0.34544072  0.41567945  1
  O  O261  1  0.88731470  0.37485383  0.91736499  1
  O  O262  1  0.89966138  0.87500279  0.41242570  1
  O  O263  1  0.90979096  0.87160174  0.92764985  1
  O  O264  1  0.04969993  0.40081894  0.41996572  1
  O  O265  1  0.05144327  0.37987534  0.92844729  1
  O  O266  1  0.06469399  0.88232377  0.41402248  1
  O  O267  1  0.07170413  0.86272073  0.92065710  1
  O  O268  1  0.39783066  0.40270512  0.41949610  1
  O  O269  1  0.40006559  0.38002974  0.92000797  1
  O  O270  1  0.39698430  0.89058516  0.40952525  1
  O  O271  1  0.39167668  0.88698653  0.91438518  1
  O  O272  1  0.71104952  0.38899272  0.41066165  1
  O  O273  1  0.72479674  0.37766374  0.91763666  1
  O  O274  1  0.73260955  0.87559211  0.41158674  1
  O  O275  1  0.71718191  0.87223603  0.92338670  1
  O  O276  1  0.23203438  0.12452266  0.41751503  1
  O  O277  1  0.24198229  0.13721869  0.92930976  1
  O  O278  1  0.21276835  0.63971668  0.42162599  1
  O  O279  1  0.23002146  0.64186471  0.91664214  1
  O  O280  1  0.56408049  0.13129151  0.41247233  1
  O  O281  1  0.56312036  0.12870800  0.91632864  1
  O  O282  1  0.54837347  0.64376474  0.40940940  1
  O  O283  1  0.56383610  0.62356316  0.91494525  1
  O  O284  1  0.89822444  0.11990266  0.41620984  1
  O  O285  1  0.88787491  0.13780534  0.92017957  1
  O  O286  1  0.89116875  0.64921957  0.41789097  1
  O  O287  1  0.89912967  0.62117955  0.91966563  1
  O  O288  1  0.18579349  -0.00185752  0.08632458  1
  O  O289  1  0.16720791  -0.00224800  0.59006375  1
  O  O290  1  0.17138283  0.50078285  0.08575653  1
  O  O291  1  0.15094613  0.51568424  0.58236844  1
  O  O292  1  0.49104103  0.02064137  0.07324470  1
  O  O293  1  0.49006426  0.01067802  0.57406308  1
  O  O294  1  0.49764673  0.49086156  0.08382391  1
  O  O295  1  0.48072342  0.50903422  0.57349878  1
  O  O296  1  0.85654326  0.00477240  0.08468471  1
  O  O297  1  0.85062060  -0.00071010  0.58796991  1
  O  O298  1  0.86874690  0.49375865  0.08406372  1
  O  O299  1  0.85112514  0.48671780  0.58248914  1
  O  O300  1  0.02645670  0.24780376  0.08596866  1
  O  O301  1  0.00546411  0.24336394  0.58967228  1
  O  O302  1  0.01349960  0.75220529  0.08649973  1
  O  O303  1  0.00599557  0.75511972  0.58984001  1
  O  O304  1  0.32672872  0.25336576  0.08741638  1
  O  O305  1  0.31334035  0.23915377  0.58362133  1
  O  O306  1  0.33538864  0.74287660  0.07907186  1
  O  O307  1  0.32040547  0.75003834  0.58926689  1
  O  O308  1  0.68849743  0.25263937  0.08401154  1
  O  O309  1  0.67556384  0.23648985  0.57200647  1
  O  O310  1  0.66948365  0.74855422  0.06245605  1
  O  O311  1  0.67170197  0.76562680  0.56985177  1
  O  O312  1  0.16169109  -0.00286388  0.41642824  1
  O  O313  1  0.15673418  -0.01307110  0.92936469  1
  O  O314  1  0.15685678  0.50582847  0.41440386  1
  O  O315  1  0.16767521  0.51222978  0.92685771  1
  O  O316  1  0.50079428  0.00065743  0.41262627  1
  O  O317  1  0.49416827  -0.00161799  0.91400249  1
  O  O318  1  0.51800863  0.50066674  0.40791056  1
  O  O319  1  0.48318444  0.50130948  0.91651395  1
  O  O320  1  0.81597954  -0.00190721  0.41320435  1
  O  O321  1  0.81508193  0.01212085  0.92648345  1
  O  O322  1  0.83375906  0.48738880  0.41887157  1
  O  O323  1  0.80892365  0.50070753  0.91426605  1
  O  O324  1  0.33251389  0.24018537  0.42376005  1
  O  O325  1  0.34400172  0.24759511  0.91850524  1
  O  O326  1  0.33935353  0.76001662  0.42701368  1
  O  O327  1  0.33463546  0.75164802  0.91446977  1
  O  O328  1  0.65850136  0.24969885  0.41074328  1
  O  O329  1  0.64297628  0.25280865  0.91614295  1
  O  O330  1  0.65523247  0.75073047  0.41030977  1
  O  O331  1  0.64326536  0.74641097  0.91347161  1
  O  O332  1  1.00057946  0.23501070  0.42732847  1
  O  O333  1  0.97534791  0.25449007  0.91962528  1
  O  O334  1  0.99677101  0.75495278  0.41111859  1
  O  O335  1  0.98216263  0.74536313  0.92084949  1
  O  O336  1  0.21137384  0.08373617  0.19588419  1
  O  O337  1  0.20896152  0.08101075  0.69973720  1
  O  O338  1  0.20045722  0.58219682  0.19521483  1
  O  O339  1  0.21037506  0.58555291  0.69781269  1
  O  O340  1  0.54415184  0.08953007  0.19084976  1
  O  O341  1  0.53309393  0.08280858  0.69185379  1
  O  O342  1  0.53942703  0.58035303  0.18936646  1
  O  O343  1  0.52462749  0.58332732  0.68729278  1
  O  O344  1  0.87374993  0.08521090  0.19473381  1
  O  O345  1  0.87723439  0.08255964  0.69928491  1
  O  O346  1  0.87977858  0.58171502  0.19049005  1
  O  O347  1  0.88659423  0.59555813  0.69844129  1
  O  O348  1  0.04596726  0.33171290  0.19676384  1
  O  O349  1  0.04810028  0.32679612  0.69813587  1
  O  O350  1  0.04691707  0.83373475  0.19569134  1
  O  O351  1  0.04538529  0.83584201  0.70051961  1
  O  O352  1  0.37504116  0.33309366  0.19640130  1
  O  O353  1  0.37537282  0.33146366  0.70323101  1
  O  O354  1  0.38102736  0.82464514  0.18835512  1
  O  O355  1  0.37289489  0.83493290  0.69375522  1
  O  O356  1  0.70985323  0.33298818  0.19413378  1
  O  O357  1  0.71092965  0.32909753  0.69838400  1
  O  O358  1  0.71288088  0.83490108  0.19565310  1
  O  O359  1  0.71135625  0.84060433  0.68847313  1
  O  O360  1  0.20534502  0.41787430  0.19686781  1
  O  O361  1  0.21384200  0.41740412  0.70412772  1
  O  O362  1  0.20321946  0.91665905  0.19430285  1
  O  O363  1  0.20878084  0.91674258  0.69939948  1
  O  O364  1  0.54172914  0.41204131  0.19410122  1
  O  O365  1  0.53837021  0.41431617  0.69538700  1
  O  O366  1  0.54451900  0.91921291  0.19430199  1
  O  O367  1  0.54165100  0.91706926  0.69847662  1
  O  O368  1  0.87580984  0.41460151  0.19498627  1
  O  O369  1  0.88738883  0.40377317  0.69354845  1
  O  O370  1  0.88104472  0.91862646  0.19220529  1
  O  O371  1  0.88118019  0.91705289  0.69809542  1
  O  O372  1  0.04679850  0.16820736  0.19693664  1
  O  O373  1  0.04319272  0.16347520  0.70040276  1
  O  O374  1  0.04364576  0.66786152  0.19509319  1
  O  O375  1  0.04683178  0.67071804  0.69801332  1
  O  O376  1  0.37336837  0.17046664  0.19694927  1
  O  O377  1  0.37156378  0.16359473  0.69643958  1
  O  O378  1  0.37827165  0.66687405  0.19190352  1
  O  O379  1  0.37213872  0.66804578  0.69571514  1
  O  O380  1  0.71074235  0.16792900  0.19297498  1
  O  O381  1  0.71228274  0.16481740  0.69254852  1
  O  O382  1  0.70999596  0.66673838  0.19522392  1
  O  O383  1  0.71762931  0.67829623  0.69360528  1
  O  O384  1  0.12921872  0.08168272  0.30659830  1
  O  O385  1  0.12218438  0.08180370  0.80627644  1
  O  O386  1  0.11994464  0.58703637  0.30634970  1
  O  O387  1  0.12751546  0.58669323  0.80967557  1
  O  O388  1  0.46070347  0.08475962  0.30347779  1
  O  O389  1  0.45713474  0.08205787  0.80559582  1
  O  O390  1  0.46009250  0.58249339  0.30254880  1
  O  O391  1  0.45511393  0.58411126  0.80448752  1
  O  O392  1  0.79071609  0.08313838  0.30405019  1
  O  O393  1  0.79320570  0.08497853  0.80942980  1
  O  O394  1  0.78789602  0.58115666  0.29532649  1
  O  O395  1  0.79593847  0.58928716  0.80674714  1
  O  O396  1  0.28853941  0.33441055  0.30174888  1
  O  O397  1  0.29210178  0.33099604  0.81231156  1
  O  O398  1  0.29010187  0.82760746  0.30799612  1
  O  O399  1  0.29149750  0.83407600  0.80594936  1
  O  O400  1  0.62137024  0.33108018  0.30218788  1
  O  O401  1  0.61612637  0.33513184  0.80587284  1
  O  O402  1  0.62556178  0.83435013  0.30183785  1
  O  O403  1  0.62063214  0.83464891  0.80513000  1
  O  O404  1  0.95518169  0.33003761  0.29951215  1
  O  O405  1  0.95757538  0.33500034  0.80985410  1
  O  O406  1  0.95867601  0.83666024  0.30245354  1
  O  O407  1  0.96035501  0.83227574  0.81137331  1
  O  O408  1  0.12039630  0.41830390  0.30854622  1
  O  O409  1  0.12336225  0.41566602  0.80402533  1
  O  O410  1  0.12674950  0.91580480  0.30578000  1
  O  O411  1  0.12534801  0.91469005  0.81186105  1
  O  O412  1  0.45756269  0.41677152  0.30447145  1
  O  O413  1  0.45497047  0.41765437  0.80723655  1
  O  O414  1  0.46957055  0.91883898  0.30323951  1
  O  O415  1  0.45362031  0.91673920  0.80425390  1
  O  O416  1  0.78669443  0.41342410  0.30481744  1
  O  O417  1  0.78281320  0.41181345  0.80547710  1
  O  O418  1  0.79290242  0.91817378  0.30229528  1
  O  O419  1  0.78812868  0.91653620  0.80035715  1
  O  O420  1  0.29190133  0.16562614  0.30822063  1
  O  O421  1  0.29258226  0.16351476  0.81110240  1
  O  O422  1  0.28865025  0.66981636  0.29937321  1
  O  O423  1  0.29185751  0.66873156  0.80579419  1
  O  O424  1  0.62482465  0.16591275  0.30247103  1
  O  O425  1  0.61791680  0.16754002  0.80425872  1
  O  O426  1  0.62036479  0.66730745  0.30119392  1
  O  O427  1  0.61506564  0.66704296  0.80320111  1
  O  O428  1  0.95694309  0.16588654  0.30898430  1
  O  O429  1  0.95793275  0.16669228  0.81135651  1
  O  O430  1  0.95514202  0.66920851  0.30357898  1
  O  O431  1  0.96145537  0.66734807  0.80978127  1
  F  F432  1  0.04926452  -0.00122825  0.20179053  1
  F  F433  1  0.04440793  -0.00283126  0.70773102  1
  F  F434  1  0.04451108  0.49897077  0.20455419  1
  F  F435  1  0.04799474  0.50267076  0.70476410  1
  F  F436  1  0.38294196  0.01349620  0.19673997  1
  F  F437  1  0.37489382  0.00011250  0.70363945  1
  F  F438  1  0.37809528  0.49184084  0.19826679  1
  F  F439  1  0.37565978  0.49980844  0.70515983  1
  F  F440  1  0.71593227  0.00289908  0.19944609  1
  F  F441  1  0.71250004  0.00104788  0.70055210  1
  F  F442  1  0.71002497  0.49409364  0.19651623  1
  F  F443  1  0.69788940  0.48453173  0.68542137  1
  F  F444  1  0.20988008  0.24819355  0.20442067  1
  F  F445  1  0.21175512  0.24563635  0.71052617  1
  F  F446  1  0.20951735  0.75183112  0.19880998  1
  F  F447  1  0.21137926  0.75310357  0.70595063  1
  F  F448  1  0.54419238  0.25058707  0.20053434  1
  F  F449  1  0.53691205  0.24782348  0.69835402  1
  F  F450  1  0.54578066  0.74875036  0.19835941  1
  F  F451  1  0.53473838  0.75085610  0.69650253  1
  F  F452  1  0.87751426  0.24705778  0.20057942  1
  F  F453  1  0.88225903  0.24515035  0.70651306  1
  F  F454  1  0.88167464  0.75046622  0.19983602  1
  F  F455  1  0.88429163  0.75616587  0.70449897  1
  F  F456  1  0.28627903  0.00799535  0.30120534  1
  F  F457  1  0.28895524  -0.00159809  0.80165059  1
  F  F458  1  0.28514112  0.49855731  0.29982072  1
  F  F459  1  0.29078803  0.50408541  0.80351104  1
  F  F460  1  0.62493316  0.00377008  0.29402229  1
  F  F461  1  0.61961632  -0.00170931  0.80086796  1
  F  F462  1  0.61937005  0.49988424  0.29126483  1
  F  F463  1  0.61589514  0.49272840  0.79972607  1
  F  F464  1  0.95421664  -0.00385676  0.29957743  1
  F  F465  1  0.95392879  -0.00032524  0.80369302  1
  F  F466  1  0.95198144  0.50067889  0.29625324  1
  F  F467  1  0.96812258  0.49929956  0.80482475  1
  F  F468  1  0.12225729  0.24837117  0.30143223  1
  F  F469  1  0.12163915  0.24831311  0.80485552  1
  F  F470  1  0.12074731  0.75149555  0.29770744  1
  F  F471  1  0.12387839  0.75060663  0.80233155  1
  F  F472  1  0.45629200  0.24872497  0.29806162  1
  F  F473  1  0.45547740  0.24520480  0.80078807  1
  F  F474  1  0.45761374  0.75196000  0.29457184  1
  F  F475  1  0.45255918  0.75147838  0.79708842  1
  F  F476  1  0.78593505  0.24689615  0.29601977  1
  F  F477  1  0.79801337  0.24961471  0.80565050  1
  F  F478  1  0.79176778  0.75204095  0.29612950  1
  F  F479  1  0.79820427  0.75231130  0.80351867  1
