# generated using pymatgen
data_K24Na3Li5Mg64Fe17Si79(O5F)48
_symmetry_space_group_name_H-M   'P 1'
_cell_length_a   16.09608953
_cell_length_b   18.60096172
_cell_length_c   20.55710604
_cell_angle_alpha   90.01310905
_cell_angle_beta   100.01733222
_cell_angle_gamma   89.98624818
_symmetry_Int_Tables_number   1
_chemical_formula_structural   K24Na3Li5Mg64Fe17Si79(O5F)48
_chemical_formula_sum   'K24 Na3 Li5 Mg64 Fe17 Si79 O240 F48'
_cell_volume   6061.02404877
_cell_formula_units_Z   1
loop_
 _symmetry_equiv_pos_site_id
 _symmetry_equiv_pos_as_xyz
  1  'x, y, z'
loop_
 _atom_site_type_symbol
 _atom_site_label
 _atom_site_symmetry_multiplicity
 _atom_site_fract_x
 _atom_site_fract_y
 _atom_site_fract_z
 _atom_site_occupancy
  K  K0  1  -0.00076950  0.00253568  -0.00290229  1
  K  K1  1  -0.00230022  -0.00306055  0.49508250  1
  K  K2  1  0.00819268  0.50459347  0.00826861  1
  K  K3  1  0.00527312  0.50173038  0.49330135  1
  K  K4  1  0.32908204  -0.00115829  0.00124797  1
  K  K5  1  0.32747096  -0.00315515  0.49784992  1
  K  K6  1  0.32390945  0.49581507  0.00742009  1
  K  K7  1  0.32339206  0.50305402  0.49487234  1
  K  K8  1  0.67017030  0.00126390  0.00219417  1
  K  K9  1  0.67062075  -0.00705707  0.50535863  1
  K  K10  1  0.67870006  0.50332493  0.00984576  1
  K  K11  1  0.67579330  0.50083593  0.49508408  1
  K  K12  1  0.15648898  0.24543480  -0.00721279  1
  K  K13  1  0.17764755  0.25040566  0.50737962  1
  K  K14  1  0.17007660  0.75454745  0.01522197  1
  K  K15  1  0.16029432  0.75214193  0.48278118  1
  K  K16  1  0.50125074  0.24258649  -0.00435766  1
  K  K17  1  0.49790861  0.24811095  0.50424261  1
  K  K18  1  0.50557339  0.75047225  0.01874606  1
  K  K19  1  0.50060565  0.75174915  0.47531520  1
  K  K20  1  0.83684631  0.24895131  -0.00739138  1
  K  K21  1  0.83218951  0.24940594  0.50515672  1
  K  K22  1  0.83890228  0.74474352  0.01729509  1
  K  K23  1  0.83018525  0.75501558  0.48918264  1
  Na  Na24  1  0.34165376  0.74819716  0.25737107  1
  Na  Na25  1  0.33288591  0.08549595  0.75146389  1
  Na  Na26  1  0.50025307  0.82554019  0.24749854  1
  Li  Li27  1  0.82605830  0.00146958  0.74233992  1
  Li  Li28  1  0.33575391  0.24655102  0.74479737  1
  Li  Li29  1  0.66957999  0.08070420  0.74473769  1
  Li  Li30  1  0.49860984  0.67279423  0.25301338  1
  Li  Li31  1  0.00162788  0.91240187  0.24823871  1
  Mg  Mg32  1  0.83720534  -0.00002658  0.24838676  1
  Mg  Mg33  1  0.50131332  -0.00201855  0.24563566  1
  Mg  Mg34  1  -0.00060904  0.24877021  0.75334330  1
  Mg  Mg35  1  0.50191486  0.00170389  0.74890141  1
  Mg  Mg36  1  0.49820723  0.50437021  0.25106005  1
  Mg  Mg37  1  0.66771560  0.24735938  0.74764456  1
  Mg  Mg38  1  0.00260645  0.75375645  0.25107944  1
  Mg  Mg39  1  0.66539283  0.75091868  0.74899600  1
  Mg  Mg40  1  0.66575336  0.74814357  0.24545948  1
  Mg  Mg41  1  0.33302368  0.25090331  0.25302927  1
  Mg  Mg42  1  0.33327072  0.75086788  0.75044997  1
  Mg  Mg43  1  0.83417152  0.49706484  0.75094594  1
  Mg  Mg44  1  -0.00192762  0.75205588  0.74966266  1
  Mg  Mg45  1  0.66533391  0.24956569  0.24692960  1
  Mg  Mg46  1  0.83165532  0.50207615  0.24803826  1
  Mg  Mg47  1  0.49873242  0.49729434  0.74764004  1
  Mg  Mg48  1  0.16593085  -0.00219296  0.25133615  1
  Mg  Mg49  1  0.16866553  0.49753139  0.74991392  1
  Mg  Mg50  1  0.16550391  0.50241571  0.25200244  1
  Mg  Mg51  1  -0.00074344  0.24859240  0.25080557  1
  Mg  Mg52  1  0.16548930  0.00165987  0.75461771  1
  Mg  Mg53  1  0.33518760  0.08339436  0.25175071  1
  Mg  Mg54  1  0.83331938  0.66612828  0.25024500  1
  Mg  Mg55  1  0.00077998  0.58697453  0.25116006  1
  Mg  Mg56  1  0.50005792  0.16553522  0.24719280  1
  Mg  Mg57  1  0.00049103  0.08107396  0.25040961  1
  Mg  Mg58  1  0.33223494  0.41105588  0.74730695  1
  Mg  Mg59  1  0.49871685  0.66601321  0.75015527  1
  Mg  Mg60  1  0.33286273  0.91835740  0.75132078  1
  Mg  Mg61  1  0.66550460  0.08401104  0.24363341  1
  Mg  Mg62  1  0.00052114  0.58344769  0.75108201  1
  Mg  Mg63  1  0.33177702  0.58321869  0.74850508  1
  Mg  Mg64  1  0.33182855  0.41592453  0.25244611  1
  Mg  Mg65  1  0.16584394  0.66650298  0.74960346  1
  Mg  Mg66  1  0.66555504  0.58709186  0.24910067  1
  Mg  Mg67  1  0.16493971  0.83551359  0.75135992  1
  Mg  Mg68  1  0.33570374  0.91415301  0.25086478  1
  Mg  Mg69  1  0.17175295  0.33172938  0.74935616  1
  Mg  Mg70  1  0.49992718  0.83570824  0.75080379  1
  Mg  Mg71  1  0.49969287  0.16542271  0.74686956  1
  Mg  Mg72  1  0.82964539  0.16103218  0.74915841  1
  Mg  Mg73  1  0.83208303  0.66537626  0.74968831  1
  Mg  Mg74  1  0.83018434  0.33413533  0.24919545  1
  Mg  Mg75  1  0.83618826  0.83562964  0.24583439  1
  Mg  Mg76  1  0.83397884  0.33141817  0.75104631  1
  Mg  Mg77  1  0.33291899  0.58600510  0.25177808  1
  Mg  Mg78  1  0.83116115  0.83620643  0.74802863  1
  Mg  Mg79  1  0.49836962  0.33505054  0.25135185  1
  Mg  Mg80  1  0.16723123  0.83454367  0.25246119  1
  Mg  Mg81  1  -0.00025664  0.41583702  0.25230802  1
  Mg  Mg82  1  -0.00204818  0.08232354  0.75308928  1
  Mg  Mg83  1  0.66509010  0.58287980  0.75017274  1
  Mg  Mg84  1  0.66703255  0.91446649  0.24325961  1
  Mg  Mg85  1  0.16917559  0.16602975  0.75311228  1
  Mg  Mg86  1  0.66868330  0.91934425  0.74725619  1
  Mg  Mg87  1  0.16671991  0.66549679  0.25202555  1
  Mg  Mg88  1  0.66437151  0.41756534  0.24941203  1
  Mg  Mg89  1  0.49692019  0.33003167  0.74656772  1
  Mg  Mg90  1  0.83042207  0.16584810  0.24586642  1
  Mg  Mg91  1  0.00247102  0.41278004  0.75090303  1
  Mg  Mg92  1  0.16862161  0.16483669  0.25342515  1
  Mg  Mg93  1  -0.00522917  0.91850973  0.75222096  1
  Mg  Mg94  1  0.16800564  0.33389954  0.25370997  1
  Mg  Mg95  1  0.66626436  0.41342621  0.74853627  1
  Fe  Fe96  1  0.36643299  0.32866867  0.60704517  1
  Fe  Fe97  1  0.14397975  0.91922319  0.39070013  1
  Fe  Fe98  1  0.69454907  0.33685256  0.60986881  1
  Fe  Fe99  1  0.19526404  0.58273711  0.10786092  1
  Fe  Fe100  1  0.80368939  0.58306609  0.38993314  1
  Fe  Fe101  1  0.14690880  0.08171335  0.89364755  1
  Fe  Fe102  1  0.69018979  0.17274543  0.10647546  1
  Fe  Fe103  1  0.19584404  0.41895192  0.60803979  1
  Fe  Fe104  1  0.86140560  0.92346518  0.11043888  1
  Fe  Fe105  1  0.14160044  0.58275808  0.39419252  1
  Fe  Fe106  1  0.52333281  0.91813324  0.10618482  1
  Fe  Fe107  1  0.97332376  0.33664233  0.89211450  1
  Fe  Fe108  1  0.02833822  0.67370125  0.11052678  1
  Fe  Fe109  1  0.85515424  0.91822374  0.61020009  1
  Fe  Fe110  1  0.68929312  0.66197802  0.10813340  1
  Fe  Fe111  1  0.31453504  0.66521731  0.39625613  1
  Fe  Fe112  1  0.31086400  0.33471957  0.39199928  1
  Si  Si113  1  0.35818757  0.16921100  0.11581977  1
  Si  Si114  1  0.97299582  0.66451226  0.88555913  1
  Si  Si115  1  0.47291644  0.91983439  0.88558198  1
  Si  Si116  1  0.18772561  0.41253060  0.11364568  1
  Si  Si117  1  0.02669060  0.83574237  0.61435580  1
  Si  Si118  1  0.80459185  0.41269895  0.38651080  1
  Si  Si119  1  0.68389876  0.34100460  0.11172111  1
  Si  Si120  1  0.85532626  0.08757380  0.61184266  1
  Si  Si121  1  0.35856548  0.15919811  0.60993486  1
  Si  Si122  1  0.52536017  0.07798883  0.61271071  1
  Si  Si123  1  0.19827012  0.91690053  0.11481399  1
  Si  Si124  1  0.47904601  0.58023732  0.38759697  1
  Si  Si125  1  0.31060238  0.33668271  0.88734624  1
  Si  Si126  1  0.18705687  0.08136597  0.61587194  1
  Si  Si127  1  0.80405853  0.91344124  0.88435850  1
  Si  Si128  1  0.86029119  0.58320541  0.61580478  1
  Si  Si129  1  0.02863901  0.84180118  0.11187929  1
  Si  Si130  1  0.80409799  0.91729481  0.38298985  1
  Si  Si131  1  0.13460438  0.40894539  0.38955729  1
  Si  Si132  1  0.63912619  0.66928135  0.38705183  1
  Si  Si133  1  0.35679296  0.33218933  0.11576511  1
  Si  Si134  1  0.03075903  0.33100975  0.61431593  1
  Si  Si135  1  0.85914026  0.41190376  0.11525605  1
  Si  Si136  1  0.97158183  0.83633323  0.38627338  1
  Si  Si137  1  0.35761129  0.83569946  0.61633704  1
  Si  Si138  1  0.53135356  0.42140956  0.61184355  1
  Si  Si139  1  0.35717719  0.83163502  0.11156912  1
  Si  Si140  1  0.02274847  0.16625021  0.61577378  1
  Si  Si141  1  0.68912559  0.66108434  0.61476414  1
  Si  Si142  1  0.31569035  0.84003626  0.39279668  1
  Si  Si143  1  0.86382123  0.57827877  0.10950117  1
  Si  Si144  1  0.64295388  0.83426704  0.38157918  1
  Si  Si145  1  0.52285495  0.58067355  0.11329187  1
  Si  Si146  1  0.86016952  0.09100850  0.11004669  1
  Si  Si147  1  0.63860423  0.66992691  0.88489437  1
  Si  Si148  1  0.31491403  0.16529895  0.38748197  1
  Si  Si149  1  0.64182733  0.16611205  0.88239991  1
  Si  Si150  1  0.52513888  0.91276314  0.61401483  1
  Si  Si151  1  0.18843980  0.58955818  0.61373993  1
  Si  Si152  1  0.80110557  0.42055884  0.88918536  1
  Si  Si153  1  0.68722460  0.16772374  0.61111727  1
  Si  Si154  1  0.14627807  0.41993529  0.88972163  1
  Si  Si155  1  0.31191389  0.17233858  0.88952623  1
  Si  Si156  1  0.80403319  0.58586210  0.88547085  1
  Si  Si157  1  0.51773825  0.41955706  0.11557132  1
  Si  Si158  1  0.36255790  0.66389409  0.11364765  1
  Si  Si159  1  0.96657577  0.32944090  0.38480106  1
  Si  Si160  1  0.02473017  0.32700671  0.11689796  1
  Si  Si161  1  0.63776380  0.33166943  0.88428341  1
  Si  Si162  1  0.14473885  0.08917117  0.38941621  1
  Si  Si163  1  0.96970082  0.67075859  0.39079288  1
  Si  Si164  1  0.86715589  0.41709355  0.61296065  1
  Si  Si165  1  0.63806192  0.83502886  0.88513566  1
  Si  Si166  1  0.97283148  0.16540447  0.38436779  1
  Si  Si167  1  0.47821708  0.08588849  0.88449256  1
  Si  Si168  1  0.19671217  0.08243010  0.11727709  1
  Si  Si169  1  0.47605682  0.58160225  0.88507141  1
  Si  Si170  1  0.31023362  0.83114984  0.88563900  1
  Si  Si171  1  0.97122216  0.83013990  0.88673195  1
  Si  Si172  1  0.80678782  0.08238057  0.38299390  1
  Si  Si173  1  0.02345285  0.67131719  0.61635451  1
  Si  Si174  1  0.31140089  0.66649640  0.88522785  1
  Si  Si175  1  0.96993462  0.16258613  0.89063268  1
  Si  Si176  1  0.14367206  0.58648290  0.88515234  1
  Si  Si177  1  0.63856532  0.33039814  0.38405380  1
  Si  Si178  1  0.51912456  0.08541906  0.10799437  1
  Si  Si179  1  0.47995771  0.41964440  0.38784141  1
  Si  Si180  1  0.19154328  0.91640869  0.61721613  1
  Si  Si181  1  0.52037207  0.58394959  0.61510193  1
  Si  Si182  1  0.47814203  0.08220998  0.38440006  1
  Si  Si183  1  0.14137119  0.90876537  0.88924938  1
  Si  Si184  1  0.80303558  0.07944939  0.88097586  1
  Si  Si185  1  0.35769527  0.67046561  0.61567203  1
  Si  Si186  1  0.68743512  0.82633983  0.61083971  1
  Si  Si187  1  0.64107854  0.16581721  0.38340772  1
  Si  Si188  1  0.03084723  0.16249424  0.11712893  1
  Si  Si189  1  0.47556787  0.41671975  0.88516775  1
  Si  Si190  1  0.69503056  0.83388731  0.10555340  1
  Si  Si191  1  0.47888343  0.92146109  0.38404896  1
  O  O192  1  0.27651051  0.11797217  0.08785274  1
  O  O193  1  0.27011363  0.10998462  0.58687617  1
  O  O194  1  0.29042999  0.61176306  0.07247755  1
  O  O195  1  0.27289207  0.62389551  0.58916543  1
  O  O196  1  0.59856070  0.11202595  0.07466799  1
  O  O197  1  0.60536277  0.11369242  0.58347983  1
  O  O198  1  0.60030139  0.59786486  0.07478019  1
  O  O199  1  0.60512534  0.61212659  0.58731916  1
  O  O200  1  0.95167099  0.11175020  0.08608470  1
  O  O201  1  0.93748160  0.12176005  0.58260726  1
  O  O202  1  0.94038279  0.60911660  0.07622849  1
  O  O203  1  0.93916626  0.62250393  0.58847408  1
  O  O204  1  0.10520794  0.35919258  0.08733818  1
  O  O205  1  0.10774653  0.35325354  0.57816771  1
  O  O206  1  0.11645648  0.86837757  0.08506405  1
  O  O207  1  0.11519565  0.86024559  0.58944201  1
  O  O208  1  0.43871061  0.36418891  0.08619520  1
  O  O209  1  0.46710801  0.36004432  0.57914581  1
  O  O210  1  0.43210742  0.85698784  0.07292938  1
  O  O211  1  0.43577659  0.87099416  0.58598159  1
  O  O212  1  0.76842042  0.37305302  0.08526885  1
  O  O213  1  0.79099604  0.36774551  0.57619231  1
  O  O214  1  0.78021597  0.85495408  0.07633192  1
  O  O215  1  0.76091597  0.85844470  0.57550771  1
  O  O216  1  0.27123417  0.37745810  0.08679803  1
  O  O217  1  0.28570387  0.39416128  0.56888903  1
  O  O218  1  0.27328756  0.88239072  0.07941798  1
  O  O219  1  0.27491059  0.88563436  0.58951841  1
  O  O220  1  0.60391056  0.39708142  0.08687848  1
  O  O221  1  0.62015673  0.41406809  0.58485435  1
  O  O222  1  0.62109676  0.89109829  0.07392146  1
  O  O223  1  0.59810613  0.86938760  0.58315169  1
  O  O224  1  0.93580328  0.36886855  0.08741424  1
  O  O225  1  0.95275383  0.38783516  0.58785490  1
  O  O226  1  0.96201785  0.90371307  0.08035020  1
  O  O227  1  0.95281790  0.88695399  0.57785918  1
  O  O228  1  0.11356104  0.13193556  0.08832410  1
  O  O229  1  0.10274540  0.13043705  0.58512611  1
  O  O230  1  0.11081686  0.64144935  0.06514622  1
  O  O231  1  0.10824370  0.64504615  0.58962018  1
  O  O232  1  0.44056223  0.14464609  0.08540478  1
  O  O233  1  0.43484101  0.11504729  0.57907384  1
  O  O234  1  0.44907337  0.63944617  0.08461322  1
  O  O235  1  0.44057198  0.63812488  0.58872383  1
  O  O236  1  0.79473138  0.15490547  0.08071651  1
  O  O237  1  0.77198463  0.13846223  0.58303212  1
  O  O238  1  0.77778310  0.61758508  0.07348295  1
  O  O239  1  0.77129615  0.62617902  0.58821917  1
  O  O240  1  0.06187180  0.12624359  0.41515656  1
  O  O241  1  0.05497836  0.12116676  0.92613900  1
  O  O242  1  0.04855179  0.62220444  0.42616190  1
  O  O243  1  0.06282966  0.62309448  0.91233694  1
  O  O244  1  0.39287115  0.10710344  0.41256776  1
  O  O245  1  0.40440214  0.13025001  0.91343791  1
  O  O246  1  0.40476144  0.60063899  0.42803637  1
  O  O247  1  0.39601309  0.61826194  0.91344126  1
  O  O248  1  0.72747287  0.11996363  0.41251136  1
  O  O249  1  0.72820283  0.12148335  0.91274674  1
  O  O250  1  0.71629616  0.62253240  0.42863611  1
  O  O251  1  0.73087481  0.63340046  0.91293668  1
  O  O252  1  0.20593451  0.34947362  0.41760756  1
  O  O253  1  0.23592314  0.37805926  0.91926504  1
  O  O254  1  0.24316339  0.87181202  0.43173924  1
  O  O255  1  0.22706309  0.85843102  0.91434626  1
  O  O256  1  0.55797854  0.36137308  0.41378209  1
  O  O257  1  0.55926394  0.36841235  0.91497712  1
  O  O258  1  0.56378067  0.87276859  0.41012397  1
  O  O259  1  0.56129713  0.87650043  0.91360993  1
  O  O260  1  0.88252124  0.35603584  0.41287518  1
  O  O261  1  0.88695588  0.38507594  0.92717649  1
  O  O262  1  0.88721190  0.86990516  0.41357723  1
  O  O263  1  0.89459165  0.87264638  0.91427277  1
  O  O264  1  0.04569134  0.38075239  0.41416149  1
  O  O265  1  0.07466724  0.38594361  0.92638995  1
  O  O266  1  0.04948773  0.88435108  0.42373335  1
  O  O267  1  0.06258362  0.86688218  0.91637622  1
  O  O268  1  0.39988564  0.39934381  0.42186470  1
  O  O269  1  0.39728118  0.38329812  0.91656257  1
  O  O270  1  0.40218414  0.89120833  0.41899047  1
  O  O271  1  0.39401019  0.88024461  0.91367279  1
  O  O272  1  0.72214326  0.37769889  0.41356389  1
  O  O273  1  0.72100188  0.38006847  0.91487031  1
  O  O274  1  0.72630010  0.88278968  0.41550597  1
  O  O275  1  0.72795368  0.87323294  0.91594168  1
  O  O276  1  0.22870391  0.14054478  0.41505009  1
  O  O277  1  0.24525396  0.13446859  0.93016311  1
  O  O278  1  0.22945294  0.63594173  0.44048933  1
  O  O279  1  0.22914627  0.63407157  0.91277806  1
  O  O280  1  0.56030628  0.13369683  0.41378111  1
  O  O281  1  0.56716395  0.12691540  0.91595399  1
  O  O282  1  0.55580134  0.63754126  0.41401409  1
  O  O283  1  0.56335568  0.62632122  0.91316785  1
  O  O284  1  0.89424725  0.12660736  0.41352491  1
  O  O285  1  0.89064020  0.11925262  0.91560218  1
  O  O286  1  0.88937349  0.64657879  0.42426995  1
  O  O287  1  0.89722545  0.62099258  0.91360836  1
  O  O288  1  0.18358967  0.00108890  0.08669302  1
  O  O289  1  0.16970895  -0.00247272  0.58724194  1
  O  O290  1  0.16882592  0.48708091  0.07482069  1
  O  O291  1  0.16222548  0.51397887  0.57961549  1
  O  O292  1  0.48338291  0.01027183  0.07537920  1
  O  O293  1  0.51923810  -0.00580657  0.58354197  1
  O  O294  1  0.48663807  0.49856313  0.08621613  1
  O  O295  1  0.49423066  0.50373331  0.58814267  1
  O  O296  1  0.82725815  0.01588277  0.07566681  1
  O  O297  1  0.83388470  0.01102104  0.57507833  1
  O  O298  1  0.85373774  0.49210983  0.08391183  1
  O  O299  1  0.85243896  0.50169659  0.58627653  1
  O  O300  1  0.01250824  0.24455050  0.08788578  1
  O  O301  1  0.00344924  0.24855541  0.58735831  1
  O  O302  1  0.00050040  0.76597586  0.07444464  1
  O  O303  1  0.00402691  0.75258637  0.58816037  1
  O  O304  1  0.33684310  0.25063963  0.08651793  1
  O  O305  1  0.34233727  0.23457256  0.57058263  1
  O  O306  1  0.33736852  0.74715146  0.08684597  1
  O  O307  1  0.34210592  0.75316860  0.58828831  1
  O  O308  1  0.65675975  0.26610357  0.07495444  1
  O  O309  1  0.66284894  0.24474461  0.57514798  1
  O  O310  1  0.66654398  0.75450235  0.07410610  1
  O  O311  1  0.67036749  0.74188490  0.58503532  1
  O  O312  1  0.16188731  0.01378905  0.42718565  1
  O  O313  1  0.15774229  -0.01492527  0.92581635  1
  O  O314  1  0.15524785  0.48598256  0.42420408  1
  O  O315  1  0.16104547  0.50542071  0.91464916  1
  O  O316  1  0.50354176  0.00264196  0.41588614  1
  O  O317  1  0.48092429  0.00227236  0.91441937  1
  O  O318  1  0.51745809  0.49901070  0.41324019  1
  O  O319  1  0.49034221  0.49972716  0.91437647  1
  O  O320  1  0.81756254  0.00046111  0.41299983  1
  O  O321  1  0.80864804  -0.00358081  0.91158280  1
  O  O322  1  0.82642122  0.48809416  0.42371245  1
  O  O323  1  0.79795789  0.50521998  0.91533064  1
  O  O324  1  0.34804712  0.24120458  0.41898822  1
  O  O325  1  0.32729415  0.25616016  0.91988976  1
  O  O326  1  0.34263409  0.76094872  0.42258752  1
  O  O327  1  0.33031442  0.74847905  0.91355311  1
  O  O328  1  0.65705990  0.24792107  0.41232138  1
  O  O329  1  0.65194992  0.24932034  0.91363017  1
  O  O330  1  0.65215097  0.75393068  0.41555331  1
  O  O331  1  0.63994945  0.75189785  0.91335498  1
  O  O332  1  0.98175075  0.24739707  0.41424876  1
  O  O333  1  0.97310768  0.24249146  0.92424879  1
  O  O334  1  0.98715104  0.75488823  0.41748696  1
  O  O335  1  0.97526997  0.74655421  0.91470638  1
  O  O336  1  0.21323815  0.08468222  0.19745194  1
  O  O337  1  0.19980530  0.08086827  0.69492223  1
  O  O338  1  0.21033182  0.58005778  0.19901602  1
  O  O339  1  0.20881353  0.58685015  0.69536321  1
  O  O340  1  0.54078206  0.08674940  0.18990149  1
  O  O341  1  0.54015480  0.08005242  0.69218041  1
  O  O342  1  0.54723790  0.57554265  0.19287109  1
  O  O343  1  0.54180313  0.58515941  0.69618590  1
  O  O344  1  0.87779975  0.08781073  0.19180571  1
  O  O345  1  0.87797644  0.08664612  0.69200142  1
  O  O346  1  0.87904048  0.58026788  0.19080349  1
  O  O347  1  0.87680220  0.58344785  0.69664041  1
  O  O348  1  0.04210525  0.33034658  0.19726089  1
  O  O349  1  0.04686201  0.33275467  0.69535192  1
  O  O350  1  0.04565927  0.83353947  0.19202473  1
  O  O351  1  0.04316861  0.83379962  0.69580092  1
  O  O352  1  0.37743584  0.33225360  0.19592414  1
  O  O353  1  0.38005875  0.33494343  0.69835723  1
  O  O354  1  0.37100985  0.84136479  0.18978565  1
  O  O355  1  0.37684874  0.83282254  0.69701980  1
  O  O356  1  0.70564577  0.33551132  0.19282120  1
  O  O357  1  0.71426050  0.33386287  0.70197185  1
  O  O358  1  0.71224912  0.83428800  0.18759983  1
  O  O359  1  0.70639113  0.82867296  0.69196181  1
  O  O360  1  0.20591909  0.41429479  0.19427484  1
  O  O361  1  0.21164772  0.41799756  0.70107620  1
  O  O362  1  0.21490752  0.91942801  0.19480458  1
  O  O363  1  0.20955217  0.91595540  0.69777420  1
  O  O364  1  0.53918557  0.41555396  0.19585817  1
  O  O365  1  0.54525563  0.41938109  0.69399198  1
  O  O366  1  0.55019701  0.92439140  0.19603787  1
  O  O367  1  0.54329121  0.91252854  0.69430346  1
  O  O368  1  0.87579587  0.41307738  0.19572042  1
  O  O369  1  0.87798223  0.41837459  0.69405357  1
  O  O370  1  0.87874269  0.92019788  0.20107772  1
  O  O371  1  0.87803393  0.91310636  0.70056436  1
  O  O372  1  0.04621037  0.16619725  0.19751518  1
  O  O373  1  0.04043794  0.16614148  0.69602914  1
  O  O374  1  0.04295530  0.66911953  0.20231616  1
  O  O375  1  0.04111319  0.66800171  0.69729440  1
  O  O376  1  0.37603813  0.16836685  0.19639990  1
  O  O377  1  0.38429345  0.16715462  0.68847914  1
  O  O378  1  0.37779880  0.65642518  0.19223995  1
  O  O379  1  0.37669083  0.66861925  0.69674084  1
  O  O380  1  0.70949693  0.16903978  0.19852590  1
  O  O381  1  0.70928924  0.16964282  0.69107358  1
  O  O382  1  0.71432170  0.66485794  0.19881052  1
  O  O383  1  0.70785493  0.66392062  0.69560559  1
  O  O384  1  0.12557022  0.08623302  0.30854212  1
  O  O385  1  0.12160740  0.08349538  0.80234180  1
  O  O386  1  0.11844379  0.58027989  0.30259797  1
  O  O387  1  0.12433301  0.58565594  0.80451665  1
  O  O388  1  0.46011528  0.08523396  0.30401518  1
  O  O389  1  0.46741858  0.08211877  0.80561676  1
  O  O390  1  0.45343385  0.57660393  0.30799231  1
  O  O391  1  0.45705864  0.58358504  0.80455018  1
  O  O392  1  0.78936417  0.08492818  0.30312875  1
  O  O393  1  0.78770195  0.08163189  0.80207493  1
  O  O394  1  0.78921929  0.58018230  0.29868234  1
  O  O395  1  0.78827200  0.58485172  0.80490898  1
  O  O396  1  0.28910339  0.33253670  0.29979564  1
  O  O397  1  0.28919763  0.33836097  0.80831556  1
  O  O398  1  0.28920245  0.84506490  0.31291522  1
  O  O399  1  0.29098625  0.83121132  0.80501820  1
  O  O400  1  0.62216538  0.33169082  0.30335789  1
  O  O401  1  0.62064960  0.33419056  0.80428825  1
  O  O402  1  0.63658158  0.83377074  0.30316875  1
  O  O403  1  0.62127831  0.83210748  0.80452499  1
  O  O404  1  0.95218811  0.33044220  0.30419271  1
  O  O405  1  0.95475364  0.33482084  0.80011905  1
  O  O406  1  0.95478338  0.83262013  0.30651240  1
  O  O407  1  0.95522089  0.82947370  0.80629954  1
  O  O408  1  0.11886632  0.41207858  0.30767821  1
  O  O409  1  0.12423169  0.41846534  0.80896338  1
  O  O410  1  0.12403538  0.91905353  0.30027929  1
  O  O411  1  0.12188259  0.91206934  0.80830679  1
  O  O412  1  0.45871046  0.41522971  0.30670951  1
  O  O413  1  0.45826042  0.41844827  0.80510186  1
  O  O414  1  0.45420478  0.92686144  0.30541456  1
  O  O415  1  0.45559964  0.91582650  0.80535554  1
  O  O416  1  0.78744163  0.41437618  0.30539889  1
  O  O417  1  0.78962900  0.41951809  0.80837779  1
  O  O418  1  0.78725157  0.91937643  0.30323740  1
  O  O419  1  0.78362680  0.90731455  0.80526546  1
  O  O420  1  0.29335824  0.16554403  0.30627696  1
  O  O421  1  0.28410821  0.17302400  0.81101266  1
  O  O422  1  0.28256021  0.65706397  0.30731466  1
  O  O423  1  0.29169677  0.66684509  0.80455516  1
  O  O424  1  0.62147732  0.16637696  0.30321900  1
  O  O425  1  0.62230160  0.16892470  0.80319382  1
  O  O426  1  0.63280332  0.66619333  0.30813445  1
  O  O427  1  0.62153810  0.66731930  0.80422255  1
  O  O428  1  0.95458273  0.16713338  0.30396412  1
  O  O429  1  0.95530592  0.16510100  0.80917737  1
  O  O430  1  0.95338495  0.66700830  0.30946729  1
  O  O431  1  0.95519157  0.66553362  0.80488846  1
  F  F432  1  0.05132047  0.01130198  0.19930314  1
  F  F433  1  0.04491391  -0.00330895  0.70355220  1
  F  F434  1  0.04260596  0.49465781  0.20196040  1
  F  F435  1  0.04525985  0.50107684  0.70479762  1
  F  F436  1  0.37786671  0.00477826  0.20133231  1
  F  F437  1  0.38343044  -0.01100294  0.69915807  1
  F  F438  1  0.37755481  0.49476178  0.20325678  1
  F  F439  1  0.37846657  0.50272009  0.70249478  1
  F  F440  1  0.71512164  0.00280762  0.20018088  1
  F  F441  1  0.70682895  -0.00651428  0.69432560  1
  F  F442  1  0.71152622  0.49448847  0.19905285  1
  F  F443  1  0.71365031  0.50185838  0.70430880  1
  F  F444  1  0.21037399  0.24711190  0.20290684  1
  F  F445  1  0.20554059  0.24757404  0.70113119  1
  F  F446  1  0.20210220  0.75139419  0.20397520  1
  F  F447  1  0.21157568  0.75079634  0.70355103  1
  F  F448  1  0.54288391  0.25156990  0.20115384  1
  F  F449  1  0.54782512  0.24974395  0.69946677  1
  F  F450  1  0.55392353  0.73961179  0.19340344  1
  F  F451  1  0.54296822  0.74959015  0.70232637  1
  F  F452  1  0.87802847  0.25134394  0.20157686  1
  F  F453  1  0.87835817  0.24715550  0.70348800  1
  F  F454  1  0.88129280  0.74891027  0.20216593  1
  F  F455  1  0.87677448  0.74734631  0.70200775  1
  F  F456  1  0.28900075  0.00348641  0.29865243  1
  F  F457  1  0.28366053  -0.01096382  0.80455176  1
  F  F458  1  0.28608771  0.49429180  0.29989569  1
  F  F459  1  0.29008371  0.50458450  0.79998970  1
  F  F460  1  0.62359963  0.00596510  0.29677560  1
  F  F461  1  0.61792905  -0.00902880  0.79948642  1
  F  F462  1  0.62196633  0.49823721  0.29749803  1
  F  F463  1  0.62047912  0.50110930  0.79824177  1
  F  F464  1  0.95104107  0.01247992  0.30415243  1
  F  F465  1  0.96149029  -0.00011348  0.80347341  1
  F  F466  1  0.95152271  0.49786016  0.29703326  1
  F  F467  1  0.95480248  0.50130620  0.79931660  1
  F  F468  1  0.11999374  0.24830196  0.29916266  1
  F  F469  1  0.11989513  0.25158060  0.80006044  1
  F  F470  1  0.12091976  0.75431865  0.30396364  1
  F  F471  1  0.12079924  0.74929476  0.79840793  1
  F  F472  1  0.45681109  0.24874703  0.29775411  1
  F  F473  1  0.46455970  0.24799474  0.79994237  1
  F  F474  1  0.47195248  0.74123712  0.31536151  1
  F  F475  1  0.45520912  0.74992152  0.79946862  1
  F  F476  1  0.78702437  0.25144124  0.29755340  1
  F  F477  1  0.78854114  0.24717848  0.80005943  1
  F  F478  1  0.78995632  0.75398991  0.29521555  1
  F  F479  1  0.78603092  0.74761890  0.79694156  1
