# generated using pymatgen
data_K24Na3Li5Mg64Fe17Si79(O5F)48
_symmetry_space_group_name_H-M   'P 1'
_cell_length_a   16.08405121
_cell_length_b   18.57028431
_cell_length_c   20.53627886
_cell_angle_alpha   89.98461113
_cell_angle_beta   100.00114869
_cell_angle_gamma   90.01626129
_symmetry_Int_Tables_number   1
_chemical_formula_structural   K24Na3Li5Mg64Fe17Si79(O5F)48
_chemical_formula_sum   'K24 Na3 Li5 Mg64 Fe17 Si79 O240 F48'
_cell_volume   6040.67747394
_cell_formula_units_Z   1
loop_
 _symmetry_equiv_pos_site_id
 _symmetry_equiv_pos_as_xyz
  1  'x, y, z'
loop_
 _atom_site_type_symbol
 _atom_site_label
 _atom_site_symmetry_multiplicity
 _atom_site_fract_x
 _atom_site_fract_y
 _atom_site_fract_z
 _atom_site_occupancy
  K  K0  1  0.00349863  0.00062094  0.00768829  1
  K  K1  1  0.00470857  -0.00102116  0.49252695  1
  K  K2  1  0.00128098  0.50342052  0.01298910  1
  K  K3  1  -0.00579917  0.49924856  0.47224663  1
  K  K4  1  0.34667391  0.00106742  0.00959041  1
  K  K5  1  0.34217060  -0.00497545  0.49601634  1
  K  K6  1  0.33491818  0.49760491  0.00599915  1
  K  K7  1  0.33263822  0.50530229  0.48213836  1
  K  K8  1  0.65938588  -0.00105723  0.00607401  1
  K  K9  1  0.64610235  0.00250827  0.49236013  1
  K  K10  1  0.66783504  0.50040382  0.00993969  1
  K  K11  1  0.66168919  0.50229584  0.48408431  1
  K  K12  1  0.17325294  0.25038492  0.00987223  1
  K  K13  1  0.16897258  0.25381310  0.48897392  1
  K  K14  1  0.16914569  0.74565965  0.00724606  1
  K  K15  1  0.17473194  0.74735232  0.49439826  1
  K  K16  1  0.49524073  0.25175096  0.00751612  1
  K  K17  1  0.49316244  0.24198733  0.48578839  1
  K  K18  1  0.49894937  0.74558069  0.00478001  1
  K  K19  1  0.48634237  0.74591087  0.49130089  1
  K  K20  1  0.84458784  0.25651680  0.01068599  1
  K  K21  1  0.82788590  0.25832815  0.48986854  1
  K  K22  1  0.83294765  0.74558624  0.00345802  1
  K  K23  1  0.83389277  0.74975807  0.49654902  1
  Na  Na24  1  0.33304942  0.24648058  0.24608901  1
  Na  Na25  1  0.33174217  0.58082945  0.75034101  1
  Na  Na26  1  0.00064793  0.57201963  0.24815225  1
  Li  Li27  1  0.48719137  0.00499892  0.24110077  1
  Li  Li28  1  0.15723480  0.49882310  0.24299043  1
  Li  Li29  1  0.00675598  0.41798243  0.24051928  1
  Li  Li30  1  0.49571987  0.66699162  0.25276059  1
  Li  Li31  1  0.33826681  0.08295109  0.24251719  1
  Mg  Mg32  1  0.66526061  0.75062750  0.25520646  1
  Mg  Mg33  1  0.00170609  0.25261407  0.25143026  1
  Mg  Mg34  1  0.83527776  0.00123197  0.25000608  1
  Mg  Mg35  1  0.17158567  0.00050868  0.24718836  1
  Mg  Mg36  1  0.33688176  0.74724724  0.25029269  1
  Mg  Mg37  1  0.49726339  0.49914544  0.74973612  1
  Mg  Mg38  1  0.83347737  0.50129250  0.75340803  1
  Mg  Mg39  1  0.83181630  0.00066126  0.74864938  1
  Mg  Mg40  1  0.49980149  0.50240070  0.25479110  1
  Mg  Mg41  1  0.33337012  0.75081053  0.74770741  1
  Mg  Mg42  1  0.33131354  0.24793039  0.74816907  1
  Mg  Mg43  1  0.16496448  0.49948946  0.75539347  1
  Mg  Mg44  1  -0.00105949  0.25220072  0.75279114  1
  Mg  Mg45  1  0.83803969  0.49875901  0.25896386  1
  Mg  Mg46  1  0.00260818  0.74840705  0.24858648  1
  Mg  Mg47  1  0.50033844  0.00177723  0.74574538  1
  Mg  Mg48  1  -0.00103154  0.75003587  0.75229595  1
  Mg  Mg49  1  0.66765518  0.24961399  0.25139022  1
  Mg  Mg50  1  0.66582944  0.25099893  0.74650720  1
  Mg  Mg51  1  0.66509241  0.74752633  0.75168785  1
  Mg  Mg52  1  0.16681475  -0.00096503  0.74680454  1
  Mg  Mg53  1  0.00198697  0.58612664  0.75530298  1
  Mg  Mg54  1  0.00001593  0.08456747  0.74956904  1
  Mg  Mg55  1  0.49991088  0.16460927  0.74565687  1
  Mg  Mg56  1  0.00068156  0.91585737  0.24829756  1
  Mg  Mg57  1  0.33441421  0.91801569  0.24632075  1
  Mg  Mg58  1  0.66579735  0.58397573  0.75323404  1
  Mg  Mg59  1  0.16842436  0.66641913  0.75182296  1
  Mg  Mg60  1  0.16981269  0.83436040  0.74859823  1
  Mg  Mg61  1  0.83329092  0.83387088  0.75121572  1
  Mg  Mg62  1  0.66443339  0.91538615  0.74571272  1
  Mg  Mg63  1  0.49801398  0.33354842  0.74706263  1
  Mg  Mg64  1  0.16437315  0.33650523  0.24846876  1
  Mg  Mg65  1  0.83342381  0.16690631  0.74831682  1
  Mg  Mg66  1  0.66682365  0.41652269  0.74867804  1
  Mg  Mg67  1  0.49871476  0.16223521  0.24974174  1
  Mg  Mg68  1  0.33652448  0.91403426  0.74796123  1
  Mg  Mg69  1  0.83395505  0.16679335  0.25032171  1
  Mg  Mg70  1  0.66598786  0.58632484  0.25937424  1
  Mg  Mg71  1  0.49841953  0.66446384  0.74967158  1
  Mg  Mg72  1  0.00014562  0.08402534  0.25028471  1
  Mg  Mg73  1  0.83431314  0.83467476  0.25081242  1
  Mg  Mg74  1  0.49863344  0.33168914  0.25269852  1
  Mg  Mg75  1  0.16551035  0.33494892  0.75296083  1
  Mg  Mg76  1  0.66844393  0.41658429  0.25530771  1
  Mg  Mg77  1  0.16531963  0.66201506  0.24903847  1
  Mg  Mg78  1  0.00108604  0.41626151  0.75514423  1
  Mg  Mg79  1  0.83507015  0.66559462  0.75456258  1
  Mg  Mg80  1  0.33094609  0.41425549  0.74955420  1
  Mg  Mg81  1  0.66514249  0.08195171  0.25072106  1
  Mg  Mg82  1  0.33536942  0.08325145  0.74624053  1
  Mg  Mg83  1  0.16639391  0.83266487  0.24654384  1
  Mg  Mg84  1  0.83592431  0.33507197  0.75179144  1
  Mg  Mg85  1  0.83795717  0.33735647  0.25561063  1
  Mg  Mg86  1  0.33089264  0.41729534  0.25141311  1
  Mg  Mg87  1  0.66457299  0.08579407  0.74607520  1
  Mg  Mg88  1  0.66231185  0.91904217  0.25067292  1
  Mg  Mg89  1  0.83528171  0.66568588  0.25449041  1
  Mg  Mg90  1  0.00126681  0.91614076  0.75097084  1
  Mg  Mg91  1  0.33357797  0.58215988  0.25254188  1
  Mg  Mg92  1  0.16932721  0.16601698  0.24709777  1
  Mg  Mg93  1  0.16615842  0.16571922  0.74857962  1
  Mg  Mg94  1  0.49713845  0.83335842  0.24903605  1
  Mg  Mg95  1  0.49881361  0.83365653  0.74668988  1
  Fe  Fe96  1  0.47888088  0.58380458  0.39283097  1
  Fe  Fe97  1  0.85485898  0.08621149  0.11186247  1
  Fe  Fe98  1  0.97643465  0.66945204  0.89369706  1
  Fe  Fe99  1  0.52424757  0.08629058  0.60385370  1
  Fe  Fe100  1  0.63587055  0.66174387  0.89110545  1
  Fe  Fe101  1  0.35556022  0.82858397  0.60515298  1
  Fe  Fe102  1  0.80988540  0.41837299  0.39686876  1
  Fe  Fe103  1  0.14610559  0.41914428  0.89425415  1
  Fe  Fe104  1  0.31162688  0.83463841  0.88919190  1
  Fe  Fe105  1  0.52921172  0.08070133  0.11022910  1
  Fe  Fe106  1  0.35960963  0.83093004  0.10979780  1
  Fe  Fe107  1  0.97381505  0.33315051  0.89414012  1
  Fe  Fe108  1  0.86076073  0.41579650  0.11502120  1
  Fe  Fe109  1  0.47877363  0.08604933  0.88671696  1
  Fe  Fe110  1  0.18861548  0.57926213  0.11185168  1
  Fe  Fe111  1  0.02210600  0.83495798  0.10930541  1
  Fe  Fe112  1  0.36012449  0.16629988  0.10399737  1
  Si  Si113  1  0.69213721  0.66397484  0.61517270  1
  Si  Si114  1  0.47216605  0.41195510  0.88436534  1
  Si  Si115  1  0.80963316  0.08400072  0.38809405  1
  Si  Si116  1  0.18742264  0.08689300  0.61089318  1
  Si  Si117  1  0.64832887  0.67494661  0.39432739  1
  Si  Si118  1  0.02532254  0.66874856  0.61434230  1
  Si  Si119  1  0.64165457  0.84053281  0.38847898  1
  Si  Si120  1  0.30442457  0.16094024  0.88247466  1
  Si  Si121  1  0.85963828  0.91573955  0.61383730  1
  Si  Si122  1  0.64075241  0.16139754  0.38703771  1
  Si  Si123  1  0.86026279  0.42093763  0.61535429  1
  Si  Si124  1  0.13969902  0.91871276  0.88417397  1
  Si  Si125  1  0.80373112  0.41554627  0.88508462  1
  Si  Si126  1  0.47031891  0.08321883  0.38333355  1
  Si  Si127  1  0.97352248  0.84221347  0.88625142  1
  Si  Si128  1  0.69651835  0.83146789  0.11911963  1
  Si  Si129  1  0.01912268  0.66810451  0.11233419  1
  Si  Si130  1  0.36098285  0.34064525  0.11397551  1
  Si  Si131  1  0.35844589  0.66071378  0.11360719  1
  Si  Si132  1  0.52460768  0.58005158  0.61345980  1
  Si  Si133  1  0.30570388  0.66859478  0.38983041  1
  Si  Si134  1  0.69324770  0.66843698  0.12090636  1
  Si  Si135  1  0.80550006  0.08625766  0.88249276  1
  Si  Si136  1  0.80320199  0.92048362  0.88276218  1
  Si  Si137  1  0.81059949  0.91871300  0.38750530  1
  Si  Si138  1  0.97640266  0.83524894  0.38763086  1
  Si  Si139  1  0.18474825  0.57983672  0.61516505  1
  Si  Si140  1  0.98006686  0.32985229  0.39234980  1
  Si  Si141  1  0.14239639  0.91817575  0.38513796  1
  Si  Si142  1  0.02213795  0.33240210  0.61380796  1
  Si  Si143  1  0.85330447  0.91862478  0.11310158  1
  Si  Si144  1  0.52490878  0.41432087  0.61244308  1
  Si  Si145  1  0.81222326  0.59195237  0.39417464  1
  Si  Si146  1  0.30950891  0.32493425  0.88569558  1
  Si  Si147  1  0.53140070  0.90968826  0.11265060  1
  Si  Si148  1  0.85246021  0.58358695  0.11815771  1
  Si  Si149  1  0.19044801  0.08228092  0.11232962  1
  Si  Si150  1  0.19252211  0.91843800  0.10967614  1
  Si  Si151  1  0.64490193  0.17592385  0.88432724  1
  Si  Si152  1  0.18642892  0.41598487  0.61318445  1
  Si  Si153  1  0.53075305  0.58558866  0.12144716  1
  Si  Si154  1  0.80586029  0.57877413  0.88963511  1
  Si  Si155  1  0.47173274  0.91815030  0.38375432  1
  Si  Si156  1  0.19146296  0.41300942  0.11503161  1
  Si  Si157  1  0.52924293  0.91204870  0.60641941  1
  Si  Si158  1  0.64300832  0.83220006  0.88422844  1
  Si  Si159  1  0.85985966  0.58528130  0.61547727  1
  Si  Si160  1  0.69668159  0.82990969  0.61369958  1
  Si  Si161  1  0.35380778  0.33698569  0.61196398  1
  Si  Si162  1  0.69792562  0.17100325  0.60852487  1
  Si  Si163  1  0.14174968  0.41701762  0.38523743  1
  Si  Si164  1  0.14023667  0.08196853  0.88153200  1
  Si  Si165  1  0.02554515  0.83487625  0.61347737  1
  Si  Si166  1  0.35506677  0.65963155  0.61083809  1
  Si  Si167  1  0.47299116  0.41012786  0.38995914  1
  Si  Si168  1  0.35159864  0.17131294  0.60727215  1
  Si  Si169  1  0.30462297  0.16492002  0.38472511  1
  Si  Si170  1  0.14186375  0.58404259  0.38623514  1
  Si  Si171  1  0.18772935  0.92092174  0.60806571  1
  Si  Si172  1  0.02986014  0.32922836  0.11509452  1
  Si  Si173  1  0.14899594  0.58681926  0.88964464  1
  Si  Si174  1  0.30330767  0.33266531  0.38586036  1
  Si  Si175  1  0.52713036  0.42138747  0.11919807  1
  Si  Si176  1  0.68758694  0.33279452  0.11703080  1
  Si  Si177  1  0.69410812  0.17138678  0.11513680  1
  Si  Si178  1  0.97761092  0.16581720  0.38892723  1
  Si  Si179  1  0.30606440  0.83475234  0.38427212  1
  Si  Si180  1  0.48271881  0.91912135  0.88421451  1
  Si  Si181  1  0.30937485  0.66865542  0.88424347  1
  Si  Si182  1  0.86031947  0.08202466  0.61277263  1
  Si  Si183  1  0.63868335  0.32735919  0.39069271  1
  Si  Si184  1  0.46836715  0.57805995  0.88677981  1
  Si  Si185  1  0.14241493  0.08243699  0.38641026  1
  Si  Si186  1  0.02753092  0.16432812  0.11392410  1
  Si  Si187  1  0.69486214  0.33692500  0.61284857  1
  Si  Si188  1  0.64061855  0.33828790  0.88200178  1
  Si  Si189  1  0.97868748  0.67092293  0.38762945  1
  Si  Si190  1  0.97685419  0.16198312  0.88575427  1
  Si  Si191  1  0.02257593  0.16792238  0.61327175  1
  O  O192  1  0.26526151  0.10692350  0.07402040  1
  O  O193  1  0.26254091  0.12685419  0.58015775  1
  O  O194  1  0.28892500  0.60199859  0.07990261  1
  O  O195  1  0.26937732  0.60843677  0.58844825  1
  O  O196  1  0.62954197  0.11007716  0.08153499  1
  O  O197  1  0.61298860  0.13397805  0.57057459  1
  O  O198  1  0.61215868  0.61748796  0.09086280  1
  O  O199  1  0.60219788  0.62325423  0.58649735  1
  O  O200  1  0.95275003  0.11113797  0.07870726  1
  O  O201  1  0.94090855  0.11664203  0.58382511  1
  O  O202  1  0.93748735  0.61241144  0.09231533  1
  O  O203  1  0.93364386  0.63000395  0.58560040  1
  O  O204  1  0.11876263  0.35078117  0.08982634  1
  O  O205  1  0.10210597  0.36682525  0.58352926  1
  O  O206  1  0.11844674  0.86333215  0.07585380  1
  O  O207  1  0.09791239  0.87683810  0.58096591  1
  O  O208  1  0.44155967  0.37878245  0.08486779  1
  O  O209  1  0.43456054  0.37353439  0.58384969  1
  O  O210  1  0.46173123  0.85056030  0.08075079  1
  O  O211  1  0.45132952  0.86149694  0.57310627  1
  O  O212  1  0.76496818  0.35670452  0.08133639  1
  O  O213  1  0.76792988  0.38448707  0.58540686  1
  O  O214  1  0.78215513  0.85371185  0.09069346  1
  O  O215  1  0.77662325  0.86689730  0.58462141  1
  O  O216  1  0.27776785  0.39048919  0.08541662  1
  O  O217  1  0.26800114  0.38374202  0.58321617  1
  O  O218  1  0.27732096  0.90122021  0.07956092  1
  O  O219  1  0.26030838  0.88818636  0.57205592  1
  O  O220  1  0.60639228  0.38659664  0.08919222  1
  O  O221  1  0.60130600  0.37162321  0.58383114  1
  O  O222  1  0.62147446  0.88579042  0.08710983  1
  O  O223  1  0.61459946  0.87657486  0.58189854  1
  O  O224  1  0.95272625  0.37925356  0.07886280  1
  O  O225  1  0.93460135  0.37685066  0.58585767  1
  O  O226  1  0.93451684  0.90117066  0.07900482  1
  O  O227  1  0.93733022  0.87839687  0.58350507  1
  O  O228  1  0.11165883  0.13802735  0.08502601  1
  O  O229  1  0.10167541  0.13409293  0.58274853  1
  O  O230  1  0.09643508  0.63961691  0.07761151  1
  O  O231  1  0.10109726  0.62925832  0.58275283  1
  O  O232  1  0.44589138  0.13588698  0.06112345  1
  O  O233  1  0.42385114  0.13788231  0.57119558  1
  O  O234  1  0.44997315  0.63540366  0.09080984  1
  O  O235  1  0.43361549  0.61659754  0.58302284  1
  O  O236  1  0.78136699  0.16328660  0.08558540  1
  O  O237  1  0.77850697  0.13072331  0.58237742  1
  O  O238  1  0.77473710  0.64168153  0.08949389  1
  O  O239  1  0.76838147  0.62309888  0.58499301  1
  O  O240  1  0.06327235  0.11805482  0.41812021  1
  O  O241  1  0.05277989  0.10209966  0.90812871  1
  O  O242  1  0.06539860  0.62587984  0.41777739  1
  O  O243  1  0.06655810  0.60710787  0.92163813  1
  O  O244  1  0.39666638  0.12668130  0.41632816  1
  O  O245  1  0.37320832  0.10199613  0.91256835  1
  O  O246  1  0.39143871  0.63118348  0.42795981  1
  O  O247  1  0.37614143  0.60072374  0.90522599  1
  O  O248  1  0.73067184  0.11938204  0.41922043  1
  O  O249  1  0.72741312  0.12366881  0.91112447  1
  O  O250  1  0.74364920  0.64278785  0.42522230  1
  O  O251  1  0.71929261  0.59216615  0.91841395  1
  O  O252  1  0.23142122  0.37597130  0.42016935  1
  O  O253  1  0.23233291  0.34923230  0.92035111  1
  O  O254  1  0.23105848  0.87712644  0.41593449  1
  O  O255  1  0.20906898  0.86169935  0.91731936  1
  O  O256  1  0.55513775  0.35802479  0.41855508  1
  O  O257  1  0.55582323  0.36184709  0.91142717  1
  O  O258  1  0.56455920  0.88193156  0.41735179  1
  O  O259  1  0.55719820  0.85817321  0.91010356  1
  O  O260  1  0.90978876  0.36579209  0.43059346  1
  O  O261  1  0.86617374  0.35244027  0.91632257  1
  O  O262  1  0.89850775  0.87413673  0.41918700  1
  O  O263  1  0.88768660  0.87355043  0.91146825  1
  O  O264  1  0.06997188  0.37338476  0.41982658  1
  O  O265  1  0.05083481  0.40090294  0.93068131  1
  O  O266  1  0.06411083  0.88022567  0.41656184  1
  O  O267  1  0.04702642  0.90424007  0.90679870  1
  O  O268  1  0.39447830  0.36916416  0.41852577  1
  O  O269  1  0.39432444  0.37426530  0.91317109  1
  O  O270  1  0.39678093  0.87476221  0.41490341  1
  O  O271  1  0.39919967  0.90093311  0.91538059  1
  O  O272  1  0.72056286  0.37014714  0.42955069  1
  O  O273  1  0.71089115  0.40014313  0.90774732  1
  O  O274  1  0.73153601  0.88345220  0.41849501  1
  O  O275  1  0.72085731  0.89014426  0.91043791  1
  O  O276  1  0.22986366  0.12452051  0.41976428  1
  O  O277  1  0.21352631  0.14166504  0.90706351  1
  O  O278  1  0.22802790  0.62838542  0.42086701  1
  O  O279  1  0.22147881  0.64981333  0.91175336  1
  O  O280  1  0.56361267  0.12022428  0.41628591  1
  O  O281  1  0.56404652  0.15528349  0.91656741  1
  O  O282  1  0.58076446  0.63277728  0.43018851  1
  O  O283  1  0.54120033  0.62963986  0.92668561  1
  O  O284  1  0.89764765  0.12833108  0.41889833  1
  O  O285  1  0.89231312  0.12975317  0.91129505  1
  O  O286  1  0.90336794  0.63393451  0.42144930  1
  O  O287  1  0.87808510  0.63542056  0.92171851  1
  O  O288  1  0.15904040  0.00075572  0.08592597  1
  O  O289  1  0.16886645  0.00536555  0.58097818  1
  O  O290  1  0.15864728  0.48698114  0.07820746  1
  O  O291  1  0.16679388  0.49772212  0.58413707  1
  O  O292  1  0.50741936  -0.01323095  0.07755713  1
  O  O293  1  0.51853471  -0.00860864  0.57217691  1
  O  O294  1  0.51602156  0.50387276  0.08941352  1
  O  O295  1  0.52248575  0.49701412  0.58387057  1
  O  O296  1  0.81202591  -0.00547263  0.08393280  1
  O  O297  1  0.84755335  -0.00130470  0.58449226  1
  O  O298  1  0.82685580  0.50803711  0.08060407  1
  O  O299  1  0.85839615  0.50306002  0.58588896  1
  O  O300  1  0.00745453  0.24653881  0.08587793  1
  O  O301  1  0.00582821  0.24984268  0.58366601  1
  O  O302  1  -0.01537814  0.74437901  0.07770450  1
  O  O303  1  0.01620688  0.75197940  0.58447257  1
  O  O304  1  0.34325985  0.26395222  0.07707998  1
  O  O305  1  0.33526506  0.25586407  0.58084527  1
  O  O306  1  0.33192201  0.73782166  0.07781016  1
  O  O307  1  0.33559593  0.73418023  0.57014249  1
  O  O308  1  0.65375969  0.25181760  0.09201769  1
  O  O309  1  0.70074371  0.25565880  0.58307010  1
  O  O310  1  0.67067422  0.74986449  0.09151886  1
  O  O311  1  0.68809061  0.74672926  0.58536499  1
  O  O312  1  0.14997739  -0.00010745  0.41729535  1
  O  O313  1  0.16816476  0.00155665  0.90917385  1
  O  O314  1  0.14773802  0.50043141  0.41710050  1
  O  O315  1  0.19089676  0.51092344  0.91665707  1
  O  O316  1  0.47405248  0.00056161  0.41535376  1
  O  O317  1  0.52320760  -0.00440554  0.91213188  1
  O  O318  1  0.48758990  0.48729176  0.42710089  1
  O  O319  1  0.48624301  0.49344818  0.91425133  1
  O  O320  1  0.82474288  0.00115316  0.41823755  1
  O  O321  1  0.81822004  0.00342770  0.91004229  1
  O  O322  1  0.81579383  0.51422385  0.43065830  1
  O  O323  1  0.83719272  0.49539487  0.91129628  1
  O  O324  1  0.30807724  0.24852154  0.41518843  1
  O  O325  1  0.33554083  0.24165173  0.90914865  1
  O  O326  1  0.30768199  0.75376001  0.41680779  1
  O  O327  1  0.34862587  0.74207916  0.91929955  1
  O  O328  1  0.64877140  0.24274112  0.41896976  1
  O  O329  1  0.67398308  0.25881014  0.90937940  1
  O  O330  1  0.65268132  0.76011447  0.42181775  1
  O  O331  1  0.67245327  0.75569235  0.91800450  1
  O  O332  1  0.99497480  0.24543012  0.42341252  1
  O  O333  1  1.00525476  0.23694202  0.92093626  1
  O  O334  1  0.98988205  0.75401178  0.42028150  1
  O  O335  1  1.00020573  0.76642920  0.92103124  1
  O  O336  1  0.20589014  0.08289110  0.19272584  1
  O  O337  1  0.20689702  0.08505220  0.69125431  1
  O  O338  1  0.21435086  0.58336586  0.20208288  1
  O  O339  1  0.19538381  0.58035530  0.69434327  1
  O  O340  1  0.54977169  0.08351516  0.20091375  1
  O  O341  1  0.54732929  0.08561031  0.69542313  1
  O  O342  1  0.55030168  0.58123215  0.20087423  1
  O  O343  1  0.54235507  0.57937621  0.69359050  1
  O  O344  1  0.87940097  0.08375046  0.20407557  1
  O  O345  1  0.87719514  0.08292695  0.69328503  1
  O  O346  1  0.86290921  0.58279532  0.19812496  1
  O  O347  1  0.87562941  0.58433974  0.69564081  1
  O  O348  1  0.04307993  0.32808166  0.19525753  1
  O  O349  1  0.04216898  0.33127753  0.69365107  1
  O  O350  1  0.04365472  0.83441514  0.20164140  1
  O  O351  1  0.04173827  0.83539604  0.69373867  1
  O  O352  1  0.38331789  0.34167436  0.19393297  1
  O  O353  1  0.37366408  0.33274101  0.69237322  1
  O  O354  1  0.37688651  0.83140505  0.20133660  1
  O  O355  1  0.37885634  0.83332576  0.69642493  1
  O  O356  1  0.70846010  0.33407254  0.19810851  1
  O  O357  1  0.71084394  0.33525729  0.69340596  1
  O  O358  1  0.71237590  0.83363473  0.19991394  1
  O  O359  1  0.71300612  0.83182280  0.69415519  1
  O  O360  1  0.21393915  0.41310489  0.19504997  1
  O  O361  1  0.20746572  0.41347510  0.69311946  1
  O  O362  1  0.20752565  0.91541593  0.19153309  1
  O  O363  1  0.20516441  0.91931708  0.68866835  1
  O  O364  1  0.54547160  0.41841057  0.19979877  1
  O  O365  1  0.54331070  0.41416295  0.69284592  1
  O  O366  1  0.54810298  0.91084626  0.19344386  1
  O  O367  1  0.54563553  0.91519093  0.68823637  1
  O  O368  1  0.87918941  0.41811268  0.20565197  1
  O  O369  1  0.87604707  0.41919176  0.69548294  1
  O  O370  1  0.87592128  0.91737076  0.19531308  1
  O  O371  1  0.87710438  0.91710848  0.69416150  1
  O  O372  1  0.04188894  0.16417810  0.19528706  1
  O  O373  1  0.04072661  0.16688993  0.69363594  1
  O  O374  1  0.04557367  0.67407704  0.19237272  1
  O  O375  1  0.04273865  0.66862386  0.69434972  1
  O  O376  1  0.38665064  0.16024310  0.19177321  1
  O  O377  1  0.37148355  0.16935490  0.68807630  1
  O  O378  1  0.37195944  0.66490434  0.19415383  1
  O  O379  1  0.38020978  0.67014988  0.69002032  1
  O  O380  1  0.71202149  0.16757806  0.19713610  1
  O  O381  1  0.71181204  0.16840447  0.68965012  1
  O  O382  1  0.71034560  0.66850133  0.20140932  1
  O  O383  1  0.71219722  0.66495351  0.69539226  1
  O  O384  1  0.12280275  0.08238954  0.30667516  1
  O  O385  1  0.12192707  0.08225594  0.80011897  1
  O  O386  1  0.12874257  0.58641045  0.30842900  1
  O  O387  1  0.12420488  0.58601210  0.80720954  1
  O  O388  1  0.45635903  0.08471464  0.30546497  1
  O  O389  1  0.45425412  0.08526875  0.79409393  1
  O  O390  1  0.45636347  0.58324564  0.30334878  1
  O  O391  1  0.46664974  0.57932522  0.80716295  1
  O  O392  1  0.79236593  0.08421098  0.30848522  1
  O  O393  1  0.78858456  0.08524081  0.80111385  1
  O  O394  1  0.78993566  0.58911419  0.31395231  1
  O  O395  1  0.78912458  0.58254098  0.80700441  1
  O  O396  1  0.28472010  0.33757858  0.30718302  1
  O  O397  1  0.29062652  0.32883058  0.80393105  1
  O  O398  1  0.28674624  0.83394407  0.30488498  1
  O  O399  1  0.28748870  0.83562871  0.79670050  1
  O  O400  1  0.62531578  0.33134711  0.31019454  1
  O  O401  1  0.62092776  0.33467681  0.80085341  1
  O  O402  1  0.62601065  0.83733628  0.30884986  1
  O  O403  1  0.62567445  0.83349183  0.80240474  1
  O  O404  1  0.95604625  0.32427229  0.31352250  1
  O  O405  1  0.95429051  0.33285207  0.80003482  1
  O  O406  1  0.95574818  0.83598767  0.30802203  1
  O  O407  1  0.95450610  0.83688862  0.80433407  1
  O  O408  1  0.12376394  0.41367769  0.30698407  1
  O  O409  1  0.12073613  0.41485508  0.80052439  1
  O  O410  1  0.12340229  0.91792999  0.30563424  1
  O  O411  1  0.12293480  0.91840182  0.80208878  1
  O  O412  1  0.45845560  0.41350008  0.30964336  1
  O  O413  1  0.45570092  0.41278390  0.80344222  1
  O  O414  1  0.45638362  0.91539418  0.30513589  1
  O  O415  1  0.46211507  0.91826604  0.80187199  1
  O  O416  1  0.78647430  0.41512520  0.30655287  1
  O  O417  1  0.78753863  0.41604608  0.80312693  1
  O  O418  1  0.79453148  0.91726080  0.30779180  1
  O  O419  1  0.78823952  0.91873656  0.80155210  1
  O  O420  1  0.28196641  0.16013908  0.30697150  1
  O  O421  1  0.28722933  0.16401770  0.80055809  1
  O  O422  1  0.29129294  0.66809811  0.30991843  1
  O  O423  1  0.28654840  0.67529477  0.80391341  1
  O  O424  1  0.62838152  0.16459016  0.30769327  1
  O  O425  1  0.62683751  0.17131316  0.80267923  1
  O  O426  1  0.63263449  0.67103193  0.31467746  1
  O  O427  1  0.62008628  0.66551466  0.79856076  1
  O  O428  1  0.95912221  0.16586812  0.30920125  1
  O  O429  1  0.95599222  0.16508100  0.80378081  1
  O  O430  1  0.95527531  0.67556509  0.30889007  1
  O  O431  1  0.95498036  0.66897939  0.80046709  1
  F  F432  1  0.04598127  0.00048471  0.20453405  1
  F  F433  1  0.04198678  0.00046055  0.69873852  1
  F  F434  1  0.04793981  0.48898054  0.19134936  1
  F  F435  1  0.04079866  0.50180633  0.70340729  1
  F  F436  1  0.37347016  -0.00348742  0.19769690  1
  F  F437  1  0.37677920  -0.00111446  0.69563463  1
  F  F438  1  0.38192670  0.49783779  0.20368540  1
  F  F439  1  0.38248158  0.48754488  0.69687605  1
  F  F440  1  0.71499242  -0.00081389  0.20527539  1
  F  F441  1  0.71406084  0.00066482  0.69726560  1
  F  F442  1  0.71076104  0.50347053  0.21115994  1
  F  F443  1  0.71196572  0.50111609  0.70136437  1
  F  F444  1  0.19837669  0.25045769  0.19920331  1
  F  F445  1  0.20873223  0.25015160  0.69973765  1
  F  F446  1  0.21321333  0.74844576  0.20473236  1
  F  F447  1  0.20666659  0.74913684  0.69645566  1
  F  F448  1  0.54850369  0.25156473  0.20467596  1
  F  F449  1  0.54484877  0.25151650  0.69723811  1
  F  F450  1  0.54968075  0.75134135  0.20732610  1
  F  F451  1  0.54694315  0.75015751  0.69839902  1
  F  F452  1  0.87943354  0.25106019  0.20691736  1
  F  F453  1  0.87773985  0.24882213  0.69877203  1
  F  F454  1  0.87716654  0.75062903  0.20521189  1
  F  F455  1  0.87677698  0.75272044  0.70007673  1
  F  F456  1  0.28401570  -0.00911441  0.30156935  1
  F  F457  1  0.28661304  0.00032183  0.79074328  1
  F  F458  1  0.30343911  0.49849918  0.30727697  1
  F  F459  1  0.28403265  0.48768589  0.79894679  1
  F  F460  1  0.63833888  -0.00082790  0.30804686  1
  F  F461  1  0.62524825  -0.00045902  0.79284101  1
  F  F462  1  0.62180012  0.49949847  0.30678250  1
  F  F463  1  0.61957902  0.49665603  0.79498824  1
  F  F464  1  0.95753704  -0.00249489  0.30240313  1
  F  F465  1  0.95268809  0.00103561  0.79529123  1
  F  F466  1  0.94265987  0.50396125  0.32423862  1
  F  F467  1  0.95289603  0.50160124  0.79858323  1
  F  F468  1  0.12074951  0.24650217  0.30143007  1
  F  F469  1  0.12062778  0.24730267  0.79585805  1
  F  F470  1  0.12280344  0.75059011  0.30123228  1
  F  F471  1  0.11946399  0.75307061  0.79464009  1
  F  F472  1  0.46913403  0.24777374  0.30466815  1
  F  F473  1  0.45386827  0.24953680  0.79202120  1
  F  F474  1  0.45468744  0.75343207  0.30440557  1
  F  F475  1  0.45703314  0.74880135  0.79557062  1
  F  F476  1  0.78857699  0.24833077  0.30180409  1
  F  F477  1  0.78658359  0.24940814  0.79362372  1
  F  F478  1  0.79011389  0.75345616  0.30274982  1
  F  F479  1  0.78798475  0.75118805  0.79747842  1
