# generated using pymatgen
data_H2O
_symmetry_space_group_name_H-M   'P 1'
_cell_length_a   4.49480000
_cell_length_b   4.49480000
_cell_length_c   14.65656000
_cell_angle_alpha   90.00000000
_cell_angle_beta   90.00000000
_cell_angle_gamma   120.00000000
_symmetry_Int_Tables_number   1
_chemical_formula_structural   H2O
_chemical_formula_sum   'H16 O8'
_cell_volume   256.43861717
_cell_formula_units_Z   8
loop_
 _symmetry_equiv_pos_site_id
 _symmetry_equiv_pos_as_xyz
  1  'x, y, z'
loop_
 _atom_type_symbol
 _atom_type_oxidation_number
  H+  1.0
  O2-  -2.0
loop_
 _atom_site_type_symbol
 _atom_site_label
 _atom_site_symmetry_multiplicity
 _atom_site_fract_x
 _atom_site_fract_y
 _atom_site_fract_z
 _atom_site_occupancy
  H+  H1  1  0.90190000  0.45100000  0.99105000  1.0
  H+  H1  1  0.45100000  0.54910000  0.00895000  1.0
  H+  H1  1  0.90190000  0.45100000  0.75895000  1.0
  H+  H1  1  0.09810000  0.54900000  0.00895000  1.0
  H+  H1  1  0.90190000  0.45100000  0.49105000  1.0
  H+  H1  1  0.45090000  0.90190000  0.00895000  1.0
  H+  H1  1  0.09810000  0.54900000  0.50895000  1.0
  H+  H1  1  0.54910000  0.09810000  0.49105000  1.0
  H+  H1  1  0.54900000  0.45090000  0.75895000  1.0
  H+  H1  1  0.54910000  0.09810000  0.75895000  1.0
  H+  H1  1  0.45090000  0.90190000  0.24105000  1.0
  H+  H1  1  0.45090000  0.90190000  0.74105000  1.0
  H+  H2  1  0.33333333  0.66666667  0.59820000  1.0
  H+  H2  1  0.33333333  0.66666667  0.65180000  1.0
  H+  H2  1  0.33333333  0.66666667  0.09820000  1.0
  H+  H2  1  0.66666667  0.33333333  0.90180000  1.0
  O2-  O1  1  0.33333333  0.66666667  0.21930000  1.0
  O2-  O1  1  0.33333333  0.66666667  0.71930000  1.0
  O2-  O1  1  0.66666667  0.33333333  0.28070000  1.0
  O2-  O1  1  0.66666667  0.33333333  0.78070000  1.0
  O2-  O1  1  0.66666667  0.33333333  0.46930000  1.0
  O2-  O1  1  0.66666667  0.33333333  0.96930000  1.0
  O2-  O1  1  0.33333333  0.66666667  0.03070000  1.0
  O2-  O1  1  0.33333333  0.66666667  0.53070000  1.0
