# generated using pymatgen
data_La6.4Ce7.04Pr12.16Nd19.2Sm19.2Bi64S128O32F32
_symmetry_space_group_name_H-M   'P 1'
_cell_length_a   16.03140000
_cell_length_b   16.03140000
_cell_length_c   26.86280000
_cell_angle_alpha   90.00000000
_cell_angle_beta   90.00000000
_cell_angle_gamma   90.00000000
_symmetry_Int_Tables_number   1
_chemical_formula_structural
La6.4Ce7.04Pr12.16Nd19.2Sm19.2Bi64S128O32F32
_chemical_formula_sum
'La6.4 Ce7.04 Pr12.16 Nd19.2 Sm19.2 Bi64 S128 O32 F32'
_cell_volume   6903.89502709
_cell_formula_units_Z   1
loop_
 _symmetry_equiv_pos_site_id
 _symmetry_equiv_pos_as_xyz
  1  'x, y, z'
loop_
 _atom_type_symbol
 _atom_type_oxidation_number
  La3+  3.0
  Ce3+  3.0
  Pr3+  3.0
  Nd3+  3.0
  Sm3+  3.0
  Bi2+  2.0
  S2-  -2.0
  O-  -1.0
  F-  -1.0
loop_
 _atom_site_type_symbol
 _atom_site_label
 _atom_site_symmetry_multiplicity
 _atom_site_fract_x
 _atom_site_fract_y
 _atom_site_fract_z
 _atom_site_occupancy
  La3+  Sm1  1  0.50000000  0.87500000  0.04892000  1.0
  La3+  Sm1  1  0.50000000  0.87500000  0.54892000  1.0
  La3+  Sm1  1  0.62500000  0.50000000  0.45108000  1.0
  La3+  Sm1  1  0.50000000  0.62500000  0.04892000  1.0
  La3+  Sm1  1  0.25000000  0.62500000  0.04892000  1.0
  La3+  Sm1  1  0.37500000  0.75000000  0.45108000  1.0
  Ce3+  Sm1  1  0.75000000  0.62500000  0.54892000  1.0
  Ce3+  Sm1  1  0.50000000  0.12500000  0.04892000  1.0
  Ce3+  Sm1  1  0.87500000  0.50000000  0.95108000  1.0
  Ce3+  Sm1  1  0.87500000  0.75000000  0.45108000  1.0
  Ce3+  Sm1  1  0.00000000  0.62500000  0.54892000  1.0
  Ce3+  Sm1  1  0.87500000  0.00000000  0.45108000  1.0
  Ce3+  Sm1  1  0.50000000  0.62500000  0.54892000  1.0
  Pr3+  Sm1  1  0.50000000  0.37500000  0.04892000  1.0
  Pr3+  Sm1  1  0.62500000  0.00000000  0.95108000  1.0
  Pr3+  Sm1  1  0.25000000  0.12500000  0.54892000  1.0
  Pr3+  Sm1  1  0.37500000  0.75000000  0.95108000  1.0
  Pr3+  Sm1  1  0.12500000  0.00000000  0.95108000  1.0
  Pr3+  Sm1  1  0.37500000  0.25000000  0.95108000  1.0
  Pr3+  Sm1  1  0.62500000  0.25000000  0.45108000  1.0
  Pr3+  Sm1  1  0.12500000  0.25000000  0.95108000  1.0
  Pr3+  Sm1  1  0.25000000  0.37500000  0.54892000  1.0
  Pr3+  Sm1  1  0.37500000  0.25000000  0.45108000  1.0
  Pr3+  Sm1  1  0.50000000  0.12500000  0.54892000  1.0
  Pr3+  Sm1  1  0.00000000  0.87500000  0.54892000  1.0
  Pr3+  Sm1  1  0.12500000  0.00000000  0.45108000  1.0
  Nd3+  Sm1  1  0.37500000  0.50000000  0.95108000  1.0
  Nd3+  Sm1  1  0.37500000  0.50000000  0.45108000  1.0
  Nd3+  Sm1  1  0.75000000  0.12500000  0.04892000  1.0
  Nd3+  Sm1  1  0.25000000  0.12500000  0.04892000  1.0
  Nd3+  Sm1  1  0.62500000  0.75000000  0.45108000  1.0
  Nd3+  Sm1  1  0.87500000  0.25000000  0.95108000  1.0
  Nd3+  Sm1  1  0.75000000  0.87500000  0.54892000  1.0
  Nd3+  Sm1  1  0.87500000  0.25000000  0.45108000  1.0
  Nd3+  Sm1  1  0.87500000  0.75000000  0.95108000  1.0
  Nd3+  Sm1  1  0.87500000  0.00000000  0.95108000  1.0
  Nd3+  Sm1  1  0.00000000  0.62500000  0.04892000  1.0
  Nd3+  Sm1  1  0.12500000  0.25000000  0.45108000  1.0
  Nd3+  Sm1  1  0.12500000  0.50000000  0.45108000  1.0
  Nd3+  Sm1  1  0.75000000  0.12500000  0.54892000  1.0
  Nd3+  Sm1  1  0.12500000  0.75000000  0.45108000  1.0
  Nd3+  Sm1  1  0.87500000  0.50000000  0.45108000  1.0
  Nd3+  Sm1  1  0.00000000  0.12500000  0.54892000  1.0
  Nd3+  Sm1  1  0.00000000  0.37500000  0.04892000  1.0
  Nd3+  Sm1  1  0.37500000  0.00000000  0.95108000  1.0
  Sm3+  Sm1  1  0.12500000  0.50000000  0.95108000  1.0
  Sm3+  Sm1  1  0.00000000  0.37500000  0.54892000  1.0
  Sm3+  Sm1  1  0.00000000  0.87500000  0.04892000  1.0
  Sm3+  Sm1  1  0.62500000  0.50000000  0.95108000  1.0
  Sm3+  Sm1  1  0.25000000  0.37500000  0.04892000  1.0
  Sm3+  Sm1  1  0.62500000  0.75000000  0.95108000  1.0
  Sm3+  Sm1  1  0.50000000  0.37500000  0.54892000  1.0
  Sm3+  Sm1  1  0.75000000  0.37500000  0.54892000  1.0
  Sm3+  Sm1  1  0.75000000  0.62500000  0.04892000  1.0
  Sm3+  Sm1  1  0.25000000  0.87500000  0.04892000  1.0
  Sm3+  Sm1  1  0.75000000  0.37500000  0.04892000  1.0
  Sm3+  Sm1  1  0.12500000  0.75000000  0.95108000  1.0
  Sm3+  Sm1  1  0.37500000  0.00000000  0.45108000  1.0
  Sm3+  Sm1  1  0.62500000  0.00000000  0.45108000  1.0
  Sm3+  Sm1  1  0.75000000  0.87500000  0.04892000  1.0
  Sm3+  Sm1  1  0.00000000  0.12500000  0.04892000  1.0
  Sm3+  Sm1  1  0.25000000  0.87500000  0.54892000  1.0
  Sm3+  Sm1  1  0.25000000  0.62500000  0.54892000  1.0
  Sm3+  Sm1  1  0.62500000  0.25000000  0.95108000  1.0
  Bi2+  Bi1  1  0.00000000  0.12500000  0.31261500  1.0
  Bi2+  Bi1  1  0.00000000  0.12500000  0.81261500  1.0
  Bi2+  Bi1  1  0.00000000  0.37500000  0.31261500  1.0
  Bi2+  Bi1  1  0.00000000  0.37500000  0.81261500  1.0
  Bi2+  Bi1  1  0.00000000  0.62500000  0.31261500  1.0
  Bi2+  Bi1  1  0.00000000  0.62500000  0.81261500  1.0
  Bi2+  Bi1  1  0.00000000  0.87500000  0.31261500  1.0
  Bi2+  Bi1  1  0.00000000  0.87500000  0.81261500  1.0
  Bi2+  Bi1  1  0.25000000  0.12500000  0.31261500  1.0
  Bi2+  Bi1  1  0.25000000  0.12500000  0.81261500  1.0
  Bi2+  Bi1  1  0.25000000  0.37500000  0.31261500  1.0
  Bi2+  Bi1  1  0.25000000  0.37500000  0.81261500  1.0
  Bi2+  Bi1  1  0.25000000  0.62500000  0.31261500  1.0
  Bi2+  Bi1  1  0.25000000  0.62500000  0.81261500  1.0
  Bi2+  Bi1  1  0.25000000  0.87500000  0.31261500  1.0
  Bi2+  Bi1  1  0.25000000  0.87500000  0.81261500  1.0
  Bi2+  Bi1  1  0.50000000  0.12500000  0.31261500  1.0
  Bi2+  Bi1  1  0.50000000  0.12500000  0.81261500  1.0
  Bi2+  Bi1  1  0.50000000  0.37500000  0.31261500  1.0
  Bi2+  Bi1  1  0.50000000  0.37500000  0.81261500  1.0
  Bi2+  Bi1  1  0.50000000  0.62500000  0.31261500  1.0
  Bi2+  Bi1  1  0.50000000  0.62500000  0.81261500  1.0
  Bi2+  Bi1  1  0.50000000  0.87500000  0.31261500  1.0
  Bi2+  Bi1  1  0.50000000  0.87500000  0.81261500  1.0
  Bi2+  Bi1  1  0.75000000  0.12500000  0.31261500  1.0
  Bi2+  Bi1  1  0.75000000  0.12500000  0.81261500  1.0
  Bi2+  Bi1  1  0.75000000  0.37500000  0.31261500  1.0
  Bi2+  Bi1  1  0.75000000  0.37500000  0.81261500  1.0
  Bi2+  Bi1  1  0.75000000  0.62500000  0.31261500  1.0
  Bi2+  Bi1  1  0.75000000  0.62500000  0.81261500  1.0
  Bi2+  Bi1  1  0.75000000  0.87500000  0.31261500  1.0
  Bi2+  Bi1  1  0.75000000  0.87500000  0.81261500  1.0
  Bi2+  Bi1  1  0.12500000  0.00000000  0.18738500  1.0
  Bi2+  Bi1  1  0.12500000  0.00000000  0.68738500  1.0
  Bi2+  Bi1  1  0.12500000  0.25000000  0.18738500  1.0
  Bi2+  Bi1  1  0.12500000  0.25000000  0.68738500  1.0
  Bi2+  Bi1  1  0.12500000  0.50000000  0.18738500  1.0
  Bi2+  Bi1  1  0.12500000  0.50000000  0.68738500  1.0
  Bi2+  Bi1  1  0.12500000  0.75000000  0.18738500  1.0
  Bi2+  Bi1  1  0.12500000  0.75000000  0.68738500  1.0
  Bi2+  Bi1  1  0.37500000  0.00000000  0.18738500  1.0
  Bi2+  Bi1  1  0.37500000  0.00000000  0.68738500  1.0
  Bi2+  Bi1  1  0.37500000  0.25000000  0.18738500  1.0
  Bi2+  Bi1  1  0.37500000  0.25000000  0.68738500  1.0
  Bi2+  Bi1  1  0.37500000  0.50000000  0.18738500  1.0
  Bi2+  Bi1  1  0.37500000  0.50000000  0.68738500  1.0
  Bi2+  Bi1  1  0.37500000  0.75000000  0.18738500  1.0
  Bi2+  Bi1  1  0.37500000  0.75000000  0.68738500  1.0
  Bi2+  Bi1  1  0.62500000  0.00000000  0.18738500  1.0
  Bi2+  Bi1  1  0.62500000  0.00000000  0.68738500  1.0
  Bi2+  Bi1  1  0.62500000  0.25000000  0.18738500  1.0
  Bi2+  Bi1  1  0.62500000  0.25000000  0.68738500  1.0
  Bi2+  Bi1  1  0.62500000  0.50000000  0.18738500  1.0
  Bi2+  Bi1  1  0.62500000  0.50000000  0.68738500  1.0
  Bi2+  Bi1  1  0.62500000  0.75000000  0.18738500  1.0
  Bi2+  Bi1  1  0.62500000  0.75000000  0.68738500  1.0
  Bi2+  Bi1  1  0.87500000  0.00000000  0.18738500  1.0
  Bi2+  Bi1  1  0.87500000  0.00000000  0.68738500  1.0
  Bi2+  Bi1  1  0.87500000  0.25000000  0.18738500  1.0
  Bi2+  Bi1  1  0.87500000  0.25000000  0.68738500  1.0
  Bi2+  Bi1  1  0.87500000  0.50000000  0.18738500  1.0
  Bi2+  Bi1  1  0.87500000  0.50000000  0.68738500  1.0
  Bi2+  Bi1  1  0.87500000  0.75000000  0.18738500  1.0
  Bi2+  Bi1  1  0.87500000  0.75000000  0.68738500  1.0
  S2-  S1  1  0.00000000  0.12500000  0.18705000  1.0
  S2-  S1  1  0.00000000  0.12500000  0.68705000  1.0
  S2-  S1  1  0.00000000  0.37500000  0.18705000  1.0
  S2-  S1  1  0.00000000  0.37500000  0.68705000  1.0
  S2-  S1  1  0.00000000  0.62500000  0.18705000  1.0
  S2-  S1  1  0.00000000  0.62500000  0.68705000  1.0
  S2-  S1  1  0.00000000  0.87500000  0.18705000  1.0
  S2-  S1  1  0.00000000  0.87500000  0.68705000  1.0
  S2-  S1  1  0.25000000  0.12500000  0.18705000  1.0
  S2-  S1  1  0.25000000  0.12500000  0.68705000  1.0
  S2-  S1  1  0.25000000  0.37500000  0.18705000  1.0
  S2-  S1  1  0.25000000  0.37500000  0.68705000  1.0
  S2-  S1  1  0.25000000  0.62500000  0.18705000  1.0
  S2-  S1  1  0.25000000  0.62500000  0.68705000  1.0
  S2-  S1  1  0.25000000  0.87500000  0.18705000  1.0
  S2-  S1  1  0.25000000  0.87500000  0.68705000  1.0
  S2-  S1  1  0.50000000  0.12500000  0.18705000  1.0
  S2-  S1  1  0.50000000  0.12500000  0.68705000  1.0
  S2-  S1  1  0.50000000  0.37500000  0.18705000  1.0
  S2-  S1  1  0.50000000  0.37500000  0.68705000  1.0
  S2-  S1  1  0.50000000  0.62500000  0.18705000  1.0
  S2-  S1  1  0.50000000  0.62500000  0.68705000  1.0
  S2-  S1  1  0.50000000  0.87500000  0.18705000  1.0
  S2-  S1  1  0.50000000  0.87500000  0.68705000  1.0
  S2-  S1  1  0.75000000  0.12500000  0.18705000  1.0
  S2-  S1  1  0.75000000  0.12500000  0.68705000  1.0
  S2-  S1  1  0.75000000  0.37500000  0.18705000  1.0
  S2-  S1  1  0.75000000  0.37500000  0.68705000  1.0
  S2-  S1  1  0.75000000  0.62500000  0.18705000  1.0
  S2-  S1  1  0.75000000  0.62500000  0.68705000  1.0
  S2-  S1  1  0.75000000  0.87500000  0.18705000  1.0
  S2-  S1  1  0.75000000  0.87500000  0.68705000  1.0
  S2-  S1  1  0.12500000  0.00000000  0.31295000  1.0
  S2-  S1  1  0.12500000  0.00000000  0.81295000  1.0
  S2-  S1  1  0.12500000  0.25000000  0.31295000  1.0
  S2-  S1  1  0.12500000  0.25000000  0.81295000  1.0
  S2-  S1  1  0.12500000  0.50000000  0.31295000  1.0
  S2-  S1  1  0.12500000  0.50000000  0.81295000  1.0
  S2-  S1  1  0.12500000  0.75000000  0.31295000  1.0
  S2-  S1  1  0.12500000  0.75000000  0.81295000  1.0
  S2-  S1  1  0.37500000  0.00000000  0.31295000  1.0
  S2-  S1  1  0.37500000  0.00000000  0.81295000  1.0
  S2-  S1  1  0.37500000  0.25000000  0.31295000  1.0
  S2-  S1  1  0.37500000  0.25000000  0.81295000  1.0
  S2-  S1  1  0.37500000  0.50000000  0.31295000  1.0
  S2-  S1  1  0.37500000  0.50000000  0.81295000  1.0
  S2-  S1  1  0.37500000  0.75000000  0.31295000  1.0
  S2-  S1  1  0.37500000  0.75000000  0.81295000  1.0
  S2-  S1  1  0.62500000  0.00000000  0.31295000  1.0
  S2-  S1  1  0.62500000  0.00000000  0.81295000  1.0
  S2-  S1  1  0.62500000  0.25000000  0.31295000  1.0
  S2-  S1  1  0.62500000  0.25000000  0.81295000  1.0
  S2-  S1  1  0.62500000  0.50000000  0.31295000  1.0
  S2-  S1  1  0.62500000  0.50000000  0.81295000  1.0
  S2-  S1  1  0.62500000  0.75000000  0.31295000  1.0
  S2-  S1  1  0.62500000  0.75000000  0.81295000  1.0
  S2-  S1  1  0.87500000  0.00000000  0.31295000  1.0
  S2-  S1  1  0.87500000  0.00000000  0.81295000  1.0
  S2-  S1  1  0.87500000  0.25000000  0.31295000  1.0
  S2-  S1  1  0.87500000  0.25000000  0.81295000  1.0
  S2-  S1  1  0.87500000  0.50000000  0.31295000  1.0
  S2-  S1  1  0.87500000  0.50000000  0.81295000  1.0
  S2-  S1  1  0.87500000  0.75000000  0.31295000  1.0
  S2-  S1  1  0.87500000  0.75000000  0.81295000  1.0
  S2-  S2  1  0.00000000  0.12500000  0.40730000  1.0
  S2-  S2  1  0.00000000  0.12500000  0.90730000  1.0
  S2-  S2  1  0.00000000  0.37500000  0.40730000  1.0
  S2-  S2  1  0.00000000  0.37500000  0.90730000  1.0
  S2-  S2  1  0.00000000  0.62500000  0.40730000  1.0
  S2-  S2  1  0.00000000  0.62500000  0.90730000  1.0
  S2-  S2  1  0.00000000  0.87500000  0.40730000  1.0
  S2-  S2  1  0.00000000  0.87500000  0.90730000  1.0
  S2-  S2  1  0.25000000  0.12500000  0.40730000  1.0
  S2-  S2  1  0.25000000  0.12500000  0.90730000  1.0
  S2-  S2  1  0.25000000  0.37500000  0.40730000  1.0
  S2-  S2  1  0.25000000  0.37500000  0.90730000  1.0
  S2-  S2  1  0.25000000  0.62500000  0.40730000  1.0
  S2-  S2  1  0.25000000  0.62500000  0.90730000  1.0
  S2-  S2  1  0.25000000  0.87500000  0.40730000  1.0
  S2-  S2  1  0.25000000  0.87500000  0.90730000  1.0
  S2-  S2  1  0.50000000  0.12500000  0.40730000  1.0
  S2-  S2  1  0.50000000  0.12500000  0.90730000  1.0
  S2-  S2  1  0.50000000  0.37500000  0.40730000  1.0
  S2-  S2  1  0.50000000  0.37500000  0.90730000  1.0
  S2-  S2  1  0.50000000  0.62500000  0.40730000  1.0
  S2-  S2  1  0.50000000  0.62500000  0.90730000  1.0
  S2-  S2  1  0.50000000  0.87500000  0.40730000  1.0
  S2-  S2  1  0.50000000  0.87500000  0.90730000  1.0
  S2-  S2  1  0.75000000  0.12500000  0.40730000  1.0
  S2-  S2  1  0.75000000  0.12500000  0.90730000  1.0
  S2-  S2  1  0.75000000  0.37500000  0.40730000  1.0
  S2-  S2  1  0.75000000  0.37500000  0.90730000  1.0
  S2-  S2  1  0.75000000  0.62500000  0.40730000  1.0
  S2-  S2  1  0.75000000  0.62500000  0.90730000  1.0
  S2-  S2  1  0.75000000  0.87500000  0.40730000  1.0
  S2-  S2  1  0.75000000  0.87500000  0.90730000  1.0
  S2-  S2  1  0.12500000  0.00000000  0.09270000  1.0
  S2-  S2  1  0.12500000  0.00000000  0.59270000  1.0
  S2-  S2  1  0.12500000  0.25000000  0.09270000  1.0
  S2-  S2  1  0.12500000  0.25000000  0.59270000  1.0
  S2-  S2  1  0.12500000  0.50000000  0.09270000  1.0
  S2-  S2  1  0.12500000  0.50000000  0.59270000  1.0
  S2-  S2  1  0.12500000  0.75000000  0.09270000  1.0
  S2-  S2  1  0.12500000  0.75000000  0.59270000  1.0
  S2-  S2  1  0.37500000  0.00000000  0.09270000  1.0
  S2-  S2  1  0.37500000  0.00000000  0.59270000  1.0
  S2-  S2  1  0.37500000  0.25000000  0.09270000  1.0
  S2-  S2  1  0.37500000  0.25000000  0.59270000  1.0
  S2-  S2  1  0.37500000  0.50000000  0.09270000  1.0
  S2-  S2  1  0.37500000  0.50000000  0.59270000  1.0
  S2-  S2  1  0.37500000  0.75000000  0.09270000  1.0
  S2-  S2  1  0.37500000  0.75000000  0.59270000  1.0
  S2-  S2  1  0.62500000  0.00000000  0.09270000  1.0
  S2-  S2  1  0.62500000  0.00000000  0.59270000  1.0
  S2-  S2  1  0.62500000  0.25000000  0.09270000  1.0
  S2-  S2  1  0.62500000  0.25000000  0.59270000  1.0
  S2-  S2  1  0.62500000  0.50000000  0.09270000  1.0
  S2-  S2  1  0.62500000  0.50000000  0.59270000  1.0
  S2-  S2  1  0.62500000  0.75000000  0.09270000  1.0
  S2-  S2  1  0.62500000  0.75000000  0.59270000  1.0
  S2-  S2  1  0.87500000  0.00000000  0.09270000  1.0
  S2-  S2  1  0.87500000  0.00000000  0.59270000  1.0
  S2-  S2  1  0.87500000  0.25000000  0.09270000  1.0
  S2-  S2  1  0.87500000  0.25000000  0.59270000  1.0
  S2-  S2  1  0.87500000  0.50000000  0.09270000  1.0
  S2-  S2  1  0.87500000  0.50000000  0.59270000  1.0
  S2-  S2  1  0.87500000  0.75000000  0.09270000  1.0
  S2-  S2  1  0.87500000  0.75000000  0.59270000  1.0
