# generated using pymatgen
data_Na61.44Fe41.28000048S72O288
_symmetry_space_group_name_H-M   'P 1'
_cell_length_a   17.98064200
_cell_length_b   17.98064200
_cell_length_c   19.54320000
_cell_angle_alpha   107.66794800
_cell_angle_beta   107.66794800
_cell_angle_gamma   90.52725400
_symmetry_Int_Tables_number   1
_chemical_formula_structural   Na61.44Fe41.28000048S72O288
_chemical_formula_sum   'Na61.44 Fe41.28000048 S72 O288'
_cell_volume   5700.55386417
_cell_formula_units_Z   1
loop_
 _symmetry_equiv_pos_site_id
 _symmetry_equiv_pos_as_xyz
  1  'x, y, z'
loop_
 _atom_site_type_symbol
 _atom_site_label
 _atom_site_symmetry_multiplicity
 _atom_site_fract_x
 _atom_site_fract_y
 _atom_site_fract_z
 _atom_site_occupancy
  Na  Na1_3  1  0.13251500  0.36748500  0.08333333  1.0
  Na  Na1_3  1  0.13251500  0.36748500  0.41666667  1.0
  Na  Na1_3  1  0.13251500  0.36748500  0.75000000  1.0
  Na  Na1_3  1  0.13251500  0.86748500  0.08333333  1.0
  Na  Na1_3  1  0.13251500  0.86748500  0.41666667  1.0
  Na  Na1_3  1  0.13251500  0.86748500  0.75000000  1.0
  Na  Na1_3  1  0.63251500  0.36748500  0.08333333  1.0
  Na  Na1_3  1  0.63251500  0.36748500  0.41666667  1.0
  Na  Na1_3  1  0.63251500  0.36748500  0.75000000  1.0
  Na  Na1_3  1  0.63251500  0.86748500  0.08333333  1.0
  Na  Na1_3  1  0.63251500  0.86748500  0.41666667  1.0
  Na  Na1_3  1  0.63251500  0.86748500  0.75000000  1.0
  Na  Na1_4  1  0.36748500  0.13251500  0.25000000  1.0
  Na  Na1_4  1  0.36748500  0.13251500  0.58333333  1.0
  Na  Na1_4  1  0.36748500  0.13251500  0.91666667  1.0
  Na  Na1_4  1  0.36748500  0.63251500  0.25000000  1.0
  Na  Na1_4  1  0.36748500  0.63251500  0.58333333  1.0
  Na  Na1_4  1  0.36748500  0.63251500  0.91666667  1.0
  Na  Na1_4  1  0.86748500  0.13251500  0.25000000  1.0
  Na  Na1_4  1  0.86748500  0.13251500  0.58333333  1.0
  Na  Na1_4  1  0.86748500  0.13251500  0.91666667  1.0
  Na  Na1_4  1  0.86748500  0.63251500  0.25000000  1.0
  Na  Na1_4  1  0.86748500  0.63251500  0.58333333  1.0
  Na  Na1_4  1  0.86748500  0.63251500  0.91666667  1.0
  Na  Na3_3  1  0.99289000  0.50711000  0.41666667  1.0
  Na  Na3_3  1  0.49289000  0.00711000  0.08333333  1.0
  Na  Na3_3  1  0.49289000  0.50711000  0.41666667  1.0
  Na  Na3_3  1  0.49289000  0.50711000  0.08333333  1.0
  Na  Na3_3  1  0.49289000  0.00711000  0.75000000  1.0
  Na  Na3_3  1  0.99289000  0.50711000  0.08333333  1.0
  Na  Na3_3  1  0.49289000  0.00711000  0.41666667  1.0
  Na  Na3_3  1  0.99289000  0.00711000  0.41666667  1.0
  Na  Na3_3  1  0.99289000  0.00711000  0.75000000  1.0
  Na  Na3_4  1  0.50711000  0.49289000  0.25000000  1.0
  Na  Na3_4  1  0.50711000  0.49289000  0.91666667  1.0
  Na  Na3_4  1  0.50711000  0.49289000  0.58333333  1.0
  Na  Na3_4  1  0.50711000  0.99289000  0.58333333  1.0
  Na  Na3_4  1  0.00711000  0.49289000  0.91666667  1.0
  Na  Na3_4  1  0.00711000  0.99289000  0.58333333  1.0
  Na  Na3_4  1  0.00711000  0.99289000  0.25000000  1.0
  Na  Na3_4  1  0.00711000  0.49289000  0.25000000  1.0
  Na  Na3_4  1  0.00711000  0.99289000  0.91666667  1.0
  Na  Na2_3  1  0.25000000  0.25000000  0.33333333  1.0
  Na  Na2_3  1  0.25000000  0.75000000  0.66666667  1.0
  Na  Na2_3  1  0.75000000  0.25000000  0.00000000  1.0
  Na  Na2_3  1  0.75000000  0.75000000  0.33333333  1.0
  Na  Na2_3  1  0.25000000  0.75000000  0.00000000  1.0
  Na  Na2_3  1  0.75000000  0.25000000  0.33333333  1.0
  Na  Na2_3  1  0.75000000  0.75000000  0.66666667  1.0
  Na  Na2_3  1  0.75000000  0.75000000  0.00000000  1.0
  Na  Na2_3  1  0.25000000  0.25000000  0.00000000  1.0
  Na  Na2_3  1  0.75000000  0.25000000  0.66666667  1.0
  Na  Na2_4  1  0.75000000  0.75000000  0.50000000  1.0
  Na  Na2_4  1  0.25000000  0.25000000  0.16666667  1.0
  Na  Na2_4  1  0.25000000  0.75000000  0.50000000  1.0
  Na  Na2_4  1  0.75000000  0.25000000  0.50000000  1.0
  Na  Na2_4  1  0.25000000  0.75000000  0.16666667  1.0
  Na  Na2_4  1  0.75000000  0.75000000  0.83333333  1.0
  Na  Na2_4  1  0.25000000  0.25000000  0.50000000  1.0
  Na  Na2_4  1  0.25000000  0.75000000  0.83333333  1.0
  Na  Na2_4  1  0.75000000  0.25000000  0.83333333  1.0
  Na  Na2_4  1  0.75000000  0.75000000  0.16666667  1.0
  Fe  Fe1_5  1  0.96351500  0.80495500  0.78374667  1.0
  Fe  Fe1_5  1  0.96351500  0.30495500  0.45041333  1.0
  Fe  Fe1_5  1  0.46351500  0.80495500  0.11708000  1.0
  Fe  Fe1_5  1  0.46351500  0.30495500  0.78374667  1.0
  Fe  Fe1_5  1  0.46351500  0.80495500  0.78374667  1.0
  Fe  Fe1_5  1  0.96351500  0.80495500  0.11708000  1.0
  Fe  Fe1_5  1  0.96351500  0.30495500  0.11708000  1.0
  Fe  Fe1_5  1  0.96351500  0.30495500  0.78374667  1.0
  Fe  Fe1_5  1  0.46351500  0.30495500  0.45041333  1.0
  Fe  Fe1_5  1  0.96351500  0.80495500  0.45041333  1.0
  Fe  Fe1_6  1  0.69504500  0.03648500  0.71625333  1.0
  Fe  Fe1_6  1  0.19504500  0.53648500  0.71625333  1.0
  Fe  Fe1_6  1  0.69504500  0.53648500  0.38292000  1.0
  Fe  Fe1_6  1  0.19504500  0.03648500  0.71625333  1.0
  Fe  Fe1_6  1  0.19504500  0.03648500  0.04958667  1.0
  Fe  Fe1_6  1  0.69504500  0.53648500  0.71625333  1.0
  Fe  Fe1_6  1  0.19504500  0.03648500  0.38292000  1.0
  Fe  Fe1_6  1  0.69504500  0.03648500  0.38292000  1.0
  Fe  Fe1_6  1  0.69504500  0.03648500  0.04958667  1.0
  Fe  Fe1_6  1  0.69504500  0.53648500  0.04958667  1.0
  Fe  Fe1_7  1  0.53648500  0.69504500  0.21625333  1.0
  Fe  Fe1_7  1  0.03648500  0.69504500  0.54958667  1.0
  Fe  Fe1_7  1  0.03648500  0.19504500  0.88292000  1.0
  Fe  Fe1_7  1  0.03648500  0.19504500  0.54958667  1.0
  Fe  Fe1_7  1  0.53648500  0.19504500  0.54958667  1.0
  Fe  Fe1_7  1  0.53648500  0.19504500  0.88292000  1.0
  Fe  Fe1_7  1  0.03648500  0.69504500  0.21625333  1.0
  Fe  Fe1_7  1  0.53648500  0.19504500  0.21625333  1.0
  Fe  Fe1_7  1  0.03648500  0.69504500  0.88292000  1.0
  Fe  Fe1_7  1  0.53648500  0.69504500  0.88292000  1.0
  Fe  Fe1_8  1  0.80495500  0.46351500  0.95041333  1.0
  Fe  Fe1_8  1  0.80495500  0.46351500  0.61708000  1.0
  Fe  Fe1_8  1  0.30495500  0.96351500  0.95041333  1.0
  Fe  Fe1_8  1  0.30495500  0.96351500  0.61708000  1.0
  Fe  Fe1_8  1  0.80495500  0.96351500  0.95041333  1.0
  Fe  Fe1_8  1  0.30495500  0.46351500  0.95041333  1.0
  Fe  Fe1_8  1  0.80495500  0.46351500  0.28374667  1.0
  Fe  Fe1_8  1  0.30495500  0.46351500  0.61708000  1.0
  Fe  Fe1_8  1  0.80495500  0.96351500  0.61708000  1.0
  Fe  Fe1_8  1  0.30495500  0.46351500  0.28374667  1.0
  S  S1_3  1  0.36128500  0.13871500  0.08333333  1.0
  S  S1_3  1  0.36128500  0.13871500  0.41666667  1.0
  S  S1_3  1  0.36128500  0.13871500  0.75000000  1.0
  S  S1_3  1  0.36128500  0.63871500  0.08333333  1.0
  S  S1_3  1  0.36128500  0.63871500  0.41666667  1.0
  S  S1_3  1  0.36128500  0.63871500  0.75000000  1.0
  S  S1_3  1  0.86128500  0.13871500  0.08333333  1.0
  S  S1_3  1  0.86128500  0.13871500  0.41666667  1.0
  S  S1_3  1  0.86128500  0.13871500  0.75000000  1.0
  S  S1_3  1  0.86128500  0.63871500  0.08333333  1.0
  S  S1_3  1  0.86128500  0.63871500  0.41666667  1.0
  S  S1_3  1  0.86128500  0.63871500  0.75000000  1.0
  S  S1_4  1  0.13871500  0.36128500  0.25000000  1.0
  S  S1_4  1  0.13871500  0.36128500  0.58333333  1.0
  S  S1_4  1  0.13871500  0.36128500  0.91666667  1.0
  S  S1_4  1  0.13871500  0.86128500  0.25000000  1.0
  S  S1_4  1  0.13871500  0.86128500  0.58333333  1.0
  S  S1_4  1  0.13871500  0.86128500  0.91666667  1.0
  S  S1_4  1  0.63871500  0.36128500  0.25000000  1.0
  S  S1_4  1  0.63871500  0.36128500  0.58333333  1.0
  S  S1_4  1  0.63871500  0.36128500  0.91666667  1.0
  S  S1_4  1  0.63871500  0.86128500  0.25000000  1.0
  S  S1_4  1  0.63871500  0.86128500  0.58333333  1.0
  S  S1_4  1  0.63871500  0.86128500  0.91666667  1.0
  S  S2  1  0.06607500  0.16943500  0.04291667  1.0
  S  S2  1  0.06607500  0.16943500  0.37625000  1.0
  S  S2  1  0.06607500  0.16943500  0.70958333  1.0
  S  S2  1  0.06607500  0.66943500  0.04291667  1.0
  S  S2  1  0.06607500  0.66943500  0.37625000  1.0
  S  S2  1  0.06607500  0.66943500  0.70958333  1.0
  S  S2  1  0.56607500  0.16943500  0.04291667  1.0
  S  S2  1  0.56607500  0.16943500  0.37625000  1.0
  S  S2  1  0.56607500  0.16943500  0.70958333  1.0
  S  S2  1  0.56607500  0.66943500  0.04291667  1.0
  S  S2  1  0.56607500  0.66943500  0.37625000  1.0
  S  S2  1  0.56607500  0.66943500  0.70958333  1.0
  S  S2_2  1  0.33056500  0.43392500  0.12375000  1.0
  S  S2_2  1  0.33056500  0.43392500  0.45708333  1.0
  S  S2_2  1  0.33056500  0.43392500  0.79041667  1.0
  S  S2_2  1  0.33056500  0.93392500  0.12375000  1.0
  S  S2_2  1  0.33056500  0.93392500  0.45708333  1.0
  S  S2_2  1  0.33056500  0.93392500  0.79041667  1.0
  S  S2_2  1  0.83056500  0.43392500  0.12375000  1.0
  S  S2_2  1  0.83056500  0.43392500  0.45708333  1.0
  S  S2_2  1  0.83056500  0.43392500  0.79041667  1.0
  S  S2_2  1  0.83056500  0.93392500  0.12375000  1.0
  S  S2_2  1  0.83056500  0.93392500  0.45708333  1.0
  S  S2_2  1  0.83056500  0.93392500  0.79041667  1.0
  S  S2_3  1  0.43392500  0.33056500  0.29041667  1.0
  S  S2_3  1  0.43392500  0.33056500  0.62375000  1.0
  S  S2_3  1  0.43392500  0.33056500  0.95708333  1.0
  S  S2_3  1  0.43392500  0.83056500  0.29041667  1.0
  S  S2_3  1  0.43392500  0.83056500  0.62375000  1.0
  S  S2_3  1  0.43392500  0.83056500  0.95708333  1.0
  S  S2_3  1  0.93392500  0.33056500  0.29041667  1.0
  S  S2_3  1  0.93392500  0.33056500  0.62375000  1.0
  S  S2_3  1  0.93392500  0.33056500  0.95708333  1.0
  S  S2_3  1  0.93392500  0.83056500  0.29041667  1.0
  S  S2_3  1  0.93392500  0.83056500  0.62375000  1.0
  S  S2_3  1  0.93392500  0.83056500  0.95708333  1.0
  S  S2_4  1  0.16943500  0.06607500  0.20958333  1.0
  S  S2_4  1  0.16943500  0.06607500  0.54291667  1.0
  S  S2_4  1  0.16943500  0.06607500  0.87625000  1.0
  S  S2_4  1  0.16943500  0.56607500  0.20958333  1.0
  S  S2_4  1  0.16943500  0.56607500  0.54291667  1.0
  S  S2_4  1  0.16943500  0.56607500  0.87625000  1.0
  S  S2_4  1  0.66943500  0.06607500  0.20958333  1.0
  S  S2_4  1  0.66943500  0.06607500  0.54291667  1.0
  S  S2_4  1  0.66943500  0.06607500  0.87625000  1.0
  S  S2_4  1  0.66943500  0.56607500  0.20958333  1.0
  S  S2_4  1  0.66943500  0.56607500  0.54291667  1.0
  S  S2_4  1  0.66943500  0.56607500  0.87625000  1.0
  O  O1_5  1  0.36942000  0.21794000  0.07313667  1.0
  O  O1_5  1  0.36942000  0.21794000  0.40647000  1.0
  O  O1_5  1  0.36942000  0.21794000  0.73980333  1.0
  O  O1_5  1  0.36942000  0.71794000  0.07313667  1.0
  O  O1_5  1  0.36942000  0.71794000  0.40647000  1.0
  O  O1_5  1  0.36942000  0.71794000  0.73980333  1.0
  O  O1_5  1  0.86942000  0.21794000  0.07313667  1.0
  O  O1_5  1  0.86942000  0.21794000  0.40647000  1.0
  O  O1_5  1  0.86942000  0.21794000  0.73980333  1.0
  O  O1_5  1  0.86942000  0.71794000  0.07313667  1.0
  O  O1_5  1  0.86942000  0.71794000  0.40647000  1.0
  O  O1_5  1  0.86942000  0.71794000  0.73980333  1.0
  O  O1_6  1  0.28206000  0.13058000  0.09353000  1.0
  O  O1_6  1  0.28206000  0.13058000  0.42686333  1.0
  O  O1_6  1  0.28206000  0.13058000  0.76019667  1.0
  O  O1_6  1  0.28206000  0.63058000  0.09353000  1.0
  O  O1_6  1  0.28206000  0.63058000  0.42686333  1.0
  O  O1_6  1  0.28206000  0.63058000  0.76019667  1.0
  O  O1_6  1  0.78206000  0.13058000  0.09353000  1.0
  O  O1_6  1  0.78206000  0.13058000  0.42686333  1.0
  O  O1_6  1  0.78206000  0.13058000  0.76019667  1.0
  O  O1_6  1  0.78206000  0.63058000  0.09353000  1.0
  O  O1_6  1  0.78206000  0.63058000  0.42686333  1.0
  O  O1_6  1  0.78206000  0.63058000  0.76019667  1.0
  O  O1_7  1  0.13058000  0.28206000  0.26019667  1.0
  O  O1_7  1  0.13058000  0.28206000  0.59353000  1.0
  O  O1_7  1  0.13058000  0.28206000  0.92686333  1.0
  O  O1_7  1  0.13058000  0.78206000  0.26019667  1.0
  O  O1_7  1  0.13058000  0.78206000  0.59353000  1.0
  O  O1_7  1  0.13058000  0.78206000  0.92686333  1.0
  O  O1_7  1  0.63058000  0.28206000  0.26019667  1.0
  O  O1_7  1  0.63058000  0.28206000  0.59353000  1.0
  O  O1_7  1  0.63058000  0.28206000  0.92686333  1.0
  O  O1_7  1  0.63058000  0.78206000  0.26019667  1.0
  O  O1_7  1  0.63058000  0.78206000  0.59353000  1.0
  O  O1_7  1  0.63058000  0.78206000  0.92686333  1.0
  O  O1_8  1  0.21794000  0.36942000  0.23980333  1.0
  O  O1_8  1  0.21794000  0.36942000  0.57313667  1.0
  O  O1_8  1  0.21794000  0.36942000  0.90647000  1.0
  O  O1_8  1  0.21794000  0.86942000  0.23980333  1.0
  O  O1_8  1  0.21794000  0.86942000  0.57313667  1.0
  O  O1_8  1  0.21794000  0.86942000  0.90647000  1.0
  O  O1_8  1  0.71794000  0.36942000  0.23980333  1.0
  O  O1_8  1  0.71794000  0.36942000  0.57313667  1.0
  O  O1_8  1  0.71794000  0.36942000  0.90647000  1.0
  O  O1_8  1  0.71794000  0.86942000  0.23980333  1.0
  O  O1_8  1  0.71794000  0.86942000  0.57313667  1.0
  O  O1_8  1  0.71794000  0.86942000  0.90647000  1.0
  O  O2_5  1  0.42258000  0.13108000  0.15045000  1.0
  O  O2_5  1  0.42258000  0.13108000  0.48378333  1.0
  O  O2_5  1  0.42258000  0.13108000  0.81711667  1.0
  O  O2_5  1  0.42258000  0.63108000  0.15045000  1.0
  O  O2_5  1  0.42258000  0.63108000  0.48378333  1.0
  O  O2_5  1  0.42258000  0.63108000  0.81711667  1.0
  O  O2_5  1  0.92258000  0.13108000  0.15045000  1.0
  O  O2_5  1  0.92258000  0.13108000  0.48378333  1.0
  O  O2_5  1  0.92258000  0.13108000  0.81711667  1.0
  O  O2_5  1  0.92258000  0.63108000  0.15045000  1.0
  O  O2_5  1  0.92258000  0.63108000  0.48378333  1.0
  O  O2_5  1  0.92258000  0.63108000  0.81711667  1.0
  O  O2_6  1  0.36892000  0.07742000  0.01621667  1.0
  O  O2_6  1  0.36892000  0.07742000  0.34955000  1.0
  O  O2_6  1  0.36892000  0.07742000  0.68288333  1.0
  O  O2_6  1  0.36892000  0.57742000  0.01621667  1.0
  O  O2_6  1  0.36892000  0.57742000  0.34955000  1.0
  O  O2_6  1  0.36892000  0.57742000  0.68288333  1.0
  O  O2_6  1  0.86892000  0.07742000  0.01621667  1.0
  O  O2_6  1  0.86892000  0.07742000  0.34955000  1.0
  O  O2_6  1  0.86892000  0.07742000  0.68288333  1.0
  O  O2_6  1  0.86892000  0.57742000  0.01621667  1.0
  O  O2_6  1  0.86892000  0.57742000  0.34955000  1.0
  O  O2_6  1  0.86892000  0.57742000  0.68288333  1.0
  O  O2_7  1  0.07742000  0.36892000  0.18288333  1.0
  O  O2_7  1  0.07742000  0.36892000  0.51621667  1.0
  O  O2_7  1  0.07742000  0.36892000  0.84955000  1.0
  O  O2_7  1  0.07742000  0.86892000  0.18288333  1.0
  O  O2_7  1  0.07742000  0.86892000  0.51621667  1.0
  O  O2_7  1  0.07742000  0.86892000  0.84955000  1.0
  O  O2_7  1  0.57742000  0.36892000  0.18288333  1.0
  O  O2_7  1  0.57742000  0.36892000  0.51621667  1.0
  O  O2_7  1  0.57742000  0.36892000  0.84955000  1.0
  O  O2_7  1  0.57742000  0.86892000  0.18288333  1.0
  O  O2_7  1  0.57742000  0.86892000  0.51621667  1.0
  O  O2_7  1  0.57742000  0.86892000  0.84955000  1.0
  O  O2_8  1  0.13108000  0.42258000  0.31711667  1.0
  O  O2_8  1  0.13108000  0.42258000  0.65045000  1.0
  O  O2_8  1  0.13108000  0.42258000  0.98378333  1.0
  O  O2_8  1  0.13108000  0.92258000  0.31711667  1.0
  O  O2_8  1  0.13108000  0.92258000  0.65045000  1.0
  O  O2_8  1  0.13108000  0.92258000  0.98378333  1.0
  O  O2_8  1  0.63108000  0.42258000  0.31711667  1.0
  O  O2_8  1  0.63108000  0.42258000  0.65045000  1.0
  O  O2_8  1  0.63108000  0.42258000  0.98378333  1.0
  O  O2_8  1  0.63108000  0.92258000  0.31711667  1.0
  O  O2_8  1  0.63108000  0.92258000  0.65045000  1.0
  O  O2_8  1  0.63108000  0.92258000  0.98378333  1.0
  O  O3  1  0.03153500  0.20300500  0.10710000  1.0
  O  O3  1  0.03153500  0.20300500  0.44043333  1.0
  O  O3  1  0.03153500  0.20300500  0.77376667  1.0
  O  O3  1  0.03153500  0.70300500  0.10710000  1.0
  O  O3  1  0.03153500  0.70300500  0.44043333  1.0
  O  O3  1  0.03153500  0.70300500  0.77376667  1.0
  O  O3  1  0.53153500  0.20300500  0.10710000  1.0
  O  O3  1  0.53153500  0.20300500  0.44043333  1.0
  O  O3  1  0.53153500  0.20300500  0.77376667  1.0
  O  O3  1  0.53153500  0.70300500  0.10710000  1.0
  O  O3  1  0.53153500  0.70300500  0.44043333  1.0
  O  O3  1  0.53153500  0.70300500  0.77376667  1.0
  O  O3_2  1  0.29699500  0.46846500  0.05956667  1.0
  O  O3_2  1  0.29699500  0.46846500  0.39290000  1.0
  O  O3_2  1  0.29699500  0.46846500  0.72623333  1.0
  O  O3_2  1  0.29699500  0.96846500  0.05956667  1.0
  O  O3_2  1  0.29699500  0.96846500  0.39290000  1.0
  O  O3_2  1  0.29699500  0.96846500  0.72623333  1.0
  O  O3_2  1  0.79699500  0.46846500  0.05956667  1.0
  O  O3_2  1  0.79699500  0.46846500  0.39290000  1.0
  O  O3_2  1  0.79699500  0.46846500  0.72623333  1.0
  O  O3_2  1  0.79699500  0.96846500  0.05956667  1.0
  O  O3_2  1  0.79699500  0.96846500  0.39290000  1.0
  O  O3_2  1  0.79699500  0.96846500  0.72623333  1.0
  O  O3_3  1  0.46846500  0.29699500  0.22623333  1.0
  O  O3_3  1  0.46846500  0.29699500  0.55956667  1.0
  O  O3_3  1  0.46846500  0.29699500  0.89290000  1.0
  O  O3_3  1  0.46846500  0.79699500  0.22623333  1.0
  O  O3_3  1  0.46846500  0.79699500  0.55956667  1.0
  O  O3_3  1  0.46846500  0.79699500  0.89290000  1.0
  O  O3_3  1  0.96846500  0.29699500  0.22623333  1.0
  O  O3_3  1  0.96846500  0.29699500  0.55956667  1.0
  O  O3_3  1  0.96846500  0.29699500  0.89290000  1.0
  O  O3_3  1  0.96846500  0.79699500  0.22623333  1.0
  O  O3_3  1  0.96846500  0.79699500  0.55956667  1.0
  O  O3_3  1  0.96846500  0.79699500  0.89290000  1.0
  O  O3_4  1  0.20300500  0.03153500  0.27376667  1.0
  O  O3_4  1  0.20300500  0.03153500  0.60710000  1.0
  O  O3_4  1  0.20300500  0.03153500  0.94043333  1.0
  O  O3_4  1  0.20300500  0.53153500  0.27376667  1.0
  O  O3_4  1  0.20300500  0.53153500  0.60710000  1.0
  O  O3_4  1  0.20300500  0.53153500  0.94043333  1.0
  O  O3_4  1  0.70300500  0.03153500  0.27376667  1.0
  O  O3_4  1  0.70300500  0.03153500  0.60710000  1.0
  O  O3_4  1  0.70300500  0.03153500  0.94043333  1.0
  O  O3_4  1  0.70300500  0.53153500  0.27376667  1.0
  O  O3_4  1  0.70300500  0.53153500  0.60710000  1.0
  O  O3_4  1  0.70300500  0.53153500  0.94043333  1.0
  O  O4  1  0.08864000  0.09216000  0.04211000  1.0
  O  O4  1  0.08864000  0.09216000  0.37544333  1.0
  O  O4  1  0.08864000  0.09216000  0.70877667  1.0
  O  O4  1  0.08864000  0.59216000  0.04211000  1.0
  O  O4  1  0.08864000  0.59216000  0.37544333  1.0
  O  O4  1  0.08864000  0.59216000  0.70877667  1.0
  O  O4  1  0.58864000  0.09216000  0.04211000  1.0
  O  O4  1  0.58864000  0.09216000  0.37544333  1.0
  O  O4  1  0.58864000  0.09216000  0.70877667  1.0
  O  O4  1  0.58864000  0.59216000  0.04211000  1.0
  O  O4  1  0.58864000  0.59216000  0.37544333  1.0
  O  O4  1  0.58864000  0.59216000  0.70877667  1.0
  O  O4_2  1  0.40784000  0.41136000  0.12455667  1.0
  O  O4_2  1  0.40784000  0.41136000  0.45789000  1.0
  O  O4_2  1  0.40784000  0.41136000  0.79122333  1.0
  O  O4_2  1  0.40784000  0.91136000  0.12455667  1.0
  O  O4_2  1  0.40784000  0.91136000  0.45789000  1.0
  O  O4_2  1  0.40784000  0.91136000  0.79122333  1.0
  O  O4_2  1  0.90784000  0.41136000  0.12455667  1.0
  O  O4_2  1  0.90784000  0.41136000  0.45789000  1.0
  O  O4_2  1  0.90784000  0.41136000  0.79122333  1.0
  O  O4_2  1  0.90784000  0.91136000  0.12455667  1.0
  O  O4_2  1  0.90784000  0.91136000  0.45789000  1.0
  O  O4_2  1  0.90784000  0.91136000  0.79122333  1.0
  O  O4_3  1  0.41136000  0.40784000  0.29122333  1.0
  O  O4_3  1  0.41136000  0.40784000  0.62455667  1.0
  O  O4_3  1  0.41136000  0.40784000  0.95789000  1.0
  O  O4_3  1  0.41136000  0.90784000  0.29122333  1.0
  O  O4_3  1  0.41136000  0.90784000  0.62455667  1.0
  O  O4_3  1  0.41136000  0.90784000  0.95789000  1.0
  O  O4_3  1  0.91136000  0.40784000  0.29122333  1.0
  O  O4_3  1  0.91136000  0.40784000  0.62455667  1.0
  O  O4_3  1  0.91136000  0.40784000  0.95789000  1.0
  O  O4_3  1  0.91136000  0.90784000  0.29122333  1.0
  O  O4_3  1  0.91136000  0.90784000  0.62455667  1.0
  O  O4_3  1  0.91136000  0.90784000  0.95789000  1.0
  O  O4_4  1  0.09216000  0.08864000  0.20877667  1.0
  O  O4_4  1  0.09216000  0.08864000  0.54211000  1.0
  O  O4_4  1  0.09216000  0.08864000  0.87544333  1.0
  O  O4_4  1  0.09216000  0.58864000  0.20877667  1.0
  O  O4_4  1  0.09216000  0.58864000  0.54211000  1.0
  O  O4_4  1  0.09216000  0.58864000  0.87544333  1.0
  O  O4_4  1  0.59216000  0.08864000  0.20877667  1.0
  O  O4_4  1  0.59216000  0.08864000  0.54211000  1.0
  O  O4_4  1  0.59216000  0.08864000  0.87544333  1.0
  O  O4_4  1  0.59216000  0.58864000  0.20877667  1.0
  O  O4_4  1  0.59216000  0.58864000  0.54211000  1.0
  O  O4_4  1  0.59216000  0.58864000  0.87544333  1.0
  O  O5  1  0.13366000  0.22268000  0.05361000  1.0
  O  O5  1  0.13366000  0.22268000  0.38694333  1.0
  O  O5  1  0.13366000  0.22268000  0.72027667  1.0
  O  O5  1  0.13366000  0.72268000  0.05361000  1.0
  O  O5  1  0.13366000  0.72268000  0.38694333  1.0
  O  O5  1  0.13366000  0.72268000  0.72027667  1.0
  O  O5  1  0.63366000  0.22268000  0.05361000  1.0
  O  O5  1  0.63366000  0.22268000  0.38694333  1.0
  O  O5  1  0.63366000  0.22268000  0.72027667  1.0
  O  O5  1  0.63366000  0.72268000  0.05361000  1.0
  O  O5  1  0.63366000  0.72268000  0.38694333  1.0
  O  O5  1  0.63366000  0.72268000  0.72027667  1.0
  O  O5_2  1  0.27732000  0.36634000  0.11305667  1.0
  O  O5_2  1  0.27732000  0.36634000  0.44639000  1.0
  O  O5_2  1  0.27732000  0.36634000  0.77972333  1.0
  O  O5_2  1  0.27732000  0.86634000  0.11305667  1.0
  O  O5_2  1  0.27732000  0.86634000  0.44639000  1.0
  O  O5_2  1  0.27732000  0.86634000  0.77972333  1.0
  O  O5_2  1  0.77732000  0.36634000  0.11305667  1.0
  O  O5_2  1  0.77732000  0.36634000  0.44639000  1.0
  O  O5_2  1  0.77732000  0.36634000  0.77972333  1.0
  O  O5_2  1  0.77732000  0.86634000  0.11305667  1.0
  O  O5_2  1  0.77732000  0.86634000  0.44639000  1.0
  O  O5_2  1  0.77732000  0.86634000  0.77972333  1.0
  O  O5_3  1  0.36634000  0.27732000  0.27972333  1.0
  O  O5_3  1  0.36634000  0.27732000  0.61305667  1.0
  O  O5_3  1  0.36634000  0.27732000  0.94639000  1.0
  O  O5_3  1  0.36634000  0.77732000  0.27972333  1.0
  O  O5_3  1  0.36634000  0.77732000  0.61305667  1.0
  O  O5_3  1  0.36634000  0.77732000  0.94639000  1.0
  O  O5_3  1  0.86634000  0.27732000  0.27972333  1.0
  O  O5_3  1  0.86634000  0.27732000  0.61305667  1.0
  O  O5_3  1  0.86634000  0.27732000  0.94639000  1.0
  O  O5_3  1  0.86634000  0.77732000  0.27972333  1.0
  O  O5_3  1  0.86634000  0.77732000  0.61305667  1.0
  O  O5_3  1  0.86634000  0.77732000  0.94639000  1.0
  O  O5_4  1  0.22268000  0.13366000  0.22027667  1.0
  O  O5_4  1  0.22268000  0.13366000  0.55361000  1.0
  O  O5_4  1  0.22268000  0.13366000  0.88694333  1.0
  O  O5_4  1  0.22268000  0.63366000  0.22027667  1.0
  O  O5_4  1  0.22268000  0.63366000  0.55361000  1.0
  O  O5_4  1  0.22268000  0.63366000  0.88694333  1.0
  O  O5_4  1  0.72268000  0.13366000  0.22027667  1.0
  O  O5_4  1  0.72268000  0.13366000  0.55361000  1.0
  O  O5_4  1  0.72268000  0.13366000  0.88694333  1.0
  O  O5_4  1  0.72268000  0.63366000  0.22027667  1.0
  O  O5_4  1  0.72268000  0.63366000  0.55361000  1.0
  O  O5_4  1  0.72268000  0.63366000  0.88694333  1.0
  O  O6_5  1  0.49364500  0.33333333  0.02914333  1.0
  O  O6_5  1  0.49364500  0.33333333  0.36247667  1.0
  O  O6_5  1  0.49364500  0.33333333  0.69581000  1.0
  O  O6_5  1  0.49364500  0.83333333  0.02914333  1.0
  O  O6_5  1  0.49364500  0.83333333  0.36247667  1.0
  O  O6_5  1  0.49364500  0.83333333  0.69581000  1.0
  O  O6_5  1  0.99364500  0.33333333  0.02914333  1.0
  O  O6_5  1  0.99364500  0.33333333  0.36247667  1.0
  O  O6_5  1  0.99364500  0.33333333  0.69581000  1.0
  O  O6_5  1  0.99364500  0.83333333  0.02914333  1.0
  O  O6_5  1  0.99364500  0.83333333  0.36247667  1.0
  O  O6_5  1  0.99364500  0.83333333  0.69581000  1.0
  O  O6_6  1  0.16666667  0.00635500  0.13752333  1.0
  O  O6_6  1  0.16666667  0.00635500  0.47085667  1.0
  O  O6_6  1  0.16666667  0.00635500  0.80419000  1.0
  O  O6_6  1  0.16666667  0.50635500  0.13752333  1.0
  O  O6_6  1  0.16666667  0.50635500  0.47085667  1.0
  O  O6_6  1  0.16666667  0.50635500  0.80419000  1.0
  O  O6_6  1  0.66666667  0.00635500  0.13752333  1.0
  O  O6_6  1  0.66666667  0.00635500  0.47085667  1.0
  O  O6_6  1  0.66666667  0.00635500  0.80419000  1.0
  O  O6_6  1  0.66666667  0.50635500  0.13752333  1.0
  O  O6_6  1  0.66666667  0.50635500  0.47085667  1.0
  O  O6_6  1  0.66666667  0.50635500  0.80419000  1.0
  O  O6_7  1  0.00635500  0.16666667  0.30419000  1.0
  O  O6_7  1  0.00635500  0.16666667  0.63752333  1.0
  O  O6_7  1  0.00635500  0.16666667  0.97085667  1.0
  O  O6_7  1  0.00635500  0.66666667  0.30419000  1.0
  O  O6_7  1  0.00635500  0.66666667  0.63752333  1.0
  O  O6_7  1  0.00635500  0.66666667  0.97085667  1.0
  O  O6_7  1  0.50635500  0.16666667  0.30419000  1.0
  O  O6_7  1  0.50635500  0.16666667  0.63752333  1.0
  O  O6_7  1  0.50635500  0.16666667  0.97085667  1.0
  O  O6_7  1  0.50635500  0.66666667  0.30419000  1.0
  O  O6_7  1  0.50635500  0.66666667  0.63752333  1.0
  O  O6_7  1  0.50635500  0.66666667  0.97085667  1.0
  O  O6_8  1  0.33333333  0.49364500  0.19581000  1.0
  O  O6_8  1  0.33333333  0.49364500  0.52914333  1.0
  O  O6_8  1  0.33333333  0.49364500  0.86247667  1.0
  O  O6_8  1  0.33333333  0.99364500  0.19581000  1.0
  O  O6_8  1  0.33333333  0.99364500  0.52914333  1.0
  O  O6_8  1  0.33333333  0.99364500  0.86247667  1.0
  O  O6_8  1  0.83333333  0.49364500  0.19581000  1.0
  O  O6_8  1  0.83333333  0.49364500  0.52914333  1.0
  O  O6_8  1  0.83333333  0.49364500  0.86247667  1.0
  O  O6_8  1  0.83333333  0.99364500  0.19581000  1.0
  O  O6_8  1  0.83333333  0.99364500  0.52914333  1.0
  O  O6_8  1  0.83333333  0.99364500  0.86247667  1.0
