# generated using pymatgen
data_Fe45Co19
_symmetry_space_group_name_H-M   'P 1'
_cell_length_a   11.41674467
_cell_length_b   11.41485310
_cell_length_c   11.41377825
_cell_angle_alpha   90.00139993
_cell_angle_beta   90.00673536
_cell_angle_gamma   89.99633760
_symmetry_Int_Tables_number   1
_chemical_formula_structural   Fe45Co19
_chemical_formula_sum   'Fe90 Co38'
_cell_volume   1487.44885670
_cell_formula_units_Z   2
loop_
 _symmetry_equiv_pos_site_id
 _symmetry_equiv_pos_as_xyz
  1  'x, y, z'
loop_
 _atom_site_type_symbol
 _atom_site_label
 _atom_site_symmetry_multiplicity
 _atom_site_fract_x
 _atom_site_fract_y
 _atom_site_fract_z
 _atom_site_occupancy
  Fe  Fe0  1  0.75019177  0.50032283  0.75083080  1
  Fe  Fe1  1  0.24958783  0.75132617  -0.00092531  1
  Fe  Fe2  1  0.62294588  0.62457030  0.37541886  1
  Fe  Fe3  1  0.87505349  0.62299760  0.12392411  1
  Fe  Fe4  1  0.37315800  0.12380572  0.37753627  1
  Fe  Fe5  1  0.00247254  0.74825310  0.49958560  1
  Fe  Fe6  1  0.12372338  0.12508492  0.12269305  1
  Fe  Fe7  1  0.87394487  0.87560810  0.87467535  1
  Fe  Fe8  1  0.37488965  0.62480115  0.37782453  1
  Fe  Fe9  1  0.87621663  0.12301564  0.12461340  1
  Fe  Fe10  1  0.62605829  0.87191820  0.62693541  1
  Fe  Fe11  1  0.75039088  -0.00064345  0.74890144  1
  Fe  Fe12  1  0.62499107  0.12496838  0.12305614  1
  Fe  Fe13  1  0.87572940  0.87649325  0.12478669  1
  Fe  Fe14  1  0.87572044  0.62644144  0.62650160  1
  Fe  Fe15  1  0.25083420  0.75050769  0.25203378  1
  Fe  Fe16  1  0.24852769  0.25020485  0.24991797  1
  Fe  Fe17  1  0.75029561  0.25086106  -0.00166417  1
  Fe  Fe18  1  0.00229996  0.00063317  0.25063633  1
  Fe  Fe19  1  0.49829268  0.50012649  0.50262135  1
  Fe  Fe20  1  0.37623547  0.37466876  0.12335865  1
  Fe  Fe21  1  0.24994760  0.49708395  -0.00410365  1
  Fe  Fe22  1  0.49822552  0.75094956  0.25118702  1
  Fe  Fe23  1  0.12736696  0.62473142  0.62555623  1
  Fe  Fe24  1  0.62309622  0.87379734  0.37627754  1
  Fe  Fe25  1  0.87606735  0.87661864  0.37655113  1
  Fe  Fe26  1  0.00239953  0.75306966  -0.00084706  1
  Fe  Fe27  1  0.50059913  0.50046741  -0.00174240  1
  Fe  Fe28  1  0.12303977  0.37654584  0.37678968  1
  Fe  Fe29  1  0.37519714  0.62627160  0.87196615  1
  Fe  Fe30  1  0.49808141  0.24812001  0.75057033  1
  Fe  Fe31  1  0.49897948  0.24782277  -0.00226345  1
  Fe  Fe32  1  0.25107461  0.25043618  0.50205202  1
  Fe  Fe33  1  0.74890949  0.00058364  0.25027937  1
  Fe  Fe34  1  0.37027443  0.12097717  0.87249362  1
  Fe  Fe35  1  0.87787363  0.87359375  0.62459987  1
  Fe  Fe36  1  0.75095683  0.74971371  0.49982903  1
  Fe  Fe37  1  0.36980193  0.87032916  0.62200667  1
  Fe  Fe38  1  0.62431717  0.62316741  0.12578848  1
  Fe  Fe39  1  0.62560225  0.12718602  0.37988083  1
  Fe  Fe40  1  0.00166040  0.74953180  0.25020036  1
  Fe  Fe41  1  0.12223598  0.37435803  0.62963109  1
  Fe  Fe42  1  0.74867127  0.00013501  0.50177183  1
  Fe  Fe43  1  0.75041818  0.24784766  0.74939567  1
  Fe  Fe44  1  0.62373054  0.37525332  0.87361923  1
  Fe  Fe45  1  0.00345098  0.00269299  0.50046203  1
  Fe  Fe46  1  0.24940647  0.25102766  -0.00524010  1
  Fe  Fe47  1  0.75184662  0.49834349  0.50065040  1
  Fe  Fe48  1  0.49972336  0.75347338  -0.00418323  1
  Fe  Fe49  1  0.87517504  0.12400719  0.87634292  1
  Fe  Fe50  1  0.62481761  0.12074580  0.87405440  1
  Fe  Fe51  1  0.49691724  -0.00445202  0.74982826  1
  Fe  Fe52  1  0.75253088  0.25086612  0.25312402  1
  Fe  Fe53  1  0.00049994  0.24977457  -0.00442328  1
  Fe  Fe54  1  0.37461041  0.37557868  0.37545814  1
  Fe  Fe55  1  0.12565996  0.62547099  0.12291411  1
  Fe  Fe56  1  0.62423868  0.87721070  0.12168825  1
  Fe  Fe57  1  0.74882672  0.75053785  -0.00119391  1
  Fe  Fe58  1  0.49812240  -0.00023804  0.50302921  1
  Fe  Fe59  1  0.24974835  0.49814349  0.75217418  1
  Fe  Fe60  1  0.50016340  0.00144810  0.25011696  1
  Fe  Fe61  1  0.62340882  0.62732600  0.87095861  1
  Fe  Fe62  1  -0.00198604  0.24845262  0.49980880  1
  Fe  Fe63  1  0.12921576  0.12708060  0.62804338  1
  Fe  Fe64  1  0.37302308  0.62788847  0.62663676  1
  Fe  Fe65  1  0.25045835  0.49930847  0.24875591  1
  Fe  Fe66  1  -0.00056336  0.25022544  0.25190745  1
  Fe  Fe67  1  0.12539637  0.62034302  0.37627115  1
  Fe  Fe68  1  0.00065150  0.49810577  -0.00332343  1
  Fe  Fe69  1  0.00370856  0.74918331  0.75139912  1
  Fe  Fe70  1  0.24910829  0.00049416  0.24898366  1
  Fe  Fe71  1  0.87493015  0.62482993  0.87520465  1
  Fe  Fe72  1  0.62400187  0.62814705  0.62718417  1
  Fe  Fe73  1  0.37535187  0.62436936  0.12402574  1
  Fe  Fe74  1  0.87315483  0.37805423  0.12455549  1
  Fe  Fe75  1  0.37499529  0.87638045  0.12396023  1
  Fe  Fe76  1  0.62428041  0.37668565  0.12522261  1
  Fe  Fe77  1  0.12741389  0.87670556  0.37699779  1
  Fe  Fe78  1  0.12564211  0.37470819  0.12280452  1
  Fe  Fe79  1  0.62449482  0.37477314  0.37666570  1
  Fe  Fe80  1  0.62374173  0.37111047  0.62465855  1
  Fe  Fe81  1  0.75024092  0.74961881  0.25021331  1
  Fe  Fe82  1  0.37476836  0.12595158  0.12417976  1
  Fe  Fe83  1  0.87281144  0.12429016  0.62299851  1
  Fe  Fe84  1  0.49922458  0.25003401  0.25131889  1
  Fe  Fe85  1  0.87774337  0.37463939  0.62897467  1
  Fe  Fe86  1  0.12892431  0.87911758  0.87467891  1
  Fe  Fe87  1  0.87690721  0.62075124  0.37398061  1
  Fe  Fe88  1  0.00233243  0.00187710  0.75005039  1
  Fe  Fe89  1  0.37674419  0.37349056  0.62789424  1
  Co  Co90  1  0.37457663  0.87708829  0.37649005  1
  Co  Co91  1  0.00195799  -0.00096981  -0.00152188  1
  Co  Co92  1  0.24908479  0.00143843  0.50309448  1
  Co  Co93  1  0.74810771  0.50023943  -0.00325689  1
  Co  Co94  1  0.75228136  0.75073169  0.75017939  1
  Co  Co95  1  0.87611199  0.37496507  0.87157038  1
  Co  Co96  1  0.37448692  0.12682320  0.62644890  1
  Co  Co97  1  0.75154230  0.00089181  0.00013262  1
  Co  Co98  1  0.12613552  0.87372909  0.12612926  1
  Co  Co99  1  0.49730995  0.75514886  0.75107931  1
  Co  Co100  1  0.00001151  0.50035433  0.50430752  1
  Co  Co101  1  0.00294110  0.49980311  0.24586986  1
  Co  Co102  1  0.49804450  0.49957887  0.25056933  1
  Co  Co103  1  0.25042118  -0.00266132  0.74421638  1
  Co  Co104  1  0.37859180  0.37614242  0.87456448  1
  Co  Co105  1  0.12856839  0.12326256  0.87301357  1
  Co  Co106  1  0.00070217  0.50458254  0.75193842  1
  Co  Co107  1  0.75449225  0.25167907  0.50029746  1
  Co  Co108  1  0.12115011  0.37299700  0.86991541  1
  Co  Co109  1  0.36908150  0.87631133  0.87682488  1
  Co  Co110  1  0.24654291  0.75057649  0.75105863  1
  Co  Co111  1  0.74936954  0.50019073  0.25112801  1
  Co  Co112  1  0.25230101  0.25313344  0.75180035  1
  Co  Co113  1  0.24863134  0.00162512  0.00388828  1
  Co  Co114  1  0.87923775  0.37842010  0.37475670  1
  Co  Co115  1  0.24710865  0.74942039  0.49773095  1
  Co  Co116  1  0.62313900  0.12600202  0.62520878  1
  Co  Co117  1  0.25056727  0.49732777  0.50326496  1
  Co  Co118  1  0.49636310  0.25002167  0.50017716  1
  Co  Co119  1  0.49967096  0.74971192  0.50127841  1
  Co  Co120  1  0.12651373  0.62421468  0.87753224  1
  Co  Co121  1  -0.00182865  0.24403809  0.75070956  1
  Co  Co122  1  0.12712363  0.12655096  0.37579792  1
  Co  Co123  1  0.12357737  0.87377152  0.62384272  1
  Co  Co124  1  0.62778458  0.87652817  0.87444100  1
  Co  Co125  1  0.49984029  0.50021575  0.74768583  1
  Co  Co126  1  0.87432174  0.12253712  0.37563063  1
  Co  Co127  1  0.49818644  0.00044839  -0.00235907  1
