# generated using pymatgen
data_Fe45Co19
_symmetry_space_group_name_H-M   'P 1'
_cell_length_a   11.41523174
_cell_length_b   11.41482906
_cell_length_c   11.41487143
_cell_angle_alpha   89.99960537
_cell_angle_beta   90.00141788
_cell_angle_gamma   89.99049108
_symmetry_Int_Tables_number   1
_chemical_formula_structural   Fe45Co19
_chemical_formula_sum   'Fe90 Co38'
_cell_volume   1487.39104663
_cell_formula_units_Z   2
loop_
 _symmetry_equiv_pos_site_id
 _symmetry_equiv_pos_as_xyz
  1  'x, y, z'
loop_
 _atom_site_type_symbol
 _atom_site_label
 _atom_site_symmetry_multiplicity
 _atom_site_fract_x
 _atom_site_fract_y
 _atom_site_fract_z
 _atom_site_occupancy
  Fe  Fe0  1  0.12305431  0.37573474  0.87056996  1
  Fe  Fe1  1  0.74712008  0.74833706  0.74855669  1
  Fe  Fe2  1  0.87480678  0.12469660  0.62489435  1
  Fe  Fe3  1  0.12572698  0.87121650  0.62486792  1
  Fe  Fe4  1  0.49788504  0.74355193  0.25060267  1
  Fe  Fe5  1  0.12851626  0.62748442  0.12319925  1
  Fe  Fe6  1  0.49875970  0.25092633  0.74824291  1
  Fe  Fe7  1  0.62397634  0.37478574  0.12798015  1
  Fe  Fe8  1  0.87918967  0.37634218  0.62712204  1
  Fe  Fe9  1  0.12860837  0.62767325  0.37904718  1
  Fe  Fe10  1  0.87444157  0.87296811  0.87521689  1
  Fe  Fe11  1  -0.00048593  0.25145382  0.25168380  1
  Fe  Fe12  1  0.62315912  0.87484065  0.62313615  1
  Fe  Fe13  1  0.37656303  0.87265313  0.12555920  1
  Fe  Fe14  1  0.00009146  0.00096983  0.25068791  1
  Fe  Fe15  1  0.62266004  0.12811605  0.62064247  1
  Fe  Fe16  1  0.87388993  0.37524198  0.12552752  1
  Fe  Fe17  1  0.87626975  0.62520557  0.62306693  1
  Fe  Fe18  1  0.12721756  0.87191921  0.87401670  1
  Fe  Fe19  1  0.50165420  0.50170558  0.00312494  1
  Fe  Fe20  1  0.12514845  0.87289641  0.37604857  1
  Fe  Fe21  1  0.50259177  0.24912950  0.25828675  1
  Fe  Fe22  1  0.49963702  0.74671082  0.74858601  1
  Fe  Fe23  1  -0.00015247  0.49969311  -0.00087356  1
  Fe  Fe24  1  0.62012274  0.37547847  0.61871698  1
  Fe  Fe25  1  0.12580611  0.37484832  0.12768042  1
  Fe  Fe26  1  0.37560242  0.87638481  0.62689572  1
  Fe  Fe27  1  0.74982414  -0.00044167  0.50020415  1
  Fe  Fe28  1  0.00078381  0.74897966  0.25052149  1
  Fe  Fe29  1  0.25187477  -0.00083182  0.00016985  1
  Fe  Fe30  1  0.50121712  0.00220650  0.74989193  1
  Fe  Fe31  1  0.62279653  0.87554209  0.37468941  1
  Fe  Fe32  1  0.25216177  0.25263138  0.00098832  1
  Fe  Fe33  1  0.87570873  0.87399738  0.62467112  1
  Fe  Fe34  1  0.62260167  0.62062203  0.37917138  1
  Fe  Fe35  1  0.74910452  0.74826270  0.25279461  1
  Fe  Fe36  1  0.87591199  0.62325788  0.37653128  1
  Fe  Fe37  1  0.37649474  0.87511592  0.37341971  1
  Fe  Fe38  1  0.12688821  0.12648514  0.87575375  1
  Fe  Fe39  1  0.87226461  0.12731218  0.87580494  1
  Fe  Fe40  1  0.37646706  0.37770730  0.87295195  1
  Fe  Fe41  1  0.62365978  0.37570088  0.87433287  1
  Fe  Fe42  1  0.87300331  0.62445844  0.87619416  1
  Fe  Fe43  1  0.00222817  0.49796040  0.50009497  1
  Fe  Fe44  1  0.25129873  0.49495664  0.49929696  1
  Fe  Fe45  1  0.37566641  0.12587271  0.12841819  1
  Fe  Fe46  1  0.50083912  0.00197508  0.00028132  1
  Fe  Fe47  1  0.37513424  0.87471801  0.87291931  1
  Fe  Fe48  1  0.74876328  0.74917234  0.49965348  1
  Fe  Fe49  1  0.12517655  0.12624518  0.12424301  1
  Fe  Fe50  1  0.25034746  0.49738898  0.00133600  1
  Fe  Fe51  1  -0.00081387  0.25183331  0.49963449  1
  Fe  Fe52  1  0.24969815  -0.00106416  0.24835893  1
  Fe  Fe53  1  0.49869477  0.00340632  0.49763088  1
  Fe  Fe54  1  0.12752423  0.12805427  0.62385100  1
  Fe  Fe55  1  0.12846443  0.12739058  0.37557463  1
  Fe  Fe56  1  0.00062145  0.00020519  0.49996332  1
  Fe  Fe57  1  0.25749762  0.25413633  0.49940356  1
  Fe  Fe58  1  0.87323492  0.12756075  0.12425425  1
  Fe  Fe59  1  0.74640153  0.00080377  -0.00061397  1
  Fe  Fe60  1  0.00195685  0.74608107  0.74877020  1
  Fe  Fe61  1  0.37612842  0.62263503  0.62143564  1
  Fe  Fe62  1  0.49957521  0.25059593  -0.00032250  1
  Fe  Fe63  1  0.00245453  0.00178041  0.74952149  1
  Fe  Fe64  1  0.62414142  0.87248210  0.12674525  1
  Fe  Fe65  1  0.87556804  0.87462328  0.37581251  1
  Fe  Fe66  1  0.62121843  0.62158485  0.62086597  1
  Fe  Fe67  1  0.37569938  0.37753572  0.13157213  1
  Fe  Fe68  1  0.74760551  0.49887383  -0.00040372  1
  Fe  Fe69  1  0.87202095  0.12712486  0.37544246  1
  Fe  Fe70  1  0.74903548  0.25192367  0.74879301  1
  Fe  Fe71  1  0.12671437  0.62548513  0.87656324  1
  Fe  Fe72  1  0.00327518  0.49970669  0.25207493  1
  Fe  Fe73  1  0.62508322  0.12665667  0.12703302  1
  Fe  Fe74  1  0.24840101  0.50174117  0.74670357  1
  Fe  Fe75  1  0.00034333  -0.00097154  -0.00085174  1
  Fe  Fe76  1  0.25171658  0.25065813  0.74891086  1
  Fe  Fe77  1  0.25124888  -0.00111457  0.50136728  1
  Fe  Fe78  1  0.74763586  0.00074313  0.74994348  1
  Fe  Fe79  1  0.74803568  0.49954824  0.74799618  1
  Fe  Fe80  1  0.74821464  0.49685606  0.25389084  1
  Fe  Fe81  1  -0.00108213  0.25301056  -0.00208484  1
  Fe  Fe82  1  0.37538394  0.12446683  0.87350903  1
  Fe  Fe83  1  0.12549437  0.87217781  0.12426257  1
  Fe  Fe84  1  0.87400488  0.87293375  0.12415737  1
  Fe  Fe85  1  0.62366371  0.87278120  0.87508487  1
  Fe  Fe86  1  0.37605794  0.62267165  0.87583624  1
  Fe  Fe87  1  0.87291053  0.62529498  0.12504090  1
  Fe  Fe88  1  0.50127999  0.74473889  0.00172217  1
  Fe  Fe89  1  0.74891474  0.00090056  0.25054467  1
  Co  Co90  1  0.25288484  0.75057241  -0.00157641  1
  Co  Co91  1  0.24619992  0.50303733  0.25123084  1
  Co  Co92  1  0.62845754  0.12589499  0.37886534  1
  Co  Co93  1  0.00198999  0.50459510  0.74883811  1
  Co  Co94  1  0.37300250  0.37811659  0.36584444  1
  Co  Co95  1  0.49419187  0.49508053  0.49655334  1
  Co  Co96  1  0.49190582  0.25114266  0.49558268  1
  Co  Co97  1  0.62927364  0.62482328  0.12686700  1
  Co  Co98  1  0.49900910  0.75047974  0.49939509  1
  Co  Co99  1  0.25162319  0.75005461  0.25128917  1
  Co  Co100  1  0.50134113  0.50094776  0.74957602  1
  Co  Co101  1  0.62549241  0.37621248  0.38115512  1
  Co  Co102  1  0.74788797  0.74966858  -0.00048343  1
  Co  Co103  1  0.25525964  0.75267636  0.50074073  1
  Co  Co104  1  0.37074481  0.62172775  0.12530673  1
  Co  Co105  1  0.75314632  0.49949415  0.50201526  1
  Co  Co106  1  0.24777242  0.00042588  0.74960616  1
  Co  Co107  1  0.62358769  0.12755051  0.87326000  1
  Co  Co108  1  -0.00198724  0.75053348  0.49964260  1
  Co  Co109  1  -0.00021751  0.74882281  0.00053487  1
  Co  Co110  1  0.37305069  0.62295179  0.37681828  1
  Co  Co111  1  0.12727639  0.37205266  0.37480870  1
  Co  Co112  1  0.75266307  0.25347166  0.50184367  1
  Co  Co113  1  0.87567578  0.37603919  0.37567166  1
  Co  Co114  1  0.37502467  0.12350407  0.62645046  1
  Co  Co115  1  0.12681732  0.62612199  0.61896194  1
  Co  Co116  1  0.12432014  0.37300228  0.62668590  1
  Co  Co117  1  0.24949221  0.24956809  0.24829605  1
  Co  Co118  1  0.25217283  0.74623144  0.74829837  1
  Co  Co119  1  0.62508000  0.62406227  0.87370270  1
  Co  Co120  1  0.37116043  0.12255405  0.37243113  1
  Co  Co121  1  0.50264808  0.50377420  0.25068527  1
  Co  Co122  1  0.74730562  0.25207927  -0.00002883  1
  Co  Co123  1  0.74858092  0.25323680  0.25197252  1
  Co  Co124  1  -0.00074143  0.24770258  0.75101385  1
  Co  Co125  1  0.87451310  0.37669974  0.87299683  1
  Co  Co126  1  0.37641087  0.37733193  0.62877784  1
  Co  Co127  1  0.50088208  0.00164714  0.25095512  1
