# generated using pymatgen
data_Fe45Co19
_symmetry_space_group_name_H-M   'P 1'
_cell_length_a   11.41422950
_cell_length_b   11.41509165
_cell_length_c   11.41632195
_cell_angle_alpha   90.00034955
_cell_angle_beta   89.99220565
_cell_angle_gamma   89.99178006
_symmetry_Int_Tables_number   1
_chemical_formula_structural   Fe45Co19
_chemical_formula_sum   'Fe90 Co38'
_cell_volume   1487.48365487
_cell_formula_units_Z   2
loop_
 _symmetry_equiv_pos_site_id
 _symmetry_equiv_pos_as_xyz
  1  'x, y, z'
loop_
 _atom_site_type_symbol
 _atom_site_label
 _atom_site_symmetry_multiplicity
 _atom_site_fract_x
 _atom_site_fract_y
 _atom_site_fract_z
 _atom_site_occupancy
  Fe  Fe0  1  0.62505775  0.87618081  0.87816220  1
  Fe  Fe1  1  -0.00170351  0.75195970  0.50252065  1
  Fe  Fe2  1  0.25073211  0.74974552  0.49993402  1
  Fe  Fe3  1  0.37855454  0.87774612  0.87537570  1
  Fe  Fe4  1  0.87029503  0.12083545  0.87493055  1
  Fe  Fe5  1  0.74754371  0.49793557  0.74820946  1
  Fe  Fe6  1  0.74846134  0.50326948  0.24713271  1
  Fe  Fe7  1  0.49986873  0.75016750  0.49916765  1
  Fe  Fe8  1  0.12482578  0.37561400  0.87660454  1
  Fe  Fe9  1  -0.00095796  0.49734920  0.25054608  1
  Fe  Fe10  1  0.87354925  0.12653639  0.62731425  1
  Fe  Fe11  1  0.00017360  0.49703833  0.74750728  1
  Fe  Fe12  1  0.37837174  0.12642603  0.62757686  1
  Fe  Fe13  1  0.75159846  0.75032398  0.49782969  1
  Fe  Fe14  1  0.12508693  0.12659806  0.62553523  1
  Fe  Fe15  1  0.75311007  -0.00290852  0.24781412  1
  Fe  Fe16  1  0.62449455  0.37343538  0.37467306  1
  Fe  Fe17  1  0.50066557  0.50478811  0.00249352  1
  Fe  Fe18  1  0.62284623  0.12871584  0.62751969  1
  Fe  Fe19  1  0.24851758  0.50323095  0.00053215  1
  Fe  Fe20  1  -0.00159903  0.24962972  0.25139840  1
  Fe  Fe21  1  0.12336215  0.62430015  0.37512345  1
  Fe  Fe22  1  0.87602476  0.62342196  0.37452084  1
  Fe  Fe23  1  0.50381916  -0.00150592  0.24590062  1
  Fe  Fe24  1  -0.00419431  0.24884873  -0.00189673  1
  Fe  Fe25  1  0.24919553  0.75154407  0.25177513  1
  Fe  Fe26  1  0.62422199  0.62642835  0.37352756  1
  Fe  Fe27  1  0.25058761  0.24936192  0.75322467  1
  Fe  Fe28  1  0.25060582  0.25064864  0.49928845  1
  Fe  Fe29  1  0.12265949  0.87843683  0.37768089  1
  Fe  Fe30  1  0.75025734  0.24859637  0.25093517  1
  Fe  Fe31  1  0.37960442  0.12447599  0.37233587  1
  Fe  Fe32  1  0.24916396  0.75165702  0.74993971  1
  Fe  Fe33  1  0.24817577  0.00039124  0.24839477  1
  Fe  Fe34  1  0.12251892  0.12354940  0.12321344  1
  Fe  Fe35  1  0.50445541  0.24740470  -0.00258897  1
  Fe  Fe36  1  -0.00413225  0.50354943  0.00070567  1
  Fe  Fe37  1  0.24956934  0.49972286  0.24868341  1
  Fe  Fe38  1  0.37594216  0.37367470  0.12274677  1
  Fe  Fe39  1  0.12351435  0.87439792  0.12100057  1
  Fe  Fe40  1  0.37581868  0.12464075  0.12442511  1
  Fe  Fe41  1  0.50218696  0.50086974  0.24716090  1
  Fe  Fe42  1  0.50048400  0.50040766  0.50162068  1
  Fe  Fe43  1  0.37720252  0.37648506  0.87621113  1
  Fe  Fe44  1  -0.00203735  0.25288103  0.49940319  1
  Fe  Fe45  1  0.25035672  0.00126375  0.50113659  1
  Fe  Fe46  1  -0.00383436  0.75524072  0.25201832  1
  Fe  Fe47  1  0.62763586  0.37490386  0.12057394  1
  Fe  Fe48  1  0.12464721  0.62549787  0.62539445  1
  Fe  Fe49  1  0.87418730  0.62438619  0.62716034  1
  Fe  Fe50  1  0.37573153  0.87373946  0.12438124  1
  Fe  Fe51  1  -0.00553576  -0.00247559  0.00140954  1
  Fe  Fe52  1  0.37826580  0.37310634  0.62659178  1
  Fe  Fe53  1  0.62676339  0.62447114  0.87784686  1
  Fe  Fe54  1  0.12245415  0.12307700  0.37508224  1
  Fe  Fe55  1  0.50381225  0.00107989  0.50267157  1
  Fe  Fe56  1  0.37769159  0.87346459  0.62633277  1
  Fe  Fe57  1  0.00177665  -0.00312168  0.74791756  1
  Fe  Fe58  1  0.87481736  0.11947933  0.37534744  1
  Fe  Fe59  1  0.87271700  0.37351475  0.12423870  1
  Fe  Fe60  1  0.37547112  0.62545432  0.87272098  1
  Fe  Fe61  1  0.74872311  0.24846298  0.49874963  1
  Fe  Fe62  1  0.37671109  0.87772606  0.37434476  1
  Fe  Fe63  1  0.62957542  0.86575622  0.12232167  1
  Fe  Fe64  1  0.37596852  0.62527900  0.37396615  1
  Fe  Fe65  1  0.24864486  -0.00158404  0.75116078  1
  Fe  Fe66  1  0.24882330  0.49980344  0.74945202  1
  Fe  Fe67  1  0.12424966  0.37417586  0.12340510  1
  Fe  Fe68  1  0.38023676  0.12038119  0.87516691  1
  Fe  Fe69  1  -0.00054208  0.25112496  0.75239407  1
  Fe  Fe70  1  -0.00138548  0.49483141  0.50091946  1
  Fe  Fe71  1  0.37654912  0.62890823  0.12742470  1
  Fe  Fe72  1  0.74438695  0.25324035  0.75528869  1
  Fe  Fe73  1  0.74549875  -0.00213680  0.74689455  1
  Fe  Fe74  1  0.12138129  0.62850183  0.12485910  1
  Fe  Fe75  1  0.25009556  0.24776903  -0.00169876  1
  Fe  Fe76  1  0.62473308  0.62801975  0.62468610  1
  Fe  Fe77  1  0.25107869  0.75034856  -0.00169667  1
  Fe  Fe78  1  0.87150980  0.37834157  0.87580946  1
  Fe  Fe79  1  0.87222063  0.87660254  0.62362111  1
  Fe  Fe80  1  0.63028521  0.12535412  0.12294104  1
  Fe  Fe81  1  0.24929739  0.24922501  0.24887329  1
  Fe  Fe82  1  0.74996608  0.75110516  0.75202612  1
  Fe  Fe83  1  0.12007435  0.62954117  0.87404497  1
  Fe  Fe84  1  0.12422180  0.12094761  0.87705409  1
  Fe  Fe85  1  0.24994147  0.49834830  0.50058598  1
  Fe  Fe86  1  0.50199247  0.50114338  0.74839847  1
  Fe  Fe87  1  0.74998831  0.49852721  0.50106962  1
  Fe  Fe88  1  0.37783226  0.37261987  0.37272807  1
  Fe  Fe89  1  0.62773470  0.87686201  0.37643652  1
  Co  Co90  1  0.75792125  0.74584095  -0.00544731  1
  Co  Co91  1  0.75111056  -0.00217579  0.00217128  1
  Co  Co92  1  -0.00134580  0.75493231  0.74671373  1
  Co  Co93  1  0.62561741  0.63303666  0.12431061  1
  Co  Co94  1  0.87041423  0.37535642  0.37358179  1
  Co  Co95  1  0.62370480  0.37317233  0.62326891  1
  Co  Co96  1  0.87330770  0.87842251  0.87175057  1
  Co  Co97  1  0.25104925  -0.00039496  0.00013125  1
  Co  Co98  1  0.62508676  0.38154220  0.88035761  1
  Co  Co99  1  0.12292498  0.87372802  0.87825341  1
  Co  Co100  1  0.74966387  0.24922470  -0.00484275  1
  Co  Co101  1  0.62532172  0.12244743  0.37176414  1
  Co  Co102  1  0.50306787  0.25150710  0.75575886  1
  Co  Co103  1  0.87109658  0.87122941  0.12439900  1
  Co  Co104  1  0.37558625  0.62679809  0.62572524  1
  Co  Co105  1  0.87450791  0.88051612  0.38002142  1
  Co  Co106  1  0.50253692  0.24756415  0.49815464  1
  Co  Co107  1  -0.00230669  -0.00243138  0.24629426  1
  Co  Co108  1  0.50049533  0.75179958  0.25325924  1
  Co  Co109  1  0.87692424  0.62271711  0.86745932  1
  Co  Co110  1  0.12761754  0.87521017  0.62356703  1
  Co  Co111  1  0.75303213  0.75030373  0.25598917  1
  Co  Co112  1  0.49855158  0.74906127  -0.00259098  1
  Co  Co113  1  0.50209125  0.74910188  0.75204987  1
  Co  Co114  1  0.74652565  0.00319561  0.50434534  1
  Co  Co115  1  0.87547501  0.62844247  0.13026974  1
  Co  Co116  1  0.75423023  0.50676334  0.00389373  1
  Co  Co117  1  0.87305303  0.12679920  0.12417828  1
  Co  Co118  1  0.50300629  0.24941747  0.24660145  1
  Co  Co119  1  0.87198578  0.37246696  0.62688415  1
  Co  Co120  1  0.12578950  0.37225964  0.62622681  1
  Co  Co121  1  0.62561542  0.11870889  0.87532737  1
  Co  Co122  1  0.50408736  -0.00226414  0.74652324  1
  Co  Co123  1  0.62519114  0.86988135  0.62319878  1
  Co  Co124  1  -0.00015507  0.00105318  0.50522686  1
  Co  Co125  1  0.12651305  0.37457169  0.37391293  1
  Co  Co126  1  -0.00800574  0.74991079  -0.00233493  1
  Co  Co127  1  0.50346092  -0.00083063  0.00548445  1
