# generated using pymatgen
data_Fe45Co19
_symmetry_space_group_name_H-M   'P 1'
_cell_length_a   11.41477603
_cell_length_b   11.41475346
_cell_length_c   11.41485175
_cell_angle_alpha   90.00732748
_cell_angle_beta   90.00782356
_cell_angle_gamma   89.97660374
_symmetry_Int_Tables_number   1
_chemical_formula_structural   Fe45Co19
_chemical_formula_sum   'Fe90 Co38'
_cell_volume   1487.31912395
_cell_formula_units_Z   2
loop_
 _symmetry_equiv_pos_site_id
 _symmetry_equiv_pos_as_xyz
  1  'x, y, z'
loop_
 _atom_site_type_symbol
 _atom_site_label
 _atom_site_symmetry_multiplicity
 _atom_site_fract_x
 _atom_site_fract_y
 _atom_site_fract_z
 _atom_site_occupancy
  Fe  Fe0  1  0.25082292  0.24900850  0.24781550  1
  Fe  Fe1  1  0.12357422  0.12502303  0.62575575  1
  Fe  Fe2  1  0.62749605  0.87598495  0.62677285  1
  Fe  Fe3  1  0.50504825  -0.00561812  0.25055922  1
  Fe  Fe4  1  0.87239435  0.86906402  0.86901587  1
  Fe  Fe5  1  0.24703676  0.74867352  0.75681441  1
  Fe  Fe6  1  0.87270452  0.37464009  0.12623344  1
  Fe  Fe7  1  0.37563360  0.37687685  0.87996497  1
  Fe  Fe8  1  0.37597138  0.62606257  0.12091698  1
  Fe  Fe9  1  0.62725117  0.37575856  0.37548248  1
  Fe  Fe10  1  0.62858251  0.87554743  0.87467129  1
  Fe  Fe11  1  0.75307632  0.00038273  0.50257446  1
  Fe  Fe12  1  0.62758762  0.12455368  0.87446742  1
  Fe  Fe13  1  0.12354524  0.62618984  0.37224722  1
  Fe  Fe14  1  0.24972616  -0.00102183  0.24971436  1
  Fe  Fe15  1  0.12264720  0.12231248  0.12343576  1
  Fe  Fe16  1  0.50099977  0.75166014  0.75078256  1
  Fe  Fe17  1  0.87555747  0.62893744  0.12693115  1
  Fe  Fe18  1  0.24864255  0.25274420  0.75042210  1
  Fe  Fe19  1  0.25062573  -0.00106515  0.49928614  1
  Fe  Fe20  1  0.49790069  0.49828135  0.75184905  1
  Fe  Fe21  1  0.62590261  0.37534952  0.87730894  1
  Fe  Fe22  1  0.49926672  0.00103764  -0.00185635  1
  Fe  Fe23  1  0.74984034  0.24669713  0.24824019  1
  Fe  Fe24  1  0.87587089  0.12579094  0.37526842  1
  Fe  Fe25  1  0.75006428  0.24977349  0.50116364  1
  Fe  Fe26  1  0.75036547  0.25035303  0.74908821  1
  Fe  Fe27  1  0.87435528  0.12740035  0.87414327  1
  Fe  Fe28  1  0.37124269  0.37756423  0.62427918  1
  Fe  Fe29  1  0.49920885  -0.00252674  0.50171535  1
  Fe  Fe30  1  0.50104904  0.50121064  0.24955242  1
  Fe  Fe31  1  0.75235947  0.50323124  -0.00010747  1
  Fe  Fe32  1  0.62551462  0.62633294  0.12450618  1
  Fe  Fe33  1  0.37552355  0.12458879  0.87365316  1
  Fe  Fe34  1  0.62615226  0.37848764  0.62433793  1
  Fe  Fe35  1  0.37780377  0.37614201  0.12190255  1
  Fe  Fe36  1  0.24943736  0.74844824  0.50122703  1
  Fe  Fe37  1  0.12448176  0.87385558  0.37550649  1
  Fe  Fe38  1  0.74568947  0.75279564  0.25013797  1
  Fe  Fe39  1  -0.00269724  -0.00368225  0.24947632  1
  Fe  Fe40  1  0.12355703  0.12428495  0.37460804  1
  Fe  Fe41  1  0.50008392  0.25058059  0.50107175  1
  Fe  Fe42  1  0.75023788  0.50241088  0.25311019  1
  Fe  Fe43  1  0.12523114  0.37732942  0.87766580  1
  Fe  Fe44  1  0.87010962  0.87311829  0.12495719  1
  Fe  Fe45  1  0.37358423  0.37547389  0.37429170  1
  Fe  Fe46  1  0.62473411  0.62433612  0.87331767  1
  Fe  Fe47  1  0.12404887  0.37698672  0.12443041  1
  Fe  Fe48  1  0.24944505  0.75017116  0.24788194  1
  Fe  Fe49  1  0.87312378  0.37556153  0.87595811  1
  Fe  Fe50  1  0.62540522  0.12407118  0.62719530  1
  Fe  Fe51  1  0.50168737  0.24889392  0.24823986  1
  Fe  Fe52  1  -0.00515162  -0.00303489  -0.00096155  1
  Fe  Fe53  1  0.49995606  0.25107623  0.74997363  1
  Fe  Fe54  1  0.87767520  0.62809047  0.87168860  1
  Fe  Fe55  1  0.74987138  0.74352769  0.50682763  1
  Fe  Fe56  1  0.62830899  0.12130215  0.12190648  1
  Fe  Fe57  1  0.00069265  0.25366530  0.74798659  1
  Fe  Fe58  1  0.37398679  0.87475329  0.12129410  1
  Fe  Fe59  1  0.50178333  0.74995608  -0.00072701  1
  Fe  Fe60  1  0.37413961  0.12442695  0.62618083  1
  Fe  Fe61  1  0.49888167  0.50052849  0.49931717  1
  Fe  Fe62  1  0.12255377  0.12337789  0.87569059  1
  Fe  Fe63  1  0.12679536  0.87485865  0.11983227  1
  Fe  Fe64  1  0.12202329  0.62658888  0.12217997  1
  Fe  Fe65  1  -0.00239798  -0.00078421  0.50263936  1
  Fe  Fe66  1  0.12024386  0.62255001  0.87808250  1
  Fe  Fe67  1  -0.00195058  0.49821209  0.49419443  1
  Fe  Fe68  1  0.12389902  0.61935301  0.62720166  1
  Fe  Fe69  1  0.75195575  0.50272343  0.74752790  1
  Fe  Fe70  1  0.37735959  0.62868772  0.37451847  1
  Fe  Fe71  1  0.62606725  0.37508927  0.12232207  1
  Fe  Fe72  1  0.87327898  0.87120848  0.37695311  1
  Fe  Fe73  1  0.87558204  0.37658844  0.62210266  1
  Fe  Fe74  1  -0.00057812  0.25091836  0.25135302  1
  Fe  Fe75  1  0.37619605  0.12409713  0.37376728  1
  Fe  Fe76  1  -0.00222055  0.25158123  0.00074637  1
  Fe  Fe77  1  0.25059365  0.50178595  0.24846034  1
  Fe  Fe78  1  -0.00287970  0.50027749  0.25164508  1
  Fe  Fe79  1  0.00108656  0.74938041  0.50282883  1
  Fe  Fe80  1  0.62540136  0.12283908  0.37602304  1
  Fe  Fe81  1  0.62182534  0.62882782  0.37689444  1
  Fe  Fe82  1  0.12543258  0.87586191  0.62706093  1
  Fe  Fe83  1  -0.00393274  -0.00160408  0.74833631  1
  Fe  Fe84  1  0.24965776  -0.00104299  0.75330688  1
  Fe  Fe85  1  0.24645807  0.25110739  0.49981345  1
  Fe  Fe86  1  0.25134290  0.24688079  0.00222917  1
  Fe  Fe87  1  0.37670500  0.87174594  0.37459903  1
  Fe  Fe88  1  0.37425604  0.62464897  0.62831511  1
  Fe  Fe89  1  0.37280525  0.87412742  0.62899755  1
  Co  Co90  1  0.74753659  0.74473725  0.74531512  1
  Co  Co91  1  0.50090282  0.24687619  0.00001537  1
  Co  Co92  1  0.24849151  0.50140044  0.00059173  1
  Co  Co93  1  0.87490370  0.63088777  0.37299368  1
  Co  Co94  1  0.00332657  0.25280523  0.49953283  1
  Co  Co95  1  0.62801989  0.87658340  0.11874371  1
  Co  Co96  1  0.12538058  0.37997231  0.62502204  1
  Co  Co97  1  -0.00088023  0.49639753  0.75306266  1
  Co  Co98  1  0.75343502  0.00163045  0.74903384  1
  Co  Co99  1  0.87586836  0.12482965  0.12509912  1
  Co  Co100  1  0.25008390  0.50052392  0.75497833  1
  Co  Co101  1  0.50099403  -0.00022319  0.74955603  1
  Co  Co102  1  -0.00206778  0.75251220  -0.00029435  1
  Co  Co103  1  0.75035394  0.74696506  -0.00166566  1
  Co  Co104  1  0.37719701  0.12156452  0.12772668  1
  Co  Co105  1  0.74952697  -0.00170040  0.25168281  1
  Co  Co106  1  0.37817847  0.62406124  0.87657156  1
  Co  Co107  1  0.75126341  0.50474055  0.49887422  1
  Co  Co108  1  0.12334144  0.87818130  0.87677943  1
  Co  Co109  1  0.87070299  0.37234911  0.37447399  1
  Co  Co110  1  0.61998411  0.62094956  0.62628228  1
  Co  Co111  1  0.25140388  0.00268492  -0.00176545  1
  Co  Co112  1  0.12790463  0.37621201  0.37177892  1
  Co  Co113  1  0.50228307  0.75308095  0.24578268  1
  Co  Co114  1  0.24861747  0.74874306  -0.00508714  1
  Co  Co115  1  0.37618625  0.87536285  0.87600035  1
  Co  Co116  1  0.50407635  0.50158485  0.00064824  1
  Co  Co117  1  0.75525925  -0.00020749  -0.00323883  1
  Co  Co118  1  0.00527231  0.75074164  0.74888818  1
  Co  Co119  1  0.24995616  0.50320421  0.49719119  1
  Co  Co120  1  0.88151792  0.62252709  0.62742327  1
  Co  Co121  1  0.00128646  0.75384213  0.24806052  1
  Co  Co122  1  0.87397811  0.87012116  0.62733578  1
  Co  Co123  1  -0.00497322  0.49977317  0.00180333  1
  Co  Co124  1  0.62695423  0.87141575  0.38078422  1
  Co  Co125  1  0.75118152  0.24991234  0.00023362  1
  Co  Co126  1  0.87652747  0.12928900  0.62517997  1
  Co  Co127  1  0.49881706  0.75142507  0.50551310  1
