# generated using pymatgen
data_Fe45Co19
_symmetry_space_group_name_H-M   'P 1'
_cell_length_a   11.41398566
_cell_length_b   11.41564680
_cell_length_c   11.41453755
_cell_angle_alpha   90.00719269
_cell_angle_beta   90.00711407
_cell_angle_gamma   89.99931656
_symmetry_Int_Tables_number   1
_chemical_formula_structural   Fe45Co19
_chemical_formula_sum   'Fe90 Co38'
_cell_volume   1487.29172048
_cell_formula_units_Z   2
loop_
 _symmetry_equiv_pos_site_id
 _symmetry_equiv_pos_as_xyz
  1  'x, y, z'
loop_
 _atom_site_type_symbol
 _atom_site_label
 _atom_site_symmetry_multiplicity
 _atom_site_fract_x
 _atom_site_fract_y
 _atom_site_fract_z
 _atom_site_occupancy
  Fe  Fe0  1  0.00021735  0.24778628  0.75049413  1
  Fe  Fe1  1  0.13193269  0.87684210  0.87310592  1
  Fe  Fe2  1  0.74764923  0.24915356  0.24851667  1
  Fe  Fe3  1  0.74644681  0.75102895  0.49941409  1
  Fe  Fe4  1  0.74811399  0.50155048  0.49779744  1
  Fe  Fe5  1  0.62200460  0.37677216  0.12707086  1
  Fe  Fe6  1  0.62310306  0.12301719  0.37150024  1
  Fe  Fe7  1  0.00197555  0.24730019  -0.00073851  1
  Fe  Fe8  1  0.12495820  0.37481101  0.37370001  1
  Fe  Fe9  1  0.61821335  0.87066945  0.37239371  1
  Fe  Fe10  1  0.49772355  0.75004889  0.75004485  1
  Fe  Fe11  1  0.37553728  0.87602645  0.62224017  1
  Fe  Fe12  1  0.37737244  0.86931388  0.12090901  1
  Fe  Fe13  1  0.00169832  0.75017781  0.49889960  1
  Fe  Fe14  1  0.24827245  0.24687961  0.49682611  1
  Fe  Fe15  1  0.00197722  0.75066603  0.00053479  1
  Fe  Fe16  1  0.25421294  0.50101377  0.24900528  1
  Fe  Fe17  1  -0.00058705  0.50143423  0.49787727  1
  Fe  Fe18  1  0.62127877  0.62549206  0.62322440  1
  Fe  Fe19  1  -0.00315422  -0.00204893  0.25358149  1
  Fe  Fe20  1  0.49712782  0.25253493  0.75217161  1
  Fe  Fe21  1  0.50065779  -0.00136412  0.50043395  1
  Fe  Fe22  1  0.87389133  0.37547051  0.87545739  1
  Fe  Fe23  1  0.37500358  0.12846585  0.12526428  1
  Fe  Fe24  1  0.12771816  0.62624525  0.37405989  1
  Fe  Fe25  1  0.00352945  0.00401450  0.49844366  1
  Fe  Fe26  1  0.00284331  0.24482171  0.49837835  1
  Fe  Fe27  1  0.25585290  0.74870518  0.25162697  1
  Fe  Fe28  1  0.74472788  -0.00076573  0.50113290  1
  Fe  Fe29  1  0.12660128  0.37510488  0.87495399  1
  Fe  Fe30  1  0.62570581  0.62664012  0.13297162  1
  Fe  Fe31  1  0.25502068  0.25218678  0.75227324  1
  Fe  Fe32  1  0.25300505  0.75174814  0.50049373  1
  Fe  Fe33  1  0.87435296  0.37230340  0.37579057  1
  Fe  Fe34  1  0.87211814  0.62963839  0.37083138  1
  Fe  Fe35  1  0.37571703  0.12646832  0.62343913  1
  Fe  Fe36  1  0.50125911  0.50452453  0.00056999  1
  Fe  Fe37  1  0.62340777  0.12399316  0.87348314  1
  Fe  Fe38  1  0.62369219  0.87465589  0.87444411  1
  Fe  Fe39  1  0.12739915  0.87881948  0.62501664  1
  Fe  Fe40  1  0.87448490  0.87777548  0.62353335  1
  Fe  Fe41  1  0.74809160  0.24865082  0.74880917  1
  Fe  Fe42  1  0.75078265  0.50149797  0.00336573  1
  Fe  Fe43  1  0.62178327  0.37622669  0.62624141  1
  Fe  Fe44  1  0.12786166  0.12503499  0.12779430  1
  Fe  Fe45  1  0.87336950  0.12249614  0.87372167  1
  Fe  Fe46  1  0.24844770  0.50024344  -0.00019708  1
  Fe  Fe47  1  0.87555017  0.37472620  0.62358106  1
  Fe  Fe48  1  0.87401240  0.12251877  0.62562350  1
  Fe  Fe49  1  0.37558025  0.37388429  0.12298999  1
  Fe  Fe50  1  0.62272639  0.37873156  0.37073188  1
  Fe  Fe51  1  0.62607644  0.62566268  0.87336367  1
  Fe  Fe52  1  0.87462462  0.62640216  0.87580006  1
  Fe  Fe53  1  0.49770733  0.00074405  0.00019643  1
  Fe  Fe54  1  0.74907050  0.50082118  0.74842291  1
  Fe  Fe55  1  0.87588979  0.62596761  0.62482753  1
  Fe  Fe56  1  0.00120323  0.75343833  0.74924030  1
  Fe  Fe57  1  0.49770817  -0.00172852  0.75093470  1
  Fe  Fe58  1  0.87368092  0.12257724  0.12555806  1
  Fe  Fe59  1  0.87631523  0.37440035  0.12461086  1
  Fe  Fe60  1  0.00005968  0.50172837  0.00060454  1
  Fe  Fe61  1  0.13143413  0.12185111  0.87318847  1
  Fe  Fe62  1  0.12632550  0.37302054  0.12614083  1
  Fe  Fe63  1  -0.00031974  0.24720756  0.25205800  1
  Fe  Fe64  1  0.74989347  0.75213099  0.74809027  1
  Fe  Fe65  1  0.24930512  0.49758877  0.50101278  1
  Fe  Fe66  1  0.00310509  0.00022173  -0.00144900  1
  Fe  Fe67  1  0.74636873  0.24866034  0.50052870  1
  Fe  Fe68  1  0.37615306  0.37590092  0.37479465  1
  Fe  Fe69  1  0.87365850  0.87615993  0.87527468  1
  Fe  Fe70  1  0.12486035  0.62679430  0.12781151  1
  Fe  Fe71  1  0.74781555  0.24868214  0.00137625  1
  Fe  Fe72  1  0.62379543  0.37688377  0.87526976  1
  Fe  Fe73  1  0.12490235  0.87458858  0.12703452  1
  Fe  Fe74  1  0.50073267  0.24791346  0.00065912  1
  Fe  Fe75  1  0.00085100  0.50013904  0.74969050  1
  Fe  Fe76  1  0.75047776  -0.00453607  0.25031435  1
  Fe  Fe77  1  0.74758176  -0.00077246  0.00098228  1
  Fe  Fe78  1  -0.00168719  0.50114867  0.25083714  1
  Fe  Fe79  1  0.50127807  0.25126312  0.49755190  1
  Fe  Fe80  1  0.61940891  0.87382044  0.12676311  1
  Fe  Fe81  1  0.12613477  0.37332789  0.62537149  1
  Fe  Fe82  1  0.37248713  0.62805576  0.87719870  1
  Fe  Fe83  1  0.37573972  0.12279682  0.37340852  1
  Fe  Fe84  1  0.12843387  0.87574408  0.37513322  1
  Fe  Fe85  1  0.37584576  0.62140611  0.62314224  1
  Fe  Fe86  1  0.12673583  0.62406856  0.62603277  1
  Fe  Fe87  1  0.74942878  0.75083264  0.00409384  1
  Fe  Fe88  1  0.12788167  0.62674903  0.87182889  1
  Fe  Fe89  1  0.25473727  -0.00211482  0.24853701  1
  Co  Co90  1  0.87840771  0.87620365  0.12143884  1
  Co  Co91  1  0.75217174  0.49786051  0.25009050  1
  Co  Co92  1  0.37581292  0.87788333  0.37676634  1
  Co  Co93  1  0.75173359  0.75759211  0.24814054  1
  Co  Co94  1  0.87045969  0.12424166  0.37606464  1
  Co  Co95  1  0.62524884  0.62746954  0.37138542  1
  Co  Co96  1  0.37462026  0.87097828  0.87879141  1
  Co  Co97  1  0.37434428  0.12339643  0.87665217  1
  Co  Co98  1  0.87531134  0.87466411  0.38091396  1
  Co  Co99  1  0.37307362  0.62752422  0.11906669  1
  Co  Co100  1  0.12815562  0.12172998  0.36944793  1
  Co  Co101  1  0.25299502  -0.00064291  0.00388832  1
  Co  Co102  1  0.62024208  0.12562871  0.62652614  1
  Co  Co103  1  0.50047395  0.24951886  0.25025655  1
  Co  Co104  1  0.87627704  0.62764450  0.12712990  1
  Co  Co105  1  0.74653493  -0.00048476  0.74854840  1
  Co  Co106  1  0.49635239  -0.00014572  0.24715462  1
  Co  Co107  1  0.25240253  0.75117167  0.74592734  1
  Co  Co108  1  0.50421548  0.74687078  -0.00063407  1
  Co  Co109  1  0.37696674  0.37779690  0.88092768  1
  Co  Co110  1  0.37526182  0.37431805  0.62185666  1
  Co  Co111  1  0.62244824  0.87302781  0.62565770  1
  Co  Co112  1  0.25204417  0.25113445  0.25225966  1
  Co  Co113  1  0.24955486  0.24939347  -0.00094019  1
  Co  Co114  1  0.12885055  0.12499644  0.62992546  1
  Co  Co115  1  0.25272542  0.49835153  0.75079066  1
  Co  Co116  1  0.62497262  0.12225006  0.12671761  1
  Co  Co117  1  0.24537300  0.75139569  0.00142908  1
  Co  Co118  1  0.24959189  0.00273487  0.50004748  1
  Co  Co119  1  0.49745758  0.50092468  0.75138965  1
  Co  Co120  1  -0.00026806  0.75329340  0.25186342  1
  Co  Co121  1  0.00129300  -0.00121294  0.75106256  1
  Co  Co122  1  0.49207658  0.74518503  0.25219019  1
  Co  Co123  1  0.37498223  0.62187003  0.38147658  1
  Co  Co124  1  0.50267869  0.49848552  0.49852212  1
  Co  Co125  1  0.49421874  0.50428787  0.24932996  1
  Co  Co126  1  0.25686858  -0.00120902  0.74900437  1
  Co  Co127  1  0.49710070  0.75039215  0.49886909  1
