# generated using pymatgen
data_Fe45Co19
_symmetry_space_group_name_H-M   'P 1'
_cell_length_a   11.41522265
_cell_length_b   11.41456927
_cell_length_c   11.41514408
_cell_angle_alpha   89.99372413
_cell_angle_beta   89.99506250
_cell_angle_gamma   90.00884581
_symmetry_Int_Tables_number   1
_chemical_formula_structural   Fe45Co19
_chemical_formula_sum   'Fe90 Co38'
_cell_volume   1487.39152625
_cell_formula_units_Z   2
loop_
 _symmetry_equiv_pos_site_id
 _symmetry_equiv_pos_as_xyz
  1  'x, y, z'
loop_
 _atom_site_type_symbol
 _atom_site_label
 _atom_site_symmetry_multiplicity
 _atom_site_fract_x
 _atom_site_fract_y
 _atom_site_fract_z
 _atom_site_occupancy
  Fe  Fe0  1  0.49959077  0.49908417  0.50046284  1
  Fe  Fe1  1  0.25085870  0.24987497  0.74855749  1
  Fe  Fe2  1  -0.00365638  0.49850667  0.25041514  1
  Fe  Fe3  1  0.49683619  0.00136072  0.25052832  1
  Fe  Fe4  1  0.37711519  0.37328568  0.62615956  1
  Fe  Fe5  1  0.12788734  0.12576341  0.87478090  1
  Fe  Fe6  1  0.62523047  0.12317162  0.37275924  1
  Fe  Fe7  1  0.87745903  0.87508950  0.87452612  1
  Fe  Fe8  1  0.50425783  0.75159202  0.49614250  1
  Fe  Fe9  1  0.87411649  0.87379152  0.37550594  1
  Fe  Fe10  1  0.37599032  0.87470592  0.37353850  1
  Fe  Fe11  1  0.62310068  0.87667524  0.12752990  1
  Fe  Fe12  1  -0.00135352  0.25036537  0.75252526  1
  Fe  Fe13  1  0.37526865  0.62525921  0.37331539  1
  Fe  Fe14  1  0.75342855  0.00188693  0.24885916  1
  Fe  Fe15  1  -0.00017706  0.00231471  -0.00127909  1
  Fe  Fe16  1  0.12806497  0.62330959  0.87640357  1
  Fe  Fe17  1  0.87683233  0.12882674  0.12334113  1
  Fe  Fe18  1  0.24969707  0.25089074  0.49876293  1
  Fe  Fe19  1  0.74956878  -0.00052979  0.00146597  1
  Fe  Fe20  1  0.74882204  0.75209443  0.74973826  1
  Fe  Fe21  1  0.24774014  0.74935471  0.50250593  1
  Fe  Fe22  1  0.37654951  0.12385979  0.62322115  1
  Fe  Fe23  1  0.50070815  0.49773511  0.00232866  1
  Fe  Fe24  1  0.87077755  0.12680452  0.87545535  1
  Fe  Fe25  1  0.24891159  -0.00144408  0.00276173  1
  Fe  Fe26  1  0.37396498  0.87637367  0.87761933  1
  Fe  Fe27  1  0.00380365  0.74825284  0.74736362  1
  Fe  Fe28  1  0.49905255  0.24520899  0.75511725  1
  Fe  Fe29  1  0.12571015  0.87521974  0.37435411  1
  Fe  Fe30  1  0.62540138  0.37624005  0.37341475  1
  Fe  Fe31  1  0.37285234  0.62379627  0.87994708  1
  Fe  Fe32  1  0.75153102  0.49865088  0.24796386  1
  Fe  Fe33  1  0.87572974  0.12839978  0.62262610  1
  Fe  Fe34  1  0.37807826  0.87653526  0.62385798  1
  Fe  Fe35  1  0.25112459  0.49840320  0.24588135  1
  Fe  Fe36  1  0.75111238  0.49740609  0.74854063  1
  Fe  Fe37  1  -0.00170614  0.49977899  0.50148583  1
  Fe  Fe38  1  0.37636279  0.37298613  0.37292142  1
  Fe  Fe39  1  0.62399528  0.12110955  0.63006898  1
  Fe  Fe40  1  0.74603511  0.75303207  0.50077481  1
  Fe  Fe41  1  0.12306290  0.87662486  0.12613005  1
  Fe  Fe42  1  0.37250485  0.12714575  0.12551887  1
  Fe  Fe43  1  0.12618053  0.12581698  0.37302575  1
  Fe  Fe44  1  0.25357562  0.49997278  0.75093908  1
  Fe  Fe45  1  0.37567820  0.37345830  0.87682677  1
  Fe  Fe46  1  0.62437073  0.62519190  0.62516639  1
  Fe  Fe47  1  0.12321355  0.12199508  0.62439506  1
  Fe  Fe48  1  -0.00404636  0.49830780  0.74927010  1
  Fe  Fe49  1  0.24925477  0.25414586  0.00144539  1
  Fe  Fe50  1  -0.00131859  0.00158356  0.25164629  1
  Fe  Fe51  1  0.62426608  0.37273893  0.87511057  1
  Fe  Fe52  1  0.62182360  0.37334154  0.62810285  1
  Fe  Fe53  1  0.12646152  0.62427920  0.37367094  1
  Fe  Fe54  1  0.50137550  0.50335502  0.24675239  1
  Fe  Fe55  1  0.74849590  -0.00040476  0.50207572  1
  Fe  Fe56  1  0.50000280  0.24947903  0.24845964  1
  Fe  Fe57  1  0.12505303  0.37706579  0.62670792  1
  Fe  Fe58  1  0.74632911  0.25082624  0.00195554  1
  Fe  Fe59  1  0.12451935  0.12697174  0.12689364  1
  Fe  Fe60  1  0.87555835  0.12958170  0.37925243  1
  Fe  Fe61  1  0.87423901  0.62507672  0.87442070  1
  Fe  Fe62  1  0.50185561  0.24779221  0.49833880  1
  Fe  Fe63  1  0.49941959  0.74936360  0.75181185  1
  Fe  Fe64  1  0.00352945  0.74851992  0.50205439  1
  Fe  Fe65  1  0.24908161  0.75031799  0.74849859  1
  Fe  Fe66  1  -0.00009062  0.74807610  0.24927630  1
  Fe  Fe67  1  0.12078846  0.37281809  0.12581231  1
  Fe  Fe68  1  0.87456515  0.62515672  0.12292626  1
  Fe  Fe69  1  0.62409225  0.87961810  0.87242229  1
  Fe  Fe70  1  0.75235572  0.25198561  0.24993257  1
  Fe  Fe71  1  0.25157715  -0.00069739  0.74938724  1
  Fe  Fe72  1  0.00208942  0.74912566  0.00029525  1
  Fe  Fe73  1  0.12417003  0.37495316  0.37408570  1
  Fe  Fe74  1  0.75052425  0.49706908  0.50315339  1
  Fe  Fe75  1  0.12426178  0.87639343  0.87386884  1
  Fe  Fe76  1  0.74896294  0.49847301  0.00127142  1
  Fe  Fe77  1  0.00105090  0.49769929  -0.00190747  1
  Fe  Fe78  1  0.37602012  0.62510437  0.62441940  1
  Fe  Fe79  1  0.87941542  0.87572528  0.62515825  1
  Fe  Fe80  1  0.87560434  0.87385342  0.12519755  1
  Fe  Fe81  1  0.49986048  0.75045882  0.00226688  1
  Fe  Fe82  1  0.25232795  0.49871437  0.49976644  1
  Fe  Fe83  1  0.25268139  0.75056017  0.24386538  1
  Fe  Fe84  1  0.62516956  0.62396327  0.87543646  1
  Fe  Fe85  1  0.87284701  0.62506570  0.37767826  1
  Fe  Fe86  1  0.74596471  0.74780585  0.25035635  1
  Fe  Fe87  1  0.74864902  0.75198235  -0.00055914  1
  Fe  Fe88  1  0.50136896  0.00695449  -0.00242801  1
  Fe  Fe89  1  0.25097629  0.00067921  0.49723077  1
  Co  Co90  1  0.25061441  -0.00068502  0.25003262  1
  Co  Co91  1  0.37920036  0.87797349  0.12359347  1
  Co  Co92  1  0.62574619  0.88006378  0.37028368  1
  Co  Co93  1  0.50089651  0.00093792  0.49728963  1
  Co  Co94  1  0.00538270  0.25142743  0.49953036  1
  Co  Co95  1  0.24860188  0.75265571  0.00274317  1
  Co  Co96  1  0.87332186  0.62747059  0.62495162  1
  Co  Co97  1  0.50145314  0.24553783  -0.00203705  1
  Co  Co98  1  0.12693291  0.62007194  0.62558255  1
  Co  Co99  1  0.12609070  0.37457821  0.87167915  1
  Co  Co100  1  0.75063920  0.25293643  0.74824452  1
  Co  Co101  1  0.49565085  0.00290732  0.75512584  1
  Co  Co102  1  0.37804002  0.37265196  0.12519216  1
  Co  Co103  1  0.62683725  0.62084051  0.37714691  1
  Co  Co104  1  0.63154251  0.12368534  0.87151911  1
  Co  Co105  1  -0.00091677  0.00025149  0.49615800  1
  Co  Co106  1  0.12483224  0.62345630  0.12436665  1
  Co  Co107  1  0.87243396  0.37358593  0.87735527  1
  Co  Co108  1  0.24892947  0.25211517  0.25059018  1
  Co  Co109  1  0.37490888  0.12764495  0.37384207  1
  Co  Co110  1  -0.00255212  0.25030482  0.25227854  1
  Co  Co111  1  0.75455370  -0.00270152  0.74775667  1
  Co  Co112  1  0.87660820  0.37290573  0.12193897  1
  Co  Co113  1  0.50167266  0.74734761  0.25089783  1
  Co  Co114  1  0.74267421  0.24892328  0.50066319  1
  Co  Co115  1  0.62550711  0.12498521  0.12796339  1
  Co  Co116  1  0.62571693  0.62601065  0.12288172  1
  Co  Co117  1  0.36853611  0.12592219  0.87786053  1
  Co  Co118  1  0.62024698  0.87830939  0.62865592  1
  Co  Co119  1  0.37439597  0.62400685  0.12166925  1
  Co  Co120  1  0.62437877  0.37287772  0.12590782  1
  Co  Co121  1  0.12411333  0.88005247  0.62494916  1
  Co  Co122  1  0.24851948  0.49476280  0.00238468  1
  Co  Co123  1  -0.00210648  0.00416550  0.75264756  1
  Co  Co124  1  0.00134728  0.24949972  -0.00409241  1
  Co  Co125  1  0.87332945  0.37247531  0.37947670  1
  Co  Co126  1  0.49936822  0.50140855  0.75143182  1
  Co  Co127  1  0.87615905  0.36952759  0.62190740  1
