# generated using pymatgen
data_Fe45Co19
_symmetry_space_group_name_H-M   'P 1'
_cell_length_a   11.41590283
_cell_length_b   11.41583546
_cell_length_c   11.41553306
_cell_angle_alpha   90.00526304
_cell_angle_beta   89.99701637
_cell_angle_gamma   90.00022742
_symmetry_Int_Tables_number   1
_chemical_formula_structural   Fe45Co19
_chemical_formula_sum   'Fe90 Co38'
_cell_volume   1487.69587184
_cell_formula_units_Z   2
loop_
 _symmetry_equiv_pos_site_id
 _symmetry_equiv_pos_as_xyz
  1  'x, y, z'
loop_
 _atom_site_type_symbol
 _atom_site_label
 _atom_site_symmetry_multiplicity
 _atom_site_fract_x
 _atom_site_fract_y
 _atom_site_fract_z
 _atom_site_occupancy
  Fe  Fe0  1  0.12562784  0.62375282  0.37267320  1
  Fe  Fe1  1  0.49736297  0.49646588  0.25259178  1
  Fe  Fe2  1  0.12674270  0.87238833  0.12764839  1
  Fe  Fe3  1  0.24845484  0.49973796  0.50124564  1
  Fe  Fe4  1  0.50083200  0.25218511  0.49554619  1
  Fe  Fe5  1  0.12829397  0.37594889  0.37053511  1
  Fe  Fe6  1  0.12515886  0.37627674  0.87459461  1
  Fe  Fe7  1  -0.00077700  0.75016372  0.49685911  1
  Fe  Fe8  1  0.74832673  -0.00129846  0.50129632  1
  Fe  Fe9  1  0.00096140  0.00074704  0.74754480  1
  Fe  Fe10  1  0.12613193  0.87293519  0.62623511  1
  Fe  Fe11  1  0.12247933  0.37108261  0.62662602  1
  Fe  Fe12  1  0.62165340  0.62739844  0.12512905  1
  Fe  Fe13  1  0.87429459  0.12410150  0.87718797  1
  Fe  Fe14  1  0.49991405  0.75240623  -0.00183669  1
  Fe  Fe15  1  0.62405382  0.36959761  0.13273381  1
  Fe  Fe16  1  0.37642077  0.62361333  0.87731712  1
  Fe  Fe17  1  0.62599781  0.87583863  0.86972429  1
  Fe  Fe18  1  0.37479187  0.12224724  0.37657588  1
  Fe  Fe19  1  0.24867954  0.50272373  0.00315312  1
  Fe  Fe20  1  0.00355374  0.50286718  0.00303463  1
  Fe  Fe21  1  0.50186787  0.49709494  0.49854675  1
  Fe  Fe22  1  0.37948524  0.87416669  0.62363819  1
  Fe  Fe23  1  0.75218527  0.00154870  0.24865587  1
  Fe  Fe24  1  -0.00047801  0.50152743  0.75010697  1
  Fe  Fe25  1  0.00209300  0.49815942  0.49858248  1
  Fe  Fe26  1  0.24692659  0.00304791  0.00518835  1
  Fe  Fe27  1  0.25018395  0.24926925  0.75062746  1
  Fe  Fe28  1  0.37322831  0.87788689  0.87705688  1
  Fe  Fe29  1  0.24708306  -0.00089172  0.50070325  1
  Fe  Fe30  1  0.74535123  0.49949326  0.00379917  1
  Fe  Fe31  1  0.50550800  0.00038079  0.00117123  1
  Fe  Fe32  1  0.12583001  0.37345497  0.12710276  1
  Fe  Fe33  1  0.49703704  0.74960084  0.25472447  1
  Fe  Fe34  1  0.86945893  0.38290498  0.37321939  1
  Fe  Fe35  1  -0.00063899  0.74863011  0.75164260  1
  Fe  Fe36  1  0.75218975  0.74569415  0.25219569  1
  Fe  Fe37  1  0.25178472  0.49965032  0.74875592  1
  Fe  Fe38  1  0.74835912  0.50278397  0.74814461  1
  Fe  Fe39  1  -0.00418257  0.74575284  0.25036047  1
  Fe  Fe40  1  0.12656465  0.87446801  0.87499744  1
  Fe  Fe41  1  -0.00547474  0.25051899  0.25265932  1
  Fe  Fe42  1  0.87332351  0.12398979  0.12285160  1
  Fe  Fe43  1  0.74739916  0.75003383  -0.00215029  1
  Fe  Fe44  1  0.62468744  0.37480556  0.87113878  1
  Fe  Fe45  1  0.50273345  -0.00167455  0.49995170  1
  Fe  Fe46  1  0.37656932  0.37341106  0.87754962  1
  Fe  Fe47  1  0.37597518  0.37322948  0.62350932  1
  Fe  Fe48  1  0.37740951  0.62635341  0.62222915  1
  Fe  Fe49  1  0.37467344  0.87585605  0.12507003  1
  Fe  Fe50  1  0.25534313  0.24577813  0.24714960  1
  Fe  Fe51  1  0.12498192  0.87736440  0.37095841  1
  Fe  Fe52  1  0.00355864  0.74704719  0.00048593  1
  Fe  Fe53  1  0.62681421  0.62241524  0.37732415  1
  Fe  Fe54  1  0.87359762  0.37663025  0.87566380  1
  Fe  Fe55  1  0.62308861  0.12597359  0.62589818  1
  Fe  Fe56  1  0.74685132  0.25026192  0.00199450  1
  Fe  Fe57  1  0.87528105  0.87635593  0.87621758  1
  Fe  Fe58  1  0.62509015  0.12575604  0.87347801  1
  Fe  Fe59  1  0.50206009  0.49717374  0.00124696  1
  Fe  Fe60  1  0.62376428  0.63109982  0.62502746  1
  Fe  Fe61  1  0.00056728  0.25092063  -0.00025889  1
  Fe  Fe62  1  0.87335019  0.62312482  0.87834253  1
  Fe  Fe63  1  0.88063282  0.12776006  0.62099365  1
  Fe  Fe64  1  0.25498799  0.50112524  0.24685485  1
  Fe  Fe65  1  0.87564942  0.87745104  0.37553100  1
  Fe  Fe66  1  0.87717424  0.37347806  0.62556582  1
  Fe  Fe67  1  0.62640398  0.12853174  0.37070861  1
  Fe  Fe68  1  0.25300916  0.74932031  0.75187535  1
  Fe  Fe69  1  0.00203480  -0.00043614  0.00337672  1
  Fe  Fe70  1  0.12514089  0.62672244  0.62528123  1
  Fe  Fe71  1  0.62333669  0.37271888  0.62671359  1
  Fe  Fe72  1  0.87439066  0.37808439  0.12558245  1
  Fe  Fe73  1  0.87278837  0.87341091  0.12287107  1
  Fe  Fe74  1  0.37671564  0.12587620  0.62399682  1
  Fe  Fe75  1  0.25600269  0.74908043  0.25145326  1
  Fe  Fe76  1  0.75031925  0.00061147  0.74781317  1
  Fe  Fe77  1  0.24686454  0.24797385  0.49899590  1
  Fe  Fe78  1  0.62604840  0.87420875  0.12740332  1
  Fe  Fe79  1  0.25242083  0.75109444  0.49631630  1
  Fe  Fe80  1  0.37693176  0.12695700  0.87939731  1
  Fe  Fe81  1  0.75152585  0.24907598  0.74911842  1
  Fe  Fe82  1  0.75141298  0.25125886  0.49711868  1
  Fe  Fe83  1  0.62530038  0.87580513  0.37446954  1
  Fe  Fe84  1  0.87282353  0.87276933  0.62480884  1
  Fe  Fe85  1  0.11999887  0.12152483  0.37278890  1
  Fe  Fe86  1  0.49856917  0.00179465  0.24877804  1
  Fe  Fe87  1  0.87335423  0.62668004  0.62152950  1
  Fe  Fe88  1  0.12422436  0.12517219  0.87477235  1
  Fe  Fe89  1  0.25100969  0.00257111  0.74785591  1
  Co  Co90  1  0.12063896  0.12869028  0.12908615  1
  Co  Co91  1  0.00199011  -0.00455820  0.50258500  1
  Co  Co92  1  0.37942436  0.62560163  0.12399621  1
  Co  Co93  1  0.75066795  0.74858378  0.75326636  1
  Co  Co94  1  0.37950653  0.12521153  0.11929727  1
  Co  Co95  1  0.49776314  0.74973138  0.75417669  1
  Co  Co96  1  -0.00056754  0.50200418  0.24852010  1
  Co  Co97  1  0.74762918  0.50488199  0.24526013  1
  Co  Co98  1  0.49815326  0.24987746  0.75088192  1
  Co  Co99  1  -0.00042176  0.24981302  0.75431044  1
  Co  Co100  1  0.74975287  0.75248331  0.49646288  1
  Co  Co101  1  0.62537247  0.12727814  0.12993701  1
  Co  Co102  1  0.25162792  0.00346901  0.24673105  1
  Co  Co103  1  0.12675506  0.62478514  0.87269022  1
  Co  Co104  1  0.50587608  0.25087854  0.00101189  1
  Co  Co105  1  0.49243660  0.25087507  0.25220101  1
  Co  Co106  1  0.62287027  0.87159043  0.62722856  1
  Co  Co107  1  0.24659334  0.24888760  0.00118058  1
  Co  Co108  1  0.37488790  0.87992943  0.37508865  1
  Co  Co109  1  0.74652497  0.49827945  0.50507501  1
  Co  Co110  1  0.87323162  0.62471584  0.12102468  1
  Co  Co111  1  0.62402293  0.62338803  0.87616894  1
  Co  Co112  1  0.37502002  0.62094559  0.37790383  1
  Co  Co113  1  0.74599421  -0.00038040  0.00079185  1
  Co  Co114  1  0.12086716  0.12839252  0.62341682  1
  Co  Co115  1  -0.00069462  0.25603154  0.49181803  1
  Co  Co116  1  0.49960246  0.50058885  0.74845829  1
  Co  Co117  1  0.49881465  0.00101270  0.75039998  1
  Co  Co118  1  0.87692826  0.11993884  0.37849295  1
  Co  Co119  1  0.50011290  0.75166839  0.49480911  1
  Co  Co120  1  0.25035349  0.74788000  0.00073755  1
  Co  Co121  1  -0.00330127  -0.00138912  0.24506929  1
  Co  Co122  1  0.37459811  0.37345421  0.12089975  1
  Co  Co123  1  0.87276053  0.61919430  0.37798832  1
  Co  Co124  1  0.12774902  0.62740985  0.12934618  1
  Co  Co125  1  0.62876517  0.37318352  0.37053329  1
  Co  Co126  1  0.37120543  0.37527362  0.37821494  1
  Co  Co127  1  0.75697990  0.24754859  0.25099565  1
