# generated using pymatgen
data_Fe45Co19
_symmetry_space_group_name_H-M   'P 1'
_cell_length_a   11.41421000
_cell_length_b   11.41423629
_cell_length_c   11.41329486
_cell_angle_alpha   89.98622159
_cell_angle_beta   90.00773400
_cell_angle_gamma   90.00969049
_symmetry_Int_Tables_number   1
_chemical_formula_structural   Fe45Co19
_chemical_formula_sum   'Fe90 Co38'
_cell_volume   1486.97522133
_cell_formula_units_Z   2
loop_
 _symmetry_equiv_pos_site_id
 _symmetry_equiv_pos_as_xyz
  1  'x, y, z'
loop_
 _atom_site_type_symbol
 _atom_site_label
 _atom_site_symmetry_multiplicity
 _atom_site_fract_x
 _atom_site_fract_y
 _atom_site_fract_z
 _atom_site_occupancy
  Fe  Fe0  1  0.12694027  0.87802303  0.12292910  1
  Fe  Fe1  1  0.75185217  0.25189220  0.49539653  1
  Fe  Fe2  1  0.25331800  0.24601685  0.49550115  1
  Fe  Fe3  1  0.24922008  0.24709941  -0.00027684  1
  Fe  Fe4  1  0.75251514  0.49856553  0.49835433  1
  Fe  Fe5  1  0.49765454  0.00122114  0.00224644  1
  Fe  Fe6  1  0.12648827  0.62878629  0.37490241  1
  Fe  Fe7  1  0.75127322  -0.00039068  -0.00267441  1
  Fe  Fe8  1  0.87283337  0.87586873  0.62773650  1
  Fe  Fe9  1  0.25164523  0.50133515  -0.00112126  1
  Fe  Fe10  1  0.50129502  0.74957894  0.75008116  1
  Fe  Fe11  1  0.25112053  0.49982963  0.49986131  1
  Fe  Fe12  1  0.74918381  0.49749796  0.25306705  1
  Fe  Fe13  1  0.62467608  0.87308446  0.62209922  1
  Fe  Fe14  1  0.00281238  -0.00023024  0.25159636  1
  Fe  Fe15  1  0.75049200  0.25210669  0.75116896  1
  Fe  Fe16  1  0.00100296  0.24803904  0.00033057  1
  Fe  Fe17  1  0.24900309  0.75031845  0.75149928  1
  Fe  Fe18  1  0.24626318  0.00103554  0.25630566  1
  Fe  Fe19  1  0.87929329  0.37567099  0.87547007  1
  Fe  Fe20  1  0.87357024  0.62603130  0.12583439  1
  Fe  Fe21  1  0.37025840  0.37341083  0.87175508  1
  Fe  Fe22  1  0.50130452  0.75146897  0.25189162  1
  Fe  Fe23  1  0.00617109  0.24987672  0.74843970  1
  Fe  Fe24  1  0.75145456  0.74812807  0.50027068  1
  Fe  Fe25  1  0.62487263  0.37359685  0.62303441  1
  Fe  Fe26  1  0.62730152  0.87410910  0.12501752  1
  Fe  Fe27  1  0.49738922  0.49877049  0.74988690  1
  Fe  Fe28  1  0.00214222  0.50081982  0.25011200  1
  Fe  Fe29  1  0.62539492  0.62482514  0.62440236  1
  Fe  Fe30  1  0.12613617  0.62543668  0.62161932  1
  Fe  Fe31  1  0.87589867  0.87779849  0.87022201  1
  Fe  Fe32  1  0.50100470  0.24943811  0.74860249  1
  Fe  Fe33  1  0.38067388  0.87945147  0.37770153  1
  Fe  Fe34  1  0.49724053  0.49942929  0.50089672  1
  Fe  Fe35  1  0.74753329  0.00033409  0.25157832  1
  Fe  Fe36  1  0.49910272  0.75142434  -0.00086461  1
  Fe  Fe37  1  0.24857868  0.00020447  0.74762727  1
  Fe  Fe38  1  0.37442895  0.37321840  0.12815274  1
  Fe  Fe39  1  0.12126097  0.37314710  0.38010039  1
  Fe  Fe40  1  0.87616719  0.12241328  0.87197699  1
  Fe  Fe41  1  0.62474722  0.37407150  0.12780045  1
  Fe  Fe42  1  0.37408068  0.62684434  0.62616470  1
  Fe  Fe43  1  0.12625838  0.87714911  0.62009820  1
  Fe  Fe44  1  0.00223759  0.75231933  0.74904036  1
  Fe  Fe45  1  0.37296019  0.87582754  0.12691671  1
  Fe  Fe46  1  0.37503653  0.12455793  0.87173074  1
  Fe  Fe47  1  -0.00002288  0.75271689  -0.00031765  1
  Fe  Fe48  1  0.62641253  0.12582305  0.12502083  1
  Fe  Fe49  1  0.12327386  0.11785357  0.87999377  1
  Fe  Fe50  1  0.62019118  0.12321740  0.37572021  1
  Fe  Fe51  1  0.75044996  0.49820210  0.74878877  1
  Fe  Fe52  1  0.74995157  0.25088557  -0.00130888  1
  Fe  Fe53  1  0.62476315  0.62299286  0.87439860  1
  Fe  Fe54  1  0.25082160  0.75158837  -0.00218680  1
  Fe  Fe55  1  0.74954936  0.00113076  0.50042561  1
  Fe  Fe56  1  0.37175220  0.12630970  0.13145498  1
  Fe  Fe57  1  0.25386713  0.75331947  0.49841820  1
  Fe  Fe58  1  0.37573669  0.87664624  0.87203125  1
  Fe  Fe59  1  0.87397189  0.12371868  0.62715559  1
  Fe  Fe60  1  0.49896827  0.49804199  -0.00094663  1
  Fe  Fe61  1  0.50268643  0.00252249  0.74331688  1
  Fe  Fe62  1  0.24920351  0.49800273  0.25143760  1
  Fe  Fe63  1  0.37793697  0.37285901  0.37137774  1
  Fe  Fe64  1  0.49929626  0.25024320  0.00027693  1
  Fe  Fe65  1  0.87255548  0.87474271  0.12720568  1
  Fe  Fe66  1  0.62497776  0.12469208  0.87461516  1
  Fe  Fe67  1  0.37458417  0.62557823  0.12710297  1
  Fe  Fe68  1  0.12412937  0.62360001  0.87670708  1
  Fe  Fe69  1  0.00189658  0.75193057  0.24922910  1
  Fe  Fe70  1  0.87889663  0.37582295  0.62176600  1
  Fe  Fe71  1  0.87518121  0.37345742  0.12784306  1
  Fe  Fe72  1  -0.00297087  0.75030663  0.50103773  1
  Fe  Fe73  1  0.12505878  0.37506844  0.12219189  1
  Fe  Fe74  1  0.87396342  0.87439748  0.37347553  1
  Fe  Fe75  1  0.87754734  0.12583169  0.37361865  1
  Fe  Fe76  1  0.00381893  0.24752071  0.24947583  1
  Fe  Fe77  1  0.00566604  0.49738176  0.74655599  1
  Fe  Fe78  1  0.12563421  0.12271153  0.61734604  1
  Fe  Fe79  1  0.37479236  0.62553603  0.37312497  1
  Fe  Fe80  1  0.87627309  0.62482825  0.37360557  1
  Fe  Fe81  1  0.87471019  0.12521782  0.12629644  1
  Fe  Fe82  1  0.87654194  0.62398825  0.87212861  1
  Fe  Fe83  1  0.75047188  0.49799648  -0.00077482  1
  Fe  Fe84  1  0.36894503  0.37177641  0.62895071  1
  Fe  Fe85  1  0.49715524  0.24703195  0.50165320  1
  Fe  Fe86  1  0.75029343  0.75153747  -0.00468168  1
  Fe  Fe87  1  0.12751965  0.62679978  0.12570529  1
  Fe  Fe88  1  0.62364059  0.62492988  0.37603410  1
  Fe  Fe89  1  0.62550577  0.62589307  0.12558822  1
  Co  Co90  1  0.87516643  0.62432549  0.62823226  1
  Co  Co91  1  0.62048930  0.37446151  0.37668625  1
  Co  Co92  1  0.62406858  0.37462960  0.87355454  1
  Co  Co93  1  0.50206625  0.24914252  0.24871582  1
  Co  Co94  1  0.12335135  0.87412063  0.37955778  1
  Co  Co95  1  0.50246026  -0.00198409  0.24625006  1
  Co  Co96  1  0.49871048  0.74876377  0.49869080  1
  Co  Co97  1  0.12634800  0.87886101  0.87706681  1
  Co  Co98  1  0.74516631  -0.00029005  0.74908174  1
  Co  Co99  1  0.37967033  0.12259314  0.37014735  1
  Co  Co100  1  0.74816892  0.24965437  0.25399027  1
  Co  Co101  1  0.88038508  0.37472436  0.37388191  1
  Co  Co102  1  0.74759811  0.75067712  0.75155629  1
  Co  Co103  1  -0.00474032  -0.00190322  0.49983330  1
  Co  Co104  1  0.12620241  0.12062115  0.12289292  1
  Co  Co105  1  0.37022353  0.12771407  0.62804026  1
  Co  Co106  1  0.24450039  0.24995404  0.25260842  1
  Co  Co107  1  0.49983022  0.50179841  0.25037472  1
  Co  Co108  1  0.12853033  0.37302144  0.61922131  1
  Co  Co109  1  0.24050384  0.24533316  0.75269687  1
  Co  Co110  1  0.12629520  0.37726312  0.87885015  1
  Co  Co111  1  0.24727820  0.50238420  0.74898487  1
  Co  Co112  1  0.74773380  0.74972303  0.25262444  1
  Co  Co113  1  -0.00502244  -0.00282320  0.00212243  1
  Co  Co114  1  0.00367428  0.00060966  0.74632149  1
  Co  Co115  1  0.25173985  0.75457956  0.25211474  1
  Co  Co116  1  0.62996681  0.13057048  0.62386881  1
  Co  Co117  1  0.49838429  0.00489534  0.50772840  1
  Co  Co118  1  -0.00382447  0.24733147  0.50305908  1
  Co  Co119  1  0.37531072  0.87327484  0.62646831  1
  Co  Co120  1  0.25604765  0.00076493  -0.00018705  1
  Co  Co121  1  0.25503700  0.00048619  0.49792974  1
  Co  Co122  1  0.62095751  0.87845431  0.87515868  1
  Co  Co123  1  0.12215190  0.12452445  0.38093165  1
  Co  Co124  1  0.00048830  0.50365755  0.49997777  1
  Co  Co125  1  -0.00181357  0.50141583  0.00252814  1
  Co  Co126  1  0.62355434  0.87723083  0.37856843  1
  Co  Co127  1  0.37565462  0.62533539  0.87452935  1
