# generated using pymatgen
data_Fe45Co19
_symmetry_space_group_name_H-M   'P 1'
_cell_length_a   11.41520523
_cell_length_b   11.41426063
_cell_length_c   11.41389364
_cell_angle_alpha   90.00383440
_cell_angle_beta   90.00832787
_cell_angle_gamma   90.00117136
_symmetry_Int_Tables_number   1
_chemical_formula_structural   Fe45Co19
_chemical_formula_sum   'Fe90 Co38'
_cell_volume   1487.18612421
_cell_formula_units_Z   2
loop_
 _symmetry_equiv_pos_site_id
 _symmetry_equiv_pos_as_xyz
  1  'x, y, z'
loop_
 _atom_site_type_symbol
 _atom_site_label
 _atom_site_symmetry_multiplicity
 _atom_site_fract_x
 _atom_site_fract_y
 _atom_site_fract_z
 _atom_site_occupancy
  Fe  Fe0  1  0.12281586  0.62495168  0.12489809  1
  Fe  Fe1  1  0.49740962  -0.00276871  0.49642773  1
  Fe  Fe2  1  0.74851709  0.49974310  0.00287904  1
  Fe  Fe3  1  0.25203085  0.00222373  0.25182925  1
  Fe  Fe4  1  0.87484359  0.37182702  0.12827867  1
  Fe  Fe5  1  0.50086332  0.75249059  0.74760784  1
  Fe  Fe6  1  0.87851017  0.87446546  0.12410840  1
  Fe  Fe7  1  0.75379729  0.00080528  0.00083221  1
  Fe  Fe8  1  0.87878441  0.12783921  0.12674581  1
  Fe  Fe9  1  0.12370047  0.37604487  0.62270489  1
  Fe  Fe10  1  0.00100876  0.50016944  0.25344654  1
  Fe  Fe11  1  0.87566682  0.12726081  0.87459632  1
  Fe  Fe12  1  0.49819901  0.75017801  0.25258918  1
  Fe  Fe13  1  0.37588829  0.37191043  0.12722986  1
  Fe  Fe14  1  0.24847857  0.25012375  0.00120767  1
  Fe  Fe15  1  0.12392435  0.87514748  0.87602253  1
  Fe  Fe16  1  0.50249185  0.25295973  0.49798072  1
  Fe  Fe17  1  0.62662190  0.12595320  0.87716665  1
  Fe  Fe18  1  0.12560907  0.62384028  0.87496280  1
  Fe  Fe19  1  -0.00219548  0.50225242  0.49811861  1
  Fe  Fe20  1  -0.00136986  0.25217638  0.74860566  1
  Fe  Fe21  1  0.24784215  -0.00029181  0.00210124  1
  Fe  Fe22  1  0.74872556  0.24881329  0.49710703  1
  Fe  Fe23  1  0.37515089  0.87726686  0.12746949  1
  Fe  Fe24  1  0.37409914  0.12495029  0.87627590  1
  Fe  Fe25  1  0.37614197  0.62455731  0.87515334  1
  Fe  Fe26  1  0.24798998  0.24956843  0.25277317  1
  Fe  Fe27  1  0.00087639  -0.00385514  0.49958879  1
  Fe  Fe28  1  0.12392872  0.12342323  0.62441757  1
  Fe  Fe29  1  0.74755328  0.75163253  0.74873481  1
  Fe  Fe30  1  0.50176990  0.49716277  0.00081036  1
  Fe  Fe31  1  0.50068862  0.49854602  0.74780512  1
  Fe  Fe32  1  0.62443947  0.87774107  0.12789705  1
  Fe  Fe33  1  0.74873533  0.50233960  0.24867005  1
  Fe  Fe34  1  0.75060453  0.50149008  0.49997570  1
  Fe  Fe35  1  0.62513013  0.87683954  0.37352385  1
  Fe  Fe36  1  0.75184521  0.50067936  0.74708013  1
  Fe  Fe37  1  0.50103148  0.75073535  0.00130155  1
  Fe  Fe38  1  0.87265327  0.37415766  0.37405192  1
  Fe  Fe39  1  0.75030296  0.74768041  0.24873428  1
  Fe  Fe40  1  0.62793536  0.37372194  0.62647903  1
  Fe  Fe41  1  0.87412964  0.62668016  0.87630186  1
  Fe  Fe42  1  0.62500921  0.87773661  0.87478045  1
  Fe  Fe43  1  0.74958180  0.74896863  0.00242746  1
  Fe  Fe44  1  -0.00035125  0.25098227  0.49735613  1
  Fe  Fe45  1  0.37482092  0.87781583  0.62410902  1
  Fe  Fe46  1  0.12103566  0.12362684  0.12672512  1
  Fe  Fe47  1  0.24883037  0.75023664  0.00227511  1
  Fe  Fe48  1  0.37788564  0.62297672  0.61990832  1
  Fe  Fe49  1  0.62602101  0.36933064  0.12631944  1
  Fe  Fe50  1  0.37505864  0.37655285  0.37682793  1
  Fe  Fe51  1  0.25186752  0.74721156  0.25042892  1
  Fe  Fe52  1  -0.00136437  -0.00279214  0.74959357  1
  Fe  Fe53  1  0.87156527  0.37253439  0.87406290  1
  Fe  Fe54  1  0.24917761  0.25070077  0.49995105  1
  Fe  Fe55  1  0.37523494  0.37492623  0.87390627  1
  Fe  Fe56  1  0.25221854  0.74990772  0.49853027  1
  Fe  Fe57  1  0.24905945  0.50101632  0.25302983  1
  Fe  Fe58  1  0.25132595  0.49941644  0.00159604  1
  Fe  Fe59  1  0.12602138  0.37592351  0.87401513  1
  Fe  Fe60  1  0.87320170  0.87423925  0.37475039  1
  Fe  Fe61  1  0.24979191  -0.00023478  0.74844766  1
  Fe  Fe62  1  0.25038421  0.25088849  0.74752822  1
  Fe  Fe63  1  -0.00151165  0.49887716  -0.00024448  1
  Fe  Fe64  1  0.62459211  0.62387547  0.87548942  1
  Fe  Fe65  1  0.12745849  0.87419932  0.37431726  1
  Fe  Fe66  1  0.12284493  0.12500048  0.87394677  1
  Fe  Fe67  1  0.50293178  0.24404723  0.25224751  1
  Fe  Fe68  1  0.25137768  0.74997405  0.74857180  1
  Fe  Fe69  1  0.87425780  0.87160867  0.62492068  1
  Fe  Fe70  1  0.62369935  0.12220406  0.62269932  1
  Fe  Fe71  1  0.37713593  0.62370980  0.12558731  1
  Fe  Fe72  1  0.49944971  0.00295251  0.00306949  1
  Fe  Fe73  1  0.75133060  -0.00149376  0.49991419  1
  Fe  Fe74  1  0.12228080  0.62713317  0.62167294  1
  Fe  Fe75  1  0.12310588  0.37393339  0.12647047  1
  Fe  Fe76  1  0.25120165  0.50013459  0.74553472  1
  Fe  Fe77  1  -0.00032405  0.75062613  0.75082374  1
  Fe  Fe78  1  0.62490419  0.62771342  0.62156103  1
  Fe  Fe79  1  0.37594011  0.87588859  0.87531825  1
  Fe  Fe80  1  -0.00029656  0.74921778  0.25132272  1
  Fe  Fe81  1  0.75167762  0.00487907  0.25054946  1
  Fe  Fe82  1  0.75010958  0.00045591  0.74904624  1
  Fe  Fe83  1  0.62420777  0.62569825  0.37630150  1
  Fe  Fe84  1  0.37577574  0.12458314  0.62266144  1
  Fe  Fe85  1  0.87549294  0.12638481  0.62281436  1
  Fe  Fe86  1  0.50172366  0.49980363  0.25101541  1
  Fe  Fe87  1  -0.00354576  0.49961609  0.74735609  1
  Fe  Fe88  1  0.50156604  0.24963066  0.75096110  1
  Fe  Fe89  1  0.12302892  0.12410860  0.37553515  1
  Co  Co90  1  0.74950514  0.24437704  0.25348924  1
  Co  Co91  1  0.37816472  0.62040249  0.37791426  1
  Co  Co92  1  0.00093604  0.25133735  -0.00059858  1
  Co  Co93  1  0.37541048  0.37410881  0.62293194  1
  Co  Co94  1  0.37292400  0.12641441  0.12561273  1
  Co  Co95  1  -0.00101045  -0.00035504  -0.00126329  1
  Co  Co96  1  0.24820323  0.50020315  0.50006552  1
  Co  Co97  1  0.49869012  0.00396431  0.25056746  1
  Co  Co98  1  0.75122930  0.25018851  0.00137993  1
  Co  Co99  1  0.49978646  0.00167504  0.75095669  1
  Co  Co100  1  0.12409466  0.87648382  0.12812644  1
  Co  Co101  1  0.49995930  0.75431500  0.49869893  1
  Co  Co102  1  0.37303356  0.87616499  0.37292782  1
  Co  Co103  1  0.00057372  0.25102411  0.25369331  1
  Co  Co104  1  0.74811277  0.75117487  0.49893924  1
  Co  Co105  1  0.62439969  0.87803026  0.62405871  1
  Co  Co106  1  0.87555799  0.62979207  0.62347784  1
  Co  Co107  1  0.74899973  0.24717113  0.74739395  1
  Co  Co108  1  0.87676223  0.12494703  0.37769467  1
  Co  Co109  1  0.62671796  0.12509058  0.12388906  1
  Co  Co110  1  0.50474709  0.49647922  0.50034599  1
  Co  Co111  1  0.62255176  0.62613758  0.12585917  1
  Co  Co112  1  0.12583209  0.62681677  0.37650233  1
  Co  Co113  1  0.62516318  0.12074039  0.37771075  1
  Co  Co114  1  0.87759693  0.62458981  0.12556443  1
  Co  Co115  1  0.87374568  0.37237281  0.62172425  1
  Co  Co116  1  0.12554425  0.37565289  0.37722085  1
  Co  Co117  1  0.24877218  0.00060403  0.49910467  1
  Co  Co118  1  0.00120119  0.75022640  0.00034715  1
  Co  Co119  1  0.62763116  0.37568611  0.37199788  1
  Co  Co120  1  0.62769028  0.37500598  0.87377515  1
  Co  Co121  1  0.37522305  0.12704212  0.37778943  1
  Co  Co122  1  -0.00187705  -0.00083585  0.25320059  1
  Co  Co123  1  0.12591699  0.87347326  0.62407789  1
  Co  Co124  1  0.87339849  0.87239452  0.87516639  1
  Co  Co125  1  -0.00152989  0.75207437  0.49598117  1
  Co  Co126  1  0.49961510  0.24963194  -0.00105587  1
  Co  Co127  1  0.87276550  0.62523762  0.37420812  1
