# generated using pymatgen
data_Fe45Co19
_symmetry_space_group_name_H-M   'P 1'
_cell_length_a   11.41381740
_cell_length_b   11.41539471
_cell_length_c   11.41492078
_cell_angle_alpha   90.00013864
_cell_angle_beta   90.00510036
_cell_angle_gamma   90.00431355
_symmetry_Int_Tables_number   1
_chemical_formula_structural   Fe45Co19
_chemical_formula_sum   'Fe90 Co38'
_cell_volume   1487.28689789
_cell_formula_units_Z   2
loop_
 _symmetry_equiv_pos_site_id
 _symmetry_equiv_pos_as_xyz
  1  'x, y, z'
loop_
 _atom_site_type_symbol
 _atom_site_label
 _atom_site_symmetry_multiplicity
 _atom_site_fract_x
 _atom_site_fract_y
 _atom_site_fract_z
 _atom_site_occupancy
  Fe  Fe0  1  0.38266353  0.62588932  0.37776603  1
  Fe  Fe1  1  0.87404060  0.62484940  0.12601248  1
  Fe  Fe2  1  -0.00091530  0.49936216  0.00116891  1
  Fe  Fe3  1  0.00232696  0.00044858  0.49977912  1
  Fe  Fe4  1  0.87273217  0.62535964  0.62384933  1
  Fe  Fe5  1  0.25142690  0.50019002  0.75179702  1
  Fe  Fe6  1  0.12227537  0.87454390  0.87357061  1
  Fe  Fe7  1  0.62257545  0.86952308  0.37276578  1
  Fe  Fe8  1  0.50338597  0.24722843  0.00014151  1
  Fe  Fe9  1  0.87132013  0.12456755  0.12306434  1
  Fe  Fe10  1  0.74746375  0.49995479  0.25278926  1
  Fe  Fe11  1  0.12404512  0.62534682  0.87534430  1
  Fe  Fe12  1  0.50132457  0.24998475  0.50024507  1
  Fe  Fe13  1  0.37589711  0.12409889  0.12498565  1
  Fe  Fe14  1  0.74531324  0.75116989  0.50134036  1
  Fe  Fe15  1  0.24931952  0.74958455  0.74919596  1
  Fe  Fe16  1  0.74519217  0.50130060  0.49627390  1
  Fe  Fe17  1  0.49973753  0.24913594  0.25018500  1
  Fe  Fe18  1  0.74919300  0.24577364  0.74912672  1
  Fe  Fe19  1  0.37715046  0.87308452  0.62438184  1
  Fe  Fe20  1  0.62406113  0.62888254  0.12945038  1
  Fe  Fe21  1  0.75052057  0.49888100  0.75168059  1
  Fe  Fe22  1  -0.00080447  0.00041193  -0.00192964  1
  Fe  Fe23  1  0.12537142  0.62215900  0.62467923  1
  Fe  Fe24  1  0.12870641  0.37670206  0.12411475  1
  Fe  Fe25  1  0.75167609  0.75678728  0.74761631  1
  Fe  Fe26  1  0.24889623  0.24951500  0.74812458  1
  Fe  Fe27  1  0.50028756  0.50106455  0.74774396  1
  Fe  Fe28  1  0.37600136  0.62476095  0.12357658  1
  Fe  Fe29  1  0.87429847  0.37345713  0.37655238  1
  Fe  Fe30  1  0.25189148  -0.00008898  0.74902126  1
  Fe  Fe31  1  0.74536007  0.75364595  0.00024241  1
  Fe  Fe32  1  0.12708139  0.37495031  0.87638123  1
  Fe  Fe33  1  0.00151511  0.75000190  0.00324788  1
  Fe  Fe34  1  0.24972873  -0.00039375  -0.00065973  1
  Fe  Fe35  1  0.37555645  0.12558402  0.87621773  1
  Fe  Fe36  1  0.62505554  0.12762693  0.37592271  1
  Fe  Fe37  1  0.00189112  0.24974301  0.50243579  1
  Fe  Fe38  1  0.37355543  0.37494396  0.12165205  1
  Fe  Fe39  1  0.25068148  0.75072294  0.50013010  1
  Fe  Fe40  1  0.25220425  0.24888172  0.25134054  1
  Fe  Fe41  1  0.87292836  0.87719795  0.12368945  1
  Fe  Fe42  1  0.87430793  0.12546128  0.37642609  1
  Fe  Fe43  1  0.87358695  0.62817066  0.87543193  1
  Fe  Fe44  1  0.12404348  0.37618252  0.37708482  1
  Fe  Fe45  1  -0.00190224  0.50097446  0.75013688  1
  Fe  Fe46  1  0.12822795  0.87686971  0.37240425  1
  Fe  Fe47  1  0.49912861  -0.00178796  0.49782669  1
  Fe  Fe48  1  0.74625792  -0.00005984  -0.00626085  1
  Fe  Fe49  1  0.12203082  0.87638348  0.62729991  1
  Fe  Fe50  1  0.25172030  0.49998832  0.49918453  1
  Fe  Fe51  1  0.62500143  0.62771903  0.87212952  1
  Fe  Fe52  1  0.37821033  0.87297175  0.87439327  1
  Fe  Fe53  1  0.87318358  0.37180224  0.87711160  1
  Fe  Fe54  1  0.24872266  0.74968334  0.00117675  1
  Fe  Fe55  1  0.00193005  0.24969898  0.74672896  1
  Fe  Fe56  1  -0.00006740  0.24899504  0.24946323  1
  Fe  Fe57  1  0.13103558  0.12340723  0.37751474  1
  Fe  Fe58  1  0.49957172  0.24727185  0.74768340  1
  Fe  Fe59  1  0.87501683  0.87474545  0.37736665  1
  Fe  Fe60  1  0.75015762  0.25004088  0.24994960  1
  Fe  Fe61  1  0.49854999  -0.00059352  0.25244804  1
  Fe  Fe62  1  0.25132067  0.75048033  0.24883899  1
  Fe  Fe63  1  0.62408609  0.37295155  0.87400358  1
  Fe  Fe64  1  0.50385802  -0.00115226  -0.00079525  1
  Fe  Fe65  1  0.12435533  0.62435008  0.37423573  1
  Fe  Fe66  1  0.37450257  0.37654493  0.62420534  1
  Fe  Fe67  1  0.74906632  -0.00131804  0.25251875  1
  Fe  Fe68  1  0.37522184  0.87600496  0.12423952  1
  Fe  Fe69  1  0.00085958  0.74912327  0.50058326  1
  Fe  Fe70  1  0.37491799  0.37391654  0.87738188  1
  Fe  Fe71  1  0.74753043  -0.00107669  0.50032583  1
  Fe  Fe72  1  0.12682370  0.12282496  0.12563585  1
  Fe  Fe73  1  0.37700934  0.62679201  0.87484304  1
  Fe  Fe74  1  0.87432134  0.12106340  0.62535503  1
  Fe  Fe75  1  0.50148237  0.50188537  -0.00022872  1
  Fe  Fe76  1  -0.00121805  0.49932081  0.24972615  1
  Fe  Fe77  1  0.87404375  0.62661446  0.37519516  1
  Fe  Fe78  1  -0.00064448  0.75236005  0.24882617  1
  Fe  Fe79  1  0.50075269  0.74829277  0.74511476  1
  Fe  Fe80  1  -0.00042087  0.00033996  0.25054860  1
  Fe  Fe81  1  0.25244786  0.50130236  0.25057407  1
  Fe  Fe82  1  -0.00025250  0.25091267  0.00264515  1
  Fe  Fe83  1  0.12414377  0.12423859  0.87293383  1
  Fe  Fe84  1  0.62661424  0.37381363  0.62431746  1
  Fe  Fe85  1  0.87430365  0.37639125  0.62315743  1
  Fe  Fe86  1  0.62618853  0.37378348  0.12564670  1
  Fe  Fe87  1  0.74848711  0.50016067  -0.00017714  1
  Fe  Fe88  1  0.37246581  0.12520474  0.61989831  1
  Fe  Fe89  1  0.37972654  0.37693286  0.37625178  1
  Co  Co90  1  0.37236394  0.12494262  0.37837098  1
  Co  Co91  1  0.50388934  0.74962496  0.50556619  1
  Co  Co92  1  -0.00263148  0.50131602  0.49966202  1
  Co  Co93  1  0.25335722  0.00049230  0.24890479  1
  Co  Co94  1  0.75341041  0.75160565  0.25049138  1
  Co  Co95  1  0.12701614  0.12185544  0.62432258  1
  Co  Co96  1  0.62560326  0.87613163  0.12799813  1
  Co  Co97  1  0.25152940  -0.00478370  0.50269741  1
  Co  Co98  1  0.25157368  0.50301353  -0.00176603  1
  Co  Co99  1  0.49557913  0.75297339  0.24773919  1
  Co  Co100  1  -0.00169528  0.74795887  0.74752547  1
  Co  Co101  1  0.24975641  0.24652762  -0.00033409  1
  Co  Co102  1  0.61982262  0.62925791  0.37069976  1
  Co  Co103  1  0.87574252  0.12999933  0.87590002  1
  Co  Co104  1  0.12564058  0.37978014  0.62406857  1
  Co  Co105  1  0.24918919  0.25453460  0.49971328  1
  Co  Co106  1  0.12481835  0.62343329  0.12682482  1
  Co  Co107  1  0.12548157  0.87707735  0.12647329  1
  Co  Co108  1  0.62348347  0.12347091  0.86986911  1
  Co  Co109  1  0.49381738  0.00345971  0.74892908  1
  Co  Co110  1  0.61943881  0.87560979  0.86861567  1
  Co  Co111  1  0.75623128  -0.00192988  0.75431586  1
  Co  Co112  1  0.75070449  0.24792612  0.50194756  1
  Co  Co113  1  -0.00380266  -0.00025261  0.75213728  1
  Co  Co114  1  0.50288172  0.75054994  0.00109044  1
  Co  Co115  1  0.50119568  0.49793230  0.24724407  1
  Co  Co116  1  0.62311719  0.88183780  0.62982157  1
  Co  Co117  1  0.37286147  0.62426067  0.62393104  1
  Co  Co118  1  0.62438412  0.12040885  0.62544654  1
  Co  Co119  1  0.37416180  0.87271274  0.37591137  1
  Co  Co120  1  0.74601605  0.24816801  -0.00034256  1
  Co  Co121  1  0.62864420  0.62383975  0.62840701  1
  Co  Co122  1  0.87223605  0.37494244  0.12537343  1
  Co  Co123  1  0.62648672  0.12280335  0.12761712  1
  Co  Co124  1  0.50500463  0.50162520  0.50390200  1
  Co  Co125  1  0.87775873  0.87108825  0.87721725  1
  Co  Co126  1  0.87717899  0.87666502  0.62157134  1
  Co  Co127  1  0.62411268  0.37232319  0.37582205  1
