# generated using pymatgen
data_Fe45Co19
_symmetry_space_group_name_H-M   'P 1'
_cell_length_a   11.41451039
_cell_length_b   11.41510509
_cell_length_c   11.41441626
_cell_angle_alpha   90.00259934
_cell_angle_beta   90.00640263
_cell_angle_gamma   89.99579944
_symmetry_Int_Tables_number   1
_chemical_formula_structural   Fe45Co19
_chemical_formula_sum   'Fe90 Co38'
_cell_volume   1487.27371860
_cell_formula_units_Z   2
loop_
 _symmetry_equiv_pos_site_id
 _symmetry_equiv_pos_as_xyz
  1  'x, y, z'
loop_
 _atom_site_type_symbol
 _atom_site_label
 _atom_site_symmetry_multiplicity
 _atom_site_fract_x
 _atom_site_fract_y
 _atom_site_fract_z
 _atom_site_occupancy
  Fe  Fe0  1  0.75139102  0.50237087  0.49633798  1
  Fe  Fe1  1  0.74971015  0.24924691  0.74921962  1
  Fe  Fe2  1  0.62440282  0.37540720  0.87477149  1
  Fe  Fe3  1  0.25102447  0.50098730  0.00028469  1
  Fe  Fe4  1  0.12382285  0.12487510  0.12594054  1
  Fe  Fe5  1  0.87355059  0.37482224  0.87722214  1
  Fe  Fe6  1  0.49754390  0.25368727  0.74782212  1
  Fe  Fe7  1  0.87707899  0.12439478  0.87709415  1
  Fe  Fe8  1  0.62404311  0.87549578  0.87360012  1
  Fe  Fe9  1  0.00152880  0.74829006  0.49975229  1
  Fe  Fe10  1  0.87363752  0.87476524  0.62167492  1
  Fe  Fe11  1  0.75294207  0.50041021  0.25087379  1
  Fe  Fe12  1  -0.00110981  0.49855557  0.00138687  1
  Fe  Fe13  1  0.12340106  0.62468960  0.12874839  1
  Fe  Fe14  1  0.50086759  0.24961205  0.25187841  1
  Fe  Fe15  1  0.24892306  0.00119222  0.00034328  1
  Fe  Fe16  1  0.87781473  0.12703875  0.62157491  1
  Fe  Fe17  1  0.12677219  0.87675328  0.62413517  1
  Fe  Fe18  1  0.37560599  0.37456235  0.12429641  1
  Fe  Fe19  1  0.25108667  0.74773120  0.00222182  1
  Fe  Fe20  1  0.37365671  0.37640129  0.61969758  1
  Fe  Fe21  1  0.25038518  0.00207129  0.74725297  1
  Fe  Fe22  1  0.74928310  0.74829097  -0.00096523  1
  Fe  Fe23  1  0.37520635  0.37133244  0.37956544  1
  Fe  Fe24  1  -0.00080194  0.74960531  0.74812494  1
  Fe  Fe25  1  0.25360742  -0.00015374  0.25547487  1
  Fe  Fe26  1  0.12300220  0.62476423  0.87378010  1
  Fe  Fe27  1  -0.00199621  0.25247760  0.25026521  1
  Fe  Fe28  1  0.49798686  0.49958890  0.25293065  1
  Fe  Fe29  1  0.12394948  0.12649852  0.87404772  1
  Fe  Fe30  1  0.62558592  0.37708219  0.37553884  1
  Fe  Fe31  1  0.49681461  -0.00107055  0.74683436  1
  Fe  Fe32  1  0.11946011  0.62085155  0.37199681  1
  Fe  Fe33  1  0.25563204  0.49945210  0.75269117  1
  Fe  Fe34  1  0.00000838  -0.00087038  0.74980533  1
  Fe  Fe35  1  0.50342690  0.00114967  0.00053930  1
  Fe  Fe36  1  0.62456225  0.37990887  0.62338765  1
  Fe  Fe37  1  0.12649746  0.37429816  0.87375052  1
  Fe  Fe38  1  0.75128853  0.24705119  0.25212765  1
  Fe  Fe39  1  0.87417428  0.62394108  0.62313947  1
  Fe  Fe40  1  0.50396315  0.74515473  0.50119190  1
  Fe  Fe41  1  0.75107702  0.50121928  0.75225850  1
  Fe  Fe42  1  0.62563340  0.37525375  0.12642216  1
  Fe  Fe43  1  0.87338980  0.87842775  0.12319442  1
  Fe  Fe44  1  -0.00286331  -0.00129360  0.25218378  1
  Fe  Fe45  1  0.37851477  0.62684609  0.87588081  1
  Fe  Fe46  1  0.87481908  0.87601021  0.87670861  1
  Fe  Fe47  1  0.00041997  0.75094469  0.00085580  1
  Fe  Fe48  1  0.49663247  -0.00110476  0.25419541  1
  Fe  Fe49  1  0.12618034  0.61909138  0.62450477  1
  Fe  Fe50  1  0.75296440  0.75199221  0.25454556  1
  Fe  Fe51  1  0.87579339  0.62579031  0.12575387  1
  Fe  Fe52  1  0.75082522  0.74894992  0.74987451  1
  Fe  Fe53  1  0.75135961  0.00115806  0.74887982  1
  Fe  Fe54  1  0.62388198  0.12413961  0.62614453  1
  Fe  Fe55  1  0.37221512  0.87159130  0.61956565  1
  Fe  Fe56  1  0.00100913  0.25334268  0.74708331  1
  Fe  Fe57  1  0.74626981  0.24545179  -0.00017013  1
  Fe  Fe58  1  0.50240279  0.24821021  0.00158437  1
  Fe  Fe59  1  0.12593721  0.37528647  0.12660006  1
  Fe  Fe60  1  0.50043916  0.74785223  0.74547641  1
  Fe  Fe61  1  0.74782490  0.24894609  0.49962722  1
  Fe  Fe62  1  0.87539913  0.12246357  0.12285487  1
  Fe  Fe63  1  0.49908037  0.75075104  0.25030707  1
  Fe  Fe64  1  -0.00376719  0.49826794  0.74835563  1
  Fe  Fe65  1  0.37438463  0.87379210  0.12496203  1
  Fe  Fe66  1  0.74875898  0.74760353  0.49634931  1
  Fe  Fe67  1  0.62354278  0.62477290  0.87394691  1
  Fe  Fe68  1  0.37624274  0.12629592  0.87483799  1
  Fe  Fe69  1  0.87203980  0.37332619  0.12303441  1
  Fe  Fe70  1  0.12636846  0.87387057  0.87444787  1
  Fe  Fe71  1  0.25288741  0.50085156  0.25099778  1
  Fe  Fe72  1  0.00485117  0.25953207  0.50202777  1
  Fe  Fe73  1  0.24954310  0.24952080  0.00012048  1
  Fe  Fe74  1  0.37142940  0.12880783  0.61894293  1
  Fe  Fe75  1  0.62708810  0.87712037  0.12754322  1
  Fe  Fe76  1  0.37531268  0.87377129  0.87556274  1
  Fe  Fe77  1  0.25000409  0.74878799  0.74728877  1
  Fe  Fe78  1  0.37410344  0.62827110  0.37680333  1
  Fe  Fe79  1  0.12660193  0.87248918  0.37403387  1
  Fe  Fe80  1  0.12430837  0.12699683  0.37621038  1
  Fe  Fe81  1  0.12693463  0.87443656  0.12730854  1
  Fe  Fe82  1  0.62420518  0.62488395  0.12755648  1
  Fe  Fe83  1  0.25027271  0.25035971  0.25191486  1
  Fe  Fe84  1  0.62687954  0.87573700  0.62222496  1
  Fe  Fe85  1  0.00067449  -0.00054685  0.49907724  1
  Fe  Fe86  1  0.62491680  0.12198693  0.37409862  1
  Fe  Fe87  1  0.49804044  0.00056895  0.49826634  1
  Fe  Fe88  1  0.37594101  0.12542387  0.12692364  1
  Fe  Fe89  1  0.50098447  0.50022133  0.00063432  1
  Co  Co90  1  0.37485997  0.86883211  0.37913441  1
  Co  Co91  1  0.75478100  0.00068749  0.25479390  1
  Co  Co92  1  0.37221828  0.62387161  0.62309300  1
  Co  Co93  1  0.25147582  0.24870857  0.74845713  1
  Co  Co94  1  0.13133005  0.38061757  0.63039524  1
  Co  Co95  1  0.00097199  0.25170438  0.00097729  1
  Co  Co96  1  0.24396851  0.74639317  0.49982197  1
  Co  Co97  1  0.12391838  0.37909094  0.36943249  1
  Co  Co98  1  0.88050468  0.62348849  0.37490203  1
  Co  Co99  1  0.50158904  0.75044141  0.00204522  1
  Co  Co100  1  -0.00253225  0.75391664  0.24997095  1
  Co  Co101  1  0.87441672  0.87480423  0.37925407  1
  Co  Co102  1  0.62127412  0.12540685  0.86915213  1
  Co  Co103  1  0.50535567  0.25008248  0.50000741  1
  Co  Co104  1  0.74905662  0.50199922  0.00072972  1
  Co  Co105  1  0.25054029  0.74782894  0.24992900  1
  Co  Co106  1  0.87708673  0.62475387  0.87496507  1
  Co  Co107  1  0.62849778  0.62131433  0.62634861  1
  Co  Co108  1  0.49978255  0.50386188  0.49889025  1
  Co  Co109  1  0.37391084  0.13014365  0.37827421  1
  Co  Co110  1  0.74998663  0.00302748  0.49964163  1
  Co  Co111  1  -0.00036806  0.49421400  0.50256267  1
  Co  Co112  1  0.86972868  0.37529849  0.62406710  1
  Co  Co113  1  0.25042122  -0.00009624  0.49680815  1
  Co  Co114  1  0.37716465  0.62412384  0.12518038  1
  Co  Co115  1  0.62462083  0.12299803  0.13123972  1
  Co  Co116  1  0.12344404  0.12415461  0.62346556  1
  Co  Co117  1  0.24208815  0.25361287  0.49946321  1
  Co  Co118  1  0.24942325  0.49938276  0.49493953  1
  Co  Co119  1  0.37578859  0.37366661  0.87815765  1
  Co  Co120  1  0.87862263  0.12880860  0.38008863  1
  Co  Co121  1  -0.00492233  0.49553786  0.24636443  1
  Co  Co122  1  0.74529970  0.00334064  -0.00203789  1
  Co  Co123  1  0.62528236  0.62408709  0.37100385  1
  Co  Co124  1  0.62423402  0.87652312  0.37614645  1
  Co  Co125  1  0.49784095  0.49933287  0.74868083  1
  Co  Co126  1  0.00329486  -0.00182806  0.00004154  1
  Co  Co127  1  0.87355757  0.37468436  0.37545430  1
