# generated using pymatgen
data_Fe45Co19
_symmetry_space_group_name_H-M   'P 1'
_cell_length_a   11.41460567
_cell_length_b   11.41415561
_cell_length_c   11.41459889
_cell_angle_alpha   90.00256371
_cell_angle_beta   89.99605979
_cell_angle_gamma   90.00493402
_symmetry_Int_Tables_number   1
_chemical_formula_structural   Fe45Co19
_chemical_formula_sum   'Fe90 Co38'
_cell_volume   1487.18622312
_cell_formula_units_Z   2
loop_
 _symmetry_equiv_pos_site_id
 _symmetry_equiv_pos_as_xyz
  1  'x, y, z'
loop_
 _atom_site_type_symbol
 _atom_site_label
 _atom_site_symmetry_multiplicity
 _atom_site_fract_x
 _atom_site_fract_y
 _atom_site_fract_z
 _atom_site_occupancy
  Fe  Fe0  1  0.24942474  -0.00091129  0.00053665  1
  Fe  Fe1  1  0.50362138  0.50108360  0.50169695  1
  Fe  Fe2  1  0.74920990  -0.00057086  -0.00072624  1
  Fe  Fe3  1  0.50103053  0.00200337  -0.00102676  1
  Fe  Fe4  1  0.12491212  0.12317225  0.62339174  1
  Fe  Fe5  1  0.75249656  0.50369450  0.25332897  1
  Fe  Fe6  1  0.49830181  0.49750985  0.24676091  1
  Fe  Fe7  1  0.86948032  0.62808786  0.62040377  1
  Fe  Fe8  1  0.37498286  0.12439521  0.37782939  1
  Fe  Fe9  1  0.12366946  0.87502240  0.62483412  1
  Fe  Fe10  1  0.12354053  0.87376187  0.87383456  1
  Fe  Fe11  1  0.12313934  0.37615236  0.87378935  1
  Fe  Fe12  1  0.62579491  0.37252545  0.87357724  1
  Fe  Fe13  1  0.50291728  0.50205760  0.74913844  1
  Fe  Fe14  1  0.12364213  0.37551284  0.37254568  1
  Fe  Fe15  1  0.37601653  0.12641067  0.12454481  1
  Fe  Fe16  1  0.12451490  0.62674584  0.87354747  1
  Fe  Fe17  1  0.12549980  0.37362119  0.12790621  1
  Fe  Fe18  1  0.50111170  0.25065656  0.24725974  1
  Fe  Fe19  1  0.37581196  0.87471299  0.12589915  1
  Fe  Fe20  1  0.75347486  0.24933277  0.74852811  1
  Fe  Fe21  1  0.37954531  0.62610207  0.37377825  1
  Fe  Fe22  1  0.62675005  0.12504813  0.87440513  1
  Fe  Fe23  1  0.37908986  0.87649149  0.87333491  1
  Fe  Fe24  1  0.12218456  0.87426820  0.37300703  1
  Fe  Fe25  1  0.87605466  0.87468964  0.12543834  1
  Fe  Fe26  1  -0.00140958  0.49896097  0.50114072  1
  Fe  Fe27  1  0.12547697  0.12313780  0.87328846  1
  Fe  Fe28  1  -0.00344518  -0.00159192  0.74857614  1
  Fe  Fe29  1  -0.00243672  -0.00176742  0.49864712  1
  Fe  Fe30  1  0.75167903  0.25198498  0.50220115  1
  Fe  Fe31  1  0.75120904  0.24690377  0.24578693  1
  Fe  Fe32  1  0.12247039  0.62416600  0.37495203  1
  Fe  Fe33  1  0.12281206  0.87402064  0.12782088  1
  Fe  Fe34  1  0.25099985  0.49953997  0.49776774  1
  Fe  Fe35  1  0.50039967  0.75034711  0.00191456  1
  Fe  Fe36  1  0.00139230  -0.00096784  0.00136860  1
  Fe  Fe37  1  0.24970095  0.00074377  0.25123720  1
  Fe  Fe38  1  0.37402095  0.62444339  0.62516765  1
  Fe  Fe39  1  -0.00378676  0.24672735  0.25032870  1
  Fe  Fe40  1  0.24936562  0.25085942  0.49888000  1
  Fe  Fe41  1  0.25056165  0.75201160  0.50011984  1
  Fe  Fe42  1  0.50118565  0.49825878  0.00257244  1
  Fe  Fe43  1  0.24916544  0.24913496  -0.00106426  1
  Fe  Fe44  1  0.50259655  0.24773249  0.50080232  1
  Fe  Fe45  1  0.24967803  0.75038390  -0.00022918  1
  Fe  Fe46  1  -0.00379875  0.75043558  0.74938011  1
  Fe  Fe47  1  0.74792812  -0.00403025  0.50407718  1
  Fe  Fe48  1  0.49723033  0.24469024  0.74821871  1
  Fe  Fe49  1  -0.00223795  0.24947541  -0.00078521  1
  Fe  Fe50  1  0.25003235  0.50089557  0.00110384  1
  Fe  Fe51  1  0.25308474  0.75282228  0.74856297  1
  Fe  Fe52  1  0.38224153  0.87974855  0.62241564  1
  Fe  Fe53  1  0.75064530  0.74795562  0.25479328  1
  Fe  Fe54  1  -0.00446871  0.74672710  0.25117544  1
  Fe  Fe55  1  0.62525133  0.62861458  0.87342428  1
  Fe  Fe56  1  0.37725135  0.37332250  0.87691240  1
  Fe  Fe57  1  0.37839290  0.87542964  0.37776568  1
  Fe  Fe58  1  -0.00343454  0.25004952  0.50163256  1
  Fe  Fe59  1  0.12368328  0.12376914  0.37523044  1
  Fe  Fe60  1  -0.00055754  0.50146429  0.00236730  1
  Fe  Fe61  1  0.25347938  0.49827876  0.25016022  1
  Fe  Fe62  1  0.37568432  0.62481860  0.87563682  1
  Fe  Fe63  1  0.87341499  0.12205953  0.87467366  1
  Fe  Fe64  1  0.87445369  0.37599515  0.37505608  1
  Fe  Fe65  1  0.62519469  0.62550030  0.12713226  1
  Fe  Fe66  1  0.87351091  0.37569354  0.87442942  1
  Fe  Fe67  1  0.62745713  0.37447609  0.62756179  1
  Fe  Fe68  1  0.25139868  0.24872913  0.74849591  1
  Fe  Fe69  1  -0.00341752  0.50195010  0.74813050  1
  Fe  Fe70  1  0.62540851  0.87597247  0.12600588  1
  Fe  Fe71  1  0.74850016  0.49994788  -0.00174473  1
  Fe  Fe72  1  0.25314553  0.00092151  0.74901710  1
  Fe  Fe73  1  0.63091140  0.63057496  0.62509546  1
  Fe  Fe74  1  0.87221823  0.37572983  0.12396181  1
  Fe  Fe75  1  0.62259620  0.87389462  0.37601296  1
  Fe  Fe76  1  0.75230066  0.00050732  0.25017206  1
  Fe  Fe77  1  0.25244615  0.75015973  0.25111896  1
  Fe  Fe78  1  0.37594260  0.37497684  0.62326633  1
  Fe  Fe79  1  0.74956084  0.75294744  -0.00173899  1
  Fe  Fe80  1  0.87418489  0.62741287  0.87677378  1
  Fe  Fe81  1  0.25052570  0.49846477  0.75106635  1
  Fe  Fe82  1  0.62517078  0.37572902  0.37320469  1
  Fe  Fe83  1  0.12400089  0.12553503  0.12686989  1
  Fe  Fe84  1  -0.00189820  0.24947818  0.74804298  1
  Fe  Fe85  1  0.12602448  0.62610975  0.62498401  1
  Fe  Fe86  1  0.50087276  0.00078486  0.25150801  1
  Fe  Fe87  1  0.12471807  0.37560376  0.62585721  1
  Fe  Fe88  1  0.62930934  0.12617320  0.37450408  1
  Fe  Fe89  1  0.12480419  0.62543069  0.12674857  1
  Co  Co90  1  0.87719529  0.87679726  0.87806304  1
  Co  Co91  1  -0.00345669  0.50086731  0.24793820  1
  Co  Co92  1  0.87336887  0.12160665  0.62446889  1
  Co  Co93  1  0.50161719  0.75301424  0.24891077  1
  Co  Co94  1  0.87524723  0.12245843  0.12235226  1
  Co  Co95  1  0.50669204  0.00456027  0.49912631  1
  Co  Co96  1  0.37473739  0.12569093  0.87786134  1
  Co  Co97  1  0.74956668  0.50211057  0.75134563  1
  Co  Co98  1  0.62978845  0.12613282  0.62598101  1
  Co  Co99  1  0.00094036  0.74985042  0.00100426  1
  Co  Co100  1  -0.00225237  0.00241958  0.25108278  1
  Co  Co101  1  0.87573974  0.87574670  0.37468753  1
  Co  Co102  1  0.50207312  0.00646604  0.74888723  1
  Co  Co103  1  0.87394929  0.87209139  0.62198041  1
  Co  Co104  1  0.74702852  0.75309584  0.49376296  1
  Co  Co105  1  0.74862450  -0.00616357  0.74858963  1
  Co  Co106  1  0.49843336  0.74718525  0.74926992  1
  Co  Co107  1  0.61994226  0.87556386  0.87313048  1
  Co  Co108  1  0.62032383  0.87126262  0.62718538  1
  Co  Co109  1  0.75195630  0.75654954  0.75347452  1
  Co  Co110  1  0.37590548  0.62677363  0.12553257  1
  Co  Co111  1  0.87659337  0.62393318  0.38181676  1
  Co  Co112  1  0.37798500  0.37436579  0.37691042  1
  Co  Co113  1  0.74644282  0.49859267  0.49805914  1
  Co  Co114  1  0.87138604  0.12369916  0.37868246  1
  Co  Co115  1  0.62084998  0.62392161  0.37281577  1
  Co  Co116  1  0.50110678  0.74719379  0.50107423  1
  Co  Co117  1  0.00167449  0.75121156  0.49980434  1
  Co  Co118  1  0.87251168  0.37795024  0.62580887  1
  Co  Co119  1  0.25103952  0.24836165  0.25319104  1
  Co  Co120  1  0.74891196  0.24855326  0.00208091  1
  Co  Co121  1  0.62948939  0.37749133  0.12644786  1
  Co  Co122  1  0.24704847  -0.00353962  0.49756168  1
  Co  Co123  1  0.37261046  0.12197167  0.61939538  1
  Co  Co124  1  0.50513641  0.25048449  0.00314584  1
  Co  Co125  1  0.87172934  0.62689142  0.12288868  1
  Co  Co126  1  0.37258392  0.37154910  0.12278851  1
  Co  Co127  1  0.62446234  0.12145698  0.12577234  1
