# generated using pymatgen
data_Fe45Co19
_symmetry_space_group_name_H-M   'P 1'
_cell_length_a   11.41496991
_cell_length_b   11.41518968
_cell_length_c   11.41461767
_cell_angle_alpha   90.00893128
_cell_angle_beta   89.99085331
_cell_angle_gamma   89.99725428
_symmetry_Int_Tables_number   1
_chemical_formula_structural   Fe45Co19
_chemical_formula_sum   'Fe90 Co38'
_cell_volume   1487.37083574
_cell_formula_units_Z   2
loop_
 _symmetry_equiv_pos_site_id
 _symmetry_equiv_pos_as_xyz
  1  'x, y, z'
loop_
 _atom_site_type_symbol
 _atom_site_label
 _atom_site_symmetry_multiplicity
 _atom_site_fract_x
 _atom_site_fract_y
 _atom_site_fract_z
 _atom_site_occupancy
  Fe  Fe0  1  -0.00073580  0.50194075  0.50295039  1
  Fe  Fe1  1  0.75110149  0.50180219  -0.00219667  1
  Fe  Fe2  1  0.25101052  0.49664793  0.75230240  1
  Fe  Fe3  1  0.62579687  0.62590903  0.12494388  1
  Fe  Fe4  1  0.62230291  0.37417590  0.87936248  1
  Fe  Fe5  1  0.37615190  0.87444671  0.62523648  1
  Fe  Fe6  1  0.37488135  0.62636009  0.37327311  1
  Fe  Fe7  1  0.74977948  0.00200731  0.50092922  1
  Fe  Fe8  1  0.87557933  0.12426777  0.62734429  1
  Fe  Fe9  1  0.37674238  0.12917666  0.62712335  1
  Fe  Fe10  1  0.25254041  0.74998200  0.49999988  1
  Fe  Fe11  1  0.62198253  0.12681699  0.62738267  1
  Fe  Fe12  1  0.12610876  0.37406112  0.62410682  1
  Fe  Fe13  1  0.62359202  0.12426509  0.87327135  1
  Fe  Fe14  1  0.12167922  0.87698469  0.12109897  1
  Fe  Fe15  1  0.49934043  0.49901525  0.24673649  1
  Fe  Fe16  1  0.37046023  0.12712750  0.12463486  1
  Fe  Fe17  1  0.49982194  0.49306737  0.74860156  1
  Fe  Fe18  1  0.12591734  0.62653158  0.62847394  1
  Fe  Fe19  1  0.25350690  -0.00226586  0.75080942  1
  Fe  Fe20  1  0.74879391  0.25228686  0.75117768  1
  Fe  Fe21  1  0.62345714  0.87438685  0.37742372  1
  Fe  Fe22  1  0.62611108  0.37510928  0.12255060  1
  Fe  Fe23  1  0.37620999  0.12780345  0.87486118  1
  Fe  Fe24  1  0.00262124  0.24851666  0.24486095  1
  Fe  Fe25  1  0.24873396  0.50090013  0.49989646  1
  Fe  Fe26  1  -0.00132978  0.50091762  0.24850586  1
  Fe  Fe27  1  0.00070830  -0.00258674  0.74808211  1
  Fe  Fe28  1  0.75214652  0.50030159  0.25119920  1
  Fe  Fe29  1  0.62794578  0.12307669  0.12575274  1
  Fe  Fe30  1  0.24970713  0.49845215  0.24853044  1
  Fe  Fe31  1  0.75080103  0.24771032  0.49938231  1
  Fe  Fe32  1  0.00016725  0.25037072  0.75064106  1
  Fe  Fe33  1  0.62414794  0.62374402  0.87208713  1
  Fe  Fe34  1  0.62414282  0.62574922  0.37515507  1
  Fe  Fe35  1  0.37572392  0.37467453  0.37643285  1
  Fe  Fe36  1  0.12144912  0.37476969  0.88048694  1
  Fe  Fe37  1  0.12318057  0.87670184  0.87592463  1
  Fe  Fe38  1  -0.00072840  0.74991586  0.50543964  1
  Fe  Fe39  1  0.75069370  0.50222542  0.50116928  1
  Fe  Fe40  1  0.37517333  0.12504660  0.37232914  1
  Fe  Fe41  1  0.87270294  0.62498883  0.63247275  1
  Fe  Fe42  1  0.75306951  -0.00293877  0.25082360  1
  Fe  Fe43  1  0.87351089  0.62670436  0.12438649  1
  Fe  Fe44  1  0.87773500  0.12573920  0.37307367  1
  Fe  Fe45  1  0.87743498  0.87784086  0.87791207  1
  Fe  Fe46  1  0.87661020  0.62501960  0.87006359  1
  Fe  Fe47  1  0.87904360  0.37391979  0.87831194  1
  Fe  Fe48  1  0.74819818  -0.00319463  0.74862623  1
  Fe  Fe49  1  0.24966011  -0.00421964  0.25127835  1
  Fe  Fe50  1  0.49962788  0.25011105  0.24779977  1
  Fe  Fe51  1  0.12267588  0.37505917  0.37519813  1
  Fe  Fe52  1  0.50092913  0.50050314  0.50328664  1
  Fe  Fe53  1  0.37247334  0.87178752  0.12029979  1
  Fe  Fe54  1  0.49816365  -0.00225347  0.24785224  1
  Fe  Fe55  1  0.87418689  0.37484241  0.62535505  1
  Fe  Fe56  1  0.62520695  0.37500675  0.37603363  1
  Fe  Fe57  1  0.12417964  0.62657407  0.37403354  1
  Fe  Fe58  1  0.25230217  0.25432808  0.75353179  1
  Fe  Fe59  1  0.50123059  0.75306364  0.74951309  1
  Fe  Fe60  1  0.87758707  0.37334332  0.12074485  1
  Fe  Fe61  1  0.74996532  0.75067796  -0.00292654  1
  Fe  Fe62  1  0.37769720  0.62592389  0.87601825  1
  Fe  Fe63  1  0.00148432  0.00054804  0.50163381  1
  Fe  Fe64  1  0.62364859  0.12478684  0.37259855  1
  Fe  Fe65  1  0.37295123  0.37198395  0.11935741  1
  Fe  Fe66  1  0.37508945  0.62407354  0.62748499  1
  Fe  Fe67  1  0.75094051  0.25037399  0.24914311  1
  Fe  Fe68  1  0.62249687  0.87752942  0.87542017  1
  Fe  Fe69  1  0.12676602  0.12544309  0.62785275  1
  Fe  Fe70  1  0.62750879  0.87515984  0.12326230  1
  Fe  Fe71  1  0.49894671  0.00051417  0.50041728  1
  Fe  Fe72  1  0.12128134  0.62533599  0.87301094  1
  Fe  Fe73  1  0.75264475  0.24441023  -0.00091002  1
  Fe  Fe74  1  0.25068022  0.00065688  0.50089309  1
  Fe  Fe75  1  0.74836560  0.74866667  0.50482519  1
  Fe  Fe76  1  0.24888880  0.00151338  -0.00356014  1
  Fe  Fe77  1  0.87560492  0.87329577  0.37843240  1
  Fe  Fe78  1  0.24992354  0.75215925  0.75294743  1
  Fe  Fe79  1  0.12539331  0.87328676  0.37714149  1
  Fe  Fe80  1  0.37427154  0.62895621  0.12243814  1
  Fe  Fe81  1  0.49829249  0.75225959  0.24986935  1
  Fe  Fe82  1  0.12447858  0.12520019  0.37242048  1
  Fe  Fe83  1  0.24927615  0.24874932  0.49778453  1
  Fe  Fe84  1  0.24970807  0.50219193  -0.00108593  1
  Fe  Fe85  1  -0.00142743  0.75207649  0.24819166  1
  Fe  Fe86  1  0.75210718  0.75155665  0.25053222  1
  Fe  Fe87  1  0.12523563  0.62565939  0.12536190  1
  Fe  Fe88  1  0.87729673  0.37435508  0.37587047  1
  Fe  Fe89  1  0.49941617  0.00086459  0.00017639  1
  Co  Co90  1  -0.00078757  -0.00228439  0.25177617  1
  Co  Co91  1  0.00179796  0.23949438  0.00083986  1
  Co  Co92  1  0.62242964  0.87617205  0.62350766  1
  Co  Co93  1  0.37590638  0.87325979  0.87735228  1
  Co  Co94  1  0.12908302  0.87525367  0.62522941  1
  Co  Co95  1  0.12970405  0.12152171  0.12912116  1
  Co  Co96  1  0.87337266  0.12275415  0.86941003  1
  Co  Co97  1  0.50202837  0.24517589  0.00204493  1
  Co  Co98  1  0.74961528  0.00124094  -0.00177011  1
  Co  Co99  1  0.00013743  0.75443028  0.74915646  1
  Co  Co100  1  0.50341917  0.75058296  -0.00047993  1
  Co  Co101  1  0.12697197  0.12310895  0.86790639  1
  Co  Co102  1  0.00140721  0.49721080  0.74848426  1
  Co  Co103  1  0.87362253  0.87652626  0.62405139  1
  Co  Co104  1  0.49768269  -0.00055167  0.75086490  1
  Co  Co105  1  0.37231583  0.37392499  0.62180331  1
  Co  Co106  1  0.12416742  0.37578160  0.12034039  1
  Co  Co107  1  -0.00118798  0.50404960  0.00094243  1
  Co  Co108  1  0.87284541  0.12093643  0.12749811  1
  Co  Co109  1  0.49954367  0.25530203  0.75081794  1
  Co  Co110  1  0.37697151  0.37416545  0.88235098  1
  Co  Co111  1  0.24912261  0.25359664  0.25126822  1
  Co  Co112  1  0.74911966  0.75570476  0.75186989  1
  Co  Co113  1  0.24597364  0.74865003  -0.00331137  1
  Co  Co114  1  0.87671561  0.87758555  0.12024324  1
  Co  Co115  1  0.00123506  0.00964539  -0.00185281  1
  Co  Co116  1  -0.00068714  0.74753301  -0.00052304  1
  Co  Co117  1  0.00067433  0.24810921  0.50220226  1
  Co  Co118  1  0.74852856  0.49463177  0.75286367  1
  Co  Co119  1  0.24392325  0.24697195  -0.00245841  1
  Co  Co120  1  0.62591586  0.62456962  0.62999006  1
  Co  Co121  1  0.87570207  0.62684716  0.37579525  1
  Co  Co122  1  0.62700013  0.37329843  0.62171285  1
  Co  Co123  1  0.49851184  0.74885329  0.50092308  1
  Co  Co124  1  0.37492682  0.87527081  0.37598745  1
  Co  Co125  1  0.50046807  0.50279577  0.00249239  1
  Co  Co126  1  0.24867030  0.75203084  0.24919074  1
  Co  Co127  1  0.50027477  0.24902269  0.49888570  1
