# generated using pymatgen
data_Fe45Co19
_symmetry_space_group_name_H-M   'P 1'
_cell_length_a   11.41565644
_cell_length_b   11.41517484
_cell_length_c   11.41612720
_cell_angle_alpha   89.99958989
_cell_angle_beta   89.99868096
_cell_angle_gamma   90.00293671
_symmetry_Int_Tables_number   1
_chemical_formula_structural   Fe45Co19
_chemical_formula_sum   'Fe90 Co38'
_cell_volume   1487.65510259
_cell_formula_units_Z   2
loop_
 _symmetry_equiv_pos_site_id
 _symmetry_equiv_pos_as_xyz
  1  'x, y, z'
loop_
 _atom_site_type_symbol
 _atom_site_label
 _atom_site_symmetry_multiplicity
 _atom_site_fract_x
 _atom_site_fract_y
 _atom_site_fract_z
 _atom_site_occupancy
  Fe  Fe0  1  -0.00225324  0.50106433  0.00048880  1
  Fe  Fe1  1  0.62525521  0.87493065  0.37676531  1
  Fe  Fe2  1  0.12420912  0.37340414  0.62389657  1
  Fe  Fe3  1  0.87818824  0.62430639  0.37235844  1
  Fe  Fe4  1  0.87665505  0.87810847  0.62848043  1
  Fe  Fe5  1  0.37156004  0.86844314  0.12540308  1
  Fe  Fe6  1  0.25168075  0.50248793  -0.00208480  1
  Fe  Fe7  1  0.37544455  0.37522920  0.37559556  1
  Fe  Fe8  1  0.24819487  0.24860898  0.25163152  1
  Fe  Fe9  1  0.62591456  0.62579040  0.12476974  1
  Fe  Fe10  1  0.12250280  0.62358624  0.87285163  1
  Fe  Fe11  1  0.87524072  0.37346514  0.12607082  1
  Fe  Fe12  1  0.24885478  0.50358951  0.49787981  1
  Fe  Fe13  1  0.00028993  0.00474563  0.00055499  1
  Fe  Fe14  1  0.75286750  0.50028960  0.00027704  1
  Fe  Fe15  1  0.24842406  -0.00001539  0.75045529  1
  Fe  Fe16  1  0.62557790  0.87504610  0.12201584  1
  Fe  Fe17  1  0.00183484  0.00169395  0.24805688  1
  Fe  Fe18  1  0.25266687  -0.00134797  0.49872277  1
  Fe  Fe19  1  0.12709971  0.37674175  0.12499742  1
  Fe  Fe20  1  0.24740721  0.25018569  0.75209316  1
  Fe  Fe21  1  0.37365831  0.37454667  0.62379869  1
  Fe  Fe22  1  0.62247341  0.12232939  0.37855189  1
  Fe  Fe23  1  0.50021269  0.25078805  0.74753181  1
  Fe  Fe24  1  0.62496632  0.62623927  0.37780216  1
  Fe  Fe25  1  0.12278659  0.37574958  0.37524080  1
  Fe  Fe26  1  0.75557793  0.75253577  0.49869472  1
  Fe  Fe27  1  0.49991619  -0.00123141  0.75051644  1
  Fe  Fe28  1  0.24816775  -0.00136964  0.25061220  1
  Fe  Fe29  1  0.37470100  0.12429136  0.62260243  1
  Fe  Fe30  1  0.50110705  0.75094315  0.74923444  1
  Fe  Fe31  1  0.49862926  0.00054088  -0.00064174  1
  Fe  Fe32  1  0.49827016  0.75316424  0.50360121  1
  Fe  Fe33  1  0.49944223  0.50320028  0.25000565  1
  Fe  Fe34  1  0.25010460  0.24824027  0.49721507  1
  Fe  Fe35  1  0.62442565  0.37518527  0.12492564  1
  Fe  Fe36  1  0.74895074  0.24737509  0.00040615  1
  Fe  Fe37  1  0.12684353  0.87311424  0.12223405  1
  Fe  Fe38  1  0.37235521  0.12558153  0.87604926  1
  Fe  Fe39  1  0.49927159  -0.00174005  0.24973352  1
  Fe  Fe40  1  0.75314850  0.75317718  0.75388063  1
  Fe  Fe41  1  0.75112993  0.50021280  0.24932771  1
  Fe  Fe42  1  0.74985167  0.25039964  0.74796729  1
  Fe  Fe43  1  0.75139666  0.49603481  0.74828082  1
  Fe  Fe44  1  0.37444845  0.37602404  0.87454927  1
  Fe  Fe45  1  0.74987841  0.25144764  0.50244983  1
  Fe  Fe46  1  0.74953171  0.00060915  0.25007637  1
  Fe  Fe47  1  0.24696826  0.49883983  0.74985096  1
  Fe  Fe48  1  0.74876909  0.00333740  -0.00237960  1
  Fe  Fe49  1  0.87438400  0.87647016  0.12389449  1
  Fe  Fe50  1  0.49919486  0.24890170  0.00129153  1
  Fe  Fe51  1  -0.00151170  0.50022282  0.50209716  1
  Fe  Fe52  1  0.62416135  0.37401662  0.87519640  1
  Fe  Fe53  1  0.12494412  0.62556672  0.12546933  1
  Fe  Fe54  1  0.62858397  0.62550084  0.62426604  1
  Fe  Fe55  1  0.62575773  0.37666240  0.37727640  1
  Fe  Fe56  1  -0.00005337  0.24650482  0.50157147  1
  Fe  Fe57  1  0.12234168  0.87771300  0.87543391  1
  Fe  Fe58  1  0.00239104  0.24779006  0.24815349  1
  Fe  Fe59  1  0.75084288  0.75149388  0.25044265  1
  Fe  Fe60  1  0.24755730  0.75089359  0.75081112  1
  Fe  Fe61  1  0.87919208  0.37364784  0.87259156  1
  Fe  Fe62  1  0.75398383  0.74926733  -0.00314692  1
  Fe  Fe63  1  0.49779518  0.50287843  -0.00018814  1
  Fe  Fe64  1  0.62718085  0.87699649  0.62485354  1
  Fe  Fe65  1  0.24920378  0.50590979  0.25435589  1
  Fe  Fe66  1  0.74866670  0.24787099  0.24934666  1
  Fe  Fe67  1  0.37346889  0.62622621  0.62613349  1
  Fe  Fe68  1  0.50113916  0.49937491  0.74873134  1
  Fe  Fe69  1  -0.00278424  0.74807096  -0.00315043  1
  Fe  Fe70  1  -0.00237759  0.00117723  0.50229240  1
  Fe  Fe71  1  0.75024158  0.00064341  0.75430027  1
  Fe  Fe72  1  0.37349280  0.37676055  0.12629219  1
  Fe  Fe73  1  0.00370500  0.24708206  0.00117838  1
  Fe  Fe74  1  0.00354402  0.24417913  0.74915325  1
  Fe  Fe75  1  0.49842496  0.74719906  -0.00131618  1
  Fe  Fe76  1  0.12283128  0.87288960  0.37872181  1
  Fe  Fe77  1  0.87606338  0.37543664  0.37513175  1
  Fe  Fe78  1  0.62431124  0.12226601  0.62257971  1
  Fe  Fe79  1  0.87609816  0.62476120  0.62852333  1
  Fe  Fe80  1  0.12269450  0.62892429  0.62312842  1
  Fe  Fe81  1  0.50052458  0.24917758  0.25106364  1
  Fe  Fe82  1  0.87528150  0.12350336  0.37512837  1
  Fe  Fe83  1  0.37463863  0.87224700  0.87413324  1
  Fe  Fe84  1  0.12381673  0.87439686  0.62393764  1
  Fe  Fe85  1  0.50015276  0.49935005  0.50172557  1
  Fe  Fe86  1  0.37157927  0.12478600  0.12566689  1
  Fe  Fe87  1  0.62685910  0.62480117  0.87324872  1
  Fe  Fe88  1  0.00050419  0.75163726  0.24948347  1
  Fe  Fe89  1  0.37437407  0.87052068  0.37336564  1
  Co  Co90  1  0.25249776  -0.00358288  0.00038595  1
  Co  Co91  1  0.62375208  0.12656788  0.87347019  1
  Co  Co92  1  0.62331382  0.12384990  0.12546160  1
  Co  Co93  1  0.37274448  0.62850328  0.12744304  1
  Co  Co94  1  0.75287957  -0.00274926  0.49885841  1
  Co  Co95  1  0.87783706  0.87775220  0.37150876  1
  Co  Co96  1  0.00285197  0.49960354  0.74735495  1
  Co  Co97  1  0.12861161  0.12285517  0.87842783  1
  Co  Co98  1  0.50333658  0.75088684  0.24862004  1
  Co  Co99  1  0.87503345  0.62159864  0.87079583  1
  Co  Co100  1  0.00057984  0.49859520  0.24809028  1
  Co  Co101  1  0.12935297  0.12351612  0.62236337  1
  Co  Co102  1  0.87849862  0.88010783  0.87610672  1
  Co  Co103  1  0.37454451  0.62560047  0.86981965  1
  Co  Co104  1  0.37931163  0.62872697  0.37621740  1
  Co  Co105  1  0.11857157  0.62723407  0.37789894  1
  Co  Co106  1  0.24500633  0.74708435  0.25402884  1
  Co  Co107  1  0.62453267  0.37605549  0.62366845  1
  Co  Co108  1  0.37214582  0.87446343  0.62818531  1
  Co  Co109  1  0.12430446  0.12278333  0.37601081  1
  Co  Co110  1  0.75384927  0.49996003  0.50109596  1
  Co  Co111  1  0.49638438  -0.00409052  0.50041426  1
  Co  Co112  1  0.87547988  0.62679373  0.12798000  1
  Co  Co113  1  0.24819855  0.74774586  -0.00411918  1
  Co  Co114  1  0.50033396  0.25102582  0.50050256  1
  Co  Co115  1  0.12991569  0.12408531  0.12363915  1
  Co  Co116  1  0.24953319  0.25291321  -0.00068763  1
  Co  Co117  1  0.87418808  0.12454339  0.12578078  1
  Co  Co118  1  0.87198095  0.12329718  0.62534681  1
  Co  Co119  1  0.12249511  0.37565255  0.87547794  1
  Co  Co120  1  -0.00632074  0.75182987  0.50137811  1
  Co  Co121  1  0.87907610  0.37347568  0.62642195  1
  Co  Co122  1  0.87542589  0.12600531  0.87432913  1
  Co  Co123  1  -0.00083357  0.75193842  0.75215564  1
  Co  Co124  1  0.25131730  0.74895353  0.49930226  1
  Co  Co125  1  0.00260140  0.00442748  0.74829698  1
  Co  Co126  1  0.37551231  0.12435905  0.37474195  1
  Co  Co127  1  0.62335686  0.87399255  0.87665946  1
