# generated using pymatgen
data_Fe45Co19
_symmetry_space_group_name_H-M   'P 1'
_cell_length_a   11.41461364
_cell_length_b   11.41588145
_cell_length_c   11.41635572
_cell_angle_alpha   90.00612495
_cell_angle_beta   89.99988787
_cell_angle_gamma   90.00313043
_symmetry_Int_Tables_number   1
_chemical_formula_structural   Fe45Co19
_chemical_formula_sum   'Fe90 Co38'
_cell_volume   1487.64105707
_cell_formula_units_Z   2
loop_
 _symmetry_equiv_pos_site_id
 _symmetry_equiv_pos_as_xyz
  1  'x, y, z'
loop_
 _atom_site_type_symbol
 _atom_site_label
 _atom_site_symmetry_multiplicity
 _atom_site_fract_x
 _atom_site_fract_y
 _atom_site_fract_z
 _atom_site_occupancy
  Fe  Fe0  1  0.62708691  0.12469997  0.12016444  1
  Fe  Fe1  1  0.25611773  0.50085038  0.50310262  1
  Fe  Fe2  1  0.62196390  0.62202202  0.87691729  1
  Fe  Fe3  1  0.87387987  0.37343259  0.62478801  1
  Fe  Fe4  1  0.12363382  0.37895393  0.87448391  1
  Fe  Fe5  1  -0.00064061  0.74961019  0.74939692  1
  Fe  Fe6  1  0.75079580  0.00158511  0.75157788  1
  Fe  Fe7  1  0.49667881  0.50103808  0.74607787  1
  Fe  Fe8  1  -0.00126192  0.25027043  0.25078344  1
  Fe  Fe9  1  0.50117874  0.24883008  0.24935223  1
  Fe  Fe10  1  0.12819116  0.12691282  0.62436411  1
  Fe  Fe11  1  0.62551514  0.37536165  0.12499451  1
  Fe  Fe12  1  0.24942634  0.25069586  -0.00283977  1
  Fe  Fe13  1  0.25310796  0.50271378  0.24988325  1
  Fe  Fe14  1  -0.00022261  -0.00431833  0.50106569  1
  Fe  Fe15  1  0.87221067  0.12746201  0.12031649  1
  Fe  Fe16  1  0.74788393  0.74785041  0.25167449  1
  Fe  Fe17  1  0.87438017  0.87427172  0.87204551  1
  Fe  Fe18  1  0.37500807  0.37445726  0.12537115  1
  Fe  Fe19  1  0.87478574  0.12502731  0.62518685  1
  Fe  Fe20  1  0.75126388  0.50239353  0.74862314  1
  Fe  Fe21  1  0.87374765  0.62886716  0.62360433  1
  Fe  Fe22  1  0.37703342  0.87548991  0.37629813  1
  Fe  Fe23  1  0.25203676  0.50167980  0.00062010  1
  Fe  Fe24  1  0.12454190  0.37506119  0.37730898  1
  Fe  Fe25  1  0.37569073  0.87225161  0.12355364  1
  Fe  Fe26  1  0.61970135  0.62102357  0.37736068  1
  Fe  Fe27  1  0.74936698  0.49836153  0.25207113  1
  Fe  Fe28  1  0.74977849  0.00094209  0.24809102  1
  Fe  Fe29  1  0.74767810  0.49741655  0.50041965  1
  Fe  Fe30  1  0.74961783  0.25115976  0.49793634  1
  Fe  Fe31  1  0.87702380  0.37695271  0.87359411  1
  Fe  Fe32  1  0.37725694  0.12169749  0.37440305  1
  Fe  Fe33  1  -0.00089338  0.49886183  0.50304365  1
  Fe  Fe34  1  0.37535233  0.12699778  0.12227186  1
  Fe  Fe35  1  0.00042812  -0.00010021  0.74821822  1
  Fe  Fe36  1  0.25155321  0.74802716  0.25269131  1
  Fe  Fe37  1  0.00143010  0.25038032  0.74912932  1
  Fe  Fe38  1  0.62450084  0.37294233  0.62633658  1
  Fe  Fe39  1  0.87740476  0.87141426  0.12965805  1
  Fe  Fe40  1  0.24953918  -0.00239840  0.50149422  1
  Fe  Fe41  1  0.12322785  0.62285050  0.87432876  1
  Fe  Fe42  1  0.49893140  0.24853738  0.50107750  1
  Fe  Fe43  1  -0.00016482  0.25239578  -0.00019046  1
  Fe  Fe44  1  0.25110113  0.74964172  0.75094474  1
  Fe  Fe45  1  0.12477260  0.12374678  0.37553304  1
  Fe  Fe46  1  0.74781281  0.75298552  0.49857254  1
  Fe  Fe47  1  0.62431558  0.62675273  0.62466508  1
  Fe  Fe48  1  0.12265629  0.87328847  0.12850700  1
  Fe  Fe49  1  0.50282734  0.25149968  -0.00417386  1
  Fe  Fe50  1  0.50046275  0.75054045  0.75313582  1
  Fe  Fe51  1  0.12569176  0.12571886  0.12513625  1
  Fe  Fe52  1  0.12806057  0.37189306  0.62242410  1
  Fe  Fe53  1  0.75003317  0.25218236  0.25244178  1
  Fe  Fe54  1  0.25181828  0.00052378  0.24795079  1
  Fe  Fe55  1  0.62532723  0.12408838  0.62627940  1
  Fe  Fe56  1  0.62535598  0.87763364  0.87496027  1
  Fe  Fe57  1  0.49761743  -0.00082476  -0.00175197  1
  Fe  Fe58  1  0.37521898  0.87283901  0.62596038  1
  Fe  Fe59  1  0.37924587  0.37773108  0.37558591  1
  Fe  Fe60  1  0.74910487  0.24804296  0.75509023  1
  Fe  Fe61  1  0.37195799  0.12696553  0.62922571  1
  Fe  Fe62  1  0.62121079  0.62415246  0.12163954  1
  Fe  Fe63  1  0.62373498  0.87497712  0.12429253  1
  Fe  Fe64  1  0.50188649  0.24700786  0.75389925  1
  Fe  Fe65  1  0.87763942  0.62358854  0.87539370  1
  Fe  Fe66  1  0.12589564  0.62806121  0.62372118  1
  Fe  Fe67  1  0.87561111  0.12404801  0.37636956  1
  Fe  Fe68  1  0.25178498  0.50085890  0.74640223  1
  Fe  Fe69  1  0.87382217  0.62433544  0.37702016  1
  Fe  Fe70  1  0.74980923  0.75079723  -0.00147223  1
  Fe  Fe71  1  0.12703390  0.62492974  0.37794345  1
  Fe  Fe72  1  -0.00038567  0.50079714  0.24923567  1
  Fe  Fe73  1  0.25076905  -0.00043246  -0.00038879  1
  Fe  Fe74  1  0.12577552  0.87566973  0.87345353  1
  Fe  Fe75  1  0.62275695  0.12297165  0.37516131  1
  Fe  Fe76  1  0.12564602  0.37530725  0.12600872  1
  Fe  Fe77  1  -0.00151069  -0.00228330  0.00114220  1
  Fe  Fe78  1  0.74992982  -0.00207648  0.50041006  1
  Fe  Fe79  1  0.49932863  0.74862874  0.25048413  1
  Fe  Fe80  1  0.62249471  0.87867987  0.37372066  1
  Fe  Fe81  1  0.12411463  0.62683774  0.12350525  1
  Fe  Fe82  1  0.87626760  0.62581829  0.12391068  1
  Fe  Fe83  1  0.62563656  0.87579437  0.62797477  1
  Fe  Fe84  1  0.25113329  0.24966206  0.25271717  1
  Fe  Fe85  1  0.12576028  0.12340684  0.87464555  1
  Fe  Fe86  1  0.37513284  0.37571145  0.87292412  1
  Fe  Fe87  1  0.25065758  0.74904145  -0.00203161  1
  Fe  Fe88  1  0.75059960  0.49771924  -0.00077079  1
  Fe  Fe89  1  0.00044964  0.75540192  0.49775327  1
  Co  Co90  1  0.49817059  0.49864136  0.50684212  1
  Co  Co91  1  0.00117197  0.74493861  0.25398441  1
  Co  Co92  1  0.49865659  0.00096238  0.75055110  1
  Co  Co93  1  0.87194241  0.87331778  0.62746613  1
  Co  Co94  1  0.49959979  0.00054934  0.24596521  1
  Co  Co95  1  0.24650549  0.25164869  0.75415217  1
  Co  Co96  1  0.87584195  0.12491888  0.87700227  1
  Co  Co97  1  0.49945104  0.00086596  0.50461108  1
  Co  Co98  1  0.62392294  0.38031334  0.87146053  1
  Co  Co99  1  0.62061411  0.37578834  0.37641884  1
  Co  Co100  1  0.37295345  0.12522767  0.87443881  1
  Co  Co101  1  0.74818781  0.74719316  0.75327913  1
  Co  Co102  1  0.49948896  0.50127962  0.24705360  1
  Co  Co103  1  0.24858398  0.75290017  0.49781057  1
  Co  Co104  1  0.37819147  0.62490173  0.37828618  1
  Co  Co105  1  0.62690108  0.11984096  0.87884962  1
  Co  Co106  1  0.37581766  0.63177620  0.62373049  1
  Co  Co107  1  0.25401322  0.24879679  0.49550310  1
  Co  Co108  1  0.74810473  0.25488890  -0.00548282  1
  Co  Co109  1  0.00002195  0.75116236  -0.00244074  1
  Co  Co110  1  0.87344069  0.37461244  0.12554257  1
  Co  Co111  1  0.37338077  0.87504030  0.87441007  1
  Co  Co112  1  0.37701358  0.62678900  0.12333162  1
  Co  Co113  1  0.87664139  0.37646508  0.37599865  1
  Co  Co114  1  0.00048292  0.50006986  0.74450076  1
  Co  Co115  1  0.12633090  0.87349127  0.62746729  1
  Co  Co116  1  0.25085289  -0.00086615  0.74974366  1
  Co  Co117  1  0.37568869  0.62399373  0.87491103  1
  Co  Co118  1  0.50335116  0.75233653  0.49968804  1
  Co  Co119  1  0.37467463  0.36887397  0.62760444  1
  Co  Co120  1  0.87438395  0.87549524  0.37090191  1
  Co  Co121  1  0.49720748  0.49746380  0.00118884  1
  Co  Co122  1  0.12471630  0.87756834  0.37005617  1
  Co  Co123  1  -0.00158894  0.00431559  0.24814160  1
  Co  Co124  1  0.50006343  0.75140833  -0.00304884  1
  Co  Co125  1  -0.00073170  0.24919925  0.50058030  1
  Co  Co126  1  0.75344791  -0.00549761  0.00058714  1
  Co  Co127  1  0.00037008  0.49973462  0.00271029  1
