# generated using pymatgen
data_Fe45Co19
_symmetry_space_group_name_H-M   'P 1'
_cell_length_a   11.41503222
_cell_length_b   11.41629684
_cell_length_c   11.41456140
_cell_angle_alpha   90.00361428
_cell_angle_beta   90.00870840
_cell_angle_gamma   89.99898372
_symmetry_Int_Tables_number   1
_chemical_formula_structural   Fe45Co19
_chemical_formula_sum   'Fe90 Co38'
_cell_volume   1487.51590086
_cell_formula_units_Z   2
loop_
 _symmetry_equiv_pos_site_id
 _symmetry_equiv_pos_as_xyz
  1  'x, y, z'
loop_
 _atom_site_type_symbol
 _atom_site_label
 _atom_site_symmetry_multiplicity
 _atom_site_fract_x
 _atom_site_fract_y
 _atom_site_fract_z
 _atom_site_occupancy
  Fe  Fe0  1  -0.00012430  0.74870904  -0.00034845  1
  Fe  Fe1  1  0.12444200  0.62342100  0.12441726  1
  Fe  Fe2  1  0.12350662  0.12722502  0.87574295  1
  Fe  Fe3  1  0.00036350  0.25205343  0.00433473  1
  Fe  Fe4  1  -0.00072550  0.74877895  0.74690723  1
  Fe  Fe5  1  0.75045644  0.74975784  -0.00168088  1
  Fe  Fe6  1  0.62404136  0.37683877  0.37657490  1
  Fe  Fe7  1  0.24779153  0.24934801  0.24825093  1
  Fe  Fe8  1  0.87116437  0.87385414  0.62123987  1
  Fe  Fe9  1  0.49996753  0.24923288  0.00144681  1
  Fe  Fe10  1  0.75011752  0.49886080  -0.00183492  1
  Fe  Fe11  1  0.62388106  0.62597189  0.12478821  1
  Fe  Fe12  1  0.62330137  0.12509845  0.37409079  1
  Fe  Fe13  1  0.87417573  0.12627444  0.62479070  1
  Fe  Fe14  1  0.63138649  0.62448617  0.62583531  1
  Fe  Fe15  1  0.12221837  0.62318943  0.37659669  1
  Fe  Fe16  1  0.12848572  0.37905331  0.62389049  1
  Fe  Fe17  1  0.12576888  0.61929417  0.62546888  1
  Fe  Fe18  1  0.50022746  -0.00203770  0.75076659  1
  Fe  Fe19  1  0.37434799  0.62857529  0.87324994  1
  Fe  Fe20  1  0.62611897  0.62599881  0.87412033  1
  Fe  Fe21  1  0.37561785  0.37485118  0.37590621  1
  Fe  Fe22  1  0.37522552  0.87481321  0.12531358  1
  Fe  Fe23  1  0.37217281  0.87521966  0.62802970  1
  Fe  Fe24  1  0.75106483  0.25040872  0.49891119  1
  Fe  Fe25  1  -0.00088982  0.00055046  -0.00064985  1
  Fe  Fe26  1  0.75022186  0.25084442  0.75206455  1
  Fe  Fe27  1  0.49965854  0.25042275  0.74717576  1
  Fe  Fe28  1  0.75147772  0.00086187  0.25257690  1
  Fe  Fe29  1  0.62622941  0.87440251  0.12341484  1
  Fe  Fe30  1  0.49939972  0.49818217  0.24845089  1
  Fe  Fe31  1  0.25122975  0.00059187  0.49825468  1
  Fe  Fe32  1  0.50205355  0.75257887  0.75126275  1
  Fe  Fe33  1  0.25048715  0.74737294  0.50100346  1
  Fe  Fe34  1  0.12385127  0.62300279  0.87327444  1
  Fe  Fe35  1  -0.00384301  0.74640878  0.50123193  1
  Fe  Fe36  1  0.00023104  0.49705163  0.24723173  1
  Fe  Fe37  1  0.50032691  0.49950601  0.74910600  1
  Fe  Fe38  1  0.24878016  0.75069736  -0.00003179  1
  Fe  Fe39  1  0.50127681  0.75265508  0.25045471  1
  Fe  Fe40  1  0.24985976  0.49964903  -0.00115532  1
  Fe  Fe41  1  0.87572651  0.37370617  0.87640096  1
  Fe  Fe42  1  0.12445397  0.37621081  0.37739791  1
  Fe  Fe43  1  0.75209012  0.00230921  -0.00121584  1
  Fe  Fe44  1  0.49865438  0.50088972  0.50297970  1
  Fe  Fe45  1  0.87655274  0.12513949  0.12682068  1
  Fe  Fe46  1  0.87527572  0.87503756  0.87435699  1
  Fe  Fe47  1  0.37393639  0.12499073  0.87290751  1
  Fe  Fe48  1  0.62340505  0.12510647  0.12611537  1
  Fe  Fe49  1  0.37567781  0.12408963  0.12773490  1
  Fe  Fe50  1  0.25293430  0.24961714  0.50182480  1
  Fe  Fe51  1  0.24857157  0.75044868  0.25169406  1
  Fe  Fe52  1  0.74890356  0.25151640  0.25010002  1
  Fe  Fe53  1  0.12537972  0.87680652  0.62313538  1
  Fe  Fe54  1  0.25017700  0.50065326  0.25174635  1
  Fe  Fe55  1  0.37714165  0.12510476  0.37324958  1
  Fe  Fe56  1  0.87581972  0.87538666  0.12733184  1
  Fe  Fe57  1  0.00282007  0.24986425  0.24814866  1
  Fe  Fe58  1  0.63057390  0.87425701  0.62348544  1
  Fe  Fe59  1  0.62547517  0.12462489  0.62529732  1
  Fe  Fe60  1  0.75009241  0.50035208  0.25352916  1
  Fe  Fe61  1  0.37808092  0.62633795  0.37565760  1
  Fe  Fe62  1  -0.00328966  0.00175891  0.49496667  1
  Fe  Fe63  1  -0.00009372  0.25237781  0.74712841  1
  Fe  Fe64  1  -0.00202864  0.25246448  0.50097682  1
  Fe  Fe65  1  0.12503412  0.12436045  0.62282254  1
  Fe  Fe66  1  0.12258735  0.87682230  0.12625572  1
  Fe  Fe67  1  0.62780492  0.87478004  0.37738912  1
  Fe  Fe68  1  0.49927391  -0.00274108  -0.00144510  1
  Fe  Fe69  1  0.37322061  0.37426958  0.12443755  1
  Fe  Fe70  1  0.62788937  0.37676009  0.62471166  1
  Fe  Fe71  1  0.49989491  0.50086594  -0.00028518  1
  Fe  Fe72  1  0.74988973  0.74695134  0.25414547  1
  Fe  Fe73  1  0.37623932  0.62695738  0.12478412  1
  Fe  Fe74  1  0.87492214  0.62365442  0.12542667  1
  Fe  Fe75  1  0.49882373  0.24968604  0.50177577  1
  Fe  Fe76  1  0.50099695  0.75040252  0.50182843  1
  Fe  Fe77  1  0.12510944  0.37520185  0.87589046  1
  Fe  Fe78  1  0.75185897  0.00057176  0.75058782  1
  Fe  Fe79  1  0.25076846  0.24938528  0.74733409  1
  Fe  Fe80  1  0.87567641  0.62379769  0.87199942  1
  Fe  Fe81  1  0.24648219  -0.00068104  0.25365052  1
  Fe  Fe82  1  0.37576426  0.37380585  0.87386009  1
  Fe  Fe83  1  -0.00049259  0.00083511  0.74903355  1
  Fe  Fe84  1  0.62552047  0.12549551  0.87509689  1
  Fe  Fe85  1  0.12562372  0.87459190  0.87268671  1
  Fe  Fe86  1  0.24967850  0.00041463  -0.00167407  1
  Fe  Fe87  1  0.62611890  0.37466948  0.12241348  1
  Fe  Fe88  1  0.49992809  -0.00068350  0.49965437  1
  Fe  Fe89  1  -0.00028387  0.75190620  0.25153511  1
  Co  Co90  1  0.25290959  0.50230719  0.49833984  1
  Co  Co91  1  0.62258614  0.37315951  0.87586565  1
  Co  Co92  1  -0.00491877  0.49874901  0.50377672  1
  Co  Co93  1  0.75322026  0.50236337  0.49516103  1
  Co  Co94  1  0.25190667  0.49937073  0.75118009  1
  Co  Co95  1  0.37432279  0.37685231  0.62495039  1
  Co  Co96  1  0.86926046  0.62241706  0.62885591  1
  Co  Co97  1  0.87774042  0.12768122  0.87442061  1
  Co  Co98  1  0.37558390  0.12235272  0.62545885  1
  Co  Co99  1  0.50096227  0.25287834  0.24930531  1
  Co  Co100  1  0.00165978  0.00119641  0.25492892  1
  Co  Co101  1  -0.00084946  0.50001772  0.00022813  1
  Co  Co102  1  0.87265211  0.37573387  0.12528396  1
  Co  Co103  1  -0.00087863  0.49773151  0.74851852  1
  Co  Co104  1  0.88032447  0.62245707  0.37263845  1
  Co  Co105  1  0.87495208  0.12888098  0.37367041  1
  Co  Co106  1  0.75123719  0.75259998  0.75148471  1
  Co  Co107  1  0.87372015  0.87410658  0.37631297  1
  Co  Co108  1  0.75048900  0.00415409  0.49862831  1
  Co  Co109  1  0.12715206  0.37730695  0.12368793  1
  Co  Co110  1  0.50071013  0.75185498  -0.00198897  1
  Co  Co111  1  0.74998129  0.24873099  -0.00034463  1
  Co  Co112  1  0.12342217  0.87219287  0.37802217  1
  Co  Co113  1  0.12510003  0.12802220  0.37812956  1
  Co  Co114  1  0.37407356  0.87309525  0.37610967  1
  Co  Co115  1  0.50150768  -0.00348062  0.25153358  1
  Co  Co116  1  0.87003904  0.37668105  0.62496833  1
  Co  Co117  1  0.25084184  0.24931284  0.00111619  1
  Co  Co118  1  0.24649572  0.00280196  0.74986950  1
  Co  Co119  1  0.75016037  0.49582421  0.75417938  1
  Co  Co120  1  0.61931284  0.62284750  0.37515206  1
  Co  Co121  1  0.62815990  0.87684223  0.87616249  1
  Co  Co122  1  0.24568282  0.74874665  0.74747223  1
  Co  Co123  1  0.37551932  0.62621577  0.62717678  1
  Co  Co124  1  0.12441044  0.12231940  0.12318187  1
  Co  Co125  1  0.37111041  0.87348392  0.87204659  1
  Co  Co126  1  0.87751117  0.37379064  0.37309242  1
  Co  Co127  1  0.75192316  0.74321573  0.49526385  1
