# generated using pymatgen
data_Fe45Co19
_symmetry_space_group_name_H-M   'P 1'
_cell_length_a   11.41561543
_cell_length_b   11.41555765
_cell_length_c   11.41561281
_cell_angle_alpha   90.00429034
_cell_angle_beta   90.00060036
_cell_angle_gamma   89.99725604
_symmetry_Int_Tables_number   1
_chemical_formula_structural   Fe45Co19
_chemical_formula_sum   'Fe90 Co38'
_cell_volume   1487.63260954
_cell_formula_units_Z   2
loop_
 _symmetry_equiv_pos_site_id
 _symmetry_equiv_pos_as_xyz
  1  'x, y, z'
loop_
 _atom_site_type_symbol
 _atom_site_label
 _atom_site_symmetry_multiplicity
 _atom_site_fract_x
 _atom_site_fract_y
 _atom_site_fract_z
 _atom_site_occupancy
  Fe  Fe0  1  0.50185883  0.49760019  0.75243705  1
  Fe  Fe1  1  0.87517024  0.37424686  0.12750465  1
  Fe  Fe2  1  0.62569850  0.62583280  0.87398907  1
  Fe  Fe3  1  0.00026726  0.24728749  0.49669131  1
  Fe  Fe4  1  0.50356905  0.25016407  0.25145265  1
  Fe  Fe5  1  0.25326682  0.00520324  -0.00001846  1
  Fe  Fe6  1  0.12436499  0.87291435  0.12211453  1
  Fe  Fe7  1  0.12286861  0.12794685  0.12537083  1
  Fe  Fe8  1  0.50301865  0.50486314  0.49825002  1
  Fe  Fe9  1  0.62410379  0.87485563  0.62406479  1
  Fe  Fe10  1  0.49721929  0.75260978  0.00178023  1
  Fe  Fe11  1  0.62584876  0.12427921  0.62397888  1
  Fe  Fe12  1  0.12246922  0.87597225  0.37698348  1
  Fe  Fe13  1  0.37404332  0.36891401  0.87577896  1
  Fe  Fe14  1  0.24724683  -0.00093950  0.24905524  1
  Fe  Fe15  1  0.24908087  0.49709071  0.24710198  1
  Fe  Fe16  1  0.50066302  0.00075871  0.75083603  1
  Fe  Fe17  1  0.24903100  0.00339084  0.75084037  1
  Fe  Fe18  1  0.87880095  0.87638372  0.37354506  1
  Fe  Fe19  1  0.62481922  0.87465611  0.87650326  1
  Fe  Fe20  1  0.74993712  0.50006003  -0.00098378  1
  Fe  Fe21  1  -0.00020891  0.74835142  0.50099348  1
  Fe  Fe22  1  0.87400392  0.12555642  0.12808992  1
  Fe  Fe23  1  0.87628160  0.62445727  0.12550410  1
  Fe  Fe24  1  0.87786511  0.87731801  0.62633698  1
  Fe  Fe25  1  0.74894510  0.25008218  0.00181747  1
  Fe  Fe26  1  0.49690486  0.75111378  0.74758849  1
  Fe  Fe27  1  0.75019620  0.74909343  0.50159885  1
  Fe  Fe28  1  0.37440426  0.12493185  0.37154138  1
  Fe  Fe29  1  0.37625804  0.12572480  0.62771281  1
  Fe  Fe30  1  0.12560101  0.62322755  0.62537976  1
  Fe  Fe31  1  0.00137962  0.49958807  0.25052585  1
  Fe  Fe32  1  -0.00050663  0.00470994  0.75402380  1
  Fe  Fe33  1  0.87426672  0.37528403  0.62311602  1
  Fe  Fe34  1  0.12529310  0.62707431  0.87597159  1
  Fe  Fe35  1  0.49785306  0.75090038  0.24810241  1
  Fe  Fe36  1  0.37283150  0.62464802  0.87458270  1
  Fe  Fe37  1  0.75128716  0.75100490  0.25014294  1
  Fe  Fe38  1  -0.00179023  0.24813687  -0.00035869  1
  Fe  Fe39  1  0.62660929  0.62688041  0.12432179  1
  Fe  Fe40  1  0.87431668  0.62085071  0.62547799  1
  Fe  Fe41  1  0.24879912  0.00355846  0.50040638  1
  Fe  Fe42  1  0.37628265  0.37620082  0.62475383  1
  Fe  Fe43  1  0.12793594  0.36846194  0.87876337  1
  Fe  Fe44  1  0.49733164  0.24644684  0.00278516  1
  Fe  Fe45  1  0.24954904  0.75084956  0.24917553  1
  Fe  Fe46  1  0.75082176  -0.00174886  -0.00096166  1
  Fe  Fe47  1  0.62608703  0.12173839  0.12696206  1
  Fe  Fe48  1  0.75151738  0.00012669  0.49829489  1
  Fe  Fe49  1  -0.00217073  0.00154260  -0.00138187  1
  Fe  Fe50  1  0.50206200  0.50310370  0.25135638  1
  Fe  Fe51  1  0.49899437  0.50033872  -0.00165714  1
  Fe  Fe52  1  0.87382291  0.62255077  0.37533353  1
  Fe  Fe53  1  0.12504138  0.37364945  0.37467729  1
  Fe  Fe54  1  0.62455871  0.37659980  0.12509966  1
  Fe  Fe55  1  0.24996369  0.25311272  0.24574576  1
  Fe  Fe56  1  0.87594457  0.12675717  0.62668052  1
  Fe  Fe57  1  0.50184239  -0.00461181  0.24796639  1
  Fe  Fe58  1  0.25074629  0.75186011  0.74868722  1
  Fe  Fe59  1  0.75312290  0.75115932  -0.00124772  1
  Fe  Fe60  1  0.87652719  0.87515234  0.12623988  1
  Fe  Fe61  1  0.87363011  0.37289263  0.87534498  1
  Fe  Fe62  1  0.87588340  0.12300106  0.36953006  1
  Fe  Fe63  1  0.74735331  0.24830571  0.49472462  1
  Fe  Fe64  1  0.12248303  0.87406468  0.87655323  1
  Fe  Fe65  1  0.12643033  0.62461947  0.37594174  1
  Fe  Fe66  1  0.62393721  0.12619165  0.87581487  1
  Fe  Fe67  1  0.12260968  0.37222208  0.62414669  1
  Fe  Fe68  1  0.50208601  0.24924517  0.49862052  1
  Fe  Fe69  1  0.62668405  0.37752411  0.62385961  1
  Fe  Fe70  1  0.12256824  0.87839766  0.62444344  1
  Fe  Fe71  1  0.37214926  0.62414124  0.12410129  1
  Fe  Fe72  1  0.37696119  0.37626499  0.37421338  1
  Fe  Fe73  1  0.25023185  0.24798809  0.50116495  1
  Fe  Fe74  1  0.37390792  0.87456829  0.37571697  1
  Fe  Fe75  1  0.00048265  0.49726766  0.75047628  1
  Fe  Fe76  1  0.62492506  0.87364040  0.37640003  1
  Fe  Fe77  1  0.74782858  0.25176179  0.75101026  1
  Fe  Fe78  1  0.75159500  0.75075824  0.74954776  1
  Fe  Fe79  1  0.49841983  0.00080935  0.49991082  1
  Fe  Fe80  1  0.49715632  0.74588229  0.50248020  1
  Fe  Fe81  1  0.25260055  0.74951437  0.50284252  1
  Fe  Fe82  1  0.87200953  0.37714194  0.37384741  1
  Fe  Fe83  1  0.12555790  0.62519359  0.12190688  1
  Fe  Fe84  1  0.87700484  0.62619427  0.87297030  1
  Fe  Fe85  1  0.00064821  0.50009689  -0.00160750  1
  Fe  Fe86  1  0.37483474  0.87793370  0.87678612  1
  Fe  Fe87  1  0.25040790  0.49931504  0.49992567  1
  Fe  Fe88  1  0.75001232  0.00023950  0.75180935  1
  Fe  Fe89  1  0.24921535  0.49671256  0.75185864  1
  Co  Co90  1  0.12677039  0.12625997  0.37222520  1
  Co  Co91  1  0.37972085  0.37760801  0.12591482  1
  Co  Co92  1  0.25565360  0.24810469  0.00716409  1
  Co  Co93  1  0.37217486  0.62429122  0.37367489  1
  Co  Co94  1  0.37715330  0.12239632  0.13130511  1
  Co  Co95  1  0.12105772  0.12519421  0.62556609  1
  Co  Co96  1  0.50303025  0.25146512  0.74737303  1
  Co  Co97  1  0.37598862  0.12863842  0.87188958  1
  Co  Co98  1  0.00003098  0.25116375  0.25169606  1
  Co  Co99  1  0.25207397  0.75026291  -0.00149895  1
  Co  Co100  1  0.12716872  0.12964349  0.87802598  1
  Co  Co101  1  -0.00078152  0.00416849  0.49810645  1
  Co  Co102  1  0.49902262  0.00073530  0.00127726  1
  Co  Co103  1  0.87716590  0.87430861  0.87335105  1
  Co  Co104  1  0.74597444  0.50200532  0.49898586  1
  Co  Co105  1  0.87178267  0.12747230  0.87551214  1
  Co  Co106  1  0.62569637  0.62493165  0.62971434  1
  Co  Co107  1  0.74869585  0.49975662  0.24791416  1
  Co  Co108  1  0.24896828  0.24855626  0.74549117  1
  Co  Co109  1  0.62552541  0.37809196  0.37416963  1
  Co  Co110  1  0.37381228  0.62052632  0.62728039  1
  Co  Co111  1  -0.00170704  0.75003587  0.00050355  1
  Co  Co112  1  0.62338734  0.12001155  0.37395660  1
  Co  Co113  1  0.62692201  0.62878891  0.37261937  1
  Co  Co114  1  0.37406266  0.87818800  0.62480396  1
  Co  Co115  1  0.75009593  0.49731455  0.75325084  1
  Co  Co116  1  0.62415164  0.37279878  0.87895101  1
  Co  Co117  1  0.00148542  0.74849661  0.25053218  1
  Co  Co118  1  0.37198519  0.87616383  0.12404612  1
  Co  Co119  1  0.00118764  0.49918089  0.49907866  1
  Co  Co120  1  0.00099643  0.74921463  0.74743958  1
  Co  Co121  1  0.25096691  0.49712735  -0.00003072  1
  Co  Co122  1  0.74910328  -0.00188797  0.25074978  1
  Co  Co123  1  0.62749949  0.87353658  0.12339644  1
  Co  Co124  1  -0.00059396  0.25037753  0.75182816  1
  Co  Co125  1  0.12101899  0.37415049  0.12173822  1
  Co  Co126  1  0.74649207  0.24974891  0.25192712  1
  Co  Co127  1  0.00272799  -0.00058943  0.24830449  1
