# generated using pymatgen
data_Fe45Co19
_symmetry_space_group_name_H-M   'P 1'
_cell_length_a   11.41616795
_cell_length_b   11.41472980
_cell_length_c   11.41566094
_cell_angle_alpha   90.00921620
_cell_angle_beta   89.99270142
_cell_angle_gamma   90.01103291
_symmetry_Int_Tables_number   1
_chemical_formula_structural   Fe45Co19
_chemical_formula_sum   'Fe90 Co38'
_cell_volume   1487.60294253
_cell_formula_units_Z   2
loop_
 _symmetry_equiv_pos_site_id
 _symmetry_equiv_pos_as_xyz
  1  'x, y, z'
loop_
 _atom_site_type_symbol
 _atom_site_label
 _atom_site_symmetry_multiplicity
 _atom_site_fract_x
 _atom_site_fract_y
 _atom_site_fract_z
 _atom_site_occupancy
  Fe  Fe0  1  0.87555046  0.37459440  0.12628332  1
  Fe  Fe1  1  0.62637027  0.87481917  0.12043233  1
  Fe  Fe2  1  0.12569795  0.62395005  0.37592329  1
  Fe  Fe3  1  0.87495368  0.62604591  0.37654797  1
  Fe  Fe4  1  0.12537588  0.87469013  0.87398413  1
  Fe  Fe5  1  0.24966277  0.50008176  0.74890941  1
  Fe  Fe6  1  0.00055574  0.49707516  0.25401614  1
  Fe  Fe7  1  0.11968174  0.12214466  0.62401903  1
  Fe  Fe8  1  0.37538335  0.12671047  0.87802245  1
  Fe  Fe9  1  0.25003004  0.49858241  0.25101973  1
  Fe  Fe10  1  -0.00061152  0.25353552  0.25365656  1
  Fe  Fe11  1  0.50088996  0.49708842  0.74843723  1
  Fe  Fe12  1  0.75453365  0.24686191  0.00021601  1
  Fe  Fe13  1  0.62238196  0.12738527  0.62532896  1
  Fe  Fe14  1  0.49960145  0.75029952  0.24790607  1
  Fe  Fe15  1  0.87748030  0.12165108  0.62548640  1
  Fe  Fe16  1  0.25032174  0.25100656  0.24810292  1
  Fe  Fe17  1  0.37463825  0.62569395  0.62628404  1
  Fe  Fe18  1  0.00028427  0.74905753  0.00124488  1
  Fe  Fe19  1  0.74855064  0.74815862  0.24839606  1
  Fe  Fe20  1  0.00066175  0.49786869  0.50002566  1
  Fe  Fe21  1  0.24944836  0.00159017  0.50102035  1
  Fe  Fe22  1  0.75020121  0.24957719  0.50111803  1
  Fe  Fe23  1  0.62676972  0.87391538  0.62586568  1
  Fe  Fe24  1  0.00166988  -0.00021177  0.25152369  1
  Fe  Fe25  1  0.12296686  0.62324407  0.87151949  1
  Fe  Fe26  1  0.37379513  0.87625997  0.87607605  1
  Fe  Fe27  1  0.87409855  0.87589749  0.62494165  1
  Fe  Fe28  1  0.37793172  0.12467272  0.37716766  1
  Fe  Fe29  1  0.49857785  0.49913369  0.25117216  1
  Fe  Fe30  1  0.62687423  0.87273778  0.87833607  1
  Fe  Fe31  1  0.00088721  0.75102729  0.50246425  1
  Fe  Fe32  1  0.12656259  0.87508293  0.37617151  1
  Fe  Fe33  1  0.87628464  0.12564376  0.37585141  1
  Fe  Fe34  1  0.24751387  0.00100266  0.24801833  1
  Fe  Fe35  1  0.62596918  0.62828340  0.87650851  1
  Fe  Fe36  1  0.62532410  0.37465619  0.12475422  1
  Fe  Fe37  1  0.37510462  0.12572987  0.12067911  1
  Fe  Fe38  1  0.62695582  0.37466253  0.37565456  1
  Fe  Fe39  1  0.12309037  0.12886939  0.87604292  1
  Fe  Fe40  1  0.87715924  0.62280507  0.12417432  1
  Fe  Fe41  1  0.62152583  0.12443178  0.37727410  1
  Fe  Fe42  1  0.87338186  0.87428563  0.87575269  1
  Fe  Fe43  1  0.75034353  0.50156215  0.24991340  1
  Fe  Fe44  1  0.00200653  0.49535559  -0.00225068  1
  Fe  Fe45  1  0.75071677  0.24935377  0.25045095  1
  Fe  Fe46  1  0.12301422  0.12701519  0.37760617  1
  Fe  Fe47  1  0.24691967  0.49484826  0.00027888  1
  Fe  Fe48  1  0.12872288  0.37556089  0.62291309  1
  Fe  Fe49  1  0.49941301  0.75028402  0.75212837  1
  Fe  Fe50  1  0.87171300  0.37652674  0.62508702  1
  Fe  Fe51  1  -0.00141025  0.25253612  0.74825980  1
  Fe  Fe52  1  0.62654569  0.62663380  0.62523479  1
  Fe  Fe53  1  0.75194405  0.50484606  0.75069456  1
  Fe  Fe54  1  0.74889225  -0.00073436  0.49836959  1
  Fe  Fe55  1  0.49904504  0.25182874  0.24983048  1
  Fe  Fe56  1  0.87539397  0.87727711  0.12499575  1
  Fe  Fe57  1  0.25081507  0.24821432  0.74832649  1
  Fe  Fe58  1  -0.00149144  0.00235084  -0.00121879  1
  Fe  Fe59  1  0.37954438  0.12605978  0.62355198  1
  Fe  Fe60  1  0.49891816  0.49709036  0.50223345  1
  Fe  Fe61  1  0.74989175  0.50136153  0.49974522  1
  Fe  Fe62  1  0.62460432  0.12552656  0.12301443  1
  Fe  Fe63  1  0.62350038  0.62577312  0.37488981  1
  Fe  Fe64  1  0.74996136  0.00066329  0.75212079  1
  Fe  Fe65  1  0.37417784  0.62404591  0.87495653  1
  Fe  Fe66  1  0.12237920  0.12827590  0.12249818  1
  Fe  Fe67  1  0.50065031  0.00002432  0.75147539  1
  Fe  Fe68  1  0.37523396  0.62248987  0.12387780  1
  Fe  Fe69  1  0.37426354  0.37312827  0.87413589  1
  Fe  Fe70  1  0.37273366  0.87694375  0.12107927  1
  Fe  Fe71  1  0.62486937  0.12736349  0.87458172  1
  Fe  Fe72  1  0.24864452  0.74916750  -0.00049220  1
  Fe  Fe73  1  0.37115057  0.37362940  0.37931399  1
  Fe  Fe74  1  0.24913122  0.74767272  0.50156478  1
  Fe  Fe75  1  0.87433541  0.37485318  0.87278180  1
  Fe  Fe76  1  0.37512303  0.87647316  0.37517173  1
  Fe  Fe77  1  0.12477783  0.62253145  0.12538222  1
  Fe  Fe78  1  0.87371653  0.87394717  0.37404356  1
  Fe  Fe79  1  -0.00060998  0.74930336  0.74706331  1
  Fe  Fe80  1  0.24913224  0.74996845  0.24859723  1
  Fe  Fe81  1  0.37275284  0.87492802  0.62711122  1
  Fe  Fe82  1  0.74904140  0.00101833  0.24989351  1
  Fe  Fe83  1  0.24828355  0.00122451  0.75046666  1
  Fe  Fe84  1  0.50066773  0.75214625  0.49954116  1
  Fe  Fe85  1  0.50016635  -0.00074605  0.24788430  1
  Fe  Fe86  1  0.75049312  0.50263054  -0.00020089  1
  Fe  Fe87  1  0.62799657  0.37188356  0.87194426  1
  Fe  Fe88  1  0.00193645  0.74991634  0.24890774  1
  Fe  Fe89  1  0.50178822  0.49842658  -0.00095974  1
  Co  Co90  1  0.87182275  0.37469310  0.37580738  1
  Co  Co91  1  0.37095924  0.37401219  0.62453401  1
  Co  Co92  1  0.12239539  0.37377402  0.12770209  1
  Co  Co93  1  -0.00169764  0.25363633  0.50122685  1
  Co  Co94  1  0.75269545  0.00366451  -0.00101057  1
  Co  Co95  1  0.74917362  0.75126596  0.49872256  1
  Co  Co96  1  0.24637305  0.00108054  -0.00094335  1
  Co  Co97  1  0.12665523  0.87661841  0.62548848  1
  Co  Co98  1  0.62275045  0.62366107  0.12492495  1
  Co  Co99  1  -0.00116443  0.49777627  0.74805544  1
  Co  Co100  1  0.12988323  0.37395399  0.37818003  1
  Co  Co101  1  0.12462312  0.62322525  0.62721466  1
  Co  Co102  1  -0.00289807  0.25250009  -0.00173652  1
  Co  Co103  1  0.75251893  0.74803590  0.75099815  1
  Co  Co104  1  0.49890550  0.25267942  0.74954428  1
  Co  Co105  1  0.24907811  0.24455312  0.50248967  1
  Co  Co106  1  0.50038194  -0.00291739  0.50195203  1
  Co  Co107  1  0.12605685  0.37234603  0.87049049  1
  Co  Co108  1  0.37624775  0.62665601  0.37476292  1
  Co  Co109  1  0.24959627  0.25428837  0.00192897  1
  Co  Co110  1  0.87469150  0.62509549  0.62286872  1
  Co  Co111  1  0.24884584  0.74929917  0.75122301  1
  Co  Co112  1  0.50071350  0.25200047  -0.00090169  1
  Co  Co113  1  0.75261331  0.74637901  0.00193050  1
  Co  Co114  1  0.12360961  0.87626042  0.12349454  1
  Co  Co115  1  0.87778208  0.12571367  0.87067166  1
  Co  Co116  1  0.62915943  0.37494989  0.62779487  1
  Co  Co117  1  -0.00050522  -0.00304951  0.49732654  1
  Co  Co118  1  0.50136991  0.00102843  -0.00118624  1
  Co  Co119  1  0.00068749  -0.00276067  0.75279829  1
  Co  Co120  1  0.37734641  0.37645022  0.12420022  1
  Co  Co121  1  0.62358211  0.87573627  0.37336306  1
  Co  Co122  1  0.87819869  0.12521073  0.12841098  1
  Co  Co123  1  0.50107760  0.25526753  0.50094886  1
  Co  Co124  1  0.75291637  0.24725720  0.74805167  1
  Co  Co125  1  0.87892305  0.62458015  0.87521877  1
  Co  Co126  1  0.49731976  0.74883592  -0.00015756  1
  Co  Co127  1  0.25138481  0.50446414  0.50048700  1
