# generated using pymatgen
data_Fe45Co19
_symmetry_space_group_name_H-M   'P 1'
_cell_length_a   11.41534769
_cell_length_b   11.41413482
_cell_length_c   11.41456980
_cell_angle_alpha   89.99494139
_cell_angle_beta   90.00055507
_cell_angle_gamma   89.99482682
_symmetry_Int_Tables_number   1
_chemical_formula_structural   Fe45Co19
_chemical_formula_sum   'Fe90 Co38'
_cell_volume   1487.27639910
_cell_formula_units_Z   2
loop_
 _symmetry_equiv_pos_site_id
 _symmetry_equiv_pos_as_xyz
  1  'x, y, z'
loop_
 _atom_site_type_symbol
 _atom_site_label
 _atom_site_symmetry_multiplicity
 _atom_site_fract_x
 _atom_site_fract_y
 _atom_site_fract_z
 _atom_site_occupancy
  Fe  Fe0  1  0.00120548  0.75097031  -0.00261248  1
  Fe  Fe1  1  0.37422980  0.62739792  0.87325622  1
  Fe  Fe2  1  0.62697521  0.12575800  0.12282597  1
  Fe  Fe3  1  0.49985151  0.25010008  0.50182255  1
  Fe  Fe4  1  0.75248987  0.50925396  0.50066290  1
  Fe  Fe5  1  0.37542974  0.12426657  0.12601533  1
  Fe  Fe6  1  0.12302048  0.87680486  0.37877704  1
  Fe  Fe7  1  0.50268331  0.25251562  0.24901207  1
  Fe  Fe8  1  0.50114404  -0.00294799  0.24758902  1
  Fe  Fe9  1  0.12707959  0.37396855  0.62501241  1
  Fe  Fe10  1  -0.00111757  -0.00262730  0.24829440  1
  Fe  Fe11  1  0.00141292  0.49970437  0.00108314  1
  Fe  Fe12  1  0.62875111  0.87235466  0.12226206  1
  Fe  Fe13  1  0.25100340  0.24670487  -0.00310738  1
  Fe  Fe14  1  0.75327836  0.50511663  -0.00228634  1
  Fe  Fe15  1  0.25202957  -0.00394537  0.75095598  1
  Fe  Fe16  1  0.24849434  0.74937423  -0.00434956  1
  Fe  Fe17  1  0.62454779  0.62477135  0.12615198  1
  Fe  Fe18  1  -0.00351439  0.25102352  0.00134150  1
  Fe  Fe19  1  0.62619534  0.37721684  0.37651954  1
  Fe  Fe20  1  -0.00439478  0.74892273  0.50190637  1
  Fe  Fe21  1  -0.00193019  0.50207143  0.50321788  1
  Fe  Fe22  1  0.37854077  0.12136108  0.87277980  1
  Fe  Fe23  1  0.12270101  0.12199603  0.87407796  1
  Fe  Fe24  1  0.87111469  0.87070042  0.62612352  1
  Fe  Fe25  1  0.62814058  0.87121649  0.62091152  1
  Fe  Fe26  1  0.50386228  0.25153659  0.75078203  1
  Fe  Fe27  1  0.12663710  0.87622958  0.62238196  1
  Fe  Fe28  1  0.24866723  0.50319886  0.50018448  1
  Fe  Fe29  1  0.24728011  0.75123313  0.25047020  1
  Fe  Fe30  1  0.49817774  0.50047871  0.24976931  1
  Fe  Fe31  1  0.62648707  0.87105567  0.37737757  1
  Fe  Fe32  1  0.88080829  0.62775638  0.86801142  1
  Fe  Fe33  1  0.37677899  0.12401799  0.37400132  1
  Fe  Fe34  1  0.87514661  0.87306668  0.37566200  1
  Fe  Fe35  1  0.62852768  0.37663500  0.12104936  1
  Fe  Fe36  1  0.50040412  0.50478767  0.49936964  1
  Fe  Fe37  1  0.87407036  0.12562577  0.62938120  1
  Fe  Fe38  1  0.50062951  0.49898149  0.75039010  1
  Fe  Fe39  1  0.00521148  0.49609341  0.24493150  1
  Fe  Fe40  1  0.12075951  0.62672375  0.37301214  1
  Fe  Fe41  1  0.75330083  0.24762055  -0.00447784  1
  Fe  Fe42  1  0.49944068  0.25217272  -0.00101239  1
  Fe  Fe43  1  0.12164596  0.12203564  0.37644129  1
  Fe  Fe44  1  0.87544592  0.37572372  0.37277407  1
  Fe  Fe45  1  0.12136405  0.62705604  0.63043227  1
  Fe  Fe46  1  0.50017556  0.75496165  0.74957120  1
  Fe  Fe47  1  0.37563296  0.62786121  0.62696761  1
  Fe  Fe48  1  0.62446069  0.12444748  0.37572787  1
  Fe  Fe49  1  0.36954050  0.37690190  0.12495665  1
  Fe  Fe50  1  0.62653059  0.12417018  0.62692066  1
  Fe  Fe51  1  0.36928957  0.62414442  0.12561798  1
  Fe  Fe52  1  -0.00245564  -0.00639442  0.75132054  1
  Fe  Fe53  1  -0.00477624  -0.00069484  -0.00132926  1
  Fe  Fe54  1  0.75277367  0.00079691  0.49947640  1
  Fe  Fe55  1  0.37380329  0.37498520  0.87369335  1
  Fe  Fe56  1  0.00030774  0.25309545  0.75012551  1
  Fe  Fe57  1  0.37618261  0.12305598  0.62837010  1
  Fe  Fe58  1  0.12684397  0.87618227  0.12063666  1
  Fe  Fe59  1  0.12490225  0.37406142  0.37745856  1
  Fe  Fe60  1  0.37337334  0.37662376  0.37551086  1
  Fe  Fe61  1  0.24828195  0.50114948  0.75184892  1
  Fe  Fe62  1  0.24997298  0.74820903  0.50073781  1
  Fe  Fe63  1  0.87195988  0.87397009  0.12096524  1
  Fe  Fe64  1  0.12302341  0.12462579  0.12411079  1
  Fe  Fe65  1  0.49799506  0.50029545  -0.00012058  1
  Fe  Fe66  1  -0.00093703  0.24829347  0.50133197  1
  Fe  Fe67  1  0.74884324  -0.00067854  0.75466773  1
  Fe  Fe68  1  0.62676642  0.37719032  0.62463399  1
  Fe  Fe69  1  0.74956761  0.50143488  0.75111225  1
  Fe  Fe70  1  0.75090337  0.24953053  0.49961079  1
  Fe  Fe71  1  0.37321229  0.37508254  0.62558891  1
  Fe  Fe72  1  0.62267214  0.62534768  0.87386872  1
  Fe  Fe73  1  0.12515019  0.37520854  0.87637349  1
  Fe  Fe74  1  0.87966743  0.62662726  0.12748154  1
  Fe  Fe75  1  0.24977677  -0.00129365  0.24928021  1
  Fe  Fe76  1  0.75233818  0.74800087  0.25046186  1
  Fe  Fe77  1  0.87638760  0.12603117  0.37136305  1
  Fe  Fe78  1  0.37498230  0.87419102  0.37760638  1
  Fe  Fe79  1  0.87299735  0.37519777  0.62702682  1
  Fe  Fe80  1  0.25040887  0.24617166  0.50149721  1
  Fe  Fe81  1  0.12407107  0.12199106  0.62606437  1
  Fe  Fe82  1  0.24726209  0.24965136  0.25076952  1
  Fe  Fe83  1  0.62810542  0.87412454  0.88008664  1
  Fe  Fe84  1  0.75070342  0.50166206  0.24970739  1
  Fe  Fe85  1  0.74956570  -0.00001475  0.24853547  1
  Fe  Fe86  1  0.49759916  0.74964549  0.24957530  1
  Fe  Fe87  1  0.49924929  0.74910795  0.00190298  1
  Fe  Fe88  1  0.49962931  -0.00228346  0.00194603  1
  Fe  Fe89  1  0.49893125  -0.00149916  0.50211544  1
  Co  Co90  1  0.75273434  0.00467716  -0.00149212  1
  Co  Co91  1  0.74789337  0.25074146  0.75335126  1
  Co  Co92  1  0.37300759  0.62543540  0.37397283  1
  Co  Co93  1  0.12670671  0.62757429  0.12369707  1
  Co  Co94  1  0.24863713  0.24829751  0.75155488  1
  Co  Co95  1  0.25223404  0.00224200  0.50057907  1
  Co  Co96  1  0.00231398  0.25285148  0.24847282  1
  Co  Co97  1  0.37381273  0.87299103  0.62269176  1
  Co  Co98  1  0.37478004  0.87558979  0.87809425  1
  Co  Co99  1  0.12776933  0.87876361  0.87811239  1
  Co  Co100  1  0.87028465  0.87171876  0.87745635  1
  Co  Co101  1  0.62356782  0.62689404  0.62753962  1
  Co  Co102  1  0.87842988  0.62768356  0.63361138  1
  Co  Co103  1  0.50318788  -0.00604858  0.74927127  1
  Co  Co104  1  0.88165273  0.62379567  0.36933347  1
  Co  Co105  1  0.00413103  0.75892085  0.75250617  1
  Co  Co106  1  0.00232995  0.49494224  0.74883928  1
  Co  Co107  1  0.75410275  0.74187702  0.49795858  1
  Co  Co108  1  0.24534482  0.50044488  0.25154209  1
  Co  Co109  1  0.37249569  0.87345574  0.12328526  1
  Co  Co110  1  0.25199593  0.00314639  0.00037389  1
  Co  Co111  1  0.74729785  0.25012650  0.25078726  1
  Co  Co112  1  -0.00511688  -0.00035180  0.50214358  1
  Co  Co113  1  0.24848545  0.50223112  -0.00446683  1
  Co  Co114  1  0.62654037  0.37711369  0.87761401  1
  Co  Co115  1  0.75107571  0.74219865  -0.00038070  1
  Co  Co116  1  0.50048646  0.74761013  0.49995302  1
  Co  Co117  1  0.87545055  0.37679189  0.87432331  1
  Co  Co118  1  0.62386189  0.62689516  0.37240168  1
  Co  Co119  1  0.87480756  0.12609619  0.12837148  1
  Co  Co120  1  0.12147619  0.62456036  0.87164268  1
  Co  Co121  1  0.74713697  0.74929666  0.75224555  1
  Co  Co122  1  0.12981097  0.37322626  0.12020397  1
  Co  Co123  1  0.87185775  0.37466255  0.12524337  1
  Co  Co124  1  0.24818265  0.75226783  0.75129841  1
  Co  Co125  1  0.00179159  0.75530710  0.24688512  1
  Co  Co126  1  0.87806832  0.12489323  0.87069460  1
  Co  Co127  1  0.62169515  0.12383201  0.87593795  1
