# generated using pymatgen
data_Fe45Co19
_symmetry_space_group_name_H-M   'P 1'
_cell_length_a   11.41477206
_cell_length_b   11.41514266
_cell_length_c   11.41479189
_cell_angle_alpha   89.99708821
_cell_angle_beta   90.00055948
_cell_angle_gamma   90.00275959
_symmetry_Int_Tables_number   1
_chemical_formula_structural   Fe45Co19
_chemical_formula_sum   'Fe90 Co38'
_cell_volume   1487.36166591
_cell_formula_units_Z   2
loop_
 _symmetry_equiv_pos_site_id
 _symmetry_equiv_pos_as_xyz
  1  'x, y, z'
loop_
 _atom_site_type_symbol
 _atom_site_label
 _atom_site_symmetry_multiplicity
 _atom_site_fract_x
 _atom_site_fract_y
 _atom_site_fract_z
 _atom_site_occupancy
  Fe  Fe0  1  0.12220459  0.62430668  0.37695461  1
  Fe  Fe1  1  0.49954606  0.49918716  0.74842926  1
  Fe  Fe2  1  0.62354367  0.37943682  0.37525700  1
  Fe  Fe3  1  0.24569018  0.49814370  0.25009120  1
  Fe  Fe4  1  0.62599316  0.62532599  0.12665701  1
  Fe  Fe5  1  0.75090713  0.25209259  0.74977337  1
  Fe  Fe6  1  0.75423192  0.49995142  0.24941264  1
  Fe  Fe7  1  0.50127284  0.25127021  0.49749751  1
  Fe  Fe8  1  0.62729676  0.87503410  0.87132378  1
  Fe  Fe9  1  0.12371500  0.37659131  0.87410651  1
  Fe  Fe10  1  0.87437478  0.12667730  0.12496086  1
  Fe  Fe11  1  0.12644546  0.87455137  0.62754114  1
  Fe  Fe12  1  0.24841599  0.25116570  0.25369334  1
  Fe  Fe13  1  -0.00019875  0.00135511  -0.00298518  1
  Fe  Fe14  1  0.62730741  0.12523920  0.87548060  1
  Fe  Fe15  1  0.49766105  0.00088820  0.74722954  1
  Fe  Fe16  1  0.74890133  0.49755615  0.50241010  1
  Fe  Fe17  1  0.37588224  0.12445276  0.87472467  1
  Fe  Fe18  1  0.24990196  0.25039157  0.49612847  1
  Fe  Fe19  1  0.62376245  0.87406314  0.12757979  1
  Fe  Fe20  1  0.87682534  0.87259060  0.12439917  1
  Fe  Fe21  1  0.87276315  0.12821163  0.62281501  1
  Fe  Fe22  1  0.87298328  0.87474401  0.62741464  1
  Fe  Fe23  1  -0.00231167  0.25177472  0.75117678  1
  Fe  Fe24  1  0.24841647  0.75176616  0.50028804  1
  Fe  Fe25  1  0.62531385  0.62443928  0.62416308  1
  Fe  Fe26  1  0.75208168  0.49848616  0.74707476  1
  Fe  Fe27  1  0.12808316  0.12592131  0.62591201  1
  Fe  Fe28  1  0.75155307  0.74901352  -0.00156906  1
  Fe  Fe29  1  0.87260839  0.87630253  0.87104101  1
  Fe  Fe30  1  0.37462899  0.12591453  0.12530679  1
  Fe  Fe31  1  0.87480250  0.87612072  0.37582152  1
  Fe  Fe32  1  0.12703739  0.87624885  0.87195390  1
  Fe  Fe33  1  0.37457435  0.62606647  0.12541928  1
  Fe  Fe34  1  0.37551663  0.37595141  0.12781467  1
  Fe  Fe35  1  0.62605648  0.12141819  0.37225085  1
  Fe  Fe36  1  0.75064284  0.49898058  0.00326125  1
  Fe  Fe37  1  0.49839415  0.74774334  0.75152152  1
  Fe  Fe38  1  0.24932031  0.00138555  -0.00069532  1
  Fe  Fe39  1  0.49850608  0.50515017  0.25464809  1
  Fe  Fe40  1  0.75240557  0.74862522  0.25046029  1
  Fe  Fe41  1  0.24858924  0.50162589  0.74756925  1
  Fe  Fe42  1  0.12358621  0.87483368  0.12345965  1
  Fe  Fe43  1  0.11730057  0.62613336  0.12507505  1
  Fe  Fe44  1  0.12313998  0.87732163  0.37590814  1
  Fe  Fe45  1  0.49912520  -0.00168385  0.00157432  1
  Fe  Fe46  1  -0.00122915  0.00121791  0.50083271  1
  Fe  Fe47  1  0.00331182  0.49757579  0.50500691  1
  Fe  Fe48  1  0.37491116  0.37795292  0.87586080  1
  Fe  Fe49  1  0.75120954  0.74992557  0.50030367  1
  Fe  Fe50  1  -0.00013565  0.25036493  -0.00362055  1
  Fe  Fe51  1  0.62564166  0.87226509  0.62650703  1
  Fe  Fe52  1  0.50030590  0.24939958  0.25072267  1
  Fe  Fe53  1  0.74988576  0.00157157  0.50056230  1
  Fe  Fe54  1  0.37703694  0.37273485  0.62431869  1
  Fe  Fe55  1  0.37231544  0.87461231  0.87297470  1
  Fe  Fe56  1  0.74935718  0.25173859  0.25127941  1
  Fe  Fe57  1  0.00057868  0.74790707  0.74886942  1
  Fe  Fe58  1  0.87736430  0.62540671  0.62397923  1
  Fe  Fe59  1  0.25437591  0.00053490  0.50276071  1
  Fe  Fe60  1  -0.00151244  0.00090545  0.25076408  1
  Fe  Fe61  1  0.62386494  0.12825807  0.62623415  1
  Fe  Fe62  1  0.62714796  0.37573615  0.87479132  1
  Fe  Fe63  1  0.62507150  0.62373286  0.87502058  1
  Fe  Fe64  1  0.24944533  0.74817028  -0.00134590  1
  Fe  Fe65  1  0.37390509  0.62676983  0.62372354  1
  Fe  Fe66  1  0.24753692  0.49971463  0.00234879  1
  Fe  Fe67  1  0.00336481  0.24852655  0.49889722  1
  Fe  Fe68  1  0.50203180  0.25246181  0.00054586  1
  Fe  Fe69  1  0.62489575  0.87553527  0.37225325  1
  Fe  Fe70  1  0.00264749  0.25059449  0.25342207  1
  Fe  Fe71  1  0.87785654  0.62105546  0.87583638  1
  Fe  Fe72  1  0.87699058  0.37324713  0.37939056  1
  Fe  Fe73  1  0.49821393  0.75007653  -0.00034951  1
  Fe  Fe74  1  0.50073847  0.49909606  0.00106858  1
  Fe  Fe75  1  0.24749670  0.75013648  0.24961155  1
  Fe  Fe76  1  0.37718865  0.87343715  0.37251594  1
  Fe  Fe77  1  0.49805777  0.00057732  0.50153137  1
  Fe  Fe78  1  0.24997712  0.25132282  -0.00083323  1
  Fe  Fe79  1  0.25014879  0.49740670  0.50088592  1
  Fe  Fe80  1  0.87839768  0.62424964  0.37638414  1
  Fe  Fe81  1  0.12479595  0.12635750  0.12480804  1
  Fe  Fe82  1  0.25195985  0.24915504  0.75228792  1
  Fe  Fe83  1  0.62656259  0.12360757  0.12600166  1
  Fe  Fe84  1  0.75104823  -0.00017386  0.00043532  1
  Fe  Fe85  1  -0.00047588  0.00434415  0.75033434  1
  Fe  Fe86  1  0.50086507  0.74564507  0.49534950  1
  Fe  Fe87  1  0.25230862  0.00060793  0.24996097  1
  Fe  Fe88  1  0.12230010  0.62266405  0.87395799  1
  Fe  Fe89  1  0.87688491  0.37384813  0.12343939  1
  Co  Co90  1  0.75313304  -0.00076048  0.24905474  1
  Co  Co91  1  0.00016852  0.49766115  0.74515381  1
  Co  Co92  1  -0.00068687  0.49732385  0.24947779  1
  Co  Co93  1  0.62318220  0.37480213  0.62468468  1
  Co  Co94  1  0.74861886  0.00359101  0.74678590  1
  Co  Co95  1  0.12321881  0.37711189  0.37687356  1
  Co  Co96  1  0.74765074  0.25228029  0.00246261  1
  Co  Co97  1  0.87089267  0.12570903  0.87610853  1
  Co  Co98  1  0.75128889  0.74522424  0.74999850  1
  Co  Co99  1  0.63070748  0.62302574  0.37504152  1
  Co  Co100  1  -0.00030005  0.75303309  0.50108220  1
  Co  Co101  1  0.87426631  0.12639258  0.37546114  1
  Co  Co102  1  -0.00039355  0.75232121  -0.00415017  1
  Co  Co103  1  0.25345104  0.00240036  0.74691729  1
  Co  Co104  1  0.37520715  0.62209377  0.87601086  1
  Co  Co105  1  0.37635394  0.86993629  0.62495390  1
  Co  Co106  1  0.25016757  0.74644820  0.75126471  1
  Co  Co107  1  0.36837517  0.62549561  0.37515135  1
  Co  Co108  1  0.12593540  0.12112484  0.37568888  1
  Co  Co109  1  0.49697931  -0.00015811  0.24782727  1
  Co  Co110  1  0.12570870  0.12576987  0.87362692  1
  Co  Co111  1  0.12525057  0.62733611  0.62279671  1
  Co  Co112  1  0.37362896  0.87275788  0.12528627  1
  Co  Co113  1  0.50019322  0.25137521  0.75362640  1
  Co  Co114  1  0.74477668  0.24993314  0.49767882  1
  Co  Co115  1  0.37570952  0.13071765  0.62429267  1
  Co  Co116  1  0.12703991  0.37087574  0.62626156  1
  Co  Co117  1  0.50028736  0.74616903  0.25205495  1
  Co  Co118  1  0.87845551  0.62631892  0.12398157  1
  Co  Co119  1  0.00116026  0.49714397  0.00255553  1
  Co  Co120  1  0.37654010  0.37610736  0.37395625  1
  Co  Co121  1  0.12420207  0.37164451  0.12394610  1
  Co  Co122  1  0.87468984  0.37140868  0.62103831  1
  Co  Co123  1  -0.00019618  0.75156197  0.25283194  1
  Co  Co124  1  0.49875770  0.50251915  0.49951445  1
  Co  Co125  1  0.87393275  0.37767103  0.87661818  1
  Co  Co126  1  0.37566656  0.12447698  0.37509541  1
  Co  Co127  1  0.62253705  0.37811590  0.12902840  1
