# generated using pymatgen
data_Fe45Co19
_symmetry_space_group_name_H-M   'P 1'
_cell_length_a   11.41662926
_cell_length_b   11.41588847
_cell_length_c   11.41509051
_cell_angle_alpha   89.99519637
_cell_angle_beta   90.00307156
_cell_angle_gamma   90.00168986
_symmetry_Int_Tables_number   1
_chemical_formula_structural   Fe45Co19
_chemical_formula_sum   'Fe90 Co38'
_cell_volume   1487.73976927
_cell_formula_units_Z   2
loop_
 _symmetry_equiv_pos_site_id
 _symmetry_equiv_pos_as_xyz
  1  'x, y, z'
loop_
 _atom_site_type_symbol
 _atom_site_label
 _atom_site_symmetry_multiplicity
 _atom_site_fract_x
 _atom_site_fract_y
 _atom_site_fract_z
 _atom_site_occupancy
  Fe  Fe0  1  0.75254206  0.25128811  -0.00340898  1
  Fe  Fe1  1  0.37768431  0.12728145  0.62655247  1
  Fe  Fe2  1  0.37327791  0.87335912  0.12797028  1
  Fe  Fe3  1  0.74888297  0.50368078  0.24927839  1
  Fe  Fe4  1  -0.00231079  0.24848712  -0.00327507  1
  Fe  Fe5  1  0.62671089  0.12487530  0.12585761  1
  Fe  Fe6  1  0.37576828  0.12583974  0.12479091  1
  Fe  Fe7  1  0.87034577  0.37483303  0.62306835  1
  Fe  Fe8  1  0.87635264  0.12342810  0.37411032  1
  Fe  Fe9  1  0.62025049  0.62571319  0.37939802  1
  Fe  Fe10  1  0.62518101  0.37800756  0.87648819  1
  Fe  Fe11  1  0.62541739  0.87504288  0.12809183  1
  Fe  Fe12  1  0.12453412  0.12514922  0.12435852  1
  Fe  Fe13  1  0.87377871  0.87508263  0.37634688  1
  Fe  Fe14  1  0.00018766  -0.00132260  0.24928310  1
  Fe  Fe15  1  0.49838751  -0.00011980  0.49977135  1
  Fe  Fe16  1  0.87362333  0.37762861  0.12447257  1
  Fe  Fe17  1  0.62617263  0.37579949  0.38036889  1
  Fe  Fe18  1  0.37518288  0.87445650  0.62633366  1
  Fe  Fe19  1  0.87416422  0.37724083  0.37720645  1
  Fe  Fe20  1  0.12605597  0.62753271  0.12392497  1
  Fe  Fe21  1  0.24938544  0.00133984  -0.00368864  1
  Fe  Fe22  1  0.12599537  0.37455846  0.12373261  1
  Fe  Fe23  1  0.62275506  0.12415612  0.37482055  1
  Fe  Fe24  1  0.87495263  0.62714245  0.62301549  1
  Fe  Fe25  1  0.50142636  0.49916182  0.24939942  1
  Fe  Fe26  1  0.12693624  0.87574419  0.37588097  1
  Fe  Fe27  1  0.12863472  0.87313858  0.12417645  1
  Fe  Fe28  1  0.50037520  0.49481408  0.74373261  1
  Fe  Fe29  1  0.12499731  0.37596950  0.87388630  1
  Fe  Fe30  1  0.00008019  0.75242370  -0.00246301  1
  Fe  Fe31  1  0.25010994  0.24815742  -0.00295896  1
  Fe  Fe32  1  0.12604350  0.87422962  0.62705554  1
  Fe  Fe33  1  0.12334793  0.37552179  0.37723422  1
  Fe  Fe34  1  0.87437367  0.62548469  0.87426563  1
  Fe  Fe35  1  -0.00006557  0.25009341  0.24969545  1
  Fe  Fe36  1  0.37657184  0.62616142  0.12745733  1
  Fe  Fe37  1  0.24906621  0.24636916  0.49836528  1
  Fe  Fe38  1  0.25146906  0.50190840  0.49958254  1
  Fe  Fe39  1  0.49929850  0.75002103  0.00014926  1
  Fe  Fe40  1  0.74917072  0.49881902  0.74816959  1
  Fe  Fe41  1  0.37689953  0.62607203  0.62502968  1
  Fe  Fe42  1  0.62620733  0.37787354  0.12162836  1
  Fe  Fe43  1  0.87291909  0.12312494  0.12448361  1
  Fe  Fe44  1  0.74823543  0.74707405  0.25060016  1
  Fe  Fe45  1  -0.00406509  0.25112198  0.75238069  1
  Fe  Fe46  1  0.25355467  0.74937687  0.49540244  1
  Fe  Fe47  1  0.74847168  0.74618684  0.00243573  1
  Fe  Fe48  1  0.37448218  0.37609818  0.87267729  1
  Fe  Fe49  1  0.24895796  0.24850389  0.25208710  1
  Fe  Fe50  1  0.87267571  0.12341344  0.62850747  1
  Fe  Fe51  1  0.25030302  0.74956341  0.75134136  1
  Fe  Fe52  1  0.12344098  0.12373777  0.62884572  1
  Fe  Fe53  1  0.50134416  -0.00044509  0.74955846  1
  Fe  Fe54  1  0.62327181  0.62759149  0.62268583  1
  Fe  Fe55  1  0.62215394  0.87514878  0.37443188  1
  Fe  Fe56  1  0.62332218  0.62297281  0.87508189  1
  Fe  Fe57  1  0.49936210  0.25031466  -0.00198960  1
  Fe  Fe58  1  0.37473772  0.87618592  0.87334012  1
  Fe  Fe59  1  -0.00073966  0.24978658  0.50138945  1
  Fe  Fe60  1  0.87232185  0.87419768  0.12437263  1
  Fe  Fe61  1  0.74936932  -0.00036720  0.50144747  1
  Fe  Fe62  1  0.50087464  0.25029679  0.25054251  1
  Fe  Fe63  1  0.24815325  0.50313682  0.25263327  1
  Fe  Fe64  1  0.62341325  0.87244800  0.62313694  1
  Fe  Fe65  1  0.37649936  0.37525129  0.37721860  1
  Fe  Fe66  1  0.50197104  -0.00052391  0.00128327  1
  Fe  Fe67  1  0.12532387  0.62636193  0.62388382  1
  Fe  Fe68  1  0.62597467  0.13017165  0.62753003  1
  Fe  Fe69  1  0.25191398  0.50198885  -0.00114776  1
  Fe  Fe70  1  0.74991027  0.25037974  0.25165123  1
  Fe  Fe71  1  0.37436697  0.37516407  0.12553594  1
  Fe  Fe72  1  0.00022024  0.75118435  0.50090095  1
  Fe  Fe73  1  0.12503454  0.62655083  0.87428499  1
  Fe  Fe74  1  -0.00059201  0.50098978  0.00087750  1
  Fe  Fe75  1  0.25142483  0.00196476  0.49960841  1
  Fe  Fe76  1  0.87719992  0.62483118  0.37709138  1
  Fe  Fe77  1  0.00231546  0.75082870  0.25029775  1
  Fe  Fe78  1  0.37800328  0.62424624  0.87237548  1
  Fe  Fe79  1  0.00140535  0.50086783  0.24946636  1
  Fe  Fe80  1  0.25118959  0.00253873  0.25241893  1
  Fe  Fe81  1  -0.00226110  -0.00611433  0.75363349  1
  Fe  Fe82  1  0.12813875  0.37465118  0.62624476  1
  Fe  Fe83  1  -0.00058673  -0.00174988  -0.00365803  1
  Fe  Fe84  1  0.25160791  0.24644248  0.75289570  1
  Fe  Fe85  1  0.75063056  0.75236366  0.74710042  1
  Fe  Fe86  1  0.00079034  0.50086581  0.74680968  1
  Fe  Fe87  1  0.62719788  0.87456714  0.87494726  1
  Fe  Fe88  1  0.62722857  0.12445670  0.87256267  1
  Fe  Fe89  1  0.00094403  0.00035184  0.50072051  1
  Co  Co90  1  0.37867655  0.12256135  0.87434321  1
  Co  Co91  1  0.74773009  -0.00024849  0.00185214  1
  Co  Co92  1  0.25008364  0.50257488  0.74977768  1
  Co  Co93  1  0.74945443  0.75147228  0.49963354  1
  Co  Co94  1  0.12877399  0.87370747  0.87305278  1
  Co  Co95  1  0.87122685  0.11986881  0.87291790  1
  Co  Co96  1  0.49945466  0.49688487  0.50659915  1
  Co  Co97  1  0.12273524  0.12413219  0.87248558  1
  Co  Co98  1  0.49550311  0.49995977  -0.00030475  1
  Co  Co99  1  0.49995462  0.25226504  0.50088492  1
  Co  Co100  1  0.87607505  0.87459115  0.62316180  1
  Co  Co101  1  0.38081408  0.62313854  0.37477746  1
  Co  Co102  1  0.75193812  0.25363708  0.75449552  1
  Co  Co103  1  0.49657688  0.75212826  0.49961670  1
  Co  Co104  1  0.37818117  0.12594449  0.37545881  1
  Co  Co105  1  0.12069828  0.62438248  0.37812053  1
  Co  Co106  1  -0.00016663  0.49784486  0.50411917  1
  Co  Co107  1  0.75226992  0.24571922  0.49754160  1
  Co  Co108  1  0.86922691  0.87353585  0.87665151  1
  Co  Co109  1  0.87738140  0.62598088  0.12580481  1
  Co  Co110  1  0.50067465  0.75142689  0.75097584  1
  Co  Co111  1  0.62110490  0.62261519  0.12234145  1
  Co  Co112  1  0.49904115  0.00158159  0.24787559  1
  Co  Co113  1  0.74877726  0.50315326  0.50090665  1
  Co  Co114  1  -0.00108876  0.75116993  0.75032952  1
  Co  Co115  1  0.24882094  0.74660926  0.25444416  1
  Co  Co116  1  0.63099413  0.36961548  0.62154375  1
  Co  Co117  1  0.12259665  0.12442837  0.37444726  1
  Co  Co118  1  0.50006748  0.25399966  0.75079235  1
  Co  Co119  1  0.36976044  0.37151784  0.62440232  1
  Co  Co120  1  0.75044666  -0.00032445  0.25112323  1
  Co  Co121  1  0.50133572  0.74965787  0.24911992  1
  Co  Co122  1  0.37617060  0.87599314  0.37218453  1
  Co  Co123  1  0.75225323  0.50262781  0.00108911  1
  Co  Co124  1  0.25177421  0.00084134  0.74946674  1
  Co  Co125  1  0.25351556  0.74856484  -0.00226570  1
  Co  Co126  1  0.87648132  0.38044493  0.87537715  1
  Co  Co127  1  0.74805258  -0.00454743  0.74577491  1
