# generated using pymatgen
data_Fe45Co19
_symmetry_space_group_name_H-M   'P 1'
_cell_length_a   11.41400651
_cell_length_b   11.41497257
_cell_length_c   11.41461738
_cell_angle_alpha   90.00852992
_cell_angle_beta   89.99922127
_cell_angle_gamma   89.99887415
_symmetry_Int_Tables_number   1
_chemical_formula_structural   Fe45Co19
_chemical_formula_sum   'Fe90 Co38'
_cell_volume   1487.21700155
_cell_formula_units_Z   2
loop_
 _symmetry_equiv_pos_site_id
 _symmetry_equiv_pos_as_xyz
  1  'x, y, z'
loop_
 _atom_site_type_symbol
 _atom_site_label
 _atom_site_symmetry_multiplicity
 _atom_site_fract_x
 _atom_site_fract_y
 _atom_site_fract_z
 _atom_site_occupancy
  Fe  Fe0  1  0.37880520  0.12403609  0.12507862  1
  Fe  Fe1  1  0.37244195  0.62245964  0.87521185  1
  Fe  Fe2  1  0.12877257  0.62135655  0.87503623  1
  Fe  Fe3  1  0.37930621  0.37708339  0.12689541  1
  Fe  Fe4  1  0.49953125  0.49984876  0.74841834  1
  Fe  Fe5  1  -0.00215964  0.74984308  0.25140287  1
  Fe  Fe6  1  0.74791160  0.00029648  0.00083079  1
  Fe  Fe7  1  0.12573141  0.37465938  0.12637566  1
  Fe  Fe8  1  0.00058132  0.25006059  0.25211518  1
  Fe  Fe9  1  0.37953466  0.12628864  0.62389343  1
  Fe  Fe10  1  0.25152975  0.50202469  0.25143133  1
  Fe  Fe11  1  0.12447406  0.62521163  0.12700704  1
  Fe  Fe12  1  0.25171669  0.74894227  0.74784568  1
  Fe  Fe13  1  0.24934236  0.24911405  -0.00094459  1
  Fe  Fe14  1  0.00091121  0.75035322  -0.00002961  1
  Fe  Fe15  1  0.74573961  0.50086107  0.50179841  1
  Fe  Fe16  1  0.50078074  0.25412318  0.49712972  1
  Fe  Fe17  1  0.74979133  -0.00115023  0.74978102  1
  Fe  Fe18  1  -0.00203607  0.75008051  0.75130904  1
  Fe  Fe19  1  0.12558439  0.12464120  0.37611859  1
  Fe  Fe20  1  0.86766304  0.87423028  0.37264422  1
  Fe  Fe21  1  0.12801976  0.87315571  0.37525357  1
  Fe  Fe22  1  0.87290398  0.87237503  0.62468178  1
  Fe  Fe23  1  0.74913201  0.25052703  0.74988609  1
  Fe  Fe24  1  0.25084298  0.74779772  0.00164988  1
  Fe  Fe25  1  0.87498936  0.12637955  0.62367301  1
  Fe  Fe26  1  0.25101559  0.24882921  0.49834762  1
  Fe  Fe27  1  0.87528580  0.62304107  0.12478519  1
  Fe  Fe28  1  -0.00058293  0.49908875  0.25172872  1
  Fe  Fe29  1  0.37999497  0.62319381  0.12862110  1
  Fe  Fe30  1  0.25181196  0.50434500  0.49840937  1
  Fe  Fe31  1  0.12676338  0.87313222  0.62322586  1
  Fe  Fe32  1  0.00373218  0.25055817  -0.00102736  1
  Fe  Fe33  1  0.62506275  0.87338186  0.87467587  1
  Fe  Fe34  1  0.50147968  0.75607606  0.49248498  1
  Fe  Fe35  1  0.12591471  0.37564311  0.62346753  1
  Fe  Fe36  1  0.49811516  -0.00044045  0.75031558  1
  Fe  Fe37  1  0.49857980  0.25152424  -0.00260633  1
  Fe  Fe38  1  0.25272034  0.74639218  0.25343006  1
  Fe  Fe39  1  -0.00219064  0.74890120  0.49739317  1
  Fe  Fe40  1  0.87139189  0.37372427  0.37505481  1
  Fe  Fe41  1  0.37601242  0.87514078  0.12641959  1
  Fe  Fe42  1  0.87628057  0.12656043  0.12503850  1
  Fe  Fe43  1  0.12708459  0.87439544  0.12772226  1
  Fe  Fe44  1  0.74876605  0.50170439  0.74741943  1
  Fe  Fe45  1  0.37667019  0.37527402  0.62287255  1
  Fe  Fe46  1  0.62298782  0.62835494  0.62382086  1
  Fe  Fe47  1  0.87512986  0.12425944  0.87559669  1
  Fe  Fe48  1  0.25391853  0.24844104  0.25181229  1
  Fe  Fe49  1  -0.00142512  -0.00094409  0.49834298  1
  Fe  Fe50  1  0.61885663  0.12324918  0.12566233  1
  Fe  Fe51  1  0.12360848  0.12468954  0.62441411  1
  Fe  Fe52  1  0.87332969  0.62468126  0.87517842  1
  Fe  Fe53  1  -0.00087460  0.50010367  0.49837260  1
  Fe  Fe54  1  0.62591714  0.62469073  0.87522099  1
  Fe  Fe55  1  0.00148654  0.25147108  0.75041214  1
  Fe  Fe56  1  0.74653631  0.49771122  0.24629779  1
  Fe  Fe57  1  0.12597447  0.87583869  0.87487537  1
  Fe  Fe58  1  -0.00156457  -0.00124701  0.75005390  1
  Fe  Fe59  1  0.74802429  0.25176759  0.00258919  1
  Fe  Fe60  1  0.74939934  0.74954714  0.00161143  1
  Fe  Fe61  1  0.24993981  0.00233570  -0.00020929  1
  Fe  Fe62  1  0.25022023  0.24930266  0.75119903  1
  Fe  Fe63  1  0.87340530  0.12661651  0.37579161  1
  Fe  Fe64  1  0.25267330  0.00271737  0.25128160  1
  Fe  Fe65  1  0.00213850  0.00022304  0.00159235  1
  Fe  Fe66  1  0.74636316  -0.00055770  0.50090089  1
  Fe  Fe67  1  0.74571243  0.25127630  0.24639725  1
  Fe  Fe68  1  0.87328788  0.37471124  0.62310666  1
  Fe  Fe69  1  0.62101267  0.62210851  0.12540651  1
  Fe  Fe70  1  0.62093832  0.12721254  0.62617662  1
  Fe  Fe71  1  0.37478983  0.87522084  0.87478243  1
  Fe  Fe72  1  0.37916757  0.62831822  0.62108695  1
  Fe  Fe73  1  0.25289704  0.00106091  0.74866099  1
  Fe  Fe74  1  0.12728282  0.37589155  0.37547978  1
  Fe  Fe75  1  0.12375151  0.62634130  0.62346121  1
  Fe  Fe76  1  0.62209710  0.12532456  0.87411828  1
  Fe  Fe77  1  0.86975431  0.62498894  0.37511199  1
  Fe  Fe78  1  0.49990209  0.75072675  0.00070639  1
  Fe  Fe79  1  0.74726514  0.24948424  0.50067024  1
  Fe  Fe80  1  0.00165363  0.49849478  0.00054906  1
  Fe  Fe81  1  0.25422707  -0.00082781  0.50120099  1
  Fe  Fe82  1  0.62306667  0.87240924  0.62795788  1
  Fe  Fe83  1  0.62535188  0.37747158  0.87541538  1
  Fe  Fe84  1  0.87168489  0.87553805  0.12602579  1
  Fe  Fe85  1  -0.00036087  0.00022484  0.25104087  1
  Fe  Fe86  1  0.62097328  0.12294663  0.37383367  1
  Fe  Fe87  1  0.87323041  0.37605673  0.87725945  1
  Fe  Fe88  1  0.37185759  0.37862419  0.87466890  1
  Fe  Fe89  1  0.00017180  0.49908841  0.74952978  1
  Co  Co90  1  0.12488979  0.12314720  0.87324025  1
  Co  Co91  1  0.37715571  0.87206715  0.62512219  1
  Co  Co92  1  0.74977927  0.49943255  0.00285595  1
  Co  Co93  1  0.62709639  0.37464491  0.37501655  1
  Co  Co94  1  0.25169741  0.74759031  0.49881488  1
  Co  Co95  1  0.87458793  0.62498847  0.62417798  1
  Co  Co96  1  0.12610334  0.12565604  0.12685097  1
  Co  Co97  1  0.25079856  0.50076525  0.00606559  1
  Co  Co98  1  0.74968581  0.00556710  0.24827747  1
  Co  Co99  1  0.50136855  -0.00517071  0.49853109  1
  Co  Co100  1  0.37111842  0.87494068  0.37356958  1
  Co  Co101  1  0.37681334  0.12420200  0.87523156  1
  Co  Co102  1  0.50009740  -0.00313366  -0.00080392  1
  Co  Co103  1  0.37388800  0.37697534  0.37572735  1
  Co  Co104  1  0.25255693  0.50161444  0.74367617  1
  Co  Co105  1  0.12951327  0.37837485  0.87478369  1
  Co  Co106  1  0.62462983  0.37335663  0.62624925  1
  Co  Co107  1  0.50151442  0.75395931  0.25124722  1
  Co  Co108  1  0.38085693  0.62416003  0.37503102  1
  Co  Co109  1  0.74778858  0.75032887  0.50155113  1
  Co  Co110  1  0.61926374  0.37692862  0.12235106  1
  Co  Co111  1  0.87653160  0.37368908  0.12474871  1
  Co  Co112  1  0.75164670  0.74965710  0.75009247  1
  Co  Co113  1  0.74762503  0.74537020  0.24577957  1
  Co  Co114  1  0.50010894  0.25221827  0.25214867  1
  Co  Co115  1  0.12431706  0.62554832  0.37452851  1
  Co  Co116  1  0.00092385  0.25084455  0.49893453  1
  Co  Co117  1  0.49835028  0.50125891  -0.00321023  1
  Co  Co118  1  0.50297467  0.49687991  0.25549414  1
  Co  Co119  1  0.49858909  -0.00430969  0.25250533  1
  Co  Co120  1  0.87387270  0.87530066  0.87731996  1
  Co  Co121  1  0.63183565  0.87566795  0.36926957  1
  Co  Co122  1  0.62478884  0.62581227  0.37490023  1
  Co  Co123  1  0.38000144  0.12452238  0.37696092  1
  Co  Co124  1  0.49799864  0.74843705  0.75398465  1
  Co  Co125  1  0.62637717  0.87670238  0.12731740  1
  Co  Co126  1  0.50280075  0.49714240  0.49950020  1
  Co  Co127  1  0.49854358  0.25385304  0.75242191  1
