# generated using pymatgen
data_Fe45Co19
_symmetry_space_group_name_H-M   'P 1'
_cell_length_a   11.41595181
_cell_length_b   11.41651081
_cell_length_c   11.41519906
_cell_angle_alpha   89.99762404
_cell_angle_beta   90.00344257
_cell_angle_gamma   90.00804366
_symmetry_Int_Tables_number   1
_chemical_formula_structural   Fe45Co19
_chemical_formula_sum   'Fe90 Co38'
_cell_volume   1487.74672393
_cell_formula_units_Z   2
loop_
 _symmetry_equiv_pos_site_id
 _symmetry_equiv_pos_as_xyz
  1  'x, y, z'
loop_
 _atom_site_type_symbol
 _atom_site_label
 _atom_site_symmetry_multiplicity
 _atom_site_fract_x
 _atom_site_fract_y
 _atom_site_fract_z
 _atom_site_occupancy
  Fe  Fe0  1  0.37503560  0.62413851  0.87541230  1
  Fe  Fe1  1  0.75187852  0.75081076  -0.00342649  1
  Fe  Fe2  1  0.24982857  0.75001659  0.24801463  1
  Fe  Fe3  1  0.87321812  0.87407751  0.12774479  1
  Fe  Fe4  1  0.50039408  0.50056836  0.24778771  1
  Fe  Fe5  1  0.12797894  0.87821712  0.12314302  1
  Fe  Fe6  1  -0.00070957  0.75116190  0.74888791  1
  Fe  Fe7  1  0.75142136  0.24872833  0.24973009  1
  Fe  Fe8  1  0.62525178  0.87675072  0.87580053  1
  Fe  Fe9  1  0.37427594  0.12514814  0.87534846  1
  Fe  Fe10  1  0.75115594  0.75141490  0.25422292  1
  Fe  Fe11  1  0.50066559  0.74974315  0.75058602  1
  Fe  Fe12  1  0.24851930  0.24815996  0.74858766  1
  Fe  Fe13  1  0.49927222  0.49849739  -0.00031178  1
  Fe  Fe14  1  0.12441225  0.87638717  0.37508963  1
  Fe  Fe15  1  0.87654367  0.12454650  0.37769738  1
  Fe  Fe16  1  0.00088217  0.75010872  0.25027288  1
  Fe  Fe17  1  0.24898790  0.00102101  0.50150614  1
  Fe  Fe18  1  0.50035896  0.24977740  0.74980672  1
  Fe  Fe19  1  0.12433082  0.62458444  0.62499969  1
  Fe  Fe20  1  0.62765911  0.87370095  0.62574053  1
  Fe  Fe21  1  0.37581619  0.12666596  0.37498532  1
  Fe  Fe22  1  0.25124712  0.49711000  0.24811440  1
  Fe  Fe23  1  0.49982234  0.00130107  0.50155097  1
  Fe  Fe24  1  0.37394610  0.87700663  0.87563693  1
  Fe  Fe25  1  0.49924416  0.24838842  0.24693452  1
  Fe  Fe26  1  0.75056323  0.50009508  0.49951911  1
  Fe  Fe27  1  0.75000970  -0.00144083  0.49885876  1
  Fe  Fe28  1  -0.00181691  0.49521004  -0.00028971  1
  Fe  Fe29  1  0.75234104  0.24740893  0.75154897  1
  Fe  Fe30  1  0.62458975  0.62420140  0.87562277  1
  Fe  Fe31  1  0.24400399  -0.00001660  0.75039685  1
  Fe  Fe32  1  0.24928992  0.74960265  0.75158414  1
  Fe  Fe33  1  0.25183000  0.24981412  0.50138013  1
  Fe  Fe34  1  0.24862695  0.49776288  0.00147210  1
  Fe  Fe35  1  0.62638330  0.37470753  0.87457251  1
  Fe  Fe36  1  0.37588428  0.62495442  0.37239933  1
  Fe  Fe37  1  0.62433413  0.37702029  0.62586836  1
  Fe  Fe38  1  -0.00044006  0.25221849  0.50169015  1
  Fe  Fe39  1  0.25154155  0.50029502  0.50097802  1
  Fe  Fe40  1  0.87430884  0.62464245  0.12546533  1
  Fe  Fe41  1  0.75291092  0.00171956  0.00080425  1
  Fe  Fe42  1  0.37272021  0.87627114  0.62685731  1
  Fe  Fe43  1  0.37447178  0.37299396  0.87665852  1
  Fe  Fe44  1  0.49830890  0.75036162  0.00144739  1
  Fe  Fe45  1  0.62560512  0.12560604  0.62430521  1
  Fe  Fe46  1  0.12593519  0.37407413  0.37458082  1
  Fe  Fe47  1  0.49907214  0.74877040  0.50078920  1
  Fe  Fe48  1  0.62204328  0.37338806  0.37592177  1
  Fe  Fe49  1  0.25049658  0.75106246  -0.00015511  1
  Fe  Fe50  1  0.75355637  0.49804608  -0.00078523  1
  Fe  Fe51  1  0.25059407  0.50117935  0.74861035  1
  Fe  Fe52  1  0.24581034  0.24904065  0.00340874  1
  Fe  Fe53  1  -0.00068438  0.75275888  0.00160762  1
  Fe  Fe54  1  0.75507264  0.50296091  0.75205523  1
  Fe  Fe55  1  0.62591252  0.62680616  0.12412415  1
  Fe  Fe56  1  0.62521838  0.87490905  0.12562066  1
  Fe  Fe57  1  0.12408371  0.62328926  0.37428493  1
  Fe  Fe58  1  0.00057801  -0.00193666  0.50563033  1
  Fe  Fe59  1  0.25092498  0.74870426  0.49976116  1
  Fe  Fe60  1  0.62655052  0.12530961  0.87784919  1
  Fe  Fe61  1  0.49893398  0.00265181  0.00190918  1
  Fe  Fe62  1  0.11842189  0.12120096  0.87837814  1
  Fe  Fe63  1  0.62562820  0.37134867  0.12248178  1
  Fe  Fe64  1  0.12428044  0.12658008  0.37566944  1
  Fe  Fe65  1  0.75232439  0.00218756  0.75040144  1
  Fe  Fe66  1  -0.00150874  0.24890909  0.74768130  1
  Fe  Fe67  1  0.75067584  0.00195126  0.25028133  1
  Fe  Fe68  1  0.87676821  0.87750098  0.87157787  1
  Fe  Fe69  1  0.12376757  0.37675886  0.87057535  1
  Fe  Fe70  1  0.74912385  0.25082673  0.50012104  1
  Fe  Fe71  1  0.37755060  0.37336928  0.37518568  1
  Fe  Fe72  1  0.12515523  0.62261503  0.12413816  1
  Fe  Fe73  1  0.12174837  0.62415352  0.87559255  1
  Fe  Fe74  1  0.62427395  0.62617642  0.37406665  1
  Fe  Fe75  1  0.87888786  0.13098061  0.12078585  1
  Fe  Fe76  1  0.37604798  0.87486443  0.37344493  1
  Fe  Fe77  1  0.75329870  0.75108453  0.49654840  1
  Fe  Fe78  1  -0.00144921  0.49799823  0.24916577  1
  Fe  Fe79  1  0.74987992  0.49862358  0.24921547  1
  Fe  Fe80  1  0.37729373  0.37613259  0.62486880  1
  Fe  Fe81  1  0.62402815  0.12501615  0.37513700  1
  Fe  Fe82  1  0.24952512  0.00368712  0.24832039  1
  Fe  Fe83  1  -0.00029371  0.00146923  0.24809472  1
  Fe  Fe84  1  0.50105953  0.00124401  0.74957262  1
  Fe  Fe85  1  0.87433491  0.37545006  0.37451429  1
  Fe  Fe86  1  -0.00159577  0.49849217  0.50326185  1
  Fe  Fe87  1  0.50074343  -0.00002202  0.24799670  1
  Fe  Fe88  1  0.62567277  0.62443152  0.62689587  1
  Fe  Fe89  1  -0.00233496  0.75096155  0.49850272  1
  Co  Co90  1  -0.00214442  0.49987235  0.74786169  1
  Co  Co91  1  0.12551311  0.12757382  0.62304545  1
  Co  Co92  1  0.37331373  0.12344024  0.62784967  1
  Co  Co93  1  0.62693241  0.12636838  0.12375233  1
  Co  Co94  1  0.87512532  0.37273164  0.87262010  1
  Co  Co95  1  0.87761663  0.87839617  0.37447955  1
  Co  Co96  1  0.87456813  0.37208372  0.12605755  1
  Co  Co97  1  -0.00305426  -0.00471950  0.00301744  1
  Co  Co98  1  0.37348765  0.12622745  0.12356373  1
  Co  Co99  1  0.62307719  0.87548206  0.37469006  1
  Co  Co100  1  0.87261127  0.37395976  0.62616787  1
  Co  Co101  1  0.87900506  0.62537818  0.87694362  1
  Co  Co102  1  0.37380215  0.62332977  0.12414657  1
  Co  Co103  1  0.49901393  0.49907721  0.75238230  1
  Co  Co104  1  0.12676752  0.87167129  0.62387057  1
  Co  Co105  1  0.00197814  0.00017170  0.74463868  1
  Co  Co106  1  0.87425058  0.62698710  0.62467155  1
  Co  Co107  1  0.87970478  0.12408996  0.87695330  1
  Co  Co108  1  0.74952080  0.74822180  0.75452387  1
  Co  Co109  1  0.12294514  0.87558533  0.87644872  1
  Co  Co110  1  0.12094347  0.12535249  0.12327568  1
  Co  Co111  1  0.00302064  0.25660377  -0.00230363  1
  Co  Co112  1  0.12347069  0.37392489  0.12886644  1
  Co  Co113  1  0.37622749  0.37288044  0.12277856  1
  Co  Co114  1  0.12647839  0.37495734  0.62606091  1
  Co  Co115  1  0.87588904  0.62214192  0.37356684  1
  Co  Co116  1  0.24912523  0.00216783  -0.00134150  1
  Co  Co117  1  0.50003989  0.24831090  0.50326238  1
  Co  Co118  1  0.00030110  0.25013882  0.25342750  1
  Co  Co119  1  0.24895512  0.24959515  0.24866387  1
  Co  Co120  1  0.87391537  0.12550414  0.62320189  1
  Co  Co121  1  0.37555180  0.62423836  0.62694777  1
  Co  Co122  1  0.87155993  0.87393799  0.62681088  1
  Co  Co123  1  0.37379353  0.87738692  0.12439756  1
  Co  Co124  1  0.50137438  0.24808816  -0.00219367  1
  Co  Co125  1  0.49918325  0.74998471  0.24783657  1
  Co  Co126  1  0.50060953  0.50187053  0.49917281  1
  Co  Co127  1  0.75121590  0.25052074  -0.00280698  1
