# generated using pymatgen
data_Fe45Co19
_symmetry_space_group_name_H-M   'P 1'
_cell_length_a   11.41419381
_cell_length_b   11.41515678
_cell_length_c   11.41483661
_cell_angle_alpha   89.99979099
_cell_angle_beta   89.98736260
_cell_angle_gamma   89.99717089
_symmetry_Int_Tables_number   1
_chemical_formula_structural   Fe45Co19
_chemical_formula_sum   'Fe90 Co38'
_cell_volume   1487.29395076
_cell_formula_units_Z   2
loop_
 _symmetry_equiv_pos_site_id
 _symmetry_equiv_pos_as_xyz
  1  'x, y, z'
loop_
 _atom_site_type_symbol
 _atom_site_label
 _atom_site_symmetry_multiplicity
 _atom_site_fract_x
 _atom_site_fract_y
 _atom_site_fract_z
 _atom_site_occupancy
  Fe  Fe0  1  0.50174258  0.75036042  0.00164848  1
  Fe  Fe1  1  0.62552492  0.87387956  0.37616213  1
  Fe  Fe2  1  -0.00484439  0.75007876  -0.00041897  1
  Fe  Fe3  1  0.25115341  0.50039779  -0.00048032  1
  Fe  Fe4  1  0.75183154  0.75088651  0.75028233  1
  Fe  Fe5  1  0.75259953  0.00154670  -0.00021688  1
  Fe  Fe6  1  0.74752706  0.24978972  0.75047415  1
  Fe  Fe7  1  0.50074761  0.00145059  0.74988562  1
  Fe  Fe8  1  0.12448315  0.62404706  0.12379546  1
  Fe  Fe9  1  0.24817123  0.24877733  0.24810375  1
  Fe  Fe10  1  0.37533394  0.62642240  0.87405292  1
  Fe  Fe11  1  0.37775114  0.12649572  0.37454383  1
  Fe  Fe12  1  0.24807412  0.49957774  0.24895913  1
  Fe  Fe13  1  0.87353264  0.62613713  0.37392444  1
  Fe  Fe14  1  0.87237697  0.12625226  0.12881025  1
  Fe  Fe15  1  0.87465179  0.12337081  0.62489167  1
  Fe  Fe16  1  0.24928545  0.75148214  0.00183321  1
  Fe  Fe17  1  0.75192645  0.50231742  0.00136555  1
  Fe  Fe18  1  0.12420995  0.12206318  0.62568921  1
  Fe  Fe19  1  0.62342909  0.12936894  0.37183098  1
  Fe  Fe20  1  0.00075536  0.25087681  0.49980141  1
  Fe  Fe21  1  0.37554772  0.37160467  0.62851043  1
  Fe  Fe22  1  0.74842946  0.49958607  0.49796614  1
  Fe  Fe23  1  0.37427940  0.87437441  0.12836415  1
  Fe  Fe24  1  0.87411482  0.87926798  0.62494455  1
  Fe  Fe25  1  0.00019796  0.24662408  0.00096968  1
  Fe  Fe26  1  -0.00101679  0.49633876  0.24851163  1
  Fe  Fe27  1  0.74987049  0.24872998  -0.00005448  1
  Fe  Fe28  1  0.24811910  0.24585299  0.00073699  1
  Fe  Fe29  1  0.50389498  -0.00056857  0.24867072  1
  Fe  Fe30  1  0.00089764  0.24865302  0.75068119  1
  Fe  Fe31  1  0.12207526  0.12505483  0.37341852  1
  Fe  Fe32  1  0.50082444  0.74806353  0.49904646  1
  Fe  Fe33  1  0.62836118  0.87511876  0.87687144  1
  Fe  Fe34  1  0.00116096  0.49863223  0.50003088  1
  Fe  Fe35  1  0.50171972  0.49929200  0.25045957  1
  Fe  Fe36  1  0.00191075  0.75084796  0.24908283  1
  Fe  Fe37  1  0.12490027  0.62436783  0.37511023  1
  Fe  Fe38  1  0.12417505  0.87828388  0.62477841  1
  Fe  Fe39  1  0.50015147  0.00008705  0.00181345  1
  Fe  Fe40  1  0.12518016  0.62521327  0.62537649  1
  Fe  Fe41  1  -0.00247620  0.75139490  0.50023432  1
  Fe  Fe42  1  0.62750665  0.62447833  0.87408500  1
  Fe  Fe43  1  0.37544151  0.87369772  0.37261280  1
  Fe  Fe44  1  0.62668066  0.37189876  0.12622009  1
  Fe  Fe45  1  0.24893871  0.25078512  0.50103190  1
  Fe  Fe46  1  0.37566731  0.37045642  0.87314967  1
  Fe  Fe47  1  0.50204206  0.49793020  0.75123327  1
  Fe  Fe48  1  0.37649126  0.37264146  0.37365596  1
  Fe  Fe49  1  0.50095512  0.24942201  0.00106443  1
  Fe  Fe50  1  0.62559992  0.62664826  0.12593760  1
  Fe  Fe51  1  0.12418071  0.62617423  0.87506406  1
  Fe  Fe52  1  0.62422914  0.37366224  0.62326490  1
  Fe  Fe53  1  0.37531898  0.12280857  0.12538256  1
  Fe  Fe54  1  0.87506336  0.37409151  0.62431534  1
  Fe  Fe55  1  0.62431696  0.12439270  0.87664315  1
  Fe  Fe56  1  0.62525417  0.62583433  0.62480283  1
  Fe  Fe57  1  0.25014225  0.75159528  0.74921487  1
  Fe  Fe58  1  -0.00113103  0.25458045  0.24883746  1
  Fe  Fe59  1  0.12336692  0.87999701  0.87697154  1
  Fe  Fe60  1  0.37427739  0.87692231  0.87533952  1
  Fe  Fe61  1  0.37532666  0.62709293  0.37249998  1
  Fe  Fe62  1  0.24932677  0.49948041  0.74956944  1
  Fe  Fe63  1  0.25053197  0.74906571  0.50011062  1
  Fe  Fe64  1  0.75060633  0.49560019  0.25130959  1
  Fe  Fe65  1  0.50041548  0.75061342  0.74995505  1
  Fe  Fe66  1  -0.00341511  -0.00091615  0.25130083  1
  Fe  Fe67  1  0.12513443  0.11865777  0.87599954  1
  Fe  Fe68  1  -0.00214427  0.75225666  0.75139519  1
  Fe  Fe69  1  0.50031137  0.49998971  0.49856868  1
  Fe  Fe70  1  0.74698462  0.75141829  0.25081248  1
  Fe  Fe71  1  0.50041729  0.49920224  0.00016325  1
  Fe  Fe72  1  0.12588071  0.88010323  0.12390989  1
  Fe  Fe73  1  -0.00077360  0.49860024  0.75018422  1
  Fe  Fe74  1  0.12489936  0.87657747  0.37571970  1
  Fe  Fe75  1  0.87081537  0.87444151  0.12573577  1
  Fe  Fe76  1  0.87254781  0.37473992  0.87514885  1
  Fe  Fe77  1  0.37659689  0.12642669  0.62745798  1
  Fe  Fe78  1  0.87386489  0.62403163  0.62570794  1
  Fe  Fe79  1  0.75277851  0.00071033  0.49437716  1
  Fe  Fe80  1  0.75045790  0.25052438  0.49569180  1
  Fe  Fe81  1  -0.00357127  0.50128842  0.00136788  1
  Fe  Fe82  1  0.37683105  0.87581872  0.62341695  1
  Fe  Fe83  1  0.62530118  0.12349116  0.62180985  1
  Fe  Fe84  1  0.12486619  0.37467541  0.87659716  1
  Fe  Fe85  1  0.37344264  0.37432740  0.12458542  1
  Fe  Fe86  1  0.25040826  0.49850302  0.50163045  1
  Fe  Fe87  1  0.37540385  0.62768962  0.12693399  1
  Fe  Fe88  1  0.25111838  0.00139042  0.49855617  1
  Fe  Fe89  1  0.62623044  0.87702704  0.62307009  1
  Co  Co90  1  0.87392512  0.12661242  0.87357083  1
  Co  Co91  1  0.87353099  0.87700261  0.87499189  1
  Co  Co92  1  -0.00198872  -0.00055324  0.49849779  1
  Co  Co93  1  0.25209627  -0.00066672  0.74934561  1
  Co  Co94  1  0.37640480  0.12629312  0.87378212  1
  Co  Co95  1  0.25256036  0.00141115  0.00146535  1
  Co  Co96  1  0.75145191  0.75104331  0.50142979  1
  Co  Co97  1  0.12580545  0.37509800  0.12284237  1
  Co  Co98  1  0.62728011  0.62582149  0.37486942  1
  Co  Co99  1  0.87373873  0.62302729  0.87211780  1
  Co  Co100  1  0.62742179  0.37543234  0.87823688  1
  Co  Co101  1  0.74921608  0.49760036  0.74779514  1
  Co  Co102  1  0.12241118  0.12192694  0.12706031  1
  Co  Co103  1  0.62931006  0.87569367  0.12162566  1
  Co  Co104  1  0.75267166  0.74658099  -0.00145487  1
  Co  Co105  1  0.24586174  0.24756908  0.75106618  1
  Co  Co106  1  0.49945507  0.25050440  0.50160454  1
  Co  Co107  1  0.74852585  -0.00003497  0.25396351  1
  Co  Co108  1  0.37601286  0.62486059  0.62623555  1
  Co  Co109  1  0.87485577  0.87220622  0.37343290  1
  Co  Co110  1  0.75289939  0.25335839  0.25338953  1
  Co  Co111  1  0.12564609  0.37430389  0.37495280  1
  Co  Co112  1  -0.00261601  0.00081009  0.75066983  1
  Co  Co113  1  0.87379931  0.37307861  0.12116395  1
  Co  Co114  1  0.25044904  0.00188471  0.25206692  1
  Co  Co115  1  0.49868494  0.24952828  0.24573379  1
  Co  Co116  1  0.74871956  0.00224155  0.75090883  1
  Co  Co117  1  0.12464014  0.37491283  0.62563876  1
  Co  Co118  1  0.62172482  0.37104924  0.37371212  1
  Co  Co119  1  0.87648382  0.37590821  0.37822978  1
  Co  Co120  1  0.87814367  0.12706256  0.37304666  1
  Co  Co121  1  0.50018151  0.00069963  0.49774960  1
  Co  Co122  1  -0.00657362  0.00149991  0.00202723  1
  Co  Co123  1  0.24605096  0.74987632  0.24914837  1
  Co  Co124  1  0.62890998  0.12600393  0.12622064  1
  Co  Co125  1  0.50629975  0.24854684  0.75079833  1
  Co  Co126  1  0.87432723  0.62691110  0.12987789  1
  Co  Co127  1  0.50416483  0.75165153  0.24931145  1
