# generated using pymatgen
data_Fe45Co19
_symmetry_space_group_name_H-M   'P 1'
_cell_length_a   11.41504693
_cell_length_b   11.41587433
_cell_length_c   11.41649436
_cell_angle_alpha   90.00222706
_cell_angle_beta   90.00576982
_cell_angle_gamma   90.01076453
_symmetry_Int_Tables_number   1
_chemical_formula_structural   Fe45Co19
_chemical_formula_sum   'Fe90 Co38'
_cell_volume   1487.71463923
_cell_formula_units_Z   2
loop_
 _symmetry_equiv_pos_site_id
 _symmetry_equiv_pos_as_xyz
  1  'x, y, z'
loop_
 _atom_site_type_symbol
 _atom_site_label
 _atom_site_symmetry_multiplicity
 _atom_site_fract_x
 _atom_site_fract_y
 _atom_site_fract_z
 _atom_site_occupancy
  Fe  Fe0  1  0.49925444  0.24980161  0.75081529  1
  Fe  Fe1  1  0.87444064  0.62548190  0.62270292  1
  Fe  Fe2  1  0.49990463  0.50188309  0.25011217  1
  Fe  Fe3  1  0.12535588  0.87588518  0.87374799  1
  Fe  Fe4  1  0.87445947  0.62486861  0.12416110  1
  Fe  Fe5  1  0.49695276  0.74683197  0.75016118  1
  Fe  Fe6  1  0.12553832  0.87591499  0.37401993  1
  Fe  Fe7  1  0.24837467  0.75052175  0.50039908  1
  Fe  Fe8  1  0.87663813  0.87597004  0.12447857  1
  Fe  Fe9  1  0.00047959  0.75036486  0.25165405  1
  Fe  Fe10  1  0.00385012  0.50032061  0.49778885  1
  Fe  Fe11  1  0.49769630  0.74907831  0.25166404  1
  Fe  Fe12  1  0.12759779  0.12603654  0.87488666  1
  Fe  Fe13  1  0.12360161  0.12298718  0.12637846  1
  Fe  Fe14  1  0.25130965  0.25097002  0.74927638  1
  Fe  Fe15  1  0.62807237  0.62717145  0.87414916  1
  Fe  Fe16  1  -0.00126164  0.00219153  0.75230517  1
  Fe  Fe17  1  0.62811974  0.62700710  0.12457978  1
  Fe  Fe18  1  0.25308972  -0.00024527  0.74853160  1
  Fe  Fe19  1  0.12516469  0.62463478  0.62598499  1
  Fe  Fe20  1  0.37307070  0.12427790  0.37451222  1
  Fe  Fe21  1  0.50122691  0.50473874  0.50077343  1
  Fe  Fe22  1  0.75077811  0.49793600  0.74911934  1
  Fe  Fe23  1  0.12382897  0.87551440  0.62607200  1
  Fe  Fe24  1  0.87254323  0.12421753  0.62500122  1
  Fe  Fe25  1  0.12460465  0.12464159  0.62623260  1
  Fe  Fe26  1  0.87335704  0.62594103  0.87549450  1
  Fe  Fe27  1  0.50005097  -0.00113841  0.25333019  1
  Fe  Fe28  1  0.50201150  0.50231597  -0.00093186  1
  Fe  Fe29  1  0.49787809  0.50246777  0.75110472  1
  Fe  Fe30  1  0.62697295  0.37370676  0.87654712  1
  Fe  Fe31  1  0.25210118  0.74928045  0.75105838  1
  Fe  Fe32  1  0.62890095  0.62910025  0.37616465  1
  Fe  Fe33  1  0.36839649  0.62197266  0.37555286  1
  Fe  Fe34  1  0.49959447  0.74849425  -0.00116498  1
  Fe  Fe35  1  0.37179814  0.62483693  0.12434118  1
  Fe  Fe36  1  0.49782596  0.25168949  0.25032993  1
  Fe  Fe37  1  0.62916340  0.12434030  0.87071426  1
  Fe  Fe38  1  0.12634061  0.62375230  0.87408854  1
  Fe  Fe39  1  0.75051068  0.50041588  0.25032973  1
  Fe  Fe40  1  0.87408253  0.87311560  0.37690943  1
  Fe  Fe41  1  0.24788862  0.49628286  0.00290576  1
  Fe  Fe42  1  0.00207990  0.75077986  -0.00007366  1
  Fe  Fe43  1  0.74980353  -0.00195579  0.25150598  1
  Fe  Fe44  1  0.37698024  0.37665044  0.62310005  1
  Fe  Fe45  1  0.75101790  0.25083053  0.24836469  1
  Fe  Fe46  1  0.87530367  0.37623399  0.12357790  1
  Fe  Fe47  1  0.37569532  0.87662286  0.37879109  1
  Fe  Fe48  1  0.50202247  0.24757117  0.49857267  1
  Fe  Fe49  1  0.87584722  0.37428887  0.62127715  1
  Fe  Fe50  1  0.87338702  0.37358628  0.87670773  1
  Fe  Fe51  1  0.62518825  0.87310356  0.12555449  1
  Fe  Fe52  1  -0.00246822  0.24944109  0.75084148  1
  Fe  Fe53  1  0.12737564  0.12641692  0.37313227  1
  Fe  Fe54  1  0.00038050  0.24854598  -0.00227563  1
  Fe  Fe55  1  0.62441229  0.37659972  0.62360477  1
  Fe  Fe56  1  0.37763609  0.87584659  0.62179173  1
  Fe  Fe57  1  0.62408286  0.12448695  0.12811017  1
  Fe  Fe58  1  0.74480358  -0.00069938  0.49854464  1
  Fe  Fe59  1  0.49940591  0.24617699  -0.00082523  1
  Fe  Fe60  1  0.87651765  0.87544688  0.87539143  1
  Fe  Fe61  1  0.37505941  0.87527566  0.12427950  1
  Fe  Fe62  1  0.00098852  0.49962330  -0.00209514  1
  Fe  Fe63  1  0.74985928  -0.00085012  -0.00212410  1
  Fe  Fe64  1  0.62449569  0.37505128  0.12436582  1
  Fe  Fe65  1  0.37344511  0.37310201  0.87848085  1
  Fe  Fe66  1  0.87454102  0.37289788  0.37819275  1
  Fe  Fe67  1  0.12228619  0.37514215  0.62694286  1
  Fe  Fe68  1  0.00233725  0.49960350  0.25344340  1
  Fe  Fe69  1  0.87369048  0.62809496  0.37812865  1
  Fe  Fe70  1  0.25201503  0.49916401  0.74964215  1
  Fe  Fe71  1  0.37656336  0.12324455  0.62427177  1
  Fe  Fe72  1  0.50042456  0.00240171  -0.00296405  1
  Fe  Fe73  1  -0.00030191  0.74866707  0.74982457  1
  Fe  Fe74  1  0.87278141  0.12600136  0.37712758  1
  Fe  Fe75  1  0.25099729  0.00180526  0.00140068  1
  Fe  Fe76  1  0.25255524  0.25397813  0.24421077  1
  Fe  Fe77  1  0.37560660  0.87511696  0.87585444  1
  Fe  Fe78  1  0.12469332  0.87679134  0.12686374  1
  Fe  Fe79  1  0.61951059  0.87474130  0.62368806  1
  Fe  Fe80  1  0.87841840  0.87624629  0.62306003  1
  Fe  Fe81  1  0.62599488  0.37459023  0.37549027  1
  Fe  Fe82  1  0.37279270  0.37819192  0.37640481  1
  Fe  Fe83  1  0.62560149  0.12383844  0.62805936  1
  Fe  Fe84  1  0.24876646  0.25099854  0.50200069  1
  Fe  Fe85  1  -0.00118330  0.24945740  0.25139245  1
  Fe  Fe86  1  0.00281303  0.00191973  0.49805175  1
  Fe  Fe87  1  0.87648626  0.12257824  0.12343402  1
  Fe  Fe88  1  0.12665883  0.62633634  0.12758541  1
  Fe  Fe89  1  0.74972621  0.75378996  0.74825896  1
  Co  Co90  1  0.00205323  0.24822622  0.50036014  1
  Co  Co91  1  0.37236487  0.62451528  0.62317705  1
  Co  Co92  1  0.12608354  0.37433530  0.87340355  1
  Co  Co93  1  0.24808402  0.00062344  0.50102138  1
  Co  Co94  1  0.62257488  0.87357120  0.87479243  1
  Co  Co95  1  0.25181051  0.75340722  0.25065227  1
  Co  Co96  1  0.74844404  0.75318691  0.50413685  1
  Co  Co97  1  0.50300981  0.00453386  0.49673737  1
  Co  Co98  1  0.75222812  0.75044005  0.24797551  1
  Co  Co99  1  0.62432127  0.87053294  0.37468800  1
  Co  Co100  1  0.75006366  -0.00555777  0.74956841  1
  Co  Co101  1  0.24568598  0.49758183  0.50277308  1
  Co  Co102  1  0.00075385  0.00024090  -0.00293358  1
  Co  Co103  1  0.37775585  0.12300214  0.12687782  1
  Co  Co104  1  -0.00285010  0.49968233  0.75040747  1
  Co  Co105  1  0.62688730  0.62505361  0.62738963  1
  Co  Co106  1  0.24893360  0.49499856  0.24543160  1
  Co  Co107  1  0.74633616  0.24925736  0.50127259  1
  Co  Co108  1  0.37222776  0.12661611  0.87403142  1
  Co  Co109  1  0.49883350  0.74455473  0.49862358  1
  Co  Co110  1  0.74931382  0.24823226  0.00246966  1
  Co  Co111  1  0.38065367  0.37679262  0.12149369  1
  Co  Co112  1  0.12916069  0.62491436  0.37261259  1
  Co  Co113  1  0.75110332  0.25391695  0.74752728  1
  Co  Co114  1  0.12681829  0.37194829  0.37342291  1
  Co  Co115  1  0.11929045  0.37362712  0.12520826  1
  Co  Co116  1  0.24964866  0.24943864  0.00479675  1
  Co  Co117  1  0.49745297  0.00052051  0.75137934  1
  Co  Co118  1  0.87145683  0.12505466  0.87354679  1
  Co  Co119  1  0.74949790  0.50011923  0.00044180  1
  Co  Co120  1  0.00354944  0.74951229  0.49955259  1
  Co  Co121  1  0.37215992  0.62375700  0.87834474  1
  Co  Co122  1  0.25139893  -0.00126618  0.24947030  1
  Co  Co123  1  0.62603070  0.12751341  0.37028133  1
  Co  Co124  1  0.75138548  0.75182554  -0.00007942  1
  Co  Co125  1  -0.00108509  -0.00012515  0.25412255  1
  Co  Co126  1  0.74941678  0.49968445  0.49947584  1
  Co  Co127  1  0.24848513  0.75238238  0.00029807  1
