# generated using pymatgen
data_Fe45Co19
_symmetry_space_group_name_H-M   'P 1'
_cell_length_a   11.41545863
_cell_length_b   11.41535608
_cell_length_c   11.41477275
_cell_angle_alpha   89.99332480
_cell_angle_beta   90.00611258
_cell_angle_gamma   89.99983141
_symmetry_Int_Tables_number   1
_chemical_formula_structural   Fe45Co19
_chemical_formula_sum   'Fe90 Co38'
_cell_volume   1487.47642719
_cell_formula_units_Z   2
loop_
 _symmetry_equiv_pos_site_id
 _symmetry_equiv_pos_as_xyz
  1  'x, y, z'
loop_
 _atom_site_type_symbol
 _atom_site_label
 _atom_site_symmetry_multiplicity
 _atom_site_fract_x
 _atom_site_fract_y
 _atom_site_fract_z
 _atom_site_occupancy
  Fe  Fe0  1  0.24892915  0.25062472  0.49984411  1
  Fe  Fe1  1  0.62429191  0.37569210  0.87274561  1
  Fe  Fe2  1  0.49914319  0.74577229  0.25260235  1
  Fe  Fe3  1  0.37517049  0.87556611  0.37656052  1
  Fe  Fe4  1  0.87482012  0.37503546  0.37382569  1
  Fe  Fe5  1  0.12371061  0.12218521  0.62314620  1
  Fe  Fe6  1  -0.00346892  0.50358952  0.50018377  1
  Fe  Fe7  1  0.62314830  0.87645380  0.62676999  1
  Fe  Fe8  1  0.49869919  0.50110667  0.75030282  1
  Fe  Fe9  1  0.12425199  0.37537727  0.12689197  1
  Fe  Fe10  1  0.62631212  0.37646029  0.37219367  1
  Fe  Fe11  1  0.62251642  0.12670226  0.12462584  1
  Fe  Fe12  1  0.49838153  0.00222848  0.25142171  1
  Fe  Fe13  1  0.37671590  0.37600594  0.12717712  1
  Fe  Fe14  1  0.87479075  0.62728142  0.12597406  1
  Fe  Fe15  1  0.24933581  0.75013201  0.00016853  1
  Fe  Fe16  1  0.87438113  0.87121980  0.62359417  1
  Fe  Fe17  1  0.12458381  0.37561876  0.37298288  1
  Fe  Fe18  1  -0.00170425  0.50291615  0.25117125  1
  Fe  Fe19  1  0.87367145  0.12328913  0.37429089  1
  Fe  Fe20  1  0.50129423  0.25044052  0.49986607  1
  Fe  Fe21  1  0.62270156  0.37551319  0.12937820  1
  Fe  Fe22  1  0.74961931  0.49991919  -0.00000849  1
  Fe  Fe23  1  0.25297330  0.74853033  0.24979620  1
  Fe  Fe24  1  0.12416782  0.87405973  0.87514232  1
  Fe  Fe25  1  -0.00132772  0.24852332  0.25081306  1
  Fe  Fe26  1  0.62477773  0.87634883  0.87332775  1
  Fe  Fe27  1  0.50242005  0.74940979  0.49987320  1
  Fe  Fe28  1  0.62883253  0.62347059  0.37361882  1
  Fe  Fe29  1  0.50061500  0.00522265  0.75470533  1
  Fe  Fe30  1  0.74823549  -0.00079010  0.00094923  1
  Fe  Fe31  1  -0.00130777  0.50260504  0.74702895  1
  Fe  Fe32  1  0.87410449  0.12530963  0.62377455  1
  Fe  Fe33  1  0.00100175  0.24979836  0.49844970  1
  Fe  Fe34  1  0.87521009  0.87266919  0.87679077  1
  Fe  Fe35  1  0.62716572  0.62216088  0.62704913  1
  Fe  Fe36  1  0.12745400  0.12087090  0.37359130  1
  Fe  Fe37  1  0.62321876  0.62285534  0.12508526  1
  Fe  Fe38  1  0.74782865  -0.00315164  0.49910411  1
  Fe  Fe39  1  0.37466892  0.62466805  0.87787328  1
  Fe  Fe40  1  0.49856332  0.49874597  -0.00040548  1
  Fe  Fe41  1  0.00344435  0.74806243  0.74724380  1
  Fe  Fe42  1  0.25022043  -0.00161145  0.00139865  1
  Fe  Fe43  1  0.74804196  0.74944098  0.00069006  1
  Fe  Fe44  1  0.62707467  0.12452762  0.62657167  1
  Fe  Fe45  1  0.12453582  0.12503659  0.87697301  1
  Fe  Fe46  1  0.37327354  0.37182310  0.87216793  1
  Fe  Fe47  1  0.49909175  0.50034975  0.49762418  1
  Fe  Fe48  1  0.62399545  0.87555310  0.12812838  1
  Fe  Fe49  1  0.87626835  0.12276792  0.12686887  1
  Fe  Fe50  1  0.87678656  0.37419987  0.87492922  1
  Fe  Fe51  1  0.12659367  0.62324108  0.87645252  1
  Fe  Fe52  1  0.12646112  0.62578558  0.12358605  1
  Fe  Fe53  1  0.25351930  0.50357258  0.25051135  1
  Fe  Fe54  1  -0.00009796  0.75249229  0.24963611  1
  Fe  Fe55  1  0.12993662  0.87812782  0.37290356  1
  Fe  Fe56  1  0.00129534  0.24908240  0.74966276  1
  Fe  Fe57  1  -0.00043370  -0.00396198  0.49819039  1
  Fe  Fe58  1  0.37556322  0.37336380  0.62700479  1
  Fe  Fe59  1  0.12735920  0.62578757  0.37879399  1
  Fe  Fe60  1  0.00051069  0.50075281  0.00068969  1
  Fe  Fe61  1  0.74950627  0.25264529  0.50037394  1
  Fe  Fe62  1  0.12303073  0.12280815  0.12705570  1
  Fe  Fe63  1  0.00003978  -0.00309679  0.00222959  1
  Fe  Fe64  1  0.25255541  0.24654512  0.25013598  1
  Fe  Fe65  1  0.37879744  0.12554144  0.12032765  1
  Fe  Fe66  1  0.24980326  0.00202424  0.75042838  1
  Fe  Fe67  1  0.86989977  0.87152326  0.37352479  1
  Fe  Fe68  1  0.49935486  0.74722658  0.74997467  1
  Fe  Fe69  1  0.50185949  0.75070265  -0.00182625  1
  Fe  Fe70  1  0.12480261  0.37748693  0.62478530  1
  Fe  Fe71  1  0.74748174  0.74996691  0.75019504  1
  Fe  Fe72  1  0.37611321  0.87641597  0.62619673  1
  Fe  Fe73  1  0.50011595  0.00119914  0.49928867  1
  Fe  Fe74  1  0.24904066  0.74836818  0.74718897  1
  Fe  Fe75  1  0.62543544  0.12605928  0.37323292  1
  Fe  Fe76  1  0.37075110  0.62360530  0.62043335  1
  Fe  Fe77  1  0.37667325  0.87378542  0.12435577  1
  Fe  Fe78  1  0.37631875  0.37419763  0.37293115  1
  Fe  Fe79  1  0.74851923  0.25319149  0.74757489  1
  Fe  Fe80  1  0.24887388  0.25160621  0.00043185  1
  Fe  Fe81  1  0.87713806  0.37502438  0.12597200  1
  Fe  Fe82  1  0.74961281  0.25103118  0.00252503  1
  Fe  Fe83  1  0.87306700  0.12607231  0.87527832  1
  Fe  Fe84  1  -0.00295991  -0.00068041  0.75006464  1
  Fe  Fe85  1  0.87286333  0.62521150  0.87383651  1
  Fe  Fe86  1  0.37409089  0.12724091  0.62587494  1
  Fe  Fe87  1  0.12484314  0.37588088  0.87515219  1
  Fe  Fe88  1  0.75413531  0.50063584  0.50250143  1
  Fe  Fe89  1  0.37508460  0.87557903  0.87462057  1
  Co  Co90  1  0.24657882  0.24864018  0.74946174  1
  Co  Co91  1  0.49906691  0.24843988  0.25179082  1
  Co  Co92  1  0.49703236  0.50420735  0.25212524  1
  Co  Co93  1  0.00390475  0.75249309  0.49876746  1
  Co  Co94  1  0.37642699  0.62608636  0.12091973  1
  Co  Co95  1  0.62904707  0.12629385  0.87550649  1
  Co  Co96  1  0.50292946  0.24690595  0.75070708  1
  Co  Co97  1  0.37397275  0.12459836  0.37828784  1
  Co  Co98  1  0.50201439  -0.00135133  -0.00297927  1
  Co  Co99  1  0.87356396  0.63017555  0.37549507  1
  Co  Co100  1  0.25087494  0.50124287  0.74970006  1
  Co  Co101  1  0.74821377  0.00065834  0.24977447  1
  Co  Co102  1  0.87317520  0.87408549  0.12450886  1
  Co  Co103  1  0.12429984  0.87803714  0.62738977  1
  Co  Co104  1  -0.00188224  -0.00454961  0.25072217  1
  Co  Co105  1  0.62488214  0.62335950  0.87428740  1
  Co  Co106  1  0.62223375  0.37794866  0.62449368  1
  Co  Co107  1  0.87798334  0.37295677  0.62440169  1
  Co  Co108  1  0.25075998  0.49798724  0.00084525  1
  Co  Co109  1  0.74425659  0.75068551  0.50088513  1
  Co  Co110  1  0.12797236  0.62227450  0.61967175  1
  Co  Co111  1  0.37361425  0.12671800  0.87783070  1
  Co  Co112  1  0.75188905  -0.00235538  0.74960712  1
  Co  Co113  1  0.75198896  0.49757506  0.74864668  1
  Co  Co114  1  0.00022408  0.74911695  0.00092605  1
  Co  Co115  1  0.87340902  0.63048506  0.62505882  1
  Co  Co116  1  0.25169563  -0.00054656  0.50288151  1
  Co  Co117  1  0.50079403  0.25282455  -0.00217945  1
  Co  Co118  1  0.25512495  0.00183820  0.24635162  1
  Co  Co119  1  0.12699194  0.87372959  0.12589862  1
  Co  Co120  1  0.75134249  0.24991318  0.24906494  1
  Co  Co121  1  0.37180490  0.62741217  0.38047303  1
  Co  Co122  1  0.62292697  0.87544977  0.37292914  1
  Co  Co123  1  0.75297776  0.50016279  0.24878342  1
  Co  Co124  1  0.00053889  0.24965152  0.00126183  1
  Co  Co125  1  0.74752330  0.74946055  0.24788366  1
  Co  Co126  1  0.24817837  0.75588913  0.50309519  1
  Co  Co127  1  0.25148188  0.49487071  0.49775664  1
