# generated using pymatgen
data_Fe45Co19
_symmetry_space_group_name_H-M   'P 1'
_cell_length_a   11.41390933
_cell_length_b   11.41548563
_cell_length_c   11.41486233
_cell_angle_alpha   90.00200589
_cell_angle_beta   89.99925403
_cell_angle_gamma   89.99598801
_symmetry_Int_Tables_number   1
_chemical_formula_structural   Fe45Co19
_chemical_formula_sum   'Fe90 Co38'
_cell_volume   1487.30311180
_cell_formula_units_Z   2
loop_
 _symmetry_equiv_pos_site_id
 _symmetry_equiv_pos_as_xyz
  1  'x, y, z'
loop_
 _atom_site_type_symbol
 _atom_site_label
 _atom_site_symmetry_multiplicity
 _atom_site_fract_x
 _atom_site_fract_y
 _atom_site_fract_z
 _atom_site_occupancy
  Fe  Fe0  1  0.00093721  0.50193501  0.00131918  1
  Fe  Fe1  1  0.75162921  0.00009121  0.00481291  1
  Fe  Fe2  1  0.49824389  0.50055150  -0.00133409  1
  Fe  Fe3  1  0.37592567  0.87437179  0.62294770  1
  Fe  Fe4  1  0.00193998  0.75098910  0.75067727  1
  Fe  Fe5  1  0.37579168  0.62421649  0.12838956  1
  Fe  Fe6  1  0.62567867  0.87745537  0.37457670  1
  Fe  Fe7  1  0.75094198  0.74803965  0.49557952  1
  Fe  Fe8  1  0.62492029  0.87407599  0.62332829  1
  Fe  Fe9  1  0.49858955  0.49783187  0.75120912  1
  Fe  Fe10  1  0.75074036  0.49904210  0.24741598  1
  Fe  Fe11  1  0.49993115  0.00085541  0.49842557  1
  Fe  Fe12  1  0.24929080  0.50046979  0.00019906  1
  Fe  Fe13  1  0.24798212  0.25227636  0.24920108  1
  Fe  Fe14  1  0.25023034  0.75255274  0.25004425  1
  Fe  Fe15  1  0.00018455  0.24449689  0.50055858  1
  Fe  Fe16  1  -0.00111689  -0.00124946  0.25116448  1
  Fe  Fe17  1  0.75312640  0.24696773  0.00219825  1
  Fe  Fe18  1  0.24901194  0.00271320  0.50173384  1
  Fe  Fe19  1  -0.00317732  0.75172735  0.25440149  1
  Fe  Fe20  1  0.87396415  0.63145958  0.12503652  1
  Fe  Fe21  1  0.75119803  0.50222181  0.00218984  1
  Fe  Fe22  1  0.75172240  -0.00280838  0.24436156  1
  Fe  Fe23  1  0.74979602  0.50072282  0.50023096  1
  Fe  Fe24  1  0.12101451  0.12713216  0.12637712  1
  Fe  Fe25  1  0.87517056  0.87332229  0.87955591  1
  Fe  Fe26  1  0.37513434  0.12557418  0.87602714  1
  Fe  Fe27  1  0.75306364  -0.00181777  0.74958387  1
  Fe  Fe28  1  0.50132498  0.24871802  0.49849303  1
  Fe  Fe29  1  0.25380792  0.50110550  0.49867565  1
  Fe  Fe30  1  0.12242610  0.87938376  0.62362218  1
  Fe  Fe31  1  0.12456859  0.62577350  0.12691140  1
  Fe  Fe32  1  0.12395774  0.87576382  0.37816708  1
  Fe  Fe33  1  0.24688054  0.24929483  -0.00039422  1
  Fe  Fe34  1  0.24900425  0.00096383  0.00008039  1
  Fe  Fe35  1  0.37480301  0.37405683  0.12357737  1
  Fe  Fe36  1  0.25066592  0.49754047  0.25116751  1
  Fe  Fe37  1  0.49861184  0.75135373  0.75002253  1
  Fe  Fe38  1  0.12785164  0.62460006  0.62820675  1
  Fe  Fe39  1  0.00026118  0.49889306  0.24933732  1
  Fe  Fe40  1  0.75086157  0.75084025  0.75083216  1
  Fe  Fe41  1  0.37462474  0.12594777  0.62534767  1
  Fe  Fe42  1  0.25015059  -0.00134208  0.24878847  1
  Fe  Fe43  1  0.75096683  0.50031486  0.74955575  1
  Fe  Fe44  1  0.75377475  0.25012792  0.75081261  1
  Fe  Fe45  1  0.87523329  0.62642318  0.62394575  1
  Fe  Fe46  1  0.62304248  0.62630119  0.62437089  1
  Fe  Fe47  1  0.50059303  0.25094934  0.75283652  1
  Fe  Fe48  1  0.12335366  0.37627671  0.87596392  1
  Fe  Fe49  1  -0.00160361  0.00081069  0.00167753  1
  Fe  Fe50  1  0.12555686  0.37491341  0.37715432  1
  Fe  Fe51  1  0.37356332  0.12531780  0.37380409  1
  Fe  Fe52  1  0.87608660  0.62626548  0.87624815  1
  Fe  Fe53  1  0.37627232  0.87621452  0.12386448  1
  Fe  Fe54  1  0.75114644  0.00301744  0.50126913  1
  Fe  Fe55  1  0.12510977  0.62467728  0.37397609  1
  Fe  Fe56  1  0.62733846  0.12453348  0.87589964  1
  Fe  Fe57  1  0.24904395  0.25075232  0.74939810  1
  Fe  Fe58  1  0.87192002  0.12677852  0.37102870  1
  Fe  Fe59  1  0.49641208  0.50187619  0.49843033  1
  Fe  Fe60  1  0.62767630  0.37437063  0.87689694  1
  Fe  Fe61  1  0.37525734  0.37396589  0.62360700  1
  Fe  Fe62  1  0.62711207  0.12487417  0.37200110  1
  Fe  Fe63  1  0.62447799  0.62291127  0.37200094  1
  Fe  Fe64  1  0.50138139  0.25013285  0.24908095  1
  Fe  Fe65  1  -0.00098412  0.49867813  0.74978975  1
  Fe  Fe66  1  0.12112868  0.12284959  0.86911353  1
  Fe  Fe67  1  0.12759078  0.12540679  0.37404187  1
  Fe  Fe68  1  0.50154701  0.00141710  0.00170955  1
  Fe  Fe69  1  0.62557403  0.37512939  0.37543131  1
  Fe  Fe70  1  0.87415348  0.37349494  0.62252272  1
  Fe  Fe71  1  0.87740268  0.87448242  0.61873381  1
  Fe  Fe72  1  0.00007035  0.50298308  0.50034892  1
  Fe  Fe73  1  0.24782657  0.74946718  -0.00107575  1
  Fe  Fe74  1  0.88005024  0.37012442  0.12493026  1
  Fe  Fe75  1  0.62632769  0.62401012  0.87432028  1
  Fe  Fe76  1  0.12428016  0.37283303  0.62308796  1
  Fe  Fe77  1  0.62656732  0.12546763  0.62686492  1
  Fe  Fe78  1  0.12221697  0.87437432  0.12502965  1
  Fe  Fe79  1  0.62300604  0.37475850  0.12231764  1
  Fe  Fe80  1  0.50111710  0.74765205  -0.00055674  1
  Fe  Fe81  1  0.87490047  0.37408202  0.37586076  1
  Fe  Fe82  1  0.62553017  0.37438787  0.62461358  1
  Fe  Fe83  1  0.49826774  -0.00017839  0.75075149  1
  Fe  Fe84  1  0.37608599  0.12547287  0.12525583  1
  Fe  Fe85  1  0.12578718  0.87748814  0.87423482  1
  Fe  Fe86  1  0.37001451  0.62514308  0.87007471  1
  Fe  Fe87  1  0.62424373  0.87603526  0.87555209  1
  Fe  Fe88  1  0.25118675  0.74820530  0.50028857  1
  Fe  Fe89  1  0.50032679  0.75271405  0.25173873  1
  Co  Co90  1  -0.00567970  -0.00377088  0.74978907  1
  Co  Co91  1  0.62338292  0.87324902  0.12550759  1
  Co  Co92  1  0.37523327  0.62681110  0.37163027  1
  Co  Co93  1  0.49993126  0.75022169  0.49739043  1
  Co  Co94  1  0.74518246  0.75028338  -0.00067289  1
  Co  Co95  1  0.87558532  0.12280705  0.87543892  1
  Co  Co96  1  0.87544409  0.12486852  0.62713185  1
  Co  Co97  1  0.87463770  0.62141367  0.37391310  1
  Co  Co98  1  0.87575368  0.87832712  0.37875841  1
  Co  Co99  1  0.00133928  0.74633675  0.49877592  1
  Co  Co100  1  0.37439843  0.62522288  0.62835991  1
  Co  Co101  1  0.62377815  0.12502355  0.12546425  1
  Co  Co102  1  0.49889877  0.00030489  0.25045414  1
  Co  Co103  1  -0.00324267  0.25319540  0.75052268  1
  Co  Co104  1  0.24982818  0.49452560  0.74868168  1
  Co  Co105  1  0.62459427  0.62551788  0.12758227  1
  Co  Co106  1  0.49977253  0.49660280  0.24935768  1
  Co  Co107  1  0.00051202  0.24829294  -0.00376771  1
  Co  Co108  1  0.12716022  0.62207201  0.87174675  1
  Co  Co109  1  0.12329034  0.12231874  0.63166494  1
  Co  Co110  1  0.87967218  0.12839169  0.12843658  1
  Co  Co111  1  0.37327765  0.37326900  0.87647592  1
  Co  Co112  1  0.24875416  0.75569188  0.74985992  1
  Co  Co113  1  0.12409288  0.37464116  0.12351088  1
  Co  Co114  1  0.00530914  0.74865678  -0.00247115  1
  Co  Co115  1  0.24823302  0.24782523  0.50212722  1
  Co  Co116  1  0.74928524  0.24909546  0.50030320  1
  Co  Co117  1  0.00364059  0.25113046  0.25417156  1
  Co  Co118  1  0.25481865  -0.00168539  0.75053028  1
  Co  Co119  1  0.74754127  0.25319753  0.24698389  1
  Co  Co120  1  0.50054934  0.24988547  -0.00076239  1
  Co  Co121  1  0.37604124  0.87501818  0.87937061  1
  Co  Co122  1  0.37435751  0.37156363  0.37490986  1
  Co  Co123  1  0.37258659  0.87654638  0.37589768  1
  Co  Co124  1  0.87698043  0.86999844  0.12242210  1
  Co  Co125  1  0.75095696  0.75196798  0.25332294  1
  Co  Co126  1  0.00030625  0.00742346  0.49781384  1
  Co  Co127  1  0.87419687  0.37736428  0.87751760  1
