# generated using pymatgen
data_Fe45Co19
_symmetry_space_group_name_H-M   'P 1'
_cell_length_a   11.41564010
_cell_length_b   11.41514651
_cell_length_c   11.41525876
_cell_angle_alpha   89.99808364
_cell_angle_beta   89.99147325
_cell_angle_gamma   89.99365392
_symmetry_Int_Tables_number   1
_chemical_formula_structural   Fe45Co19
_chemical_formula_sum   'Fe90 Co38'
_cell_volume   1487.53608945
_cell_formula_units_Z   2
loop_
 _symmetry_equiv_pos_site_id
 _symmetry_equiv_pos_as_xyz
  1  'x, y, z'
loop_
 _atom_site_type_symbol
 _atom_site_label
 _atom_site_symmetry_multiplicity
 _atom_site_fract_x
 _atom_site_fract_y
 _atom_site_fract_z
 _atom_site_occupancy
  Fe  Fe0  1  0.25243160  -0.00189019  0.24890959  1
  Fe  Fe1  1  0.75111312  0.25198993  0.25109274  1
  Fe  Fe2  1  -0.00127484  0.74979610  0.50044311  1
  Fe  Fe3  1  0.37692484  0.12308793  0.62616673  1
  Fe  Fe4  1  0.37526737  0.87340525  0.87536582  1
  Fe  Fe5  1  -0.00119284  0.25079146  0.25038309  1
  Fe  Fe6  1  0.62622957  0.87307864  0.37544889  1
  Fe  Fe7  1  0.62535536  0.12661054  0.37577597  1
  Fe  Fe8  1  0.74848749  -0.00036983  0.25098248  1
  Fe  Fe9  1  0.24932711  0.50309722  0.49807437  1
  Fe  Fe10  1  0.12513319  0.12574949  0.37733911  1
  Fe  Fe11  1  0.62352992  0.62180787  0.37565895  1
  Fe  Fe12  1  0.87343595  0.12488292  0.37636593  1
  Fe  Fe13  1  0.50049789  0.25249949  0.25044401  1
  Fe  Fe14  1  0.12497750  0.12416403  0.62322303  1
  Fe  Fe15  1  0.74951927  0.25167439  0.50141148  1
  Fe  Fe16  1  0.74935850  0.25396991  -0.00305312  1
  Fe  Fe17  1  0.25132421  0.24970331  0.74997848  1
  Fe  Fe18  1  -0.00273320  0.75050344  0.75208511  1
  Fe  Fe19  1  0.37453445  0.62642041  0.12571228  1
  Fe  Fe20  1  0.37558469  0.37445430  0.12403543  1
  Fe  Fe21  1  0.62297553  0.12958998  0.87065057  1
  Fe  Fe22  1  0.37653670  0.12707508  0.12255233  1
  Fe  Fe23  1  -0.00214956  0.00026754  0.25019355  1
  Fe  Fe24  1  0.50064581  0.74849679  0.74931884  1
  Fe  Fe25  1  0.37473990  0.12688258  0.37607825  1
  Fe  Fe26  1  -0.00038139  -0.00320909  0.75090454  1
  Fe  Fe27  1  0.87454999  0.12650431  0.87426112  1
  Fe  Fe28  1  0.25148569  0.50218830  0.25176273  1
  Fe  Fe29  1  0.12199454  0.62877605  0.87954314  1
  Fe  Fe30  1  0.62817949  0.87463204  0.62715185  1
  Fe  Fe31  1  0.49928106  0.25302990  0.50047154  1
  Fe  Fe32  1  0.24921671  0.24975667  0.24851170  1
  Fe  Fe33  1  0.87243045  0.87376857  0.37442795  1
  Fe  Fe34  1  0.24891305  0.50097314  0.75269423  1
  Fe  Fe35  1  0.50192221  0.74696262  0.24651326  1
  Fe  Fe36  1  0.25093308  0.75139058  0.74765236  1
  Fe  Fe37  1  0.25180081  0.74965797  0.50186006  1
  Fe  Fe38  1  0.12360059  0.12304982  0.12352943  1
  Fe  Fe39  1  -0.00287431  -0.00584899  -0.00148933  1
  Fe  Fe40  1  0.75303058  0.50399731  0.75033334  1
  Fe  Fe41  1  0.62767965  0.87178195  0.87356398  1
  Fe  Fe42  1  0.00042784  0.74890017  0.24530003  1
  Fe  Fe43  1  0.74922892  -0.00021194  -0.00239068  1
  Fe  Fe44  1  0.62579096  0.37698324  0.12631139  1
  Fe  Fe45  1  0.75084160  0.50057709  0.25072768  1
  Fe  Fe46  1  0.62585711  0.12629646  0.12545516  1
  Fe  Fe47  1  0.49774616  0.50127483  0.75191353  1
  Fe  Fe48  1  0.75252310  0.49650319  -0.00291750  1
  Fe  Fe49  1  0.75375005  0.74983571  0.00004167  1
  Fe  Fe50  1  0.87545125  0.62324859  0.37883738  1
  Fe  Fe51  1  0.25021052  -0.00288147  0.50113130  1
  Fe  Fe52  1  0.87899115  0.62089729  0.12117995  1
  Fe  Fe53  1  0.87001200  0.87298187  0.62662485  1
  Fe  Fe54  1  0.87553235  0.37744339  0.37832770  1
  Fe  Fe55  1  0.50156369  -0.00134262  0.50012910  1
  Fe  Fe56  1  0.37344151  0.62729969  0.87569074  1
  Fe  Fe57  1  0.87238681  0.12333418  0.62510688  1
  Fe  Fe58  1  0.37618214  0.87123344  0.37432753  1
  Fe  Fe59  1  0.24708320  0.75264402  0.00538924  1
  Fe  Fe60  1  0.25021874  -0.00227302  0.74943631  1
  Fe  Fe61  1  0.49858249  0.49954040  0.49744774  1
  Fe  Fe62  1  0.62596385  0.37794180  0.62732670  1
  Fe  Fe63  1  0.50115729  0.74771154  0.50322190  1
  Fe  Fe64  1  0.62460608  0.12448824  0.62699334  1
  Fe  Fe65  1  0.12299288  0.37837705  0.12587616  1
  Fe  Fe66  1  0.87671525  0.37902106  0.62422277  1
  Fe  Fe67  1  0.12350867  0.37259271  0.87383236  1
  Fe  Fe68  1  -0.00091222  0.25355458  0.00081312  1
  Fe  Fe69  1  0.00025537  0.50323738  0.75150423  1
  Fe  Fe70  1  0.37746653  0.12852057  0.87546394  1
  Fe  Fe71  1  0.12543533  0.62717746  0.37247314  1
  Fe  Fe72  1  0.12522792  0.37265253  0.37728760  1
  Fe  Fe73  1  0.12454938  0.62685880  0.62580769  1
  Fe  Fe74  1  0.87328184  0.12536266  0.12355691  1
  Fe  Fe75  1  0.12527130  0.37454853  0.62374795  1
  Fe  Fe76  1  -0.00219122  -0.00182588  0.50042929  1
  Fe  Fe77  1  -0.00098006  0.24901776  0.74747481  1
  Fe  Fe78  1  0.37183137  0.37785508  0.62412738  1
  Fe  Fe79  1  0.62562711  0.87334810  0.12343454  1
  Fe  Fe80  1  0.50038802  -0.00058316  0.24946552  1
  Fe  Fe81  1  0.37702081  0.37233682  0.87774659  1
  Fe  Fe82  1  0.50063719  0.50181347  0.00138386  1
  Fe  Fe83  1  0.62610880  0.62432197  0.87652002  1
  Fe  Fe84  1  0.25157179  -0.00144895  0.00071785  1
  Fe  Fe85  1  0.50114624  -0.00088975  -0.00184840  1
  Fe  Fe86  1  0.12518304  0.87402656  0.37350705  1
  Fe  Fe87  1  0.24857867  0.49931573  -0.00117516  1
  Fe  Fe88  1  0.75039720  0.74667372  0.24959972  1
  Fe  Fe89  1  0.12445253  0.12449735  0.87595888  1
  Co  Co90  1  0.62911722  0.62400721  0.12255525  1
  Co  Co91  1  0.25125972  0.24883261  0.50223417  1
  Co  Co92  1  0.50073053  0.74788149  -0.00073521  1
  Co  Co93  1  0.49830614  0.25348341  0.74729899  1
  Co  Co94  1  0.62575109  0.37721490  0.37362834  1
  Co  Co95  1  0.12325008  0.87348641  0.62503641  1
  Co  Co96  1  0.37705587  0.62795764  0.37419470  1
  Co  Co97  1  0.37937215  0.87367205  0.12514547  1
  Co  Co98  1  0.24886986  0.75035351  0.24604058  1
  Co  Co99  1  0.00016057  0.49593298  -0.00397817  1
  Co  Co100  1  0.12672006  0.87378637  0.87502318  1
  Co  Co101  1  0.87643786  0.37403475  0.87008243  1
  Co  Co102  1  0.49901332  0.50120941  0.24765484  1
  Co  Co103  1  0.74860501  0.00205822  0.75221903  1
  Co  Co104  1  0.74876423  0.50175024  0.50069647  1
  Co  Co105  1  0.87500206  0.37639604  0.12668054  1
  Co  Co106  1  0.12221436  0.62100920  0.12316451  1
  Co  Co107  1  0.75016609  0.74322056  0.74905973  1
  Co  Co108  1  -0.00069586  0.75535136  0.00329820  1
  Co  Co109  1  0.50085080  -0.00282154  0.75236367  1
  Co  Co110  1  0.00455669  0.50200449  0.49981671  1
  Co  Co111  1  0.37367868  0.37431287  0.37466063  1
  Co  Co112  1  0.87192881  0.87665632  0.12762266  1
  Co  Co113  1  0.87688304  0.62482325  0.62241804  1
  Co  Co114  1  0.87143999  0.87408114  0.87164117  1
  Co  Co115  1  0.37710907  0.87478176  0.62498152  1
  Co  Co116  1  0.75042570  0.25138615  0.74869392  1
  Co  Co117  1  0.12390475  0.87896546  0.12715437  1
  Co  Co118  1  0.74793125  0.74696080  0.49981644  1
  Co  Co119  1  -0.00183476  0.24931909  0.50088485  1
  Co  Co120  1  0.24683740  0.25087426  0.00060292  1
  Co  Co121  1  0.87772633  0.62587626  0.87895141  1
  Co  Co122  1  0.62414044  0.37739623  0.87206003  1
  Co  Co123  1  -0.00020605  0.50015148  0.25387083  1
  Co  Co124  1  0.37449437  0.62285895  0.62566263  1
  Co  Co125  1  0.62294179  0.62204821  0.62547117  1
  Co  Co126  1  0.74925782  -0.00070681  0.49921258  1
  Co  Co127  1  0.50437926  0.25145530  0.00094635  1
