# generated using pymatgen
data_Fe45Co19
_symmetry_space_group_name_H-M   'P 1'
_cell_length_a   11.41501647
_cell_length_b   11.41596870
_cell_length_c   11.41500205
_cell_angle_alpha   89.99892964
_cell_angle_beta   90.00314313
_cell_angle_gamma   90.00235390
_symmetry_Int_Tables_number   1
_chemical_formula_structural   Fe45Co19
_chemical_formula_sum   'Fe90 Co38'
_cell_volume   1487.52853215
_cell_formula_units_Z   2
loop_
 _symmetry_equiv_pos_site_id
 _symmetry_equiv_pos_as_xyz
  1  'x, y, z'
loop_
 _atom_site_type_symbol
 _atom_site_label
 _atom_site_symmetry_multiplicity
 _atom_site_fract_x
 _atom_site_fract_y
 _atom_site_fract_z
 _atom_site_occupancy
  Fe  Fe0  1  0.37280909  0.87359375  0.87576718  1
  Fe  Fe1  1  0.49502496  0.25260678  -0.00130234  1
  Fe  Fe2  1  0.74980513  0.24702784  0.50109930  1
  Fe  Fe3  1  0.49774342  0.75085888  0.00174506  1
  Fe  Fe4  1  0.62281837  0.12641334  0.12451723  1
  Fe  Fe5  1  0.37073170  0.87413532  0.12531194  1
  Fe  Fe6  1  0.37850617  0.62415764  0.37054103  1
  Fe  Fe7  1  0.75014802  -0.00010472  0.50186871  1
  Fe  Fe8  1  0.88005227  0.12377298  0.37496895  1
  Fe  Fe9  1  0.62629916  0.37620782  0.87411011  1
  Fe  Fe10  1  0.87329967  0.37466813  0.12604338  1
  Fe  Fe11  1  0.00089346  0.49708740  0.75019452  1
  Fe  Fe12  1  0.25016101  0.24650395  0.49577386  1
  Fe  Fe13  1  0.75157703  0.75116787  0.24949127  1
  Fe  Fe14  1  0.24928132  0.00138905  0.75209211  1
  Fe  Fe15  1  0.50045718  0.75482536  0.49507508  1
  Fe  Fe16  1  0.24918763  0.74769287  0.75031469  1
  Fe  Fe17  1  0.74833568  0.24931881  0.25073742  1
  Fe  Fe18  1  0.00426093  0.24814201  0.24523032  1
  Fe  Fe19  1  0.12516144  0.87376349  0.87677415  1
  Fe  Fe20  1  0.75104641  0.24973705  -0.00230202  1
  Fe  Fe21  1  0.87299674  0.37292462  0.62920848  1
  Fe  Fe22  1  0.87667574  0.62296430  0.87486162  1
  Fe  Fe23  1  0.37598724  0.62699990  0.62376818  1
  Fe  Fe24  1  0.50107687  0.50177829  0.74821426  1
  Fe  Fe25  1  0.87935596  0.87754449  0.37440407  1
  Fe  Fe26  1  0.62314087  0.12372104  0.37598046  1
  Fe  Fe27  1  0.87939046  0.62664045  0.62649871  1
  Fe  Fe28  1  0.24748553  0.00606738  0.25139819  1
  Fe  Fe29  1  0.12670395  0.87677763  0.12405477  1
  Fe  Fe30  1  0.62401068  0.62531588  0.87550109  1
  Fe  Fe31  1  0.87401741  0.87663175  0.12324942  1
  Fe  Fe32  1  0.37466930  0.62474350  0.87716168  1
  Fe  Fe33  1  0.62223964  0.62572411  0.12759443  1
  Fe  Fe34  1  0.37259202  0.12572833  0.12401740  1
  Fe  Fe35  1  -0.00014867  0.49311535  0.00016135  1
  Fe  Fe36  1  0.37045792  0.37687326  0.13154092  1
  Fe  Fe37  1  0.24689598  0.74713412  0.49875975  1
  Fe  Fe38  1  0.12439995  0.62356663  0.87557248  1
  Fe  Fe39  1  0.12750246  0.37334985  0.62649520  1
  Fe  Fe40  1  0.24873921  0.50260623  0.49821533  1
  Fe  Fe41  1  0.12727747  0.13020613  0.88117468  1
  Fe  Fe42  1  0.75103770  0.00252083  0.24917626  1
  Fe  Fe43  1  0.87783514  0.62451723  0.37217535  1
  Fe  Fe44  1  0.49957828  0.49835316  0.00298134  1
  Fe  Fe45  1  0.25023716  0.49799504  0.00031185  1
  Fe  Fe46  1  0.62693233  0.87597870  0.12494852  1
  Fe  Fe47  1  0.74761167  0.49674817  0.24987349  1
  Fe  Fe48  1  0.00200691  0.24956155  0.50305255  1
  Fe  Fe49  1  0.12394559  0.87316869  0.62477424  1
  Fe  Fe50  1  0.75161865  0.75049681  -0.00101480  1
  Fe  Fe51  1  0.50033149  -0.00442059  0.49894846  1
  Fe  Fe52  1  0.75125757  0.75023100  0.75237269  1
  Fe  Fe53  1  0.12193002  0.62222322  0.12473212  1
  Fe  Fe54  1  0.87831929  0.87375427  0.62735099  1
  Fe  Fe55  1  0.25029191  0.50058047  0.74985783  1
  Fe  Fe56  1  0.74745631  0.00112029  0.74971530  1
  Fe  Fe57  1  0.24903804  0.74673726  0.24832032  1
  Fe  Fe58  1  0.87657657  0.12607153  0.62751468  1
  Fe  Fe59  1  0.49905798  0.25233588  0.49821227  1
  Fe  Fe60  1  0.87525184  0.12523843  0.12281083  1
  Fe  Fe61  1  0.87516399  0.37309695  0.37468046  1
  Fe  Fe62  1  0.11915291  0.62520633  0.37259288  1
  Fe  Fe63  1  0.37301384  0.87324679  0.62424742  1
  Fe  Fe64  1  0.62782188  0.37404336  0.62560610  1
  Fe  Fe65  1  0.12193601  0.87703100  0.37424573  1
  Fe  Fe66  1  0.49988601  0.25429217  0.25359888  1
  Fe  Fe67  1  0.74980042  0.49897013  0.00020187  1
  Fe  Fe68  1  0.12695794  0.37405972  0.37126415  1
  Fe  Fe69  1  0.49997089  -0.00166627  0.74876407  1
  Fe  Fe70  1  0.87665978  0.62357358  0.12617433  1
  Fe  Fe71  1  0.75171757  0.75106036  0.49865422  1
  Fe  Fe72  1  0.87624557  0.12580017  0.87543116  1
  Fe  Fe73  1  0.00380942  0.00310886  0.75023043  1
  Fe  Fe74  1  0.75096367  0.50143924  0.50166109  1
  Fe  Fe75  1  0.00011513  0.00055045  0.00066479  1
  Fe  Fe76  1  0.25268336  0.25027992  0.75400072  1
  Fe  Fe77  1  0.49820160  -0.00338168  0.25157080  1
  Fe  Fe78  1  0.37487908  0.12413862  0.62457093  1
  Fe  Fe79  1  0.00062532  0.49836752  0.50006450  1
  Fe  Fe80  1  0.62341069  0.63020411  0.62498921  1
  Fe  Fe81  1  0.62418515  0.62532119  0.37197271  1
  Fe  Fe82  1  0.37336480  0.37536670  0.62398341  1
  Fe  Fe83  1  0.49983872  0.24961770  0.74994278  1
  Fe  Fe84  1  0.62564437  0.87527847  0.87601897  1
  Fe  Fe85  1  0.62226227  0.12452488  0.87703980  1
  Fe  Fe86  1  0.49746375  -0.00111293  0.00068691  1
  Fe  Fe87  1  0.24775834  0.00304637  0.49841116  1
  Fe  Fe88  1  -0.00045014  0.75104807  -0.00000488  1
  Fe  Fe89  1  0.50036200  0.49745240  0.49774174  1
  Co  Co90  1  0.25589903  0.25554663  -0.00170649  1
  Co  Co91  1  0.24901012  0.74751907  0.00172027  1
  Co  Co92  1  -0.00262956  0.25497874  0.00197195  1
  Co  Co93  1  0.13023389  0.37365241  0.12728291  1
  Co  Co94  1  0.37906321  0.12360797  0.37631711  1
  Co  Co95  1  0.37813117  0.62317165  0.12662846  1
  Co  Co96  1  0.62620193  0.37163964  0.12168503  1
  Co  Co97  1  0.11839938  0.12344715  0.37622165  1
  Co  Co98  1  0.24786911  0.24225456  0.25313454  1
  Co  Co99  1  0.12880877  0.12811956  0.62630115  1
  Co  Co100  1  0.36816711  0.87492658  0.37439877  1
  Co  Co101  1  0.00060866  0.74918005  0.49926306  1
  Co  Co102  1  0.00157525  0.74980241  0.75290617  1
  Co  Co103  1  0.00108407  0.00135579  0.50518780  1
  Co  Co104  1  0.00125749  0.00208906  0.24429111  1
  Co  Co105  1  0.62549306  0.87169565  0.62572430  1
  Co  Co106  1  0.62952189  0.37436107  0.37855718  1
  Co  Co107  1  0.12492046  0.37292872  0.87500110  1
  Co  Co108  1  -0.00030180  0.75249614  0.24701105  1
  Co  Co109  1  0.74694717  0.24601120  0.75128215  1
  Co  Co110  1  0.74861681  0.50377502  0.74810198  1
  Co  Co111  1  0.87574101  0.87792476  0.87432697  1
  Co  Co112  1  0.74934116  0.00206966  0.00005963  1
  Co  Co113  1  0.12249499  0.62383232  0.62682492  1
  Co  Co114  1  0.24823513  0.50583058  0.25154776  1
  Co  Co115  1  -0.00048471  0.49608319  0.24984283  1
  Co  Co116  1  0.36960872  0.37659147  0.37296225  1
  Co  Co117  1  0.00176823  0.24890572  0.75088233  1
  Co  Co118  1  0.49863557  0.75515427  0.25023510  1
  Co  Co119  1  0.50403207  0.49426087  0.25106623  1
  Co  Co120  1  0.12895674  0.12721025  0.11606042  1
  Co  Co121  1  0.62946080  0.87669222  0.37300386  1
  Co  Co122  1  0.49749804  0.75073414  0.75278318  1
  Co  Co123  1  0.37721613  0.37932771  0.87225538  1
  Co  Co124  1  0.87203563  0.37499685  0.87096199  1
  Co  Co125  1  0.25245486  -0.00039383  -0.00214546  1
  Co  Co126  1  0.37525403  0.12328578  0.87479476  1
  Co  Co127  1  0.62204877  0.12437994  0.62225151  1
