# generated using pymatgen
data_Fe45Co19
_symmetry_space_group_name_H-M   'P 1'
_cell_length_a   11.41588791
_cell_length_b   11.41644101
_cell_length_c   11.41582832
_cell_angle_alpha   90.00436112
_cell_angle_beta   90.00262151
_cell_angle_gamma   90.00673971
_symmetry_Int_Tables_number   1
_chemical_formula_structural   Fe45Co19
_chemical_formula_sum   'Fe90 Co38'
_cell_volume   1487.81131468
_cell_formula_units_Z   2
loop_
 _symmetry_equiv_pos_site_id
 _symmetry_equiv_pos_as_xyz
  1  'x, y, z'
loop_
 _atom_site_type_symbol
 _atom_site_label
 _atom_site_symmetry_multiplicity
 _atom_site_fract_x
 _atom_site_fract_y
 _atom_site_fract_z
 _atom_site_occupancy
  Fe  Fe0  1  0.87439520  0.62281784  0.87550840  1
  Fe  Fe1  1  0.37225250  0.12635896  0.62357167  1
  Fe  Fe2  1  0.12446160  0.62353561  0.12475685  1
  Fe  Fe3  1  0.12368396  0.62648444  0.62446494  1
  Fe  Fe4  1  0.49876236  0.50247666  -0.00076974  1
  Fe  Fe5  1  0.50082960  0.00175739  -0.00053850  1
  Fe  Fe6  1  0.74538892  0.25111681  0.24940836  1
  Fe  Fe7  1  0.62243559  0.37420050  0.87298642  1
  Fe  Fe8  1  -0.00073268  0.25114679  0.49822014  1
  Fe  Fe9  1  0.12509551  0.12741238  0.62274799  1
  Fe  Fe10  1  0.75198343  0.00058618  0.74758931  1
  Fe  Fe11  1  0.87266847  0.62273825  0.36985134  1
  Fe  Fe12  1  0.75133457  0.24845861  0.75241468  1
  Fe  Fe13  1  0.25514592  0.50373239  0.00046189  1
  Fe  Fe14  1  0.50267134  0.49916055  0.24919104  1
  Fe  Fe15  1  0.75086709  0.25208576  -0.00103412  1
  Fe  Fe16  1  0.12657013  0.37450183  0.62471111  1
  Fe  Fe17  1  0.12498353  0.12461420  0.87516508  1
  Fe  Fe18  1  0.62520093  0.87670708  0.87575356  1
  Fe  Fe19  1  -0.00074157  0.00028934  0.24909634  1
  Fe  Fe20  1  0.74992955  0.75150472  0.75096451  1
  Fe  Fe21  1  0.49773512  0.25326029  0.50204897  1
  Fe  Fe22  1  0.37453437  0.12393978  0.12527529  1
  Fe  Fe23  1  -0.00368527  -0.00007291  0.50024831  1
  Fe  Fe24  1  0.50298684  0.00046739  0.25169868  1
  Fe  Fe25  1  0.12403829  0.87429368  0.87590473  1
  Fe  Fe26  1  0.24993399  -0.00012477  0.25023743  1
  Fe  Fe27  1  0.00082847  0.00260811  0.00251999  1
  Fe  Fe28  1  0.87560311  0.87644579  0.87565461  1
  Fe  Fe29  1  0.62599966  0.87415840  0.62106757  1
  Fe  Fe30  1  0.25056071  0.74884528  0.24934610  1
  Fe  Fe31  1  -0.00411453  0.49814302  0.00357221  1
  Fe  Fe32  1  0.25063488  0.25102985  0.25157622  1
  Fe  Fe33  1  0.62344798  0.62443990  0.87306229  1
  Fe  Fe34  1  0.24963170  0.24843026  0.00029441  1
  Fe  Fe35  1  0.24964625  0.00025596  0.00147965  1
  Fe  Fe36  1  0.12544976  0.37594457  0.12484842  1
  Fe  Fe37  1  0.74846819  0.00043182  0.00228856  1
  Fe  Fe38  1  0.87477618  0.37631014  0.37105126  1
  Fe  Fe39  1  0.12686269  0.37802607  0.37439541  1
  Fe  Fe40  1  0.62562426  0.12730827  0.62366203  1
  Fe  Fe41  1  0.24845703  -0.00042367  0.74788752  1
  Fe  Fe42  1  0.37370603  0.12469496  0.37733281  1
  Fe  Fe43  1  0.00010682  0.50086128  0.74962875  1
  Fe  Fe44  1  0.62193943  0.62745772  0.62496695  1
  Fe  Fe45  1  0.49978149  0.24584511  -0.00332332  1
  Fe  Fe46  1  0.12680515  0.12339605  0.37773489  1
  Fe  Fe47  1  0.12626218  0.62287497  0.37435631  1
  Fe  Fe48  1  0.12481007  0.37727265  0.87722362  1
  Fe  Fe49  1  0.50031805  0.49842204  0.50347365  1
  Fe  Fe50  1  0.00321244  0.24939579  0.24957857  1
  Fe  Fe51  1  0.87485910  0.12824307  0.12458253  1
  Fe  Fe52  1  0.74830029  0.50031895  0.74817394  1
  Fe  Fe53  1  0.75053486  0.75087197  0.00142349  1
  Fe  Fe54  1  0.74796545  0.75245081  0.24928250  1
  Fe  Fe55  1  -0.00138392  0.50055200  0.49910039  1
  Fe  Fe56  1  0.50098168  0.24857292  0.25057111  1
  Fe  Fe57  1  0.37791621  0.62596753  0.62879224  1
  Fe  Fe58  1  0.50078942  0.00202767  0.75045483  1
  Fe  Fe59  1  0.62534237  0.62549583  0.12570501  1
  Fe  Fe60  1  0.74737186  0.00060833  0.24972763  1
  Fe  Fe61  1  0.75454453  0.00226809  0.49901787  1
  Fe  Fe62  1  0.87717929  0.62822676  0.62591735  1
  Fe  Fe63  1  0.12548114  0.87519514  0.37654697  1
  Fe  Fe64  1  0.25241179  0.75038320  0.49873906  1
  Fe  Fe65  1  0.74999406  0.50027456  0.50062488  1
  Fe  Fe66  1  0.37621735  0.62319467  0.37334003  1
  Fe  Fe67  1  0.12498708  0.87412216  0.12506632  1
  Fe  Fe68  1  0.12093083  0.87087351  0.62298456  1
  Fe  Fe69  1  0.75073300  0.74871379  0.49754358  1
  Fe  Fe70  1  -0.00248898  0.74893058  0.00050909  1
  Fe  Fe71  1  0.62426400  0.37621650  0.37682420  1
  Fe  Fe72  1  0.50346744  0.75200318  0.25432429  1
  Fe  Fe73  1  0.37520192  0.87274710  0.62569379  1
  Fe  Fe74  1  -0.00206338  0.25047221  0.75342015  1
  Fe  Fe75  1  0.37475577  0.87499817  0.87463910  1
  Fe  Fe76  1  0.75066753  0.49706070  0.00426786  1
  Fe  Fe77  1  0.87394167  0.37441929  0.62583552  1
  Fe  Fe78  1  0.37671988  0.37508644  0.12501542  1
  Fe  Fe79  1  0.24768281  0.74852406  0.75311834  1
  Fe  Fe80  1  0.25225282  0.74697732  -0.00042366  1
  Fe  Fe81  1  0.25227260  0.25034550  0.75208932  1
  Fe  Fe82  1  0.37704858  0.87395479  0.12650022  1
  Fe  Fe83  1  0.25268830  0.49823455  0.49974933  1
  Fe  Fe84  1  0.50005632  0.74983424  -0.00116500  1
  Fe  Fe85  1  0.75192028  0.24968109  0.49765250  1
  Fe  Fe86  1  -0.00105184  0.74977952  0.25000519  1
  Fe  Fe87  1  0.49794545  -0.00229290  0.49836426  1
  Fe  Fe88  1  0.25121664  0.50110369  0.75323234  1
  Fe  Fe89  1  -0.00260167  -0.00024611  0.74784141  1
  Co  Co90  1  0.62569758  0.12583600  0.12329915  1
  Co  Co91  1  0.62761826  0.87678273  0.37850927  1
  Co  Co92  1  0.87267446  0.62490455  0.12777689  1
  Co  Co93  1  0.25054187  0.25295322  0.49722257  1
  Co  Co94  1  0.37353520  0.87551595  0.37307862  1
  Co  Co95  1  0.00078954  0.49999535  0.24892539  1
  Co  Co96  1  0.87465686  0.37774289  0.87322358  1
  Co  Co97  1  0.37912627  0.62634309  0.87023787  1
  Co  Co98  1  0.87551587  0.12885204  0.62492942  1
  Co  Co99  1  0.74601388  0.49587950  0.24622258  1
  Co  Co100  1  0.25130078  0.49930195  0.24765940  1
  Co  Co101  1  0.62297022  0.87478569  0.12462495  1
  Co  Co102  1  0.12627610  0.12524353  0.12563865  1
  Co  Co103  1  0.12250432  0.62270589  0.87809902  1
  Co  Co104  1  -0.00162956  0.74743536  0.49464739  1
  Co  Co105  1  0.87491056  0.12273882  0.87729357  1
  Co  Co106  1  -0.00046850  0.74899810  0.75405546  1
  Co  Co107  1  0.87394827  0.87532556  0.37381657  1
  Co  Co108  1  0.24951791  -0.00277794  0.50202636  1
  Co  Co109  1  0.37714132  0.37674442  0.37311178  1
  Co  Co110  1  0.00034900  0.25027726  -0.00129773  1
  Co  Co111  1  0.62881217  0.37156173  0.62569419  1
  Co  Co112  1  0.87638575  0.37138820  0.12913740  1
  Co  Co113  1  0.37252132  0.12288106  0.87490453  1
  Co  Co114  1  0.50344615  0.75451666  0.75067892  1
  Co  Co115  1  0.37157957  0.37523841  0.62766562  1
  Co  Co116  1  0.49807329  0.75078645  0.49730228  1
  Co  Co117  1  0.62554967  0.62278252  0.37529722  1
  Co  Co118  1  0.61990109  0.37366543  0.12237433  1
  Co  Co119  1  0.49799780  0.24876203  0.74936874  1
  Co  Co120  1  0.50147157  0.49578264  0.74763430  1
  Co  Co121  1  0.87497031  0.87610367  0.12521954  1
  Co  Co122  1  0.87572905  0.87033548  0.62343617  1
  Co  Co123  1  0.62357809  0.12564724  0.37852750  1
  Co  Co124  1  0.37816251  0.62661786  0.12908222  1
  Co  Co125  1  0.87503463  0.12639956  0.37132142  1
  Co  Co126  1  0.62669241  0.12515339  0.87379390  1
  Co  Co127  1  0.37650456  0.37497868  0.87675988  1
