# generated using pymatgen
data_Fe45Co19
_symmetry_space_group_name_H-M   'P 1'
_cell_length_a   11.41574742
_cell_length_b   11.41599283
_cell_length_c   11.41479442
_cell_angle_alpha   89.99900002
_cell_angle_beta   89.98705001
_cell_angle_gamma   89.99837016
_symmetry_Int_Tables_number   1
_chemical_formula_structural   Fe45Co19
_chemical_formula_sum   'Fe90 Co38'
_cell_volume   1487.59983563
_cell_formula_units_Z   2
loop_
 _symmetry_equiv_pos_site_id
 _symmetry_equiv_pos_as_xyz
  1  'x, y, z'
loop_
 _atom_site_type_symbol
 _atom_site_label
 _atom_site_symmetry_multiplicity
 _atom_site_fract_x
 _atom_site_fract_y
 _atom_site_fract_z
 _atom_site_occupancy
  Fe  Fe0  1  0.37459750  0.37444600  0.62609771  1
  Fe  Fe1  1  0.62781436  0.87606404  0.62138214  1
  Fe  Fe2  1  0.87429194  0.12360943  0.62634765  1
  Fe  Fe3  1  0.87632244  0.37253572  0.87352266  1
  Fe  Fe4  1  0.50009092  0.24821206  0.24930720  1
  Fe  Fe5  1  0.00297059  0.24742536  0.74842098  1
  Fe  Fe6  1  0.49885948  0.00008563  0.25286558  1
  Fe  Fe7  1  0.12495005  0.37637386  0.12438309  1
  Fe  Fe8  1  0.25030585  0.50166658  0.24992976  1
  Fe  Fe9  1  0.12732791  0.62285443  0.62280350  1
  Fe  Fe10  1  0.62351664  0.12404485  0.12381879  1
  Fe  Fe11  1  0.49883482  0.00054287  0.00165112  1
  Fe  Fe12  1  0.50073908  0.50245770  0.50173861  1
  Fe  Fe13  1  0.87779743  0.12564440  0.37448683  1
  Fe  Fe14  1  0.37266366  0.87307692  0.62386540  1
  Fe  Fe15  1  0.62602946  0.87384448  0.37844845  1
  Fe  Fe16  1  -0.00069246  0.50148257  0.24934252  1
  Fe  Fe17  1  0.62483103  0.37495157  0.12433365  1
  Fe  Fe18  1  0.37323362  0.87475362  0.12835609  1
  Fe  Fe19  1  0.37246422  0.62723172  0.62374508  1
  Fe  Fe20  1  0.87394500  0.37476423  0.37597165  1
  Fe  Fe21  1  0.00163804  0.00000488  0.24740945  1
  Fe  Fe22  1  0.00151199  0.24968183  0.50206203  1
  Fe  Fe23  1  0.50267224  0.24718635  0.74635962  1
  Fe  Fe24  1  0.49986902  0.75121356  0.74801142  1
  Fe  Fe25  1  0.87710784  0.12650147  0.12333684  1
  Fe  Fe26  1  0.37493991  0.37389283  0.12498347  1
  Fe  Fe27  1  0.37304274  0.62665850  0.87676254  1
  Fe  Fe28  1  0.74911609  0.50304597  0.50110072  1
  Fe  Fe29  1  0.87613059  0.87364117  0.37556429  1
  Fe  Fe30  1  0.00082174  0.75085685  0.50242542  1
  Fe  Fe31  1  0.12379080  0.37680593  0.37612406  1
  Fe  Fe32  1  0.62473028  0.62669582  0.87505233  1
  Fe  Fe33  1  0.25086665  0.49946897  0.75061778  1
  Fe  Fe34  1  0.49990461  0.50133641  0.74879459  1
  Fe  Fe35  1  0.87411399  0.87350643  0.12401828  1
  Fe  Fe36  1  0.87464535  0.37309430  0.12413352  1
  Fe  Fe37  1  0.37286194  0.12428066  0.62248914  1
  Fe  Fe38  1  0.74879176  0.24768005  -0.00220000  1
  Fe  Fe39  1  0.62759722  0.87415997  0.12464053  1
  Fe  Fe40  1  0.12567945  0.37733950  0.62441550  1
  Fe  Fe41  1  0.62309140  0.87661289  0.87502881  1
  Fe  Fe42  1  0.24927314  0.24741990  0.25063579  1
  Fe  Fe43  1  0.37677371  0.12572191  0.87467762  1
  Fe  Fe44  1  0.74745275  0.24848210  0.50110960  1
  Fe  Fe45  1  0.87511169  0.62636697  0.37525183  1
  Fe  Fe46  1  0.00142967  0.75034201  0.75026643  1
  Fe  Fe47  1  0.37680417  0.37381253  0.37555582  1
  Fe  Fe48  1  0.37408113  0.62885248  0.37709678  1
  Fe  Fe49  1  -0.00050901  0.00012490  0.50160793  1
  Fe  Fe50  1  0.37560027  0.87442723  0.87523796  1
  Fe  Fe51  1  0.25057092  -0.00053937  0.00077739  1
  Fe  Fe52  1  0.74932808  0.50153566  0.24974376  1
  Fe  Fe53  1  0.62139337  0.12333097  0.37995052  1
  Fe  Fe54  1  0.49859079  -0.00027548  0.74693736  1
  Fe  Fe55  1  0.62407009  0.37601218  0.37610313  1
  Fe  Fe56  1  0.87868853  0.87594378  0.87496430  1
  Fe  Fe57  1  0.75105174  0.00088168  0.75116515  1
  Fe  Fe58  1  0.24880534  0.00120112  0.25295920  1
  Fe  Fe59  1  0.00209359  0.74901292  0.24655572  1
  Fe  Fe60  1  0.75107377  0.00102063  -0.00177721  1
  Fe  Fe61  1  0.74839663  0.24822562  0.25111395  1
  Fe  Fe62  1  0.49812123  0.50163812  0.00192839  1
  Fe  Fe63  1  0.50053114  0.50343907  0.24811162  1
  Fe  Fe64  1  0.74940237  0.50032739  0.75133062  1
  Fe  Fe65  1  -0.00142971  0.50104850  -0.00019668  1
  Fe  Fe66  1  0.75023593  0.00068650  0.25193476  1
  Fe  Fe67  1  0.12560705  0.37585916  0.87520235  1
  Fe  Fe68  1  0.24989418  0.24889196  0.00015394  1
  Fe  Fe69  1  0.12415671  0.87643484  0.87611556  1
  Fe  Fe70  1  0.24575471  0.74958418  0.24894305  1
  Fe  Fe71  1  0.75082408  0.75176151  0.75154430  1
  Fe  Fe72  1  0.12395596  0.12217471  0.87342392  1
  Fe  Fe73  1  0.00088240  0.25107538  0.24965485  1
  Fe  Fe74  1  0.12732349  0.62524785  0.87939242  1
  Fe  Fe75  1  0.24903099  0.75150427  0.75120403  1
  Fe  Fe76  1  0.37574819  0.37273157  0.87407498  1
  Fe  Fe77  1  0.74631711  0.24676973  0.74961786  1
  Fe  Fe78  1  0.49962664  0.75006925  0.00225334  1
  Fe  Fe79  1  0.00094919  0.50120135  0.75046503  1
  Fe  Fe80  1  0.25140085  -0.00321758  0.49456240  1
  Fe  Fe81  1  0.75026598  0.50084522  -0.00215187  1
  Fe  Fe82  1  0.62241325  0.37336588  0.87494411  1
  Fe  Fe83  1  0.87138881  0.62825112  0.12256368  1
  Fe  Fe84  1  0.87405783  0.37555602  0.62588653  1
  Fe  Fe85  1  0.12563583  0.87869392  0.62676291  1
  Fe  Fe86  1  0.87458067  0.62566285  0.62721753  1
  Fe  Fe87  1  0.50338374  0.74822284  0.24874564  1
  Fe  Fe88  1  0.12517171  0.62393711  0.37837319  1
  Fe  Fe89  1  0.24856860  0.25026973  0.49953411  1
  Co  Co90  1  0.37659848  0.12721779  0.37669698  1
  Co  Co91  1  0.62185464  0.12289342  0.87470320  1
  Co  Co92  1  0.37516347  0.86877752  0.37143236  1
  Co  Co93  1  0.24692479  0.75395478  0.50013445  1
  Co  Co94  1  0.37441485  0.12345277  0.12636144  1
  Co  Co95  1  0.75003739  0.75301211  -0.00428444  1
  Co  Co96  1  0.50136237  0.74996012  0.50182602  1
  Co  Co97  1  0.49937647  0.24893207  0.00153727  1
  Co  Co98  1  0.37237734  0.62720426  0.12531470  1
  Co  Co99  1  0.25136699  0.75393547  0.00039991  1
  Co  Co100  1  0.62427522  0.11894121  0.62145661  1
  Co  Co101  1  -0.00228589  0.49969708  0.50013860  1
  Co  Co102  1  0.12148983  0.87517546  0.37384812  1
  Co  Co103  1  0.62875840  0.62644324  0.12294374  1
  Co  Co104  1  0.25297962  0.49733782  0.00006628  1
  Co  Co105  1  -0.00019796  0.75019295  0.00044031  1
  Co  Co106  1  0.50095184  0.25204824  0.50346568  1
  Co  Co107  1  -0.00047098  -0.00022488  0.00128147  1
  Co  Co108  1  0.62599302  0.37763347  0.62571931  1
  Co  Co109  1  0.12455158  0.12477172  0.12521164  1
  Co  Co110  1  0.12287767  0.12458686  0.37514251  1
  Co  Co111  1  0.49465678  -0.00524211  0.49885186  1
  Co  Co112  1  0.62488541  0.62554023  0.37457928  1
  Co  Co113  1  -0.00168861  0.00062214  0.74871311  1
  Co  Co114  1  0.62640024  0.62686453  0.62834847  1
  Co  Co115  1  0.24857263  0.24947038  0.74978088  1
  Co  Co116  1  0.87720794  0.12562208  0.87440575  1
  Co  Co117  1  0.12555779  0.87590335  0.12402979  1
  Co  Co118  1  0.87417318  0.87427114  0.62499746  1
  Co  Co119  1  0.74938955  0.75168365  0.25228024  1
  Co  Co120  1  0.75434062  0.00044525  0.49736318  1
  Co  Co121  1  0.12877880  0.11993796  0.62437270  1
  Co  Co122  1  0.87544602  0.62608146  0.87381924  1
  Co  Co123  1  0.12675768  0.62382192  0.12116400  1
  Co  Co124  1  0.75120305  0.74849871  0.49968044  1
  Co  Co125  1  0.25322123  -0.00101698  0.75224125  1
  Co  Co126  1  0.00225042  0.25007462  -0.00143767  1
  Co  Co127  1  0.25275162  0.49781360  0.49949949  1
