# generated using pymatgen
data_Fe45Co19
_symmetry_space_group_name_H-M   'P 1'
_cell_length_a   11.41735341
_cell_length_b   11.41517950
_cell_length_c   11.41716004
_cell_angle_alpha   89.99577315
_cell_angle_beta   89.99988074
_cell_angle_gamma   89.99427781
_symmetry_Int_Tables_number   1
_chemical_formula_structural   Fe45Co19
_chemical_formula_sum   'Fe90 Co38'
_cell_volume   1488.01145685
_cell_formula_units_Z   2
loop_
 _symmetry_equiv_pos_site_id
 _symmetry_equiv_pos_as_xyz
  1  'x, y, z'
loop_
 _atom_site_type_symbol
 _atom_site_label
 _atom_site_symmetry_multiplicity
 _atom_site_fract_x
 _atom_site_fract_y
 _atom_site_fract_z
 _atom_site_occupancy
  Fe  Fe0  1  -0.00205180  -0.00039360  0.24977710  1
  Fe  Fe1  1  0.87415338  0.87517098  0.12333055  1
  Fe  Fe2  1  0.00039476  0.50206688  0.00119843  1
  Fe  Fe3  1  0.50096794  0.24402660  0.24515757  1
  Fe  Fe4  1  0.25104533  -0.00058808  0.75281842  1
  Fe  Fe5  1  0.87106885  0.12442232  0.12277321  1
  Fe  Fe6  1  0.37522417  0.37265203  0.12274525  1
  Fe  Fe7  1  0.50140922  0.25044787  0.75164030  1
  Fe  Fe8  1  0.62480279  0.37453537  0.12468944  1
  Fe  Fe9  1  0.24861104  0.50054693  0.25116581  1
  Fe  Fe10  1  0.00084712  0.74622599  0.00073917  1
  Fe  Fe11  1  0.12397058  0.12636350  0.87539757  1
  Fe  Fe12  1  0.87433321  0.62628946  0.87288700  1
  Fe  Fe13  1  0.50244582  0.24632572  0.50009595  1
  Fe  Fe14  1  0.12465058  0.62434751  0.62576941  1
  Fe  Fe15  1  0.12384435  0.87733608  0.37674779  1
  Fe  Fe16  1  0.24942916  0.50280814  -0.00118596  1
  Fe  Fe17  1  0.74935281  0.00149065  0.49907402  1
  Fe  Fe18  1  -0.00444072  -0.00043573  0.75172730  1
  Fe  Fe19  1  0.62506008  0.37313898  0.87642732  1
  Fe  Fe20  1  0.25114368  0.24905542  0.24986864  1
  Fe  Fe21  1  0.24994514  0.25132633  0.75114823  1
  Fe  Fe22  1  0.37611060  0.37261744  0.62285045  1
  Fe  Fe23  1  0.37694784  0.37249038  0.87872569  1
  Fe  Fe24  1  -0.00128933  0.74687437  0.49946592  1
  Fe  Fe25  1  0.87365870  0.37428778  0.62138284  1
  Fe  Fe26  1  0.62116207  0.88025134  0.37470219  1
  Fe  Fe27  1  0.87235504  0.12514845  0.62691608  1
  Fe  Fe28  1  0.38115801  0.62671773  0.62792317  1
  Fe  Fe29  1  0.25199932  0.74854596  0.49973336  1
  Fe  Fe30  1  0.25105890  0.75098895  0.75106691  1
  Fe  Fe31  1  0.74823525  0.24871872  0.25042064  1
  Fe  Fe32  1  0.62426946  0.37362016  0.37470829  1
  Fe  Fe33  1  0.37526785  0.62699747  0.12510477  1
  Fe  Fe34  1  0.87411480  0.62293346  0.13020004  1
  Fe  Fe35  1  0.25208115  -0.00069453  0.24847228  1
  Fe  Fe36  1  0.87442567  0.37504244  0.37454468  1
  Fe  Fe37  1  0.37694645  0.87446288  0.87988310  1
  Fe  Fe38  1  0.12466508  0.87501973  0.12266110  1
  Fe  Fe39  1  0.49906600  0.75303306  0.25037997  1
  Fe  Fe40  1  0.62635374  0.88237302  0.12565868  1
  Fe  Fe41  1  0.87486410  0.12511460  0.37545034  1
  Fe  Fe42  1  0.00141210  0.74858086  0.25115141  1
  Fe  Fe43  1  0.12602253  0.37326795  0.37688193  1
  Fe  Fe44  1  0.49999694  0.49947173  0.25004346  1
  Fe  Fe45  1  0.87421271  0.37227868  0.87841838  1
  Fe  Fe46  1  0.37537279  0.87557295  0.11966533  1
  Fe  Fe47  1  -0.00147575  0.49908800  0.74893044  1
  Fe  Fe48  1  0.62527763  0.62463601  0.12862117  1
  Fe  Fe49  1  -0.00038396  0.75008348  0.74840095  1
  Fe  Fe50  1  0.12469396  0.37508932  0.12379624  1
  Fe  Fe51  1  0.87460468  0.37572856  0.12515847  1
  Fe  Fe52  1  0.50138793  0.50441514  0.49827995  1
  Fe  Fe53  1  -0.00016889  0.25001205  0.24853375  1
  Fe  Fe54  1  0.62295688  0.62483133  0.87201258  1
  Fe  Fe55  1  0.37900434  0.62777798  0.87512612  1
  Fe  Fe56  1  0.37689348  0.87613223  0.62269710  1
  Fe  Fe57  1  0.00276218  0.24558591  0.50072029  1
  Fe  Fe58  1  0.12349074  0.87313693  0.87617946  1
  Fe  Fe59  1  0.12368268  0.37533295  0.87570431  1
  Fe  Fe60  1  0.74832613  0.50433877  0.49885618  1
  Fe  Fe61  1  0.62871438  0.12535805  0.62871349  1
  Fe  Fe62  1  0.62434477  0.87762317  0.87682102  1
  Fe  Fe63  1  0.62451575  0.37533734  0.62375972  1
  Fe  Fe64  1  0.87633880  0.87550556  0.37728556  1
  Fe  Fe65  1  0.37351084  0.12638691  0.62572625  1
  Fe  Fe66  1  0.25283016  0.50169517  0.49999285  1
  Fe  Fe67  1  -0.00148022  0.50320184  0.49781570  1
  Fe  Fe68  1  0.74832705  0.74995935  0.00097946  1
  Fe  Fe69  1  0.74932798  0.75344418  0.25119241  1
  Fe  Fe70  1  0.74712035  0.74587353  0.49888675  1
  Fe  Fe71  1  0.37557428  0.12675623  0.88059858  1
  Fe  Fe72  1  0.25241658  0.49975961  0.75031134  1
  Fe  Fe73  1  0.37601275  0.12434946  0.37544336  1
  Fe  Fe74  1  0.87478419  0.87491358  0.62315651  1
  Fe  Fe75  1  -0.00348132  0.00134182  -0.00266753  1
  Fe  Fe76  1  0.62296041  0.87498939  0.62290440  1
  Fe  Fe77  1  0.50011587  0.00064332  0.75066713  1
  Fe  Fe78  1  0.12679723  0.37325931  0.62351657  1
  Fe  Fe79  1  0.24651142  0.00477634  0.50071566  1
  Fe  Fe80  1  0.24956892  0.75105929  0.25053981  1
  Fe  Fe81  1  0.50075062  0.50062553  0.00052224  1
  Fe  Fe82  1  0.12683590  0.12431680  0.12424420  1
  Fe  Fe83  1  0.37652178  0.37299032  0.37575162  1
  Fe  Fe84  1  0.74938516  0.50075827  0.00107659  1
  Fe  Fe85  1  -0.00229911  0.25075425  0.74979961  1
  Fe  Fe86  1  0.75028263  0.49794543  0.74885117  1
  Fe  Fe87  1  0.74882545  0.75190865  0.74910303  1
  Fe  Fe88  1  0.37779040  0.87788528  0.37835061  1
  Fe  Fe89  1  0.12430312  0.87760328  0.62443035  1
  Co  Co90  1  0.74857428  0.49572600  0.25048073  1
  Co  Co91  1  0.87623137  0.86951289  0.87599871  1
  Co  Co92  1  0.74852666  0.24846097  0.49819343  1
  Co  Co93  1  0.87271866  0.62429787  0.36982524  1
  Co  Co94  1  0.62969009  0.12489414  0.87219763  1
  Co  Co95  1  0.62378635  0.12159679  0.37196378  1
  Co  Co96  1  0.00322295  0.49865364  0.25174403  1
  Co  Co97  1  0.00035098  0.00375964  0.50085964  1
  Co  Co98  1  0.12474934  0.12365139  0.36980471  1
  Co  Co99  1  0.63140896  0.11760867  0.12571776  1
  Co  Co100  1  0.75478363  -0.00065130  0.25370584  1
  Co  Co101  1  0.75394002  -0.00195330  -0.00485568  1
  Co  Co102  1  0.74700571  0.25030077  0.00294170  1
  Co  Co103  1  0.12584007  0.62506983  0.12703087  1
  Co  Co104  1  0.50477832  0.75051616  0.00228702  1
  Co  Co105  1  0.49917681  0.49520740  0.75140954  1
  Co  Co106  1  0.24850375  0.24617906  0.49904454  1
  Co  Co107  1  0.12381136  0.62474659  0.87186203  1
  Co  Co108  1  0.37057296  0.12583173  0.11966007  1
  Co  Co109  1  0.24825165  0.74792423  -0.00102111  1
  Co  Co110  1  -0.00038419  0.24853840  0.00115478  1
  Co  Co111  1  0.12648407  0.62594172  0.37569809  1
  Co  Co112  1  0.50179518  0.00374676  0.00061263  1
  Co  Co113  1  0.50127360  0.74701936  0.49759835  1
  Co  Co114  1  0.87349921  0.62556918  0.62729831  1
  Co  Co115  1  0.50014027  0.75610191  0.75079259  1
  Co  Co116  1  0.86989381  0.12950231  0.87370888  1
  Co  Co117  1  0.62520553  0.62537180  0.36908108  1
  Co  Co118  1  0.37560226  0.62497603  0.37141144  1
  Co  Co119  1  0.50519723  0.24608262  0.00276324  1
  Co  Co120  1  0.75207297  -0.00489966  0.75130027  1
  Co  Co121  1  0.12518129  0.12447962  0.63065566  1
  Co  Co122  1  0.24691274  0.25189895  -0.00025945  1
  Co  Co123  1  0.62213735  0.62511728  0.63022989  1
  Co  Co124  1  0.24765032  -0.00141106  -0.00141780  1
  Co  Co125  1  0.49486932  0.00248678  0.24594387  1
  Co  Co126  1  0.50114656  0.00436058  0.50376777  1
  Co  Co127  1  0.75046511  0.25569941  0.74890092  1
