# generated using pymatgen
data_Fe45Co19
_symmetry_space_group_name_H-M   'P 1'
_cell_length_a   11.41512807
_cell_length_b   11.41554315
_cell_length_c   11.41381758
_cell_angle_alpha   89.99524063
_cell_angle_beta   90.00198753
_cell_angle_gamma   89.99147222
_symmetry_Int_Tables_number   1
_chemical_formula_structural   Fe45Co19
_chemical_formula_sum   'Fe90 Co38'
_cell_volume   1487.33325749
_cell_formula_units_Z   2
loop_
 _symmetry_equiv_pos_site_id
 _symmetry_equiv_pos_as_xyz
  1  'x, y, z'
loop_
 _atom_site_type_symbol
 _atom_site_label
 _atom_site_symmetry_multiplicity
 _atom_site_fract_x
 _atom_site_fract_y
 _atom_site_fract_z
 _atom_site_occupancy
  Fe  Fe0  1  0.87456066  0.37713276  0.62335952  1
  Fe  Fe1  1  0.50307158  -0.00015154  -0.00129301  1
  Fe  Fe2  1  0.37453085  0.87714894  0.62479014  1
  Fe  Fe3  1  -0.00372792  0.24956681  0.24821211  1
  Fe  Fe4  1  0.62558875  0.62570800  0.37413829  1
  Fe  Fe5  1  0.62608455  0.87185355  0.87280127  1
  Fe  Fe6  1  0.25022811  0.24820050  0.00035604  1
  Fe  Fe7  1  0.87741802  0.62305384  0.12383676  1
  Fe  Fe8  1  0.50207726  -0.00009405  0.25058801  1
  Fe  Fe9  1  0.62724781  0.12344951  0.12452893  1
  Fe  Fe10  1  0.25262930  0.74969805  0.49835354  1
  Fe  Fe11  1  0.75170331  0.24757063  0.00131449  1
  Fe  Fe12  1  0.49703881  0.24922047  0.50464645  1
  Fe  Fe13  1  0.87268868  0.37771190  0.87752906  1
  Fe  Fe14  1  0.49664519  0.74960890  0.75214914  1
  Fe  Fe15  1  0.24945906  0.00213113  -0.00162760  1
  Fe  Fe16  1  0.12034683  0.12732017  0.87067217  1
  Fe  Fe17  1  0.74598600  0.50269518  -0.00053532  1
  Fe  Fe18  1  0.12403438  0.37261081  0.37467320  1
  Fe  Fe19  1  0.50293505  -0.00027620  0.74781290  1
  Fe  Fe20  1  0.25004060  0.24894842  0.24937147  1
  Fe  Fe21  1  0.37603803  0.12341557  0.12523968  1
  Fe  Fe22  1  -0.00081978  -0.00447817  0.00320950  1
  Fe  Fe23  1  0.24585909  0.00292883  0.50187029  1
  Fe  Fe24  1  0.37917255  0.62169631  0.12490096  1
  Fe  Fe25  1  0.12402712  0.37137750  0.62713911  1
  Fe  Fe26  1  0.62632311  0.37378797  0.62480701  1
  Fe  Fe27  1  0.87612699  0.62626798  0.62431536  1
  Fe  Fe28  1  0.37462299  0.37598476  0.37606658  1
  Fe  Fe29  1  0.12399003  0.62692614  0.37383453  1
  Fe  Fe30  1  -0.00225113  0.75454840  0.24713386  1
  Fe  Fe31  1  -0.00106543  0.75317794  0.74941803  1
  Fe  Fe32  1  0.25099149  0.24766570  0.50382694  1
  Fe  Fe33  1  0.50026403  0.24976413  0.24958461  1
  Fe  Fe34  1  0.62354660  0.37597081  0.12251577  1
  Fe  Fe35  1  0.37828942  0.37305690  0.87649886  1
  Fe  Fe36  1  0.12332486  0.62736594  0.87635387  1
  Fe  Fe37  1  0.25214372  0.75130567  0.75103801  1
  Fe  Fe38  1  0.50300416  -0.00021557  0.50222679  1
  Fe  Fe39  1  0.25343208  0.74963653  -0.00106399  1
  Fe  Fe40  1  0.50174047  0.50057191  0.49910051  1
  Fe  Fe41  1  0.12532519  0.87336221  0.87707209  1
  Fe  Fe42  1  0.87381167  0.37737355  0.37473324  1
  Fe  Fe43  1  0.62703026  0.37340243  0.37694407  1
  Fe  Fe44  1  0.37763137  0.12573938  0.87287053  1
  Fe  Fe45  1  0.74917781  -0.00298196  0.74456454  1
  Fe  Fe46  1  0.00348980  0.00014570  0.50538930  1
  Fe  Fe47  1  0.00133216  0.50079522  0.49967856  1
  Fe  Fe48  1  0.37443568  0.62211271  0.62583884  1
  Fe  Fe49  1  0.62900072  0.87386083  0.12630328  1
  Fe  Fe50  1  0.37459844  0.87743653  0.12433710  1
  Fe  Fe51  1  0.37505317  0.12363045  0.37590785  1
  Fe  Fe52  1  0.75226527  0.24794996  0.24812673  1
  Fe  Fe53  1  0.87548895  0.62388897  0.37586359  1
  Fe  Fe54  1  0.12403108  0.62826062  0.62520674  1
  Fe  Fe55  1  0.12135905  0.37620866  0.12506785  1
  Fe  Fe56  1  0.24949243  0.49979989  0.25014990  1
  Fe  Fe57  1  0.25324398  0.75060670  0.25119544  1
  Fe  Fe58  1  0.75270797  0.25028633  0.74860309  1
  Fe  Fe59  1  0.12225405  0.62611922  0.12361349  1
  Fe  Fe60  1  -0.00096700  0.24856312  0.50169686  1
  Fe  Fe61  1  0.74846160  0.50148152  0.74993410  1
  Fe  Fe62  1  0.87661266  0.12117061  0.87238563  1
  Fe  Fe63  1  0.37892280  0.37664617  0.12322057  1
  Fe  Fe64  1  0.49902178  0.74896177  -0.00287655  1
  Fe  Fe65  1  0.00011880  0.49904506  0.75073601  1
  Fe  Fe66  1  0.50319835  0.49928164  0.75413229  1
  Fe  Fe67  1  0.12464812  0.87508051  0.37503372  1
  Fe  Fe68  1  0.75109614  0.75086719  0.50090551  1
  Fe  Fe69  1  0.24625652  0.00007241  0.74999114  1
  Fe  Fe70  1  0.75031682  0.74880284  0.00048267  1
  Fe  Fe71  1  0.62752652  0.87497075  0.37506786  1
  Fe  Fe72  1  0.62572059  0.12580825  0.37755270  1
  Fe  Fe73  1  0.75303566  0.24704232  0.50167534  1
  Fe  Fe74  1  0.49812379  0.75053614  0.25243654  1
  Fe  Fe75  1  0.87315144  0.87548411  0.87487402  1
  Fe  Fe76  1  0.12421709  0.37204593  0.87424613  1
  Fe  Fe77  1  -0.00371423  0.25105036  0.00049053  1
  Fe  Fe78  1  0.24901268  0.49829391  0.75098117  1
  Fe  Fe79  1  0.62549392  0.62854771  0.62674863  1
  Fe  Fe80  1  0.12196082  0.12424533  0.12562204  1
  Fe  Fe81  1  0.49701567  0.74993770  0.49797116  1
  Fe  Fe82  1  0.62501492  0.12819394  0.87180770  1
  Fe  Fe83  1  0.24927063  0.50002100  -0.00081791  1
  Fe  Fe84  1  0.87594006  0.62581770  0.87492584  1
  Fe  Fe85  1  0.74847529  0.50136333  0.24924494  1
  Fe  Fe86  1  0.24787380  0.00093738  0.25098164  1
  Fe  Fe87  1  0.24784532  0.50036857  0.50023320  1
  Fe  Fe88  1  0.87377514  0.87820071  0.37560674  1
  Fe  Fe89  1  0.87682036  0.12071200  0.37553013  1
  Co  Co90  1  0.62117004  0.62665708  0.12613684  1
  Co  Co91  1  0.37416558  0.12009262  0.62689255  1
  Co  Co92  1  0.00169214  -0.00622619  0.74732440  1
  Co  Co93  1  -0.00128107  0.75032307  0.49807902  1
  Co  Co94  1  0.86673327  0.87846594  0.12625233  1
  Co  Co95  1  0.12711475  0.87057378  0.62387671  1
  Co  Co96  1  0.62716249  0.12811350  0.62518212  1
  Co  Co97  1  0.62310490  0.87002923  0.62505244  1
  Co  Co98  1  0.37593338  0.38023999  0.62495768  1
  Co  Co99  1  0.87432928  0.37896599  0.12428570  1
  Co  Co100  1  0.37460455  0.62126866  0.37493255  1
  Co  Co101  1  0.12241915  0.12599662  0.37359134  1
  Co  Co102  1  0.50255716  0.49827140  0.25358155  1
  Co  Co103  1  0.00097707  -0.00395053  0.24642205  1
  Co  Co104  1  0.62578049  0.37000101  0.87550563  1
  Co  Co105  1  0.74824538  0.00298084  0.25269087  1
  Co  Co106  1  0.87508109  0.87467847  0.62184777  1
  Co  Co107  1  0.74774371  -0.00063582  0.50330168  1
  Co  Co108  1  0.50368993  0.50266866  -0.00543144  1
  Co  Co109  1  0.13030679  0.87374054  0.12395681  1
  Co  Co110  1  0.37541928  0.87849961  0.87485099  1
  Co  Co111  1  0.87692147  0.12294260  0.62723542  1
  Co  Co112  1  -0.00292995  0.75488636  0.00211730  1
  Co  Co113  1  0.25461780  0.25041243  0.74946961  1
  Co  Co114  1  0.00172058  0.49939671  -0.00309884  1
  Co  Co115  1  0.75395784  0.75146918  0.74789676  1
  Co  Co116  1  0.87449187  0.11990142  0.12400429  1
  Co  Co117  1  0.12183435  0.13032198  0.63135666  1
  Co  Co118  1  0.62797479  0.62971046  0.87249537  1
  Co  Co119  1  0.00031016  0.50049236  0.25234839  1
  Co  Co120  1  0.50095911  0.24642425  0.00155629  1
  Co  Co121  1  -0.00593546  0.25426493  0.75154727  1
  Co  Co122  1  0.37279846  0.62268445  0.87438314  1
  Co  Co123  1  0.74715803  0.00058797  -0.00382222  1
  Co  Co124  1  0.49817847  0.25071243  0.74560836  1
  Co  Co125  1  0.75223473  0.74698053  0.25083528  1
  Co  Co126  1  0.74915820  0.50274057  0.50092801  1
  Co  Co127  1  0.37427779  0.87990654  0.37586888  1
