# generated using pymatgen
data_Fe45Co19
_symmetry_space_group_name_H-M   'P 1'
_cell_length_a   11.41601894
_cell_length_b   11.41514789
_cell_length_c   11.41535841
_cell_angle_alpha   90.01004173
_cell_angle_beta   89.99936509
_cell_angle_gamma   90.00372605
_symmetry_Int_Tables_number   1
_chemical_formula_structural   Fe45Co19
_chemical_formula_sum   'Fe90 Co38'
_cell_volume   1487.59862167
_cell_formula_units_Z   2
loop_
 _symmetry_equiv_pos_site_id
 _symmetry_equiv_pos_as_xyz
  1  'x, y, z'
loop_
 _atom_site_type_symbol
 _atom_site_label
 _atom_site_symmetry_multiplicity
 _atom_site_fract_x
 _atom_site_fract_y
 _atom_site_fract_z
 _atom_site_occupancy
  Fe  Fe0  1  0.87469999  0.87473288  0.12516672  1
  Fe  Fe1  1  0.50024805  -0.00129992  0.49952343  1
  Fe  Fe2  1  0.62530278  0.87345453  0.12587189  1
  Fe  Fe3  1  0.25190735  0.75201337  0.75247162  1
  Fe  Fe4  1  0.87792939  0.37859975  0.12424057  1
  Fe  Fe5  1  0.62739173  0.88069626  0.87216865  1
  Fe  Fe6  1  0.50027051  -0.00223395  0.24975015  1
  Fe  Fe7  1  0.00008133  0.25097938  -0.00290423  1
  Fe  Fe8  1  0.74835117  0.25001232  0.00046481  1
  Fe  Fe9  1  0.49899070  -0.00112070  0.00016708  1
  Fe  Fe10  1  0.00277866  0.00252202  0.75203776  1
  Fe  Fe11  1  0.37303208  0.37590734  0.37533747  1
  Fe  Fe12  1  0.12628125  0.62504443  0.62512916  1
  Fe  Fe13  1  0.74927791  0.74818019  0.74841654  1
  Fe  Fe14  1  0.12694688  0.87453327  0.37505253  1
  Fe  Fe15  1  0.12618554  0.62289070  0.87419531  1
  Fe  Fe16  1  0.12871501  0.37465569  0.87544970  1
  Fe  Fe17  1  0.25045417  0.00106016  0.24717224  1
  Fe  Fe18  1  0.74945501  0.00081168  0.50222338  1
  Fe  Fe19  1  0.87320125  0.87699120  0.87338678  1
  Fe  Fe20  1  0.37524525  0.12335051  0.37438463  1
  Fe  Fe21  1  0.25003855  0.00109997  0.50259791  1
  Fe  Fe22  1  0.00098832  0.49792259  0.75071102  1
  Fe  Fe23  1  0.87564768  0.87631581  0.62718618  1
  Fe  Fe24  1  -0.00159322  -0.00076505  0.25216248  1
  Fe  Fe25  1  0.37331120  0.12238115  0.87478331  1
  Fe  Fe26  1  0.74825082  0.74760227  0.00027594  1
  Fe  Fe27  1  0.62464043  0.62231738  0.87230451  1
  Fe  Fe28  1  0.62378115  0.87643285  0.62689679  1
  Fe  Fe29  1  0.74855752  0.74783655  0.50330034  1
  Fe  Fe30  1  0.25256125  0.50115280  -0.00190976  1
  Fe  Fe31  1  0.25260998  0.74693987  0.25081083  1
  Fe  Fe32  1  0.75160967  0.00184550  0.00104433  1
  Fe  Fe33  1  0.87732728  0.12436247  0.12419766  1
  Fe  Fe34  1  0.24780184  0.24578563  0.74901060  1
  Fe  Fe35  1  0.00115579  0.49836875  0.49909449  1
  Fe  Fe36  1  0.25037228  0.50302467  0.25079932  1
  Fe  Fe37  1  0.12087361  0.12516944  0.12387224  1
  Fe  Fe38  1  0.00065358  0.75062017  -0.00106200  1
  Fe  Fe39  1  0.49692221  0.75473113  0.75401809  1
  Fe  Fe40  1  0.74669576  0.24367571  0.74940143  1
  Fe  Fe41  1  0.37557994  0.62493661  0.62625622  1
  Fe  Fe42  1  0.87516422  0.62444775  0.87491069  1
  Fe  Fe43  1  0.50089205  0.25123494  0.49859189  1
  Fe  Fe44  1  0.49718693  0.49808647  0.75263775  1
  Fe  Fe45  1  0.62656201  0.87472898  0.37412876  1
  Fe  Fe46  1  0.87895387  0.12489887  0.62310700  1
  Fe  Fe47  1  0.00195217  0.75122010  0.75230673  1
  Fe  Fe48  1  0.87268533  0.37456962  0.62586223  1
  Fe  Fe49  1  0.37848932  0.12802277  0.12675165  1
  Fe  Fe50  1  0.62887607  0.37213750  0.37230487  1
  Fe  Fe51  1  0.12837003  0.37386774  0.62247521  1
  Fe  Fe52  1  0.13032106  0.88087717  0.87896688  1
  Fe  Fe53  1  0.37529673  0.87008770  0.12173786  1
  Fe  Fe54  1  0.87125189  0.37446787  0.87250065  1
  Fe  Fe55  1  0.25030429  0.24850068  0.25059040  1
  Fe  Fe56  1  0.37263132  0.37427917  0.62611837  1
  Fe  Fe57  1  0.50158758  0.25258963  -0.00334551  1
  Fe  Fe58  1  0.87757565  0.62475608  0.62574313  1
  Fe  Fe59  1  0.50050090  0.49638815  -0.00292051  1
  Fe  Fe60  1  0.50237143  0.24801460  0.75285953  1
  Fe  Fe61  1  0.74680826  0.50191067  0.50400363  1
  Fe  Fe62  1  0.37725816  0.12458965  0.62502738  1
  Fe  Fe63  1  0.50078155  0.49789071  0.24868528  1
  Fe  Fe64  1  0.37537469  0.37362240  0.12523896  1
  Fe  Fe65  1  -0.00256177  0.25383395  0.25373532  1
  Fe  Fe66  1  0.12527947  0.87538650  0.62350834  1
  Fe  Fe67  1  0.87241549  0.87446246  0.37463596  1
  Fe  Fe68  1  0.12079371  0.62229057  0.12467742  1
  Fe  Fe69  1  -0.00099432  0.75124867  0.49971483  1
  Fe  Fe70  1  0.12374332  0.12621751  0.37853627  1
  Fe  Fe71  1  0.38086779  0.62781777  0.12195010  1
  Fe  Fe72  1  0.87589768  0.62331815  0.37468238  1
  Fe  Fe73  1  0.00294487  0.24822846  0.75134476  1
  Fe  Fe74  1  0.25070869  0.24831452  0.00131070  1
  Fe  Fe75  1  0.12528636  0.87620231  0.12359505  1
  Fe  Fe76  1  0.62724651  0.12797917  0.37269198  1
  Fe  Fe77  1  -0.00080050  0.74900705  0.24956128  1
  Fe  Fe78  1  0.87317404  0.12654078  0.37711140  1
  Fe  Fe79  1  0.62570092  0.37444442  0.62887395  1
  Fe  Fe80  1  0.74951638  0.50121257  0.24594928  1
  Fe  Fe81  1  0.50080295  0.49786740  0.50153855  1
  Fe  Fe82  1  0.12833604  0.37463645  0.37741108  1
  Fe  Fe83  1  0.74922372  0.74681641  0.24727225  1
  Fe  Fe84  1  0.62236693  0.62548257  0.37371282  1
  Fe  Fe85  1  0.62405755  0.12806463  0.12710462  1
  Fe  Fe86  1  0.49817866  0.75127175  0.49798327  1
  Fe  Fe87  1  0.74786106  0.50064787  0.00175596  1
  Fe  Fe88  1  0.25301400  0.74717592  0.49718200  1
  Fe  Fe89  1  0.12460627  0.37653591  0.12439423  1
  Co  Co90  1  0.62311336  0.37173300  0.12625275  1
  Co  Co91  1  0.37212525  0.37148622  0.87344470  1
  Co  Co92  1  0.12159368  0.12594002  0.62010253  1
  Co  Co93  1  0.49905124  0.75357667  0.25278042  1
  Co  Co94  1  0.74804053  0.24950825  0.50381784  1
  Co  Co95  1  0.75069861  0.50356404  0.74718369  1
  Co  Co96  1  0.12287885  0.62654331  0.37555923  1
  Co  Co97  1  0.62892421  0.37565796  0.87194552  1
  Co  Co98  1  -0.00259784  0.25492509  0.49835284  1
  Co  Co99  1  0.24967541  0.00104682  0.74601622  1
  Co  Co100  1  0.12753098  0.12230170  0.87906395  1
  Co  Co101  1  0.87915478  0.62308690  0.12331752  1
  Co  Co102  1  0.37981757  0.62241750  0.37450053  1
  Co  Co103  1  0.25089989  0.50283227  0.49972601  1
  Co  Co104  1  0.75482564  0.25102870  0.24630009  1
  Co  Co105  1  0.62407208  0.12122953  0.87671057  1
  Co  Co106  1  0.24677911  0.74568461  -0.00003299  1
  Co  Co107  1  0.25060744  0.50024838  0.75064090  1
  Co  Co108  1  0.49587017  -0.00252449  0.75097046  1
  Co  Co109  1  -0.00109055  -0.00299107  0.49841824  1
  Co  Co110  1  -0.00288254  -0.00158005  -0.00116900  1
  Co  Co111  1  0.49781895  0.25155408  0.25317820  1
  Co  Co112  1  0.74999551  0.00120596  0.24900166  1
  Co  Co113  1  0.25321378  0.00431332  0.00718968  1
  Co  Co114  1  0.62062276  0.12270293  0.62424460  1
  Co  Co115  1  0.00047231  0.49872158  -0.00585539  1
  Co  Co116  1  0.37450689  0.87420574  0.62319508  1
  Co  Co117  1  0.61874009  0.62678126  0.62795587  1
  Co  Co118  1  0.25418459  0.24822844  0.50010534  1
  Co  Co119  1  0.00115596  0.49702108  0.25439885  1
  Co  Co120  1  0.86884549  0.37792023  0.37695714  1
  Co  Co121  1  0.87473914  0.12614661  0.87557301  1
  Co  Co122  1  0.37207660  0.87793210  0.37460998  1
  Co  Co123  1  0.37596270  0.62635011  0.87576841  1
  Co  Co124  1  0.50505212  0.75246168  -0.00660627  1
  Co  Co125  1  0.36956437  0.87768003  0.88037796  1
  Co  Co126  1  0.75124963  0.00470793  0.74728240  1
  Co  Co127  1  0.61931826  0.62662121  0.12474678  1
