# generated using pymatgen
data_Fe45Co19
_symmetry_space_group_name_H-M   'P 1'
_cell_length_a   11.41476678
_cell_length_b   11.41589242
_cell_length_c   11.41592518
_cell_angle_alpha   90.00675302
_cell_angle_beta   89.99638281
_cell_angle_gamma   90.01091085
_symmetry_Int_Tables_number   1
_chemical_formula_structural   Fe45Co19
_chemical_formula_sum   'Fe90 Co38'
_cell_volume   1487.60631117
_cell_formula_units_Z   2
loop_
 _symmetry_equiv_pos_site_id
 _symmetry_equiv_pos_as_xyz
  1  'x, y, z'
loop_
 _atom_site_type_symbol
 _atom_site_label
 _atom_site_symmetry_multiplicity
 _atom_site_fract_x
 _atom_site_fract_y
 _atom_site_fract_z
 _atom_site_occupancy
  Fe  Fe0  1  0.24539705  0.24699929  0.74905788  1
  Fe  Fe1  1  0.49879039  0.75003316  0.24966936  1
  Fe  Fe2  1  0.62253289  0.87413054  0.87501450  1
  Fe  Fe3  1  0.75453047  0.50148377  0.00041623  1
  Fe  Fe4  1  0.50040533  0.25187109  0.24988621  1
  Fe  Fe5  1  0.12441383  0.87148091  0.12706929  1
  Fe  Fe6  1  0.24888394  0.74876777  0.00053232  1
  Fe  Fe7  1  0.37561368  0.37349928  0.62688971  1
  Fe  Fe8  1  0.50028678  0.74732807  0.50060580  1
  Fe  Fe9  1  0.12553828  0.87732789  0.87464658  1
  Fe  Fe10  1  0.00696990  0.25027900  0.25260282  1
  Fe  Fe11  1  0.37263682  0.12657891  0.12682510  1
  Fe  Fe12  1  0.62585679  0.37678321  0.37655774  1
  Fe  Fe13  1  0.75152459  0.00001671  0.00025722  1
  Fe  Fe14  1  0.24919143  0.49801103  0.50253126  1
  Fe  Fe15  1  0.50319055  0.25186201  0.75392433  1
  Fe  Fe16  1  0.75249395  0.74965004  -0.00225568  1
  Fe  Fe17  1  0.00067385  0.74937010  0.49988858  1
  Fe  Fe18  1  0.50105790  0.49809720  0.24899762  1
  Fe  Fe19  1  0.87591242  0.62737500  0.62954825  1
  Fe  Fe20  1  0.00071484  -0.00028623  0.25181944  1
  Fe  Fe21  1  0.75036772  0.49968926  0.24947498  1
  Fe  Fe22  1  0.24796497  0.24882003  0.00025101  1
  Fe  Fe23  1  0.74989739  0.49691946  0.74700886  1
  Fe  Fe24  1  0.87582989  0.37576013  0.37504291  1
  Fe  Fe25  1  0.37531394  0.87493670  0.62574775  1
  Fe  Fe26  1  0.37101072  0.37427494  0.37479139  1
  Fe  Fe27  1  0.87698347  0.87342355  0.62618255  1
  Fe  Fe28  1  0.24633009  0.49868139  0.24553289  1
  Fe  Fe29  1  0.24701981  0.50082948  0.75081516  1
  Fe  Fe30  1  0.74920668  -0.00102764  0.74962096  1
  Fe  Fe31  1  0.74828077  0.74741474  0.50093037  1
  Fe  Fe32  1  0.37404865  0.62564874  0.12433275  1
  Fe  Fe33  1  0.25020569  0.00285580  0.74760039  1
  Fe  Fe34  1  0.87498510  0.37096875  0.12699372  1
  Fe  Fe35  1  0.11915995  0.62197089  0.88002197  1
  Fe  Fe36  1  0.62597665  0.87324066  0.37442016  1
  Fe  Fe37  1  0.12576833  0.62376721  0.37488319  1
  Fe  Fe38  1  -0.00050220  -0.00109379  0.00183030  1
  Fe  Fe39  1  0.62809225  0.12803792  0.12356423  1
  Fe  Fe40  1  0.62335303  0.87450700  0.62557606  1
  Fe  Fe41  1  0.87905194  0.63052380  0.12507396  1
  Fe  Fe42  1  0.87509757  0.12382013  0.87395084  1
  Fe  Fe43  1  0.37433608  0.12341508  0.87405826  1
  Fe  Fe44  1  0.49968568  0.00101403  0.00059323  1
  Fe  Fe45  1  -0.00102189  0.00176425  0.49716073  1
  Fe  Fe46  1  0.25029139  0.74909419  0.49952975  1
  Fe  Fe47  1  0.37326677  0.37618114  0.87525815  1
  Fe  Fe48  1  0.12805699  0.87554469  0.37476017  1
  Fe  Fe49  1  0.12431139  0.87492743  0.62467843  1
  Fe  Fe50  1  0.49794398  0.24922977  0.49851794  1
  Fe  Fe51  1  0.00225431  0.24818187  0.49630651  1
  Fe  Fe52  1  0.49908917  0.50118320  -0.00196768  1
  Fe  Fe53  1  0.36814585  0.12771867  0.37235268  1
  Fe  Fe54  1  0.37450011  0.62421735  0.62714933  1
  Fe  Fe55  1  0.74948734  0.50102887  0.50274814  1
  Fe  Fe56  1  0.00272325  0.49965094  0.24713114  1
  Fe  Fe57  1  0.87697940  0.87339405  0.87330176  1
  Fe  Fe58  1  0.62535940  0.87348425  0.12443525  1
  Fe  Fe59  1  0.37311842  0.87568902  0.37389827  1
  Fe  Fe60  1  0.87432541  0.62550718  0.37356802  1
  Fe  Fe61  1  0.87273361  0.87278862  0.37391113  1
  Fe  Fe62  1  -0.00126656  0.50098610  0.50276661  1
  Fe  Fe63  1  0.50136508  0.24952142  -0.00248154  1
  Fe  Fe64  1  0.87710793  0.37768192  0.87281592  1
  Fe  Fe65  1  0.75118894  0.00009340  0.24989217  1
  Fe  Fe66  1  0.62320407  0.12514795  0.62711564  1
  Fe  Fe67  1  0.37458713  0.62209703  0.37440526  1
  Fe  Fe68  1  0.75161320  0.00195067  0.49994111  1
  Fe  Fe69  1  0.37365476  0.37516295  0.12259878  1
  Fe  Fe70  1  0.49836491  0.00209115  0.49978000  1
  Fe  Fe71  1  0.00160176  0.00110732  0.75006565  1
  Fe  Fe72  1  0.37619472  0.62523497  0.87357499  1
  Fe  Fe73  1  0.62568984  0.12498395  0.37336969  1
  Fe  Fe74  1  0.24980891  -0.00008676  0.00388140  1
  Fe  Fe75  1  0.87750470  0.12781354  0.62656272  1
  Fe  Fe76  1  0.37557172  0.87425617  0.87667428  1
  Fe  Fe77  1  0.12363933  0.37769549  0.87842232  1
  Fe  Fe78  1  0.25106273  0.00382237  0.50381438  1
  Fe  Fe79  1  0.62759452  0.37353753  0.12101680  1
  Fe  Fe80  1  0.12125282  0.37426076  0.62561506  1
  Fe  Fe81  1  -0.00011714  0.24887740  -0.00205115  1
  Fe  Fe82  1  0.62516283  0.62548123  0.12601056  1
  Fe  Fe83  1  0.75142102  0.24957731  0.49852602  1
  Fe  Fe84  1  0.50160186  0.50098988  0.50234103  1
  Fe  Fe85  1  0.49796634  0.00000552  0.24884557  1
  Fe  Fe86  1  0.74842698  0.25214565  0.75242771  1
  Fe  Fe87  1  0.24683398  0.74838490  0.75038869  1
  Fe  Fe88  1  0.62534745  0.62460662  0.87081524  1
  Fe  Fe89  1  0.87508422  0.12705808  0.12725741  1
  Co  Co90  1  -0.00599142  0.49873655  0.00308244  1
  Co  Co91  1  0.25185499  0.50198549  0.00026215  1
  Co  Co92  1  0.13133295  0.12261350  0.37453856  1
  Co  Co93  1  0.62378223  0.37295262  0.62207477  1
  Co  Co94  1  0.12436718  0.37610507  0.11824123  1
  Co  Co95  1  0.12589167  0.37883910  0.37759509  1
  Co  Co96  1  0.87715658  0.62431019  0.87133359  1
  Co  Co97  1  0.25104017  0.74771543  0.25006842  1
  Co  Co98  1  0.24790244  0.25029384  0.50412501  1
  Co  Co99  1  0.87767050  0.37134500  0.62482120  1
  Co  Co100  1  0.62422499  0.62585254  0.62950183  1
  Co  Co101  1  0.00419916  0.74965776  0.75090574  1
  Co  Co102  1  0.62453799  0.62434068  0.37333694  1
  Co  Co103  1  0.00125440  0.75068226  0.25304948  1
  Co  Co104  1  0.87456528  0.87407293  0.12678698  1
  Co  Co105  1  0.12023513  0.12448636  0.62379392  1
  Co  Co106  1  0.12562346  0.12178399  0.87773012  1
  Co  Co107  1  0.50108975  0.74728238  -0.00034538  1
  Co  Co108  1  0.75023495  0.74906716  0.24931095  1
  Co  Co109  1  0.24505725  0.25521397  0.24728194  1
  Co  Co110  1  0.25073429  -0.00244593  0.24612369  1
  Co  Co111  1  0.12421476  0.12432256  0.12478931  1
  Co  Co112  1  0.00268353  0.24945339  0.75472928  1
  Co  Co113  1  0.75071255  0.75306867  0.75120822  1
  Co  Co114  1  0.74846255  0.25170839  0.25301627  1
  Co  Co115  1  -0.00138608  0.75409644  -0.00236325  1
  Co  Co116  1  0.75334044  0.25043916  -0.00437948  1
  Co  Co117  1  0.12229663  0.62649607  0.12190991  1
  Co  Co118  1  0.62657503  0.37918695  0.87944030  1
  Co  Co119  1  0.49912828  -0.00172137  0.75159546  1
  Co  Co120  1  0.12550935  0.62544574  0.62230605  1
  Co  Co121  1  0.00162973  0.50157175  0.74725452  1
  Co  Co122  1  0.37565845  0.87228823  0.12254236  1
  Co  Co123  1  0.62610942  0.12312088  0.87545403  1
  Co  Co124  1  0.87486684  0.12620894  0.37220451  1
  Co  Co125  1  0.50014993  0.49707605  0.75018700  1
  Co  Co126  1  0.49758735  0.75145732  0.74916218  1
  Co  Co127  1  0.37858452  0.12776282  0.62741018  1
