# generated using pymatgen
data_Fe45Co19
_symmetry_space_group_name_H-M   'P 1'
_cell_length_a   11.41470649
_cell_length_b   11.41662546
_cell_length_c   11.41678322
_cell_angle_alpha   90.00452012
_cell_angle_beta   90.00610569
_cell_angle_gamma   89.99865256
_symmetry_Int_Tables_number   1
_chemical_formula_structural   Fe45Co19
_chemical_formula_sum   'Fe90 Co38'
_cell_volume   1487.80582049
_cell_formula_units_Z   2
loop_
 _symmetry_equiv_pos_site_id
 _symmetry_equiv_pos_as_xyz
  1  'x, y, z'
loop_
 _atom_site_type_symbol
 _atom_site_label
 _atom_site_symmetry_multiplicity
 _atom_site_fract_x
 _atom_site_fract_y
 _atom_site_fract_z
 _atom_site_occupancy
  Fe  Fe0  1  0.75222649  0.24639471  0.00231555  1
  Fe  Fe1  1  0.37822867  0.38053576  0.12236665  1
  Fe  Fe2  1  0.37376978  0.62174116  0.62561764  1
  Fe  Fe3  1  0.24453082  0.00365906  0.49617356  1
  Fe  Fe4  1  0.25124717  -0.00121737  0.75176533  1
  Fe  Fe5  1  0.25010613  0.25662134  0.74815894  1
  Fe  Fe6  1  0.49860231  -0.00010217  0.74845213  1
  Fe  Fe7  1  0.49923282  0.74785176  0.50402533  1
  Fe  Fe8  1  0.87873311  0.12458884  0.37303746  1
  Fe  Fe9  1  0.62751704  0.37315054  0.37793801  1
  Fe  Fe10  1  0.50009942  0.49595954  0.75112905  1
  Fe  Fe11  1  0.87739911  0.87626488  0.62270209  1
  Fe  Fe12  1  0.62220753  0.12688417  0.87332103  1
  Fe  Fe13  1  0.63015570  0.62290745  0.63018574  1
  Fe  Fe14  1  0.24816089  0.50097550  -0.00349261  1
  Fe  Fe15  1  0.24664216  -0.00138658  0.25368208  1
  Fe  Fe16  1  -0.00308523  0.25280855  0.24515642  1
  Fe  Fe17  1  0.74993872  0.00247868  -0.00252061  1
  Fe  Fe18  1  0.87420360  0.12294145  0.62769240  1
  Fe  Fe19  1  0.00169661  0.00050058  0.74998708  1
  Fe  Fe20  1  0.37417249  0.12601473  0.62427442  1
  Fe  Fe21  1  0.62484737  0.12667635  0.37558992  1
  Fe  Fe22  1  0.12436440  0.62704378  0.37399685  1
  Fe  Fe23  1  0.62140540  0.87320922  0.87440265  1
  Fe  Fe24  1  0.25134333  0.25228600  0.24989923  1
  Fe  Fe25  1  0.12522973  0.87628390  0.62321378  1
  Fe  Fe26  1  0.62367787  0.87676234  0.12443929  1
  Fe  Fe27  1  0.50208929  0.50110932  0.49885579  1
  Fe  Fe28  1  0.75161728  0.75175804  0.24864716  1
  Fe  Fe29  1  0.49976064  -0.00015601  0.25231166  1
  Fe  Fe30  1  0.50001935  0.00183358  0.49977594  1
  Fe  Fe31  1  0.25089141  0.00020384  -0.00225690  1
  Fe  Fe32  1  -0.00400409  0.50525768  0.49939773  1
  Fe  Fe33  1  0.87245217  0.62611738  0.87150298  1
  Fe  Fe34  1  0.62455706  0.37705401  0.12508015  1
  Fe  Fe35  1  0.25150220  0.50161144  0.25105568  1
  Fe  Fe36  1  0.37405048  0.87414520  0.37760910  1
  Fe  Fe37  1  0.75136415  -0.00246924  0.25349324  1
  Fe  Fe38  1  0.87540123  0.87671898  0.12236729  1
  Fe  Fe39  1  0.37585022  0.37568724  0.37720566  1
  Fe  Fe40  1  0.37531664  0.12283588  0.12606163  1
  Fe  Fe41  1  0.74898127  0.74922067  -0.00002301  1
  Fe  Fe42  1  0.25244768  0.74860529  0.24884197  1
  Fe  Fe43  1  0.12450253  0.87406362  0.12113305  1
  Fe  Fe44  1  0.74861736  0.25131049  0.74790435  1
  Fe  Fe45  1  -0.00002613  0.50390801  -0.00174583  1
  Fe  Fe46  1  0.37606772  0.62646662  0.87607058  1
  Fe  Fe47  1  0.12536466  0.12450091  0.12715327  1
  Fe  Fe48  1  -0.00066897  0.74996670  0.74858849  1
  Fe  Fe49  1  0.87610541  0.87541367  0.87631659  1
  Fe  Fe50  1  0.12314073  0.37661836  0.12199225  1
  Fe  Fe51  1  0.62427114  0.87208509  0.37658891  1
  Fe  Fe52  1  0.24876320  0.74871754  0.50121000  1
  Fe  Fe53  1  0.00031012  0.49751544  0.75226363  1
  Fe  Fe54  1  0.62565747  0.12293017  0.12687939  1
  Fe  Fe55  1  0.88022923  0.87326590  0.37884983  1
  Fe  Fe56  1  0.74855070  -0.00115518  0.75080924  1
  Fe  Fe57  1  0.37860553  0.87176132  0.87698808  1
  Fe  Fe58  1  0.25117651  0.75174214  0.74915422  1
  Fe  Fe59  1  0.37746867  0.12953468  0.87477875  1
  Fe  Fe60  1  0.87719082  0.37110759  0.87892652  1
  Fe  Fe61  1  0.25032857  0.25125136  0.00134354  1
  Fe  Fe62  1  0.62545137  0.62850647  0.86996393  1
  Fe  Fe63  1  0.12543332  0.62677907  0.12281991  1
  Fe  Fe64  1  0.75343515  0.25207021  0.24995864  1
  Fe  Fe65  1  0.12162805  0.37481603  0.37553474  1
  Fe  Fe66  1  0.62568164  0.62659102  0.37323930  1
  Fe  Fe67  1  0.37624432  0.87570870  0.12259074  1
  Fe  Fe68  1  -0.00034087  0.75098810  0.24750336  1
  Fe  Fe69  1  0.62488249  0.87511642  0.62526364  1
  Fe  Fe70  1  0.74884258  0.50062894  -0.00262668  1
  Fe  Fe71  1  0.00128377  0.25244891  0.74755551  1
  Fe  Fe72  1  0.24815076  0.24988132  0.49958081  1
  Fe  Fe73  1  0.24818158  0.49946881  0.49844656  1
  Fe  Fe74  1  -0.00087269  0.00518635  -0.00061083  1
  Fe  Fe75  1  0.75439373  0.49753665  0.25364903  1
  Fe  Fe76  1  0.62147104  0.36987250  0.87766606  1
  Fe  Fe77  1  0.49896544  0.25164735  0.25001704  1
  Fe  Fe78  1  0.49642545  0.74745123  0.24845734  1
  Fe  Fe79  1  0.12497110  0.12902042  0.87291615  1
  Fe  Fe80  1  0.24959514  0.49513389  0.75318716  1
  Fe  Fe81  1  0.75039661  0.00174185  0.49950254  1
  Fe  Fe82  1  0.75306471  0.74624916  0.50310926  1
  Fe  Fe83  1  0.12541468  0.62211706  0.62846654  1
  Fe  Fe84  1  0.62438640  0.62183140  0.12768486  1
  Fe  Fe85  1  0.12402621  0.87261253  0.87710932  1
  Fe  Fe86  1  0.62710695  0.37404173  0.62073027  1
  Fe  Fe87  1  0.00060216  0.24731644  0.50304779  1
  Fe  Fe88  1  -0.00272562  0.49976896  0.24974114  1
  Fe  Fe89  1  0.87222636  0.37793666  0.62157307  1
  Co  Co90  1  0.87098362  0.62099594  0.63254079  1
  Co  Co91  1  0.12843577  0.12537974  0.62964554  1
  Co  Co92  1  0.25111021  0.74959918  0.00026864  1
  Co  Co93  1  0.50409022  0.50215488  -0.00453256  1
  Co  Co94  1  -0.00106882  0.24439415  0.00368500  1
  Co  Co95  1  0.49995372  0.00195535  -0.00081198  1
  Co  Co96  1  0.49888037  0.49937100  0.25461717  1
  Co  Co97  1  0.87427024  0.37821623  0.11994365  1
  Co  Co98  1  0.37738031  0.37281082  0.87846797  1
  Co  Co99  1  0.75151508  0.50461053  0.49645723  1
  Co  Co100  1  -0.00069313  0.74356817  0.50509964  1
  Co  Co101  1  0.49979100  0.25319473  0.74559086  1
  Co  Co102  1  0.37468407  0.12520897  0.37427781  1
  Co  Co103  1  0.62433174  0.12467346  0.62544236  1
  Co  Co104  1  0.87317137  0.12123714  0.12891147  1
  Co  Co105  1  0.74854683  0.49185417  0.75437780  1
  Co  Co106  1  0.37609100  0.62029266  0.12166432  1
  Co  Co107  1  0.50264453  0.74723713  0.00292654  1
  Co  Co108  1  0.49708799  0.75033073  0.74516769  1
  Co  Co109  1  0.87489173  0.12713328  0.87012359  1
  Co  Co110  1  0.75226170  0.75558056  0.74931772  1
  Co  Co111  1  0.49898613  0.24897911  0.49961444  1
  Co  Co112  1  0.12364062  0.37862477  0.62202203  1
  Co  Co113  1  -0.00194559  0.74697791  -0.00111758  1
  Co  Co114  1  0.37257792  0.87833994  0.62139715  1
  Co  Co115  1  0.37452839  0.62528017  0.37826975  1
  Co  Co116  1  0.75248419  0.24540345  0.50064754  1
  Co  Co117  1  0.87494111  0.62873824  0.37094430  1
  Co  Co118  1  0.12141815  0.13011903  0.36974092  1
  Co  Co119  1  0.12300815  0.87045890  0.37784914  1
  Co  Co120  1  0.00262427  -0.00381121  0.24994948  1
  Co  Co121  1  0.12599316  0.62748079  0.87250603  1
  Co  Co122  1  0.00428306  0.00458970  0.50055395  1
  Co  Co123  1  0.37514244  0.37679892  0.62156626  1
  Co  Co124  1  0.87254021  0.62390195  0.12493947  1
  Co  Co125  1  0.49958138  0.24832073  0.00565766  1
  Co  Co126  1  0.12234853  0.37184203  0.87840872  1
  Co  Co127  1  0.87656084  0.37331670  0.37915195  1
