# generated using pymatgen
data_Fe45Co19
_symmetry_space_group_name_H-M   'P 1'
_cell_length_a   11.41631564
_cell_length_b   11.41579205
_cell_length_c   11.41494067
_cell_angle_alpha   90.00606990
_cell_angle_beta   90.00082096
_cell_angle_gamma   90.00351625
_symmetry_Int_Tables_number   1
_chemical_formula_structural   Fe45Co19
_chemical_formula_sum   'Fe90 Co38'
_cell_volume   1487.66680293
_cell_formula_units_Z   2
loop_
 _symmetry_equiv_pos_site_id
 _symmetry_equiv_pos_as_xyz
  1  'x, y, z'
loop_
 _atom_site_type_symbol
 _atom_site_label
 _atom_site_symmetry_multiplicity
 _atom_site_fract_x
 _atom_site_fract_y
 _atom_site_fract_z
 _atom_site_occupancy
  Fe  Fe0  1  0.12790074  0.62345696  0.36974426  1
  Fe  Fe1  1  0.12402468  0.87945017  0.62528344  1
  Fe  Fe2  1  0.50009534  0.24795511  0.75218005  1
  Fe  Fe3  1  0.12427080  0.62278346  0.62653004  1
  Fe  Fe4  1  0.62533680  0.62324231  0.62705739  1
  Fe  Fe5  1  -0.00383834  0.00093995  0.50068473  1
  Fe  Fe6  1  0.12412206  0.37603244  0.12490279  1
  Fe  Fe7  1  0.74949121  -0.00104230  0.75515653  1
  Fe  Fe8  1  0.12352642  0.12495848  0.37576145  1
  Fe  Fe9  1  0.74952546  0.00206289  0.49763267  1
  Fe  Fe10  1  0.12190389  0.88151124  0.87686338  1
  Fe  Fe11  1  0.49942124  0.74945775  0.50105220  1
  Fe  Fe12  1  0.87531669  0.62473810  0.12433582  1
  Fe  Fe13  1  0.49866225  0.50069289  0.50093875  1
  Fe  Fe14  1  0.62665609  0.62499370  0.37513887  1
  Fe  Fe15  1  0.37395520  0.62588541  0.62848723  1
  Fe  Fe16  1  0.50236670  0.74934511  0.75286849  1
  Fe  Fe17  1  0.37645042  0.87653005  0.87366831  1
  Fe  Fe18  1  0.75182294  0.49871435  0.24918120  1
  Fe  Fe19  1  0.74898559  0.75038439  -0.00212747  1
  Fe  Fe20  1  0.37599570  0.37260666  0.37601876  1
  Fe  Fe21  1  0.37511112  0.37475573  0.87445100  1
  Fe  Fe22  1  0.87512630  0.62670075  0.87360898  1
  Fe  Fe23  1  0.25038261  0.75016487  0.00078502  1
  Fe  Fe24  1  0.12358021  0.37465575  0.37367805  1
  Fe  Fe25  1  -0.00091156  0.00302356  0.24831637  1
  Fe  Fe26  1  0.49846692  0.74391816  -0.00406451  1
  Fe  Fe27  1  0.00041544  0.24830218  0.50244266  1
  Fe  Fe28  1  0.62597551  0.62133429  0.12190499  1
  Fe  Fe29  1  0.12636545  0.37364246  0.87485447  1
  Fe  Fe30  1  0.24999963  0.24832831  0.50317524  1
  Fe  Fe31  1  0.87294342  0.87516497  0.12541993  1
  Fe  Fe32  1  0.25351681  -0.00017109  0.24897852  1
  Fe  Fe33  1  0.87296076  0.12665130  0.12592488  1
  Fe  Fe34  1  0.00184915  0.75040025  0.50098767  1
  Fe  Fe35  1  0.62437900  0.12468759  0.62687719  1
  Fe  Fe36  1  0.62403151  0.87620924  0.62541014  1
  Fe  Fe37  1  0.50438626  0.75199994  0.24996811  1
  Fe  Fe38  1  0.37295815  0.62589310  0.37063199  1
  Fe  Fe39  1  0.00077280  0.24674599  0.00031415  1
  Fe  Fe40  1  0.75170807  0.49821784  0.50089008  1
  Fe  Fe41  1  0.25334903  0.00222645  0.49896486  1
  Fe  Fe42  1  0.87638894  0.87430123  0.62904638  1
  Fe  Fe43  1  0.25124388  0.49930999  0.50026273  1
  Fe  Fe44  1  0.37466631  0.37253117  0.62622570  1
  Fe  Fe45  1  0.74873663  0.24862233  0.50025506  1
  Fe  Fe46  1  0.25354145  0.50337620  0.00307718  1
  Fe  Fe47  1  0.25281937  0.24654028  -0.00179568  1
  Fe  Fe48  1  0.74721833  0.24928563  -0.00256103  1
  Fe  Fe49  1  -0.00063329  0.50053097  0.49887567  1
  Fe  Fe50  1  0.62376444  0.37330369  0.37675381  1
  Fe  Fe51  1  0.75094726  0.49747917  0.75142674  1
  Fe  Fe52  1  0.37675508  0.37245752  0.12229822  1
  Fe  Fe53  1  0.87326684  0.62705393  0.37320627  1
  Fe  Fe54  1  0.87264009  0.87409561  0.37331168  1
  Fe  Fe55  1  0.00136591  0.74992535  0.24865024  1
  Fe  Fe56  1  0.24683403  0.75278759  0.75070295  1
  Fe  Fe57  1  0.12495833  0.87720048  0.37498478  1
  Fe  Fe58  1  0.24955084  0.25000892  0.24890249  1
  Fe  Fe59  1  0.87811600  0.37285269  0.62854288  1
  Fe  Fe60  1  0.62337361  0.37570578  0.62576457  1
  Fe  Fe61  1  0.49651557  0.00482725  -0.00148209  1
  Fe  Fe62  1  0.49856796  0.49745225  0.24848671  1
  Fe  Fe63  1  0.37699073  0.87412367  0.12459379  1
  Fe  Fe64  1  0.38054611  0.12817895  0.37235721  1
  Fe  Fe65  1  0.87349975  0.12740258  0.63000355  1
  Fe  Fe66  1  0.74967221  0.75082378  0.50162301  1
  Fe  Fe67  1  0.37627165  0.87351205  0.37472042  1
  Fe  Fe68  1  0.87735393  0.37071191  0.37276348  1
  Fe  Fe69  1  0.62404592  0.37735003  0.12013543  1
  Fe  Fe70  1  0.12646720  0.62357959  0.87567220  1
  Fe  Fe71  1  0.24905839  0.75063588  0.50066352  1
  Fe  Fe72  1  -0.00163109  0.49909792  -0.00102545  1
  Fe  Fe73  1  0.50071415  0.00075323  0.49920816  1
  Fe  Fe74  1  0.24964124  0.00485642  0.75051900  1
  Fe  Fe75  1  0.62162285  0.12553725  0.12526660  1
  Fe  Fe76  1  0.74684859  0.24912087  0.25099296  1
  Fe  Fe77  1  0.74609549  0.00095477  0.25290618  1
  Fe  Fe78  1  0.74654066  0.75216850  0.75363564  1
  Fe  Fe79  1  0.62176019  0.37877513  0.87783907  1
  Fe  Fe80  1  0.00141703  0.75147071  -0.00059450  1
  Fe  Fe81  1  0.12492591  0.87825794  0.12326264  1
  Fe  Fe82  1  0.12844458  0.12211498  0.12119156  1
  Fe  Fe83  1  0.87586826  0.37236107  0.12622069  1
  Fe  Fe84  1  0.24913350  0.49742295  0.74893135  1
  Fe  Fe85  1  0.87647985  0.62564256  0.62844330  1
  Fe  Fe86  1  0.87682989  0.36927424  0.87243582  1
  Fe  Fe87  1  0.75268040  0.00157161  -0.00385863  1
  Fe  Fe88  1  0.62430514  0.87630026  0.12090537  1
  Fe  Fe89  1  0.37539728  0.87696037  0.62654401  1
  Co  Co90  1  0.37723786  0.12491128  0.62627338  1
  Co  Co91  1  0.37578349  0.12657568  0.12722901  1
  Co  Co92  1  0.87692366  0.87396788  0.87419880  1
  Co  Co93  1  0.50116805  -0.00270893  0.24979750  1
  Co  Co94  1  0.25218127  0.49504132  0.24677391  1
  Co  Co95  1  -0.00123354  0.00413908  0.75167312  1
  Co  Co96  1  0.12516226  0.12187633  0.62213020  1
  Co  Co97  1  0.62235636  0.87701250  0.87920498  1
  Co  Co98  1  0.50127679  0.24980058  0.50396142  1
  Co  Co99  1  0.74681906  0.75018117  0.24668933  1
  Co  Co100  1  0.49987753  0.24755503  -0.00201658  1
  Co  Co101  1  -0.00617575  0.00220601  0.00085375  1
  Co  Co102  1  0.00793708  0.24674846  0.74981103  1
  Co  Co103  1  0.37064668  0.62472374  0.87031312  1
  Co  Co104  1  0.49904207  0.49965997  0.74994891  1
  Co  Co105  1  0.87563128  0.12700488  0.37391124  1
  Co  Co106  1  0.87507667  0.12987833  0.87305057  1
  Co  Co107  1  0.50117156  0.00037543  0.75120053  1
  Co  Co108  1  0.62074546  0.12777310  0.37466681  1
  Co  Co109  1  0.50132111  0.25400713  0.24624415  1
  Co  Co110  1  0.00001854  0.49891771  0.75310385  1
  Co  Co111  1  0.62721784  0.61950020  0.87603044  1
  Co  Co112  1  0.24805180  0.75521214  0.24781692  1
  Co  Co113  1  0.12538521  0.62360522  0.12548327  1
  Co  Co114  1  0.37345068  0.12515866  0.87322650  1
  Co  Co115  1  0.75569601  0.49726759  -0.00198848  1
  Co  Co116  1  -0.00173032  0.49955385  0.24909212  1
  Co  Co117  1  0.37421205  0.62844829  0.13010924  1
  Co  Co118  1  0.62662469  0.87382222  0.37758031  1
  Co  Co119  1  0.24687768  0.24712744  0.74893645  1
  Co  Co120  1  0.12418765  0.37678950  0.62423474  1
  Co  Co121  1  0.25561590  -0.00172614  0.00060364  1
  Co  Co122  1  0.62482017  0.12415616  0.87533552  1
  Co  Co123  1  0.49357920  0.50426111  -0.00015348  1
  Co  Co124  1  0.00362319  0.24617794  0.24640228  1
  Co  Co125  1  0.74475758  0.25204960  0.75172170  1
  Co  Co126  1  0.12558779  0.12203290  0.88047469  1
  Co  Co127  1  0.00409956  0.75075861  0.75090476  1
