# generated using pymatgen
data_Fe45Co19
_symmetry_space_group_name_H-M   'P 1'
_cell_length_a   11.41445569
_cell_length_b   11.41577356
_cell_length_c   11.41526835
_cell_angle_alpha   89.99980946
_cell_angle_beta   89.99462748
_cell_angle_gamma   89.98536147
_symmetry_Int_Tables_number   1
_chemical_formula_structural   Fe45Co19
_chemical_formula_sum   'Fe90 Co38'
_cell_volume   1487.46467691
_cell_formula_units_Z   2
loop_
 _symmetry_equiv_pos_site_id
 _symmetry_equiv_pos_as_xyz
  1  'x, y, z'
loop_
 _atom_site_type_symbol
 _atom_site_label
 _atom_site_symmetry_multiplicity
 _atom_site_fract_x
 _atom_site_fract_y
 _atom_site_fract_z
 _atom_site_occupancy
  Fe  Fe0  1  0.37341024  0.61875448  0.12042089  1
  Fe  Fe1  1  0.50153861  0.75012951  0.50240997  1
  Fe  Fe2  1  0.00068356  0.25140692  0.50337124  1
  Fe  Fe3  1  0.12693657  0.37727465  0.12479904  1
  Fe  Fe4  1  0.37385233  0.87749890  0.62334897  1
  Fe  Fe5  1  0.00166390  0.00034139  0.25003045  1
  Fe  Fe6  1  0.12392840  0.62388983  0.62378824  1
  Fe  Fe7  1  0.87489974  0.62263940  0.12470525  1
  Fe  Fe8  1  0.87275303  0.12458990  0.37294324  1
  Fe  Fe9  1  0.74963726  0.24946848  0.49922779  1
  Fe  Fe10  1  0.12593036  0.12391481  0.12389907  1
  Fe  Fe11  1  0.12523440  0.37406767  0.37741408  1
  Fe  Fe12  1  0.37547557  0.12430310  0.37540960  1
  Fe  Fe13  1  0.87641841  0.37351021  0.87517807  1
  Fe  Fe14  1  0.25132822  0.50060659  0.75413562  1
  Fe  Fe15  1  0.62466949  0.62727752  0.37297772  1
  Fe  Fe16  1  0.87264393  0.37868249  0.62552495  1
  Fe  Fe17  1  0.62783434  0.12654831  0.12717869  1
  Fe  Fe18  1  0.37438032  0.87385296  0.87646613  1
  Fe  Fe19  1  0.50359855  -0.00086040  0.49844527  1
  Fe  Fe20  1  0.87567383  0.62514947  0.37654619  1
  Fe  Fe21  1  0.00089115  0.50031102  0.25084787  1
  Fe  Fe22  1  0.50023407  0.75072068  0.74921884  1
  Fe  Fe23  1  0.87611924  0.37553701  0.37677956  1
  Fe  Fe24  1  0.12372490  0.37110690  0.87331525  1
  Fe  Fe25  1  0.87170066  0.12633982  0.12715352  1
  Fe  Fe26  1  0.12380217  0.12264687  0.62506292  1
  Fe  Fe27  1  0.37497206  0.87337194  0.37478983  1
  Fe  Fe28  1  0.24817368  0.74802538  0.24746992  1
  Fe  Fe29  1  0.25131912  0.50147079  0.49764336  1
  Fe  Fe30  1  0.25036955  0.24734173  0.50179613  1
  Fe  Fe31  1  0.37453542  0.87957859  0.12424727  1
  Fe  Fe32  1  0.74920060  0.74872769  0.00186221  1
  Fe  Fe33  1  0.25069113  0.50141937  0.25418921  1
  Fe  Fe34  1  0.12441922  0.87653422  0.11825963  1
  Fe  Fe35  1  -0.00008889  0.74990300  0.50120177  1
  Fe  Fe36  1  0.24987334  -0.00005497  0.75278418  1
  Fe  Fe37  1  -0.00145857  0.24958424  0.00263960  1
  Fe  Fe38  1  0.12618506  0.62901009  0.87807622  1
  Fe  Fe39  1  0.62454052  0.12756006  0.87493004  1
  Fe  Fe40  1  0.62551649  0.37547610  0.12497572  1
  Fe  Fe41  1  0.49841010  0.49985723  0.25127704  1
  Fe  Fe42  1  0.75037751  0.25001543  0.75008005  1
  Fe  Fe43  1  0.62347079  0.37242062  0.87426717  1
  Fe  Fe44  1  0.87539222  0.12713290  0.87435848  1
  Fe  Fe45  1  0.74971250  0.75039518  0.74915465  1
  Fe  Fe46  1  0.75031972  0.49790498  0.25141500  1
  Fe  Fe47  1  0.62314175  0.37361965  0.37618104  1
  Fe  Fe48  1  0.62386219  0.62469718  0.87565775  1
  Fe  Fe49  1  0.49858957  0.00250650  0.00041863  1
  Fe  Fe50  1  0.87231378  0.87770831  0.62620388  1
  Fe  Fe51  1  0.49794485  0.25063595  0.24881306  1
  Fe  Fe52  1  0.37462752  0.62538564  0.62629701  1
  Fe  Fe53  1  0.00035005  0.49941080  0.74848209  1
  Fe  Fe54  1  0.74915801  0.74959428  0.50225994  1
  Fe  Fe55  1  0.87566066  0.87613194  0.12239918  1
  Fe  Fe56  1  0.49719944  0.25091234  0.00390162  1
  Fe  Fe57  1  0.37418273  0.37470820  0.62639555  1
  Fe  Fe58  1  0.37708175  0.12842223  0.87284333  1
  Fe  Fe59  1  -0.00111078  0.25194532  0.24833449  1
  Fe  Fe60  1  0.50076518  0.74989207  0.24532920  1
  Fe  Fe61  1  0.49953122  0.74860091  0.00240751  1
  Fe  Fe62  1  0.25227008  0.24998080  0.24965944  1
  Fe  Fe63  1  0.25011709  0.24803640  0.74745774  1
  Fe  Fe64  1  0.24654210  0.00013053  0.25307097  1
  Fe  Fe65  1  0.00207018  -0.00076149  0.49615498  1
  Fe  Fe66  1  0.00001999  -0.00282842  0.75527518  1
  Fe  Fe67  1  0.62714911  0.12219710  0.62589882  1
  Fe  Fe68  1  0.75063573  0.00137718  -0.00031965  1
  Fe  Fe69  1  0.50034834  -0.00015623  0.74959014  1
  Fe  Fe70  1  0.00284313  0.74809248  0.24708238  1
  Fe  Fe71  1  0.87423592  0.12189552  0.62527425  1
  Fe  Fe72  1  0.25326848  0.24977647  0.00240601  1
  Fe  Fe73  1  0.74909388  0.49875587  -0.00096831  1
  Fe  Fe74  1  0.49862656  0.50159957  0.49880013  1
  Fe  Fe75  1  0.24902621  0.74972714  0.49829018  1
  Fe  Fe76  1  0.49772720  0.49930566  0.75304610  1
  Fe  Fe77  1  0.12609977  0.87710989  0.62431782  1
  Fe  Fe78  1  0.50511540  -0.00093222  0.25177549  1
  Fe  Fe79  1  0.24997869  0.75108696  0.75153191  1
  Fe  Fe80  1  0.87407411  0.87568037  0.37375957  1
  Fe  Fe81  1  0.00165916  0.50077492  0.00002668  1
  Fe  Fe82  1  0.12329627  0.12593583  0.87598062  1
  Fe  Fe83  1  0.49971672  0.24806851  0.50275560  1
  Fe  Fe84  1  0.62684591  0.62216691  0.62684007  1
  Fe  Fe85  1  0.62587460  0.87559732  0.87587017  1
  Fe  Fe86  1  0.62673036  0.37747132  0.62580420  1
  Fe  Fe87  1  0.74791865  0.75208797  0.24639534  1
  Fe  Fe88  1  0.87509624  0.62583171  0.87365099  1
  Fe  Fe89  1  -0.00004280  0.75266911  0.75134602  1
  Co  Co90  1  -0.00297148  0.00229457  -0.00147829  1
  Co  Co91  1  0.25272603  0.00362860  -0.00234165  1
  Co  Co92  1  0.75045812  0.49924440  0.75305969  1
  Co  Co93  1  0.87540422  0.37707950  0.12314284  1
  Co  Co94  1  0.37595396  0.62732989  0.87696844  1
  Co  Co95  1  0.50143317  0.24944840  0.74514918  1
  Co  Co96  1  0.62451865  0.87707981  0.12073357  1
  Co  Co97  1  0.37705656  0.62921115  0.37435096  1
  Co  Co98  1  0.74785652  -0.00038710  0.49643440  1
  Co  Co99  1  0.62705271  0.12825060  0.37235579  1
  Co  Co100  1  0.74865630  0.50151644  0.49694369  1
  Co  Co101  1  0.62487140  0.62083402  0.12484459  1
  Co  Co102  1  0.62536113  0.87016267  0.37526319  1
  Co  Co103  1  0.75128669  0.25494980  0.25086427  1
  Co  Co104  1  0.25279160  0.75044562  0.00301512  1
  Co  Co105  1  0.37620726  0.36951154  0.87316421  1
  Co  Co106  1  0.37501784  0.12170933  0.12905855  1
  Co  Co107  1  0.75095766  0.25130401  -0.00026191  1
  Co  Co108  1  0.37563082  0.37201666  0.37691336  1
  Co  Co109  1  0.12310193  0.12979242  0.37422153  1
  Co  Co110  1  0.12273761  0.62527643  0.37698536  1
  Co  Co111  1  0.24955487  0.49647686  -0.00689294  1
  Co  Co112  1  0.62680267  0.87704542  0.62687249  1
  Co  Co113  1  0.37311319  0.37978939  0.12512271  1
  Co  Co114  1  0.12663834  0.87425411  0.88077979  1
  Co  Co115  1  0.37465238  0.12123093  0.62393600  1
  Co  Co116  1  0.24703312  0.00071307  0.49570769  1
  Co  Co117  1  0.74729601  -0.00349557  0.24994062  1
  Co  Co118  1  0.75020972  0.00117424  0.75334798  1
  Co  Co119  1  0.50021205  0.49720110  -0.00323219  1
  Co  Co120  1  0.12859568  0.37680491  0.62552529  1
  Co  Co121  1  0.87223034  0.87321811  0.87673953  1
  Co  Co122  1  -0.00015977  0.49863568  0.50198392  1
  Co  Co123  1  0.12700003  0.62193084  0.12233385  1
  Co  Co124  1  -0.00149170  0.25052286  0.74597527  1
  Co  Co125  1  0.12418653  0.87131832  0.37387005  1
  Co  Co126  1  -0.00158741  0.74834143  0.00028483  1
  Co  Co127  1  0.87507539  0.62390803  0.62560515  1
