# generated using pymatgen
data_Fe45Co19
_symmetry_space_group_name_H-M   'P 1'
_cell_length_a   11.41567880
_cell_length_b   11.41419128
_cell_length_c   11.41445685
_cell_angle_alpha   89.99504973
_cell_angle_beta   90.00033807
_cell_angle_gamma   90.00282942
_symmetry_Int_Tables_number   1
_chemical_formula_structural   Fe45Co19
_chemical_formula_sum   'Fe90 Co38'
_cell_volume   1487.31218377
_cell_formula_units_Z   2
loop_
 _symmetry_equiv_pos_site_id
 _symmetry_equiv_pos_as_xyz
  1  'x, y, z'
loop_
 _atom_site_type_symbol
 _atom_site_label
 _atom_site_symmetry_multiplicity
 _atom_site_fract_x
 _atom_site_fract_y
 _atom_site_fract_z
 _atom_site_occupancy
  Fe  Fe0  1  0.74705315  -0.00326319  0.25755837  1
  Fe  Fe1  1  0.12558633  0.37061608  0.87787497  1
  Fe  Fe2  1  0.37332068  0.87415643  0.62919234  1
  Fe  Fe3  1  0.12712040  0.62539593  0.62542560  1
  Fe  Fe4  1  0.37681569  0.37704143  0.37364814  1
  Fe  Fe5  1  -0.00065138  0.49970363  0.50101391  1
  Fe  Fe6  1  0.87282278  0.62522769  0.62835832  1
  Fe  Fe7  1  0.12806332  0.37335438  0.62396490  1
  Fe  Fe8  1  0.25235015  0.50029934  -0.00219870  1
  Fe  Fe9  1  -0.00124421  0.25240850  0.50135635  1
  Fe  Fe10  1  0.24929304  0.50196212  0.25061111  1
  Fe  Fe11  1  0.62537166  0.12269990  0.12499597  1
  Fe  Fe12  1  0.37599501  0.12092511  0.37660978  1
  Fe  Fe13  1  0.62374217  0.12355385  0.87731788  1
  Fe  Fe14  1  0.87497613  0.37425247  0.87279935  1
  Fe  Fe15  1  0.12283173  0.87442036  0.37636831  1
  Fe  Fe16  1  0.87448780  0.37558351  0.37547804  1
  Fe  Fe17  1  0.37284410  0.37443570  0.62763562  1
  Fe  Fe18  1  0.00066816  0.49870832  0.74932558  1
  Fe  Fe19  1  0.74889122  0.75324606  0.25281066  1
  Fe  Fe20  1  -0.00582843  0.75724321  -0.00260784  1
  Fe  Fe21  1  0.12634301  0.37218196  0.12261748  1
  Fe  Fe22  1  0.74803496  0.50110501  0.75251874  1
  Fe  Fe23  1  0.62042257  0.62823325  0.37431429  1
  Fe  Fe24  1  0.25128861  0.75089766  0.25016988  1
  Fe  Fe25  1  0.24942326  0.24856105  0.25241408  1
  Fe  Fe26  1  0.87653362  0.62657700  0.37372375  1
  Fe  Fe27  1  0.86993819  0.87806730  0.62836385  1
  Fe  Fe28  1  0.37600452  0.12298312  0.87237300  1
  Fe  Fe29  1  0.24946902  0.50024124  0.75271381  1
  Fe  Fe30  1  0.62669981  0.87522546  0.12135174  1
  Fe  Fe31  1  0.49933329  0.50267992  0.50145103  1
  Fe  Fe32  1  0.12784665  0.87349414  0.62414404  1
  Fe  Fe33  1  -0.00159094  0.49903068  -0.00018423  1
  Fe  Fe34  1  0.25269278  0.00142864  -0.00020953  1
  Fe  Fe35  1  0.62952191  0.87486003  0.62153407  1
  Fe  Fe36  1  0.74488026  0.74697632  0.75620968  1
  Fe  Fe37  1  0.74964568  0.50250638  0.49873715  1
  Fe  Fe38  1  0.62539828  0.37389561  0.12275776  1
  Fe  Fe39  1  0.74583895  0.49988796  0.25099443  1
  Fe  Fe40  1  0.50134032  0.50132206  0.74767097  1
  Fe  Fe41  1  0.50237478  0.24970456  0.25040870  1
  Fe  Fe42  1  0.62441782  0.62788269  0.12319604  1
  Fe  Fe43  1  0.37763941  0.87427816  0.37603998  1
  Fe  Fe44  1  0.12386829  0.87653400  0.12346843  1
  Fe  Fe45  1  0.49788643  0.49876504  0.00049664  1
  Fe  Fe46  1  0.24856544  -0.00090317  0.25132786  1
  Fe  Fe47  1  0.87388387  0.37487908  0.12528274  1
  Fe  Fe48  1  0.50313165  -0.00234657  0.74906223  1
  Fe  Fe49  1  -0.00064703  0.24885616  0.74702397  1
  Fe  Fe50  1  0.12968358  0.12761808  0.62150394  1
  Fe  Fe51  1  0.75019539  0.24733689  0.74871433  1
  Fe  Fe52  1  0.12281248  0.62795541  0.87606511  1
  Fe  Fe53  1  0.00171368  0.50027560  0.24891814  1
  Fe  Fe54  1  0.37688907  0.62683362  0.12697405  1
  Fe  Fe55  1  0.62477771  0.12308251  0.62062500  1
  Fe  Fe56  1  -0.00051419  0.75179252  0.24875001  1
  Fe  Fe57  1  -0.00315079  0.75035609  0.50296143  1
  Fe  Fe58  1  0.50091602  0.75427007  -0.00302784  1
  Fe  Fe59  1  0.25223130  0.74868878  0.49984995  1
  Fe  Fe60  1  0.75312638  -0.00177946  -0.00177103  1
  Fe  Fe61  1  0.37371189  0.37334009  0.12577338  1
  Fe  Fe62  1  0.12394729  0.12550524  0.12212505  1
  Fe  Fe63  1  0.74777739  0.24994988  0.25203380  1
  Fe  Fe64  1  0.12432429  0.62764393  0.12222264  1
  Fe  Fe65  1  0.49677236  0.24708239  0.00142587  1
  Fe  Fe66  1  0.37574656  0.87765888  0.12390640  1
  Fe  Fe67  1  0.62328990  0.37357538  0.87588037  1
  Fe  Fe68  1  0.75044448  0.50236726  -0.00255388  1
  Fe  Fe69  1  0.24684704  -0.00027294  0.74979324  1
  Fe  Fe70  1  -0.00076089  -0.00134066  0.50333687  1
  Fe  Fe71  1  0.75110552  0.24784459  0.50040580  1
  Fe  Fe72  1  0.62712053  0.37514144  0.62352398  1
  Fe  Fe73  1  0.87827082  0.11965426  0.87027271  1
  Fe  Fe74  1  0.49660640  0.24818721  0.50133702  1
  Fe  Fe75  1  0.37812202  0.62948890  0.87017362  1
  Fe  Fe76  1  0.12271120  0.12472538  0.87756865  1
  Fe  Fe77  1  0.49798449  0.74771816  0.50514011  1
  Fe  Fe78  1  0.12622839  0.12415712  0.37900127  1
  Fe  Fe79  1  0.87347257  0.62750077  0.12389554  1
  Fe  Fe80  1  0.87521023  0.12110914  0.12769838  1
  Fe  Fe81  1  0.87652282  0.12238839  0.37592518  1
  Fe  Fe82  1  0.00043826  0.24963667  0.24983361  1
  Fe  Fe83  1  0.25183242  0.75171975  -0.00257216  1
  Fe  Fe84  1  0.00165766  0.75354715  0.75110247  1
  Fe  Fe85  1  0.12467820  0.62670293  0.37518495  1
  Fe  Fe86  1  0.49976697  0.24808451  0.74791831  1
  Fe  Fe87  1  0.50295870  -0.00245117  0.25109508  1
  Fe  Fe88  1  0.75327610  0.24756808  -0.00129729  1
  Fe  Fe89  1  0.25105450  0.50115056  0.49802192  1
  Co  Co90  1  0.37253850  0.12188066  0.62626700  1
  Co  Co91  1  0.25031573  0.24841990  0.75181646  1
  Co  Co92  1  0.61949603  0.62336867  0.87775167  1
  Co  Co93  1  0.37739114  0.62608942  0.37222899  1
  Co  Co94  1  0.37496903  0.87510494  0.87142150  1
  Co  Co95  1  0.00350585  0.00121942  0.25034367  1
  Co  Co96  1  0.87917822  0.87653203  0.37521282  1
  Co  Co97  1  0.25498957  0.24751769  -0.00132696  1
  Co  Co98  1  0.75018800  -0.00036834  0.49557201  1
  Co  Co99  1  0.87836083  0.62544784  0.87368359  1
  Co  Co100  1  0.49746151  0.00080185  -0.00052280  1
  Co  Co101  1  0.75262118  0.75144762  -0.00401580  1
  Co  Co102  1  0.62423405  0.37394469  0.37863210  1
  Co  Co103  1  0.87419293  0.12144353  0.62489261  1
  Co  Co104  1  0.75295054  0.74956643  0.49692883  1
  Co  Co105  1  0.12419058  0.37536308  0.37508050  1
  Co  Co106  1  0.87214773  0.88001830  0.86671537  1
  Co  Co107  1  0.50260367  0.49859326  0.24835232  1
  Co  Co108  1  0.00635438  -0.00044747  0.74534120  1
  Co  Co109  1  -0.00344387  -0.00363005  0.00013582  1
  Co  Co110  1  0.12628853  0.87708914  0.87747548  1
  Co  Co111  1  0.49954992  -0.00148572  0.50307732  1
  Co  Co112  1  0.50552228  0.75278381  0.74800585  1
  Co  Co113  1  0.87310106  0.87706883  0.12951777  1
  Co  Co114  1  0.87217308  0.37655498  0.62528161  1
  Co  Co115  1  -0.00517597  0.24848893  0.00048335  1
  Co  Co116  1  0.62223300  0.12524868  0.37745091  1
  Co  Co117  1  0.25102462  -0.00361195  0.49998881  1
  Co  Co118  1  0.37179065  0.62608665  0.62951200  1
  Co  Co119  1  0.37747027  0.37360890  0.87267774  1
  Co  Co120  1  0.74434068  0.00511380  0.74856812  1
  Co  Co121  1  0.62641850  0.87865725  0.87699321  1
  Co  Co122  1  0.62830961  0.62538968  0.62423641  1
  Co  Co123  1  0.62061116  0.87113516  0.38080875  1
  Co  Co124  1  0.37608670  0.12358522  0.12987947  1
  Co  Co125  1  0.25480142  0.25181204  0.49791379  1
  Co  Co126  1  0.50037893  0.75398232  0.24698113  1
  Co  Co127  1  0.24633627  0.75058987  0.75139015  1
