# generated using pymatgen
data_Fe45Co19
_symmetry_space_group_name_H-M   'P 1'
_cell_length_a   11.41442177
_cell_length_b   11.41520680
_cell_length_c   11.41566636
_cell_angle_alpha   90.00171573
_cell_angle_beta   89.99699151
_cell_angle_gamma   90.01118250
_symmetry_Int_Tables_number   1
_chemical_formula_structural   Fe45Co19
_chemical_formula_sum   'Fe90 Co38'
_cell_volume   1487.43829366
_cell_formula_units_Z   2
loop_
 _symmetry_equiv_pos_site_id
 _symmetry_equiv_pos_as_xyz
  1  'x, y, z'
loop_
 _atom_site_type_symbol
 _atom_site_label
 _atom_site_symmetry_multiplicity
 _atom_site_fract_x
 _atom_site_fract_y
 _atom_site_fract_z
 _atom_site_occupancy
  Fe  Fe0  1  0.49859718  0.74943420  0.25209754  1
  Fe  Fe1  1  0.37425264  0.62428535  0.62263911  1
  Fe  Fe2  1  0.00189566  0.50022050  0.74876524  1
  Fe  Fe3  1  0.75086890  -0.00092507  0.00025438  1
  Fe  Fe4  1  0.50077798  0.24962828  -0.00093726  1
  Fe  Fe5  1  0.74742458  0.49905040  0.50248996  1
  Fe  Fe6  1  0.12534400  0.37496945  0.87649243  1
  Fe  Fe7  1  0.62507440  0.12249292  0.87350825  1
  Fe  Fe8  1  0.50106566  0.50006137  0.74966546  1
  Fe  Fe9  1  0.87632019  0.62631461  0.12585646  1
  Fe  Fe10  1  0.00166370  0.24919883  0.49158043  1
  Fe  Fe11  1  0.37428873  0.87755036  0.37589504  1
  Fe  Fe12  1  0.62401390  0.87584087  0.62641626  1
  Fe  Fe13  1  0.75159485  0.74957467  0.74911177  1
  Fe  Fe14  1  0.87304937  0.62452233  0.37543870  1
  Fe  Fe15  1  0.37391657  0.12550502  0.12474168  1
  Fe  Fe16  1  0.49892706  0.49941591  0.24962657  1
  Fe  Fe17  1  0.00255891  0.50298831  0.00233327  1
  Fe  Fe18  1  0.50006887  0.74894444  0.49788494  1
  Fe  Fe19  1  0.12150798  0.12482576  0.13189601  1
  Fe  Fe20  1  0.50145702  0.00045782  0.50025030  1
  Fe  Fe21  1  0.87701684  0.12505144  0.62286871  1
  Fe  Fe22  1  0.37319939  0.37593302  0.62231878  1
  Fe  Fe23  1  0.87704135  0.62504553  0.62339603  1
  Fe  Fe24  1  0.00378871  0.74939995  0.49571603  1
  Fe  Fe25  1  0.87550304  0.62438670  0.87587057  1
  Fe  Fe26  1  0.49925027  0.75002358  0.75086760  1
  Fe  Fe27  1  0.25016731  0.74943853  0.75146047  1
  Fe  Fe28  1  0.49645291  0.24892986  0.75094499  1
  Fe  Fe29  1  0.74808065  0.49817170  0.00148231  1
  Fe  Fe30  1  0.24542516  0.74906296  0.49601035  1
  Fe  Fe31  1  0.49974291  0.74881873  -0.00174592  1
  Fe  Fe32  1  0.12410103  0.62763842  0.87451397  1
  Fe  Fe33  1  0.62665612  0.87439686  0.37442563  1
  Fe  Fe34  1  0.12678149  0.63268283  0.12893981  1
  Fe  Fe35  1  0.49920084  0.25086973  0.49913894  1
  Fe  Fe36  1  0.87734739  0.37450292  0.62255916  1
  Fe  Fe37  1  0.62777217  0.12535533  0.37262633  1
  Fe  Fe38  1  0.87909879  0.87554319  0.87281041  1
  Fe  Fe39  1  0.62965090  0.12897313  0.12704815  1
  Fe  Fe40  1  0.62390558  0.62594084  0.62428774  1
  Fe  Fe41  1  0.75003233  0.49902088  0.74819708  1
  Fe  Fe42  1  0.12388651  0.12700092  0.62317294  1
  Fe  Fe43  1  0.75086443  0.75026059  0.00070145  1
  Fe  Fe44  1  0.62484890  0.37550526  0.87458414  1
  Fe  Fe45  1  0.87626416  0.12383856  0.87709176  1
  Fe  Fe46  1  0.24688637  0.49963481  0.74790695  1
  Fe  Fe47  1  0.24911914  0.50252125  0.00415232  1
  Fe  Fe48  1  0.00359889  -0.00319428  0.00273609  1
  Fe  Fe49  1  0.87926754  0.87552684  0.62631451  1
  Fe  Fe50  1  0.37631044  0.37531487  0.12376176  1
  Fe  Fe51  1  0.62458034  0.87644174  0.87274113  1
  Fe  Fe52  1  0.24889979  0.24933608  0.00139458  1
  Fe  Fe53  1  0.75048529  0.25117190  0.49844439  1
  Fe  Fe54  1  0.62226099  0.62469024  0.12401072  1
  Fe  Fe55  1  0.12605892  0.12572387  0.87565210  1
  Fe  Fe56  1  0.12181609  0.37219759  0.12722359  1
  Fe  Fe57  1  0.75264744  -0.00052916  0.24870199  1
  Fe  Fe58  1  0.37466399  0.62302086  0.87679564  1
  Fe  Fe59  1  0.49874190  0.25073973  0.25134194  1
  Fe  Fe60  1  0.00522767  0.50203911  0.49917088  1
  Fe  Fe61  1  0.37061226  0.62067361  0.37539791  1
  Fe  Fe62  1  0.87796079  0.87275950  0.12624721  1
  Fe  Fe63  1  0.62778750  0.62633430  0.37532661  1
  Fe  Fe64  1  0.62440656  0.87380631  0.12609410  1
  Fe  Fe65  1  0.37421282  0.87806552  0.87579427  1
  Fe  Fe66  1  0.37364371  0.12269996  0.37473837  1
  Fe  Fe67  1  0.24939517  0.25018353  0.25229880  1
  Fe  Fe68  1  0.62518166  0.12453823  0.62663959  1
  Fe  Fe69  1  0.00067627  0.25011508  0.75126537  1
  Fe  Fe70  1  0.49932251  0.00015810  0.24906060  1
  Fe  Fe71  1  -0.00095950  0.24900192  0.00196398  1
  Fe  Fe72  1  0.24620984  -0.00257620  0.00280847  1
  Fe  Fe73  1  0.37355562  0.87470483  0.62341431  1
  Fe  Fe74  1  0.12317250  0.87383467  0.62741392  1
  Fe  Fe75  1  0.75053282  0.49748983  0.24750422  1
  Fe  Fe76  1  0.37288133  0.87171845  0.12500803  1
  Fe  Fe77  1  0.75091709  -0.00138814  0.50189120  1
  Fe  Fe78  1  0.75259478  0.25035297  0.75068109  1
  Fe  Fe79  1  0.37387543  0.12482628  0.62469442  1
  Fe  Fe80  1  0.24850708  0.00210610  0.75107859  1
  Fe  Fe81  1  0.87427343  0.87419516  0.37528788  1
  Fe  Fe82  1  0.87776986  0.37670652  0.87740976  1
  Fe  Fe83  1  0.37170511  0.37532318  0.87628866  1
  Fe  Fe84  1  0.62626811  0.37422727  0.37441619  1
  Fe  Fe85  1  0.24586108  0.00134115  0.49813812  1
  Fe  Fe86  1  0.00052965  0.49762938  0.25017983  1
  Fe  Fe87  1  0.36998051  0.37867844  0.37751711  1
  Fe  Fe88  1  0.49991399  0.00154010  0.00168777  1
  Fe  Fe89  1  0.12603929  0.37197419  0.62278674  1
  Co  Co90  1  0.12408713  0.12177942  0.36945503  1
  Co  Co91  1  0.87488183  0.38058993  0.37839703  1
  Co  Co92  1  0.12433013  0.87972111  0.36924817  1
  Co  Co93  1  0.75066017  0.75133127  0.50237588  1
  Co  Co94  1  0.87660813  0.37492637  0.12115977  1
  Co  Co95  1  0.24480591  0.50238433  0.50409280  1
  Co  Co96  1  -0.00170372  0.74911451  0.25551566  1
  Co  Co97  1  0.12436730  0.62887372  0.62688070  1
  Co  Co98  1  0.00182553  0.00393744  0.74990392  1
  Co  Co99  1  0.62403095  0.37310859  0.62548090  1
  Co  Co100  1  -0.00156807  0.74739637  0.75064821  1
  Co  Co101  1  0.25317171  -0.00037998  0.24793482  1
  Co  Co102  1  0.24960145  0.49851937  0.24296858  1
  Co  Co103  1  0.62644275  0.62507602  0.87560357  1
  Co  Co104  1  0.87419050  0.12159135  0.37567360  1
  Co  Co105  1  0.12333691  0.87327827  0.87192162  1
  Co  Co106  1  0.75340234  0.00070896  0.74909635  1
  Co  Co107  1  0.75784896  0.25348503  0.25142056  1
  Co  Co108  1  0.25013103  0.24980101  0.74997131  1
  Co  Co109  1  0.75055190  0.74952258  0.24745559  1
  Co  Co110  1  0.37581240  0.62747650  0.12492899  1
  Co  Co111  1  0.12845137  0.37700414  0.37414409  1
  Co  Co112  1  0.00018286  0.75140605  0.00008040  1
  Co  Co113  1  0.25302905  0.75150657  0.25527207  1
  Co  Co114  1  0.00141572  -0.00160332  0.49948523  1
  Co  Co115  1  0.75018126  0.25179920  -0.00182342  1
  Co  Co116  1  0.49984251  0.49874524  0.00002673  1
  Co  Co117  1  -0.00477727  -0.00020374  0.24955580  1
  Co  Co118  1  0.87457500  0.12565969  0.12293248  1
  Co  Co119  1  0.49668807  0.00042555  0.74885893  1
  Co  Co120  1  0.12781189  0.62110900  0.36950135  1
  Co  Co121  1  -0.00591711  0.25237036  0.25441451  1
  Co  Co122  1  0.12541123  0.87037847  0.13073990  1
  Co  Co123  1  0.24923939  0.75025336  -0.00206347  1
  Co  Co124  1  0.37263667  0.12363498  0.87795562  1
  Co  Co125  1  0.50195491  0.50000242  0.49872606  1
  Co  Co126  1  0.24991460  0.24731627  0.49674966  1
  Co  Co127  1  0.62440516  0.37215014  0.12663530  1
