# generated using pymatgen
data_Fe45Co19
_symmetry_space_group_name_H-M   'P 1'
_cell_length_a   11.41595734
_cell_length_b   11.41539131
_cell_length_c   11.41513979
_cell_angle_alpha   89.99613076
_cell_angle_beta   90.00295268
_cell_angle_gamma   89.99587905
_symmetry_Int_Tables_number   1
_chemical_formula_structural   Fe45Co19
_chemical_formula_sum   'Fe90 Co38'
_cell_volume   1487.59384377
_cell_formula_units_Z   2
loop_
 _symmetry_equiv_pos_site_id
 _symmetry_equiv_pos_as_xyz
  1  'x, y, z'
loop_
 _atom_site_type_symbol
 _atom_site_label
 _atom_site_symmetry_multiplicity
 _atom_site_fract_x
 _atom_site_fract_y
 _atom_site_fract_z
 _atom_site_occupancy
  Fe  Fe0  1  -0.00645749  0.25217223  0.50169930  1
  Fe  Fe1  1  0.62194502  0.62649186  0.37291570  1
  Fe  Fe2  1  0.50104266  0.75168040  0.50293061  1
  Fe  Fe3  1  0.00427288  0.50148106  -0.00183885  1
  Fe  Fe4  1  0.62537431  0.62507068  0.62681206  1
  Fe  Fe5  1  0.87113894  0.87457336  0.12211507  1
  Fe  Fe6  1  0.12561031  0.37455282  0.37605898  1
  Fe  Fe7  1  0.12410374  0.62662096  0.62345635  1
  Fe  Fe8  1  -0.00089524  0.25156232  0.25025560  1
  Fe  Fe9  1  0.12440576  0.12416773  0.62268745  1
  Fe  Fe10  1  0.25245490  0.74716259  0.25225101  1
  Fe  Fe11  1  0.12659696  0.37516798  0.62385881  1
  Fe  Fe12  1  0.25184975  0.74840444  0.00051073  1
  Fe  Fe13  1  0.50197772  0.25299689  0.75110265  1
  Fe  Fe14  1  0.25072462  0.00139053  0.74865032  1
  Fe  Fe15  1  -0.00117504  0.24826565  0.00094671  1
  Fe  Fe16  1  -0.00161687  -0.00303706  0.49938114  1
  Fe  Fe17  1  0.87267562  0.87406511  0.87946378  1
  Fe  Fe18  1  -0.00408188  0.25010595  0.74618388  1
  Fe  Fe19  1  0.87713658  0.62835780  0.87612608  1
  Fe  Fe20  1  -0.00076157  0.75235755  0.24918141  1
  Fe  Fe21  1  0.37285070  0.37737964  0.12336900  1
  Fe  Fe22  1  0.74891764  0.50081834  0.75270305  1
  Fe  Fe23  1  0.00436112  0.50094980  0.75205561  1
  Fe  Fe24  1  0.49985100  0.24916727  0.50076869  1
  Fe  Fe25  1  0.75053968  0.74813259  0.24784219  1
  Fe  Fe26  1  0.62701046  0.37523076  0.12271021  1
  Fe  Fe27  1  0.74993098  0.24958058  0.25095042  1
  Fe  Fe28  1  0.87055407  0.87338748  0.62242962  1
  Fe  Fe29  1  0.50192129  0.75228573  0.75045837  1
  Fe  Fe30  1  -0.00029426  0.49912469  0.25023610  1
  Fe  Fe31  1  0.87674416  0.37567338  0.87467607  1
  Fe  Fe32  1  0.49900178  0.49730586  0.25006215  1
  Fe  Fe33  1  0.50060970  0.49840347  0.50105046  1
  Fe  Fe34  1  -0.00189080  -0.00287138  0.74701442  1
  Fe  Fe35  1  0.62774471  0.87457218  0.88033512  1
  Fe  Fe36  1  0.75070787  0.50078982  0.49777823  1
  Fe  Fe37  1  0.50186548  0.50242186  0.00031781  1
  Fe  Fe38  1  0.37581502  0.62259910  0.87391977  1
  Fe  Fe39  1  0.12743954  0.87286591  0.37886516  1
  Fe  Fe40  1  0.25177223  0.50306507  0.25400128  1
  Fe  Fe41  1  0.00056250  0.75229014  0.74900533  1
  Fe  Fe42  1  0.74914936  0.50619539  0.00062246  1
  Fe  Fe43  1  0.62372877  0.12486263  0.37582028  1
  Fe  Fe44  1  0.25094327  0.24968846  -0.00143590  1
  Fe  Fe45  1  0.50077778  -0.00354653  0.24700721  1
  Fe  Fe46  1  0.74870828  0.75123117  0.75029464  1
  Fe  Fe47  1  0.87308405  0.37577137  0.12307297  1
  Fe  Fe48  1  0.12489336  0.62572078  0.12491112  1
  Fe  Fe49  1  0.12128867  0.12516399  0.87295446  1
  Fe  Fe50  1  -0.00104497  0.00025598  0.00187003  1
  Fe  Fe51  1  0.12516078  0.87446781  0.87546823  1
  Fe  Fe52  1  0.37398783  0.87547877  0.37819089  1
  Fe  Fe53  1  0.62324571  0.12578826  0.12347183  1
  Fe  Fe54  1  0.63045931  0.37378550  0.62547616  1
  Fe  Fe55  1  0.62981174  0.12597968  0.62850017  1
  Fe  Fe56  1  0.24890855  0.00274522  0.25452580  1
  Fe  Fe57  1  0.25163501  0.50446835  0.49700415  1
  Fe  Fe58  1  0.49996285  -0.00289927  0.00307449  1
  Fe  Fe59  1  0.49812487  -0.00044254  0.50442812  1
  Fe  Fe60  1  0.37262020  0.37561213  0.62500303  1
  Fe  Fe61  1  0.49917440  0.25228282  0.24888606  1
  Fe  Fe62  1  0.62566506  0.37436947  0.37561249  1
  Fe  Fe63  1  0.12700697  0.37512384  0.12497224  1
  Fe  Fe64  1  0.25269280  0.24437172  0.49643077  1
  Fe  Fe65  1  0.62560504  0.37547611  0.87628086  1
  Fe  Fe66  1  0.25125366  0.24760911  0.25319091  1
  Fe  Fe67  1  0.24930685  0.00260177  -0.00173559  1
  Fe  Fe68  1  0.37900575  0.12446694  0.87376112  1
  Fe  Fe69  1  0.37679077  0.62410163  0.62749406  1
  Fe  Fe70  1  0.24988353  0.74880187  0.74955928  1
  Fe  Fe71  1  0.87547229  0.12443961  0.37491672  1
  Fe  Fe72  1  0.37475896  0.87522784  0.87521479  1
  Fe  Fe73  1  -0.00038915  -0.00256499  0.25074258  1
  Fe  Fe74  1  0.49721461  0.75351612  0.24393529  1
  Fe  Fe75  1  0.50105245  -0.00369356  0.74717585  1
  Fe  Fe76  1  -0.00167212  0.49926628  0.49907308  1
  Fe  Fe77  1  0.37531949  0.12393516  0.12593273  1
  Fe  Fe78  1  0.87718789  0.62749565  0.37542668  1
  Fe  Fe79  1  0.24988995  0.24962115  0.75119000  1
  Fe  Fe80  1  0.74940729  0.00027091  0.24880678  1
  Fe  Fe81  1  0.37403054  0.37857402  0.87451476  1
  Fe  Fe82  1  0.13049407  0.87402807  0.62125883  1
  Fe  Fe83  1  0.75069385  0.24413841  -0.00389918  1
  Fe  Fe84  1  0.12443568  0.12515633  0.12645901  1
  Fe  Fe85  1  0.75054375  0.50211882  0.24916077  1
  Fe  Fe86  1  0.62578736  0.87342881  0.37500145  1
  Fe  Fe87  1  0.87464685  0.62530675  0.62510583  1
  Fe  Fe88  1  0.74916628  -0.00157633  0.49911606  1
  Fe  Fe89  1  0.12821622  0.87512600  0.12439704  1
  Co  Co90  1  0.38194036  0.62643098  0.37480305  1
  Co  Co91  1  0.62054850  0.62566190  0.12837628  1
  Co  Co92  1  0.87586720  0.12549124  0.12849360  1
  Co  Co93  1  0.49863247  0.25185141  -0.00013116  1
  Co  Co94  1  0.11998303  0.62650204  0.37438314  1
  Co  Co95  1  0.74749650  0.74316526  0.00254564  1
  Co  Co96  1  0.11896409  0.12578186  0.37735175  1
  Co  Co97  1  0.12516681  0.63034011  0.87548649  1
  Co  Co98  1  0.87859119  0.12200267  0.87081312  1
  Co  Co99  1  0.25307367  0.00448027  0.49934830  1
  Co  Co100  1  0.75036251  -0.00255284  0.75240492  1
  Co  Co101  1  0.74806559  0.74725830  0.49961031  1
  Co  Co102  1  0.75127503  0.00663550  0.00023979  1
  Co  Co103  1  0.87223334  0.37951382  0.62874691  1
  Co  Co104  1  0.37506112  0.62206532  0.12328405  1
  Co  Co105  1  0.36951265  0.87688661  0.12465746  1
  Co  Co106  1  0.62290673  0.62657253  0.87277833  1
  Co  Co107  1  0.87970670  0.62451149  0.12399772  1
  Co  Co108  1  0.63005778  0.87437798  0.12143051  1
  Co  Co109  1  0.87058137  0.12191245  0.62450372  1
  Co  Co110  1  0.87143671  0.87310508  0.37496996  1
  Co  Co111  1  0.49846230  0.75010939  0.00115479  1
  Co  Co112  1  -0.00106836  0.75214947  0.50134388  1
  Co  Co113  1  0.12302567  0.37019877  0.87357226  1
  Co  Co114  1  0.75305352  0.25176927  0.49870663  1
  Co  Co115  1  0.24525780  0.50005121  -0.00330877  1
  Co  Co116  1  0.50214238  0.49668455  0.74853709  1
  Co  Co117  1  0.37518628  0.37437941  0.37641560  1
  Co  Co118  1  0.87416407  0.37612155  0.37211328  1
  Co  Co119  1  0.75163643  0.24974581  0.75499388  1
  Co  Co120  1  0.62029408  0.12195879  0.87337581  1
  Co  Co121  1  0.00186413  0.75205843  0.00157213  1
  Co  Co122  1  0.37635438  0.12661105  0.62895898  1
  Co  Co123  1  0.25198388  0.74464270  0.49855978  1
  Co  Co124  1  0.38125399  0.12302006  0.37256152  1
  Co  Co125  1  0.37117381  0.87303973  0.62440416  1
  Co  Co126  1  0.62787984  0.87484330  0.62458657  1
  Co  Co127  1  0.24544933  0.50049191  0.75081921  1
