# generated using pymatgen
data_Fe45Co19
_symmetry_space_group_name_H-M   'P 1'
_cell_length_a   11.41591672
_cell_length_b   11.41583523
_cell_length_c   11.41530528
_cell_angle_alpha   90.00190727
_cell_angle_beta   89.99579070
_cell_angle_gamma   89.99834248
_symmetry_Int_Tables_number   1
_chemical_formula_structural   Fe45Co19
_chemical_formula_sum   'Fe90 Co38'
_cell_volume   1487.66796901
_cell_formula_units_Z   2
loop_
 _symmetry_equiv_pos_site_id
 _symmetry_equiv_pos_as_xyz
  1  'x, y, z'
loop_
 _atom_site_type_symbol
 _atom_site_label
 _atom_site_symmetry_multiplicity
 _atom_site_fract_x
 _atom_site_fract_y
 _atom_site_fract_z
 _atom_site_occupancy
  Fe  Fe0  1  0.75024024  0.74807553  -0.00121309  1
  Fe  Fe1  1  0.74686333  0.25135594  0.50091573  1
  Fe  Fe2  1  0.62330983  0.62562403  0.37402971  1
  Fe  Fe3  1  0.62753493  0.87581819  0.87215065  1
  Fe  Fe4  1  0.25098878  0.25074770  0.25292532  1
  Fe  Fe5  1  0.75043426  0.49803125  0.49906084  1
  Fe  Fe6  1  0.12303112  0.12548824  0.62318120  1
  Fe  Fe7  1  0.37183162  0.37671996  0.87751615  1
  Fe  Fe8  1  0.37806816  0.37382643  0.62083148  1
  Fe  Fe9  1  0.75015343  0.00283421  -0.00292013  1
  Fe  Fe10  1  0.62474081  0.12592777  0.12370970  1
  Fe  Fe11  1  0.12324616  0.62256696  0.37413856  1
  Fe  Fe12  1  0.12789114  0.37469922  0.12490857  1
  Fe  Fe13  1  0.37816621  0.62669263  0.37535605  1
  Fe  Fe14  1  0.12437088  0.87418796  0.87399715  1
  Fe  Fe15  1  0.12314650  0.12587597  0.12367004  1
  Fe  Fe16  1  0.61902619  0.37414320  0.37686729  1
  Fe  Fe17  1  0.37569966  0.37586967  0.12400987  1
  Fe  Fe18  1  0.50077442  0.75066118  0.75003688  1
  Fe  Fe19  1  0.62681707  0.37407321  0.87303582  1
  Fe  Fe20  1  0.37437746  0.87542207  0.87493920  1
  Fe  Fe21  1  -0.00053081  0.49980805  0.74690215  1
  Fe  Fe22  1  0.74957004  0.49991991  0.25228769  1
  Fe  Fe23  1  0.75161513  0.49678196  0.74664649  1
  Fe  Fe24  1  0.63036452  0.87335469  0.62884789  1
  Fe  Fe25  1  0.87370895  0.87474456  0.12446114  1
  Fe  Fe26  1  0.24874319  -0.00054097  0.74827986  1
  Fe  Fe27  1  0.24805718  0.00117437  -0.00043516  1
  Fe  Fe28  1  0.37744290  0.62447982  0.12443307  1
  Fe  Fe29  1  0.12616653  0.62518864  0.62370763  1
  Fe  Fe30  1  0.87580066  0.12808780  0.62434986  1
  Fe  Fe31  1  0.37570998  0.12409388  0.12493596  1
  Fe  Fe32  1  0.49942237  -0.00295864  0.24936943  1
  Fe  Fe33  1  0.24947233  0.75145969  0.74822740  1
  Fe  Fe34  1  -0.00264740  0.25309285  0.75235503  1
  Fe  Fe35  1  0.25049691  0.49898825  0.74770455  1
  Fe  Fe36  1  -0.00321818  0.50019607  0.25029549  1
  Fe  Fe37  1  0.75405731  0.24791571  -0.00527377  1
  Fe  Fe38  1  0.50256528  0.75268250  0.49929298  1
  Fe  Fe39  1  -0.00206385  0.74972393  0.74809764  1
  Fe  Fe40  1  0.62405516  0.13014769  0.63394723  1
  Fe  Fe41  1  0.24917025  0.74759258  0.00112561  1
  Fe  Fe42  1  -0.00218837  0.74935384  0.24983315  1
  Fe  Fe43  1  0.62442326  0.37417400  0.12408639  1
  Fe  Fe44  1  0.87241739  0.87538289  0.37777075  1
  Fe  Fe45  1  0.37650702  0.12428519  0.37506354  1
  Fe  Fe46  1  0.25134452  0.50025975  0.49826167  1
  Fe  Fe47  1  0.12600804  0.87371725  0.12542254  1
  Fe  Fe48  1  0.50168318  -0.00068896  -0.00165959  1
  Fe  Fe49  1  0.87419136  0.12685647  0.37580221  1
  Fe  Fe50  1  0.00185489  0.50163567  0.00433156  1
  Fe  Fe51  1  0.12393630  0.37553697  0.62224733  1
  Fe  Fe52  1  0.12566631  0.37569795  0.87732339  1
  Fe  Fe53  1  0.37449553  0.62355649  0.87497033  1
  Fe  Fe54  1  0.24940342  0.25026904  0.75025192  1
  Fe  Fe55  1  0.62433099  0.62478611  0.12586974  1
  Fe  Fe56  1  0.37711568  0.12422254  0.87281737  1
  Fe  Fe57  1  0.25275729  0.75170746  0.25111488  1
  Fe  Fe58  1  0.87726481  0.12480583  0.12348531  1
  Fe  Fe59  1  0.49877835  0.49862942  0.74858243  1
  Fe  Fe60  1  -0.00140788  -0.00284095  0.74527228  1
  Fe  Fe61  1  0.74826169  0.25025933  0.25101150  1
  Fe  Fe62  1  0.62373049  0.12354263  0.37310881  1
  Fe  Fe63  1  0.50236864  -0.00080244  0.50383051  1
  Fe  Fe64  1  0.25051657  -0.00095889  0.24997705  1
  Fe  Fe65  1  0.12611005  0.62388321  0.87421775  1
  Fe  Fe66  1  0.24959471  0.25070056  0.49702253  1
  Fe  Fe67  1  0.87241385  0.37573316  0.12485517  1
  Fe  Fe68  1  -0.00036183  0.74847994  0.00188029  1
  Fe  Fe69  1  0.00225451  0.25155940  0.49544903  1
  Fe  Fe70  1  0.62634297  0.62475694  0.62512963  1
  Fe  Fe71  1  0.87381036  0.87626086  0.87333142  1
  Fe  Fe72  1  0.49886854  0.25030111  -0.00134873  1
  Fe  Fe73  1  0.62553408  0.62191139  0.87424958  1
  Fe  Fe74  1  0.00138388  0.25039587  0.25203553  1
  Fe  Fe75  1  0.25008197  -0.00052320  0.50225614  1
  Fe  Fe76  1  0.74996915  0.74938093  0.25219830  1
  Fe  Fe77  1  0.87414802  0.62106733  0.87716201  1
  Fe  Fe78  1  0.12084963  0.12566937  0.87685001  1
  Fe  Fe79  1  -0.00054678  0.00051120  0.25196688  1
  Fe  Fe80  1  0.12568630  0.87665403  0.37763055  1
  Fe  Fe81  1  0.50082731  0.75017650  -0.00027417  1
  Fe  Fe82  1  -0.00037002  0.75111184  0.50109726  1
  Fe  Fe83  1  0.37461709  0.62799410  0.62423368  1
  Fe  Fe84  1  0.87274441  0.62599356  0.62181325  1
  Fe  Fe85  1  0.74939166  0.00095270  0.50258524  1
  Fe  Fe86  1  0.62566579  0.87456511  0.12587765  1
  Fe  Fe87  1  0.25359625  0.49885375  0.25193973  1
  Fe  Fe88  1  0.37699753  0.12557798  0.62761003  1
  Fe  Fe89  1  0.75093639  0.00095355  0.24961788  1
  Co  Co90  1  0.74760000  0.49977034  0.00160274  1
  Co  Co91  1  0.87143251  0.62453022  0.12524232  1
  Co  Co92  1  0.24843120  0.50286774  0.00135344  1
  Co  Co93  1  0.25062982  0.24756899  -0.00030397  1
  Co  Co94  1  0.87636473  0.38166405  0.87690633  1
  Co  Co95  1  0.49996661  0.50370391  0.50127023  1
  Co  Co96  1  0.37393744  0.87266774  0.62400557  1
  Co  Co97  1  0.50178833  0.24501539  0.50004883  1
  Co  Co98  1  0.88111988  0.12136834  0.87571573  1
  Co  Co99  1  0.62155909  0.12773940  0.87093249  1
  Co  Co100  1  0.49921668  0.75308742  0.25020574  1
  Co  Co101  1  -0.00155713  0.50073474  0.50041813  1
  Co  Co102  1  -0.00228736  0.25333132  0.00049061  1
  Co  Co103  1  0.74766458  0.74989745  0.49719289  1
  Co  Co104  1  0.49622206  0.25537090  0.75158741  1
  Co  Co105  1  0.38026056  0.37337551  0.37770239  1
  Co  Co106  1  0.75193737  0.00506954  0.75071607  1
  Co  Co107  1  0.49987998  0.24881480  0.24909487  1
  Co  Co108  1  -0.00301826  -0.00110386  0.50099441  1
  Co  Co109  1  0.37575245  0.87661199  0.37829893  1
  Co  Co110  1  0.75623346  0.25167097  0.75358286  1
  Co  Co111  1  0.12572638  0.12284478  0.37588508  1
  Co  Co112  1  0.12428486  0.37865017  0.37468935  1
  Co  Co113  1  0.62297598  0.37366528  0.62503363  1
  Co  Co114  1  0.50017243  -0.00424143  0.74869890  1
  Co  Co115  1  0.62617235  0.87746585  0.37338656  1
  Co  Co116  1  0.87627646  0.37261124  0.62172226  1
  Co  Co117  1  0.12625064  0.87408833  0.62330307  1
  Co  Co118  1  0.86963008  0.87259541  0.62581209  1
  Co  Co119  1  0.24825737  0.74843851  0.49820020  1
  Co  Co120  1  0.37452551  0.87541876  0.12249695  1
  Co  Co121  1  0.00120555  -0.00399124  0.00192609  1
  Co  Co122  1  0.87533784  0.62553238  0.37634283  1
  Co  Co123  1  0.87457678  0.37301627  0.37548224  1
  Co  Co124  1  0.50052012  0.49898122  0.24944986  1
  Co  Co125  1  0.75133101  0.74562720  0.75278311  1
  Co  Co126  1  0.50086705  0.49907023  -0.00076670  1
  Co  Co127  1  0.12607963  0.62558675  0.12962957  1
