# generated using pymatgen
data_Fe45Co19
_symmetry_space_group_name_H-M   'P 1'
_cell_length_a   11.41436877
_cell_length_b   11.41486838
_cell_length_c   11.41531689
_cell_angle_alpha   89.99793679
_cell_angle_beta   89.99827978
_cell_angle_gamma   89.99079916
_symmetry_Int_Tables_number   1
_chemical_formula_structural   Fe45Co19
_chemical_formula_sum   'Fe90 Co38'
_cell_volume   1487.34176647
_cell_formula_units_Z   2
loop_
 _symmetry_equiv_pos_site_id
 _symmetry_equiv_pos_as_xyz
  1  'x, y, z'
loop_
 _atom_site_type_symbol
 _atom_site_label
 _atom_site_symmetry_multiplicity
 _atom_site_fract_x
 _atom_site_fract_y
 _atom_site_fract_z
 _atom_site_occupancy
  Fe  Fe0  1  0.12561718  0.37553262  0.87216557  1
  Fe  Fe1  1  0.74964350  0.50257199  0.24843755  1
  Fe  Fe2  1  0.63210961  0.37397290  0.87196629  1
  Fe  Fe3  1  0.37292068  0.87421767  0.87284682  1
  Fe  Fe4  1  0.37686147  0.12586516  0.12446481  1
  Fe  Fe5  1  0.12440432  0.87505459  0.12323284  1
  Fe  Fe6  1  0.37635241  0.62509165  0.12385586  1
  Fe  Fe7  1  -0.00035744  0.00004305  0.25041579  1
  Fe  Fe8  1  0.12254299  0.62306230  0.62323048  1
  Fe  Fe9  1  0.50122614  0.25032248  0.50140358  1
  Fe  Fe10  1  0.50049450  0.74984690  0.75010451  1
  Fe  Fe11  1  0.12271086  0.12439291  0.62462236  1
  Fe  Fe12  1  0.12227735  0.62391158  0.12333469  1
  Fe  Fe13  1  0.25028035  0.25102592  0.50108036  1
  Fe  Fe14  1  0.50129997  -0.00142082  0.25113120  1
  Fe  Fe15  1  0.12098144  0.12663370  0.87497885  1
  Fe  Fe16  1  0.50230391  0.25007683  0.25213068  1
  Fe  Fe17  1  0.62808208  0.87586502  0.62683257  1
  Fe  Fe18  1  0.62261557  0.12636315  0.87191847  1
  Fe  Fe19  1  0.12603888  0.87337549  0.37589959  1
  Fe  Fe20  1  0.87936454  0.12897959  0.87493491  1
  Fe  Fe21  1  -0.00654087  0.75388677  0.49983627  1
  Fe  Fe22  1  0.12344637  0.12483563  0.37716165  1
  Fe  Fe23  1  0.37504795  0.37519920  0.12449559  1
  Fe  Fe24  1  0.87659303  0.12514549  0.37525778  1
  Fe  Fe25  1  0.37451779  0.37379578  0.37537081  1
  Fe  Fe26  1  0.87890421  0.13022469  0.12319472  1
  Fe  Fe27  1  -0.00069859  0.74928654  0.25026839  1
  Fe  Fe28  1  0.62727820  0.87546200  0.87343063  1
  Fe  Fe29  1  0.75179214  0.50578327  0.50051455  1
  Fe  Fe30  1  0.12430077  0.62629936  0.37811753  1
  Fe  Fe31  1  0.37645523  0.62455589  0.87391880  1
  Fe  Fe32  1  0.50117210  0.50153728  0.25192794  1
  Fe  Fe33  1  0.62312565  0.12562286  0.12359956  1
  Fe  Fe34  1  -0.00038639  0.25266036  0.50209205  1
  Fe  Fe35  1  0.50236531  0.75122137  -0.00039781  1
  Fe  Fe36  1  0.37597939  0.12496230  0.37668057  1
  Fe  Fe37  1  0.74940906  0.74479896  0.25122931  1
  Fe  Fe38  1  0.62969159  0.37572139  0.62512555  1
  Fe  Fe39  1  0.62503881  0.62550932  0.62406360  1
  Fe  Fe40  1  0.24983649  0.50250537  0.25142933  1
  Fe  Fe41  1  0.24808564  0.74703005  0.74812009  1
  Fe  Fe42  1  0.37794785  0.12643849  0.87222938  1
  Fe  Fe43  1  0.25064117  0.00122747  0.74896954  1
  Fe  Fe44  1  0.87468605  0.87653865  0.87270480  1
  Fe  Fe45  1  -0.00191159  0.49402444  0.00128705  1
  Fe  Fe46  1  0.74978030  0.50023760  0.00339539  1
  Fe  Fe47  1  0.25265369  -0.00218745  0.50107780  1
  Fe  Fe48  1  0.87923696  0.12153652  0.62683598  1
  Fe  Fe49  1  0.37240556  0.62954034  0.37745230  1
  Fe  Fe50  1  0.50264534  0.75038306  0.24974029  1
  Fe  Fe51  1  0.62238872  0.12301108  0.62788618  1
  Fe  Fe52  1  0.24968185  -0.00039781  0.25017820  1
  Fe  Fe53  1  0.25021820  0.50233772  0.74890230  1
  Fe  Fe54  1  0.50297893  0.49818596  -0.00242245  1
  Fe  Fe55  1  0.12144868  0.12745790  0.12333526  1
  Fe  Fe56  1  0.25010660  0.00187189  0.00000183  1
  Fe  Fe57  1  0.87336719  0.87419999  0.12583478  1
  Fe  Fe58  1  0.49755200  -0.00187340  0.50080377  1
  Fe  Fe59  1  0.50220384  0.49859073  0.75103448  1
  Fe  Fe60  1  -0.00182826  0.49738752  0.24805522  1
  Fe  Fe61  1  0.12242269  0.87689265  0.62449214  1
  Fe  Fe62  1  0.62688467  0.37635820  0.37617903  1
  Fe  Fe63  1  0.74946329  0.74753414  0.00005128  1
  Fe  Fe64  1  0.37349625  0.37584881  0.62590595  1
  Fe  Fe65  1  0.74946833  0.24640963  0.50128109  1
  Fe  Fe66  1  0.25069264  0.24978517  0.74915108  1
  Fe  Fe67  1  0.87281060  0.37449461  0.37524267  1
  Fe  Fe68  1  0.49828963  0.50040538  0.49946726  1
  Fe  Fe69  1  0.75132537  0.00247450  -0.00105007  1
  Fe  Fe70  1  0.12573219  0.37518071  0.37513619  1
  Fe  Fe71  1  0.24829138  0.74691722  -0.00091812  1
  Fe  Fe72  1  0.62872492  0.87420827  0.37613153  1
  Fe  Fe73  1  0.75190194  0.74658684  0.74850651  1
  Fe  Fe74  1  0.75323846  -0.00161699  0.50114782  1
  Fe  Fe75  1  0.74985211  0.00300150  0.24854294  1
  Fe  Fe76  1  0.50070944  -0.00261022  -0.00101419  1
  Fe  Fe77  1  -0.00036178  0.75051113  -0.00184842  1
  Fe  Fe78  1  0.37393711  0.87411931  0.12604602  1
  Fe  Fe79  1  -0.00003890  0.75041506  0.75072676  1
  Fe  Fe80  1  0.24891974  0.50050479  -0.00083361  1
  Fe  Fe81  1  -0.00157983  0.49639831  0.50194754  1
  Fe  Fe82  1  0.12573906  0.87627875  0.87567631  1
  Fe  Fe83  1  0.74775541  0.24881330  0.25043125  1
  Fe  Fe84  1  0.49846044  0.75131915  0.50186641  1
  Fe  Fe85  1  0.24915994  0.25103521  -0.00058752  1
  Fe  Fe86  1  0.24908277  0.24923805  0.24998663  1
  Fe  Fe87  1  0.50132703  0.25378311  -0.00208233  1
  Fe  Fe88  1  0.87593093  0.62183648  0.87489126  1
  Fe  Fe89  1  -0.00518261  0.49397052  0.74730638  1
  Co  Co90  1  0.75218330  0.24589542  0.74770027  1
  Co  Co91  1  0.62462891  0.12251663  0.37738151  1
  Co  Co92  1  0.74804362  0.24780582  0.00000719  1
  Co  Co93  1  0.62857403  0.87517693  0.12519722  1
  Co  Co94  1  0.24736782  0.74821633  0.24787321  1
  Co  Co95  1  0.87193854  0.37054729  0.12587117  1
  Co  Co96  1  0.87817537  0.62548773  0.62518797  1
  Co  Co97  1  0.62313734  0.62470397  0.12363694  1
  Co  Co98  1  0.87652423  0.62561162  0.12366303  1
  Co  Co99  1  0.62466707  0.37474151  0.12699315  1
  Co  Co100  1  0.37271282  0.37577243  0.87418341  1
  Co  Co101  1  0.87120648  0.87549516  0.37101640  1
  Co  Co102  1  0.12074217  0.62096948  0.87360481  1
  Co  Co103  1  0.00139559  -0.00054073  0.75254684  1
  Co  Co104  1  0.86914958  0.37416655  0.87486355  1
  Co  Co105  1  0.75137137  0.50385496  0.74737516  1
  Co  Co106  1  0.12749293  0.37466051  0.12655733  1
  Co  Co107  1  0.37561560  0.62292336  0.62630206  1
  Co  Co108  1  0.75096830  0.00360478  0.75269195  1
  Co  Co109  1  0.37403000  0.87250003  0.37353655  1
  Co  Co110  1  0.62476804  0.62601051  0.37803350  1
  Co  Co111  1  0.00188019  0.25759719  -0.00178088  1
  Co  Co112  1  0.50180557  0.25524150  0.74866582  1
  Co  Co113  1  0.75426178  0.74946428  0.50146871  1
  Co  Co114  1  0.62640934  0.62492649  0.87499166  1
  Co  Co115  1  0.87734491  0.62328635  0.37549501  1
  Co  Co116  1  0.87433914  0.87758816  0.62966915  1
  Co  Co117  1  0.49925382  -0.00209217  0.75078325  1
  Co  Co118  1  0.86846559  0.37429479  0.62267530  1
  Co  Co119  1  -0.00237543  -0.00296721  0.49747064  1
  Co  Co120  1  -0.00197161  0.25441628  0.74692400  1
  Co  Co121  1  0.25098595  0.50074314  0.49842036  1
  Co  Co122  1  0.00057039  0.25207716  0.25256821  1
  Co  Co123  1  0.37489720  0.87471271  0.62841240  1
  Co  Co124  1  0.37644875  0.12635087  0.62608464  1
  Co  Co125  1  -0.00162345  -0.00191693  0.00038337  1
  Co  Co126  1  0.12851820  0.37600956  0.62569016  1
  Co  Co127  1  0.25025600  0.75071470  0.50434845  1
