# generated using pymatgen
data_Fe45Co19
_symmetry_space_group_name_H-M   'P 1'
_cell_length_a   11.41445771
_cell_length_b   11.41491664
_cell_length_c   11.41505380
_cell_angle_alpha   89.99360414
_cell_angle_beta   90.00058441
_cell_angle_gamma   89.98790338
_symmetry_Int_Tables_number   1
_chemical_formula_structural   Fe45Co19
_chemical_formula_sum   'Fe90 Co38'
_cell_volume   1487.32534360
_cell_formula_units_Z   2
loop_
 _symmetry_equiv_pos_site_id
 _symmetry_equiv_pos_as_xyz
  1  'x, y, z'
loop_
 _atom_site_type_symbol
 _atom_site_label
 _atom_site_symmetry_multiplicity
 _atom_site_fract_x
 _atom_site_fract_y
 _atom_site_fract_z
 _atom_site_occupancy
  Fe  Fe0  1  0.00214094  -0.00168513  0.25150445  1
  Fe  Fe1  1  0.37520635  0.12504378  0.37454078  1
  Fe  Fe2  1  0.50084587  0.00269740  -0.00512301  1
  Fe  Fe3  1  0.87574382  0.87373321  0.37553278  1
  Fe  Fe4  1  0.87428598  0.37562051  0.62638649  1
  Fe  Fe5  1  0.87426642  0.37660497  0.37392376  1
  Fe  Fe6  1  0.62711487  0.12377513  0.12124422  1
  Fe  Fe7  1  0.25260995  0.25207133  0.50126016  1
  Fe  Fe8  1  0.87449544  0.87513279  0.87314421  1
  Fe  Fe9  1  0.87594978  0.12630571  0.37260856  1
  Fe  Fe10  1  0.12624800  0.37488912  0.62455013  1
  Fe  Fe11  1  0.74833676  0.24926731  0.24996302  1
  Fe  Fe12  1  0.75474890  0.24708403  -0.00011470  1
  Fe  Fe13  1  0.49946076  0.24764861  0.75383066  1
  Fe  Fe14  1  0.74913637  0.00080184  0.49921924  1
  Fe  Fe15  1  0.62389315  0.37430020  0.87793683  1
  Fe  Fe16  1  0.74495884  -0.00228941  0.75156239  1
  Fe  Fe17  1  0.12300898  0.63020823  0.12397370  1
  Fe  Fe18  1  0.12655007  0.12541851  0.37636111  1
  Fe  Fe19  1  0.37909837  0.87420187  0.62875378  1
  Fe  Fe20  1  0.50015398  0.00090714  0.50068077  1
  Fe  Fe21  1  0.62366162  0.62223356  0.37565627  1
  Fe  Fe22  1  0.87368346  0.12457200  0.62663123  1
  Fe  Fe23  1  0.25081801  0.75225614  0.25311360  1
  Fe  Fe24  1  0.62302245  0.37582614  0.12133326  1
  Fe  Fe25  1  0.12565800  0.87058697  0.62636328  1
  Fe  Fe26  1  0.00148714  0.50087278  0.50293037  1
  Fe  Fe27  1  0.49976266  0.74778660  -0.00115313  1
  Fe  Fe28  1  0.12379851  0.12361668  0.12394172  1
  Fe  Fe29  1  0.62435515  0.62525108  0.12506383  1
  Fe  Fe30  1  0.49585064  0.49912390  0.24795569  1
  Fe  Fe31  1  0.00039330  0.25037328  0.74993244  1
  Fe  Fe32  1  0.74794907  0.75095009  0.74806966  1
  Fe  Fe33  1  0.12311611  0.37627870  0.87672926  1
  Fe  Fe34  1  0.74917349  -0.00003624  0.24989400  1
  Fe  Fe35  1  0.24685260  0.50089468  0.74832306  1
  Fe  Fe36  1  0.87743094  0.37438808  0.12585848  1
  Fe  Fe37  1  0.50388704  0.50099256  0.75014934  1
  Fe  Fe38  1  0.37441580  0.12343879  0.12253579  1
  Fe  Fe39  1  0.24934800  0.25111129  0.75131872  1
  Fe  Fe40  1  0.12742236  0.62460051  0.37722600  1
  Fe  Fe41  1  0.11921106  0.62717384  0.87211438  1
  Fe  Fe42  1  0.00031375  -0.00005679  0.50132632  1
  Fe  Fe43  1  0.12526437  0.12209363  0.87519593  1
  Fe  Fe44  1  0.37587578  0.37687046  0.87759502  1
  Fe  Fe45  1  0.25077907  0.25101631  0.24748960  1
  Fe  Fe46  1  0.12896556  0.37767121  0.37480228  1
  Fe  Fe47  1  0.74943654  0.74993822  0.50135887  1
  Fe  Fe48  1  0.75028407  0.74807193  0.25186083  1
  Fe  Fe49  1  0.75092457  0.50173771  0.24859052  1
  Fe  Fe50  1  0.12401094  0.37532039  0.12433878  1
  Fe  Fe51  1  0.62710153  0.62644128  0.87463258  1
  Fe  Fe52  1  0.75137935  0.50172122  -0.00050894  1
  Fe  Fe53  1  0.00075526  0.50238291  0.24973836  1
  Fe  Fe54  1  0.74674451  0.49807164  0.50274753  1
  Fe  Fe55  1  0.49971334  0.25321365  0.49831009  1
  Fe  Fe56  1  -0.00024261  0.25039782  0.49950311  1
  Fe  Fe57  1  0.87869394  0.62766905  0.12268803  1
  Fe  Fe58  1  0.25344062  0.75043369  0.49981416  1
  Fe  Fe59  1  0.37485765  0.87509657  0.12274612  1
  Fe  Fe60  1  0.00027149  -0.00164665  0.74744835  1
  Fe  Fe61  1  0.37467016  0.62405146  0.87422019  1
  Fe  Fe62  1  0.37529362  0.62415767  0.62620904  1
  Fe  Fe63  1  0.37697561  0.87497489  0.87272934  1
  Fe  Fe64  1  0.49970083  0.74968207  0.49992211  1
  Fe  Fe65  1  0.87380718  0.62228384  0.62910476  1
  Fe  Fe66  1  -0.00300075  0.74901256  0.50202052  1
  Fe  Fe67  1  0.49822595  0.49566762  0.50105881  1
  Fe  Fe68  1  0.25066351  -0.00191537  0.50071311  1
  Fe  Fe69  1  0.49903258  0.75029502  0.25089969  1
  Fe  Fe70  1  0.75173932  0.74975872  -0.00083667  1
  Fe  Fe71  1  0.87756974  0.37983912  0.87397293  1
  Fe  Fe72  1  0.62428025  0.87507669  0.37584415  1
  Fe  Fe73  1  0.50058001  -0.00071702  0.24990030  1
  Fe  Fe74  1  0.62509197  0.12611481  0.62603560  1
  Fe  Fe75  1  0.50015829  0.25195695  0.24873141  1
  Fe  Fe76  1  0.37291221  0.62630409  0.12410026  1
  Fe  Fe77  1  0.25136462  0.24930108  -0.00013955  1
  Fe  Fe78  1  0.87624499  0.87291102  0.12701736  1
  Fe  Fe79  1  0.24809567  0.50185224  0.00136659  1
  Fe  Fe80  1  0.74819466  0.25024857  0.49783847  1
  Fe  Fe81  1  -0.00227457  0.24767094  -0.00070250  1
  Fe  Fe82  1  0.12585393  0.12605641  0.62537931  1
  Fe  Fe83  1  0.62533178  0.87489600  0.12147703  1
  Fe  Fe84  1  0.25100422  -0.00090137  0.74925766  1
  Fe  Fe85  1  0.75166088  0.25166530  0.75219158  1
  Fe  Fe86  1  -0.00060842  -0.00268855  0.00071756  1
  Fe  Fe87  1  0.24685899  0.75371907  -0.00395360  1
  Fe  Fe88  1  0.37569474  0.12616368  0.62711915  1
  Fe  Fe89  1  0.24936643  -0.00328446  0.25065391  1
  Co  Co90  1  0.00242609  0.25187735  0.25198788  1
  Co  Co91  1  0.50182426  0.74711570  0.75006781  1
  Co  Co92  1  0.75323181  -0.00079812  -0.00050753  1
  Co  Co93  1  0.25172309  0.74912879  0.75170114  1
  Co  Co94  1  0.74589255  0.49914596  0.75079028  1
  Co  Co95  1  0.12372369  0.87284272  0.37783582  1
  Co  Co96  1  0.37472196  0.62263460  0.37549458  1
  Co  Co97  1  0.37586637  0.37619432  0.12040532  1
  Co  Co98  1  0.49802853  0.24591715  -0.00123674  1
  Co  Co99  1  0.62458724  0.62478449  0.62306057  1
  Co  Co100  1  -0.00011103  0.75428106  -0.00453444  1
  Co  Co101  1  0.50239652  0.00284766  0.75345650  1
  Co  Co102  1  0.62200043  0.87580195  0.62403432  1
  Co  Co103  1  0.62321261  0.12460781  0.37442316  1
  Co  Co104  1  0.50055985  0.50452134  -0.00042765  1
  Co  Co105  1  0.00008215  0.50139257  0.00165920  1
  Co  Co106  1  0.12392189  0.87209205  0.12673299  1
  Co  Co107  1  0.87583457  0.62321099  0.87187378  1
  Co  Co108  1  0.37142718  0.37575009  0.37271430  1
  Co  Co109  1  0.24991258  0.50185366  0.24548790  1
  Co  Co110  1  -0.00077792  0.74736370  0.25436352  1
  Co  Co111  1  0.12597160  0.62913665  0.62538635  1
  Co  Co112  1  0.12510589  0.87672768  0.87079284  1
  Co  Co113  1  0.62973766  0.12704909  0.87658469  1
  Co  Co114  1  -0.00322693  0.75161084  0.74920116  1
  Co  Co115  1  0.37703495  0.87650663  0.37509904  1
  Co  Co116  1  0.62547560  0.37769538  0.37284606  1
  Co  Co117  1  0.37021320  0.12437260  0.87450011  1
  Co  Co118  1  0.25176650  0.49965170  0.50451175  1
  Co  Co119  1  0.87661549  0.12185792  0.87175048  1
  Co  Co120  1  0.24906967  -0.00291474  0.00009297  1
  Co  Co121  1  0.62327652  0.87184171  0.87690157  1
  Co  Co122  1  0.87286360  0.87665744  0.62457864  1
  Co  Co123  1  0.00310566  0.49914193  0.74683816  1
  Co  Co124  1  0.62412984  0.37145508  0.62690996  1
  Co  Co125  1  0.87344086  0.62247747  0.37793429  1
  Co  Co126  1  0.87694113  0.12448268  0.12840132  1
  Co  Co127  1  0.37538517  0.37505817  0.63003519  1
