# generated using pymatgen
data_Fe45Co19
_symmetry_space_group_name_H-M   'P 1'
_cell_length_a   11.41683738
_cell_length_b   11.41575454
_cell_length_c   11.41594405
_cell_angle_alpha   90.00049900
_cell_angle_beta   89.99879465
_cell_angle_gamma   90.00131206
_symmetry_Int_Tables_number   1
_chemical_formula_structural   Fe45Co19
_chemical_formula_sum   'Fe90 Co38'
_cell_volume   1487.86068538
_cell_formula_units_Z   2
loop_
 _symmetry_equiv_pos_site_id
 _symmetry_equiv_pos_as_xyz
  1  'x, y, z'
loop_
 _atom_site_type_symbol
 _atom_site_label
 _atom_site_symmetry_multiplicity
 _atom_site_fract_x
 _atom_site_fract_y
 _atom_site_fract_z
 _atom_site_occupancy
  Fe  Fe0  1  -0.00054433  0.74673242  0.25218767  1
  Fe  Fe1  1  0.87507634  0.12575715  0.62512163  1
  Fe  Fe2  1  0.12728241  0.62357962  0.12476155  1
  Fe  Fe3  1  0.37332396  0.87622922  0.12211943  1
  Fe  Fe4  1  0.50028524  0.00087025  0.49896440  1
  Fe  Fe5  1  0.24896058  -0.00493648  0.75424100  1
  Fe  Fe6  1  0.25072035  0.00030434  0.49950008  1
  Fe  Fe7  1  0.62727433  0.87760419  0.12712995  1
  Fe  Fe8  1  0.37667158  0.12452656  0.37427881  1
  Fe  Fe9  1  0.75114089  0.74793297  0.00020714  1
  Fe  Fe10  1  0.74742897  0.24977115  0.74725327  1
  Fe  Fe11  1  0.37303852  0.62521043  0.37484293  1
  Fe  Fe12  1  0.12306994  0.12620738  0.37524798  1
  Fe  Fe13  1  -0.00069097  0.00030533  0.75101518  1
  Fe  Fe14  1  0.62525297  0.12264817  0.12785884  1
  Fe  Fe15  1  0.00214694  0.25244708  0.50476379  1
  Fe  Fe16  1  0.50210421  0.75007226  0.49923340  1
  Fe  Fe17  1  0.87708789  0.62530403  0.62145353  1
  Fe  Fe18  1  0.12675430  0.37784838  0.37748025  1
  Fe  Fe19  1  0.87772881  0.87061906  0.87413690  1
  Fe  Fe20  1  0.75078044  0.49987131  0.74917005  1
  Fe  Fe21  1  0.37586556  0.87349980  0.62553878  1
  Fe  Fe22  1  0.12587254  0.37888723  0.12544329  1
  Fe  Fe23  1  0.74988180  0.49903366  0.49965879  1
  Fe  Fe24  1  0.49980699  0.75164277  0.24971098  1
  Fe  Fe25  1  0.74856764  0.25000660  0.25026982  1
  Fe  Fe26  1  0.24635327  0.24980810  0.00216327  1
  Fe  Fe27  1  -0.00033523  0.50014688  -0.00052741  1
  Fe  Fe28  1  0.12513142  0.62792657  0.87429072  1
  Fe  Fe29  1  0.12558200  0.87385598  0.37536099  1
  Fe  Fe30  1  0.87587095  0.12796108  0.12379812  1
  Fe  Fe31  1  0.49983671  -0.00015335  -0.00102729  1
  Fe  Fe32  1  0.25108055  0.25170374  0.74849051  1
  Fe  Fe33  1  0.25064188  -0.00024396  0.25113901  1
  Fe  Fe34  1  0.49963060  -0.00236256  0.75112118  1
  Fe  Fe35  1  0.87454067  0.87464487  0.62617074  1
  Fe  Fe36  1  0.62471035  0.12484493  0.87253815  1
  Fe  Fe37  1  0.50049480  0.49914285  0.24990740  1
  Fe  Fe38  1  0.87667598  0.12941325  0.87576419  1
  Fe  Fe39  1  0.75134012  0.00063318  -0.00180893  1
  Fe  Fe40  1  0.37410719  0.37705928  0.12298734  1
  Fe  Fe41  1  0.74408831  0.24677139  0.50179523  1
  Fe  Fe42  1  0.62646547  0.87219861  0.87273063  1
  Fe  Fe43  1  0.87451661  0.37243592  0.37843869  1
  Fe  Fe44  1  0.50247359  0.24983396  0.00064507  1
  Fe  Fe45  1  0.12464434  0.87518574  0.12272837  1
  Fe  Fe46  1  0.37273366  0.62803747  0.87315316  1
  Fe  Fe47  1  0.87405130  0.87326183  0.37416417  1
  Fe  Fe48  1  0.12591229  0.12473243  0.62605973  1
  Fe  Fe49  1  0.00108401  0.25129218  0.24825132  1
  Fe  Fe50  1  0.74980833  0.00407147  0.49757099  1
  Fe  Fe51  1  0.00122161  0.00176172  0.00006923  1
  Fe  Fe52  1  0.49969473  0.49957111  0.75070312  1
  Fe  Fe53  1  0.12439819  0.37385837  0.87320428  1
  Fe  Fe54  1  0.37229804  0.12393504  0.12370331  1
  Fe  Fe55  1  0.50089885  0.50037720  -0.00062090  1
  Fe  Fe56  1  0.62770316  0.87657862  0.62776923  1
  Fe  Fe57  1  0.87158398  0.37628598  0.12186793  1
  Fe  Fe58  1  0.50010978  0.25101671  0.24878609  1
  Fe  Fe59  1  -0.00142395  -0.00009425  0.49879678  1
  Fe  Fe60  1  0.37474932  0.62571074  0.62697384  1
  Fe  Fe61  1  0.37639736  0.37669196  0.37743066  1
  Fe  Fe62  1  0.62643344  0.37540017  0.87592437  1
  Fe  Fe63  1  0.87062148  0.62178896  0.12836131  1
  Fe  Fe64  1  0.37742234  0.12500083  0.62738985  1
  Fe  Fe65  1  0.37381205  0.37505471  0.87663386  1
  Fe  Fe66  1  -0.00189092  0.00177540  0.25145260  1
  Fe  Fe67  1  0.74959690  0.75078377  0.49958790  1
  Fe  Fe68  1  0.37480070  0.12541927  0.87517623  1
  Fe  Fe69  1  0.12386948  0.62324003  0.62190116  1
  Fe  Fe70  1  0.12384758  0.12699385  0.87466320  1
  Fe  Fe71  1  0.00052733  0.49666899  0.74614495  1
  Fe  Fe72  1  0.62564496  0.87893071  0.37100558  1
  Fe  Fe73  1  0.87716722  0.62636019  0.87338576  1
  Fe  Fe74  1  0.62518294  0.62658621  0.87363864  1
  Fe  Fe75  1  0.25015668  0.74970201  0.25011718  1
  Fe  Fe76  1  0.24919748  0.25129856  0.25016334  1
  Fe  Fe77  1  -0.00152641  0.50129424  0.25506283  1
  Fe  Fe78  1  0.62197143  0.37455383  0.37793088  1
  Fe  Fe79  1  0.24935110  0.75021567  0.50086849  1
  Fe  Fe80  1  0.62771958  0.62489417  0.37257217  1
  Fe  Fe81  1  0.62488565  0.62421653  0.62616880  1
  Fe  Fe82  1  0.87469292  0.87420161  0.12507548  1
  Fe  Fe83  1  0.87512914  0.37224011  0.87557579  1
  Fe  Fe84  1  0.12297298  0.87523849  0.62478443  1
  Fe  Fe85  1  0.37308449  0.62292871  0.12381171  1
  Fe  Fe86  1  0.50061597  0.74966175  0.00098785  1
  Fe  Fe87  1  0.37859711  0.37622795  0.62331599  1
  Fe  Fe88  1  0.25184388  0.25007660  0.50058141  1
  Fe  Fe89  1  0.62820429  0.62178435  0.12662312  1
  Co  Co90  1  0.11927472  0.87065348  0.87808651  1
  Co  Co91  1  0.37760068  0.87189472  0.87513516  1
  Co  Co92  1  0.62668944  0.37770338  0.12307761  1
  Co  Co93  1  0.25053345  0.75079266  -0.00132359  1
  Co  Co94  1  -0.00022951  0.75140327  0.49804446  1
  Co  Co95  1  -0.00133550  0.49733032  0.49923352  1
  Co  Co96  1  0.75053429  0.50211579  -0.00362532  1
  Co  Co97  1  0.12814771  0.37549874  0.62461963  1
  Co  Co98  1  0.62255274  0.12231856  0.62890619  1
  Co  Co99  1  0.24960038  0.49985109  0.74960238  1
  Co  Co100  1  0.37438002  0.87346173  0.37691491  1
  Co  Co101  1  0.87272799  0.62584042  0.37678236  1
  Co  Co102  1  0.24862603  0.50026482  -0.00236320  1
  Co  Co103  1  0.62141797  0.37720565  0.62345880  1
  Co  Co104  1  0.74990547  0.49521094  0.25454699  1
  Co  Co105  1  0.00018324  0.25094600  0.74624097  1
  Co  Co106  1  0.74999611  0.75139065  0.24952316  1
  Co  Co107  1  0.49978507  0.50493097  0.49892469  1
  Co  Co108  1  0.74703015  0.24827496  0.00035793  1
  Co  Co109  1  0.12658592  0.62397322  0.37790562  1
  Co  Co110  1  0.87822871  0.13015645  0.37703214  1
  Co  Co111  1  -0.00189339  0.74570383  0.00468223  1
  Co  Co112  1  0.49497729  -0.00188113  0.24908813  1
  Co  Co113  1  0.62197350  0.12251401  0.37015759  1
  Co  Co114  1  0.87190327  0.37405203  0.62451311  1
  Co  Co115  1  0.24723385  0.75287750  0.74913008  1
  Co  Co116  1  0.75604108  0.00347807  0.25109663  1
  Co  Co117  1  0.50130716  0.24555374  0.50062518  1
  Co  Co118  1  0.50062637  0.25264403  0.75108885  1
  Co  Co119  1  0.25194943  0.49976435  0.50155323  1
  Co  Co120  1  0.00342999  0.25137778  0.00282147  1
  Co  Co121  1  0.50113532  0.75034835  0.74781076  1
  Co  Co122  1  0.75201137  0.74798626  0.74887649  1
  Co  Co123  1  0.24817141  -0.00089720  -0.00399168  1
  Co  Co124  1  0.12569272  0.12240525  0.12681417  1
  Co  Co125  1  0.00110813  0.74950934  0.74578510  1
  Co  Co126  1  0.25091193  0.49967628  0.25142667  1
  Co  Co127  1  0.75329558  0.00126206  0.75235780  1
