# generated using pymatgen
data_Fe45Co19
_symmetry_space_group_name_H-M   'P 1'
_cell_length_a   11.41649925
_cell_length_b   11.41534798
_cell_length_c   11.41738538
_cell_angle_alpha   89.99778229
_cell_angle_beta   89.99901746
_cell_angle_gamma   89.99102828
_symmetry_Int_Tables_number   1
_chemical_formula_structural   Fe45Co19
_chemical_formula_sum   'Fe90 Co38'
_cell_volume   1487.95145375
_cell_formula_units_Z   2
loop_
 _symmetry_equiv_pos_site_id
 _symmetry_equiv_pos_as_xyz
  1  'x, y, z'
loop_
 _atom_site_type_symbol
 _atom_site_label
 _atom_site_symmetry_multiplicity
 _atom_site_fract_x
 _atom_site_fract_y
 _atom_site_fract_z
 _atom_site_occupancy
  Fe  Fe0  1  0.49790406  0.50227576  0.24750227  1
  Fe  Fe1  1  0.00075667  0.24992408  0.75001474  1
  Fe  Fe2  1  0.74969933  0.49688328  0.00001300  1
  Fe  Fe3  1  0.62454193  0.37640700  0.37325093  1
  Fe  Fe4  1  0.74882309  0.00000650  -0.00090869  1
  Fe  Fe5  1  0.00373758  0.75249492  0.00006716  1
  Fe  Fe6  1  0.50111628  0.50034201  0.50374167  1
  Fe  Fe7  1  0.24843014  0.49843974  0.49812860  1
  Fe  Fe8  1  0.37318136  0.87582524  0.12662117  1
  Fe  Fe9  1  0.37455815  0.12250149  0.12493601  1
  Fe  Fe10  1  0.49571716  0.25231220  0.74897383  1
  Fe  Fe11  1  0.49774436  -0.00063880  0.49798294  1
  Fe  Fe12  1  0.49918859  0.75157199  0.49924380  1
  Fe  Fe13  1  0.62659333  0.62531254  0.12495383  1
  Fe  Fe14  1  0.75302628  -0.00032894  0.50154809  1
  Fe  Fe15  1  0.50104053  0.25029193  0.50062516  1
  Fe  Fe16  1  0.75090772  0.24855578  0.24988558  1
  Fe  Fe17  1  0.12800789  0.37275948  0.62703797  1
  Fe  Fe18  1  0.25282016  0.74640329  0.25045495  1
  Fe  Fe19  1  0.50050185  0.75165201  0.00181071  1
  Fe  Fe20  1  0.00185083  -0.00429601  0.00084312  1
  Fe  Fe21  1  0.12186592  0.12637767  0.37568072  1
  Fe  Fe22  1  0.87161155  0.62551421  0.12457882  1
  Fe  Fe23  1  0.24747373  -0.00488884  -0.00082659  1
  Fe  Fe24  1  -0.00165321  0.74807004  0.25028232  1
  Fe  Fe25  1  0.62326436  0.12475515  0.87450477  1
  Fe  Fe26  1  0.25151144  -0.00046091  0.49685927  1
  Fe  Fe27  1  0.87540707  0.12672999  0.87689997  1
  Fe  Fe28  1  0.12206435  0.37568052  0.36885119  1
  Fe  Fe29  1  0.00069893  0.49884079  0.50081771  1
  Fe  Fe30  1  0.24842278  0.25221705  -0.00252026  1
  Fe  Fe31  1  0.12784290  0.62502857  0.12529273  1
  Fe  Fe32  1  0.75056257  0.75087137  0.49698232  1
  Fe  Fe33  1  0.12571443  0.62270984  0.37301055  1
  Fe  Fe34  1  0.75272269  -0.00075513  0.74947425  1
  Fe  Fe35  1  0.24994634  0.75132301  0.49871028  1
  Fe  Fe36  1  0.62566239  0.12473633  0.62513595  1
  Fe  Fe37  1  0.25267613  0.75127745  0.75287398  1
  Fe  Fe38  1  0.62520380  0.12398375  0.12633432  1
  Fe  Fe39  1  0.12697559  0.12866119  0.62387502  1
  Fe  Fe40  1  0.12579150  0.87415462  0.62672023  1
  Fe  Fe41  1  0.62235717  0.62183576  0.87515477  1
  Fe  Fe42  1  0.87561136  0.62449961  0.87845398  1
  Fe  Fe43  1  0.12612521  0.12535674  0.12409323  1
  Fe  Fe44  1  0.50146415  0.24877212  0.00103481  1
  Fe  Fe45  1  0.62754426  0.87586579  0.12766265  1
  Fe  Fe46  1  0.62711227  0.87791910  0.37150289  1
  Fe  Fe47  1  0.24861682  0.49791444  0.00101929  1
  Fe  Fe48  1  0.62659792  0.37837775  0.62757724  1
  Fe  Fe49  1  0.62456095  0.12402396  0.37415239  1
  Fe  Fe50  1  0.12550771  0.62408200  0.87530505  1
  Fe  Fe51  1  0.62467151  0.62285045  0.37574214  1
  Fe  Fe52  1  0.00084886  0.49623938  0.00364608  1
  Fe  Fe53  1  0.12408613  0.87525964  0.37175548  1
  Fe  Fe54  1  0.87372651  0.12797351  0.12161452  1
  Fe  Fe55  1  -0.00101843  0.00099836  0.24760685  1
  Fe  Fe56  1  0.00028469  0.74974011  0.49933936  1
  Fe  Fe57  1  0.62608852  0.37405830  0.12649014  1
  Fe  Fe58  1  0.49894758  0.74871026  0.74897339  1
  Fe  Fe59  1  0.12411489  0.12479861  0.87490085  1
  Fe  Fe60  1  0.25446544  0.49648251  0.75218552  1
  Fe  Fe61  1  0.49870726  0.24824254  0.24927776  1
  Fe  Fe62  1  0.25184709  -0.00032505  0.75096478  1
  Fe  Fe63  1  0.12678075  0.62449023  0.62686492  1
  Fe  Fe64  1  -0.00228088  -0.00133209  0.50308239  1
  Fe  Fe65  1  -0.00301747  -0.00074353  0.74813338  1
  Fe  Fe66  1  0.62154614  0.37725455  0.87362565  1
  Fe  Fe67  1  0.00166156  0.25507649  0.00188140  1
  Fe  Fe68  1  0.75087340  0.25219530  0.49956232  1
  Fe  Fe69  1  0.37575016  0.12411216  0.87772749  1
  Fe  Fe70  1  0.87727488  0.37654639  0.36944632  1
  Fe  Fe71  1  -0.00108273  0.75013290  0.75079280  1
  Fe  Fe72  1  0.87240061  0.62527921  0.62323033  1
  Fe  Fe73  1  -0.00134973  0.50013396  0.75051421  1
  Fe  Fe74  1  0.62513985  0.87433373  0.62519643  1
  Fe  Fe75  1  0.87354475  0.37518036  0.62689106  1
  Fe  Fe76  1  0.75006627  0.74886695  0.75258803  1
  Fe  Fe77  1  0.37267795  0.12818299  0.62178239  1
  Fe  Fe78  1  0.87218483  0.87251360  0.12571450  1
  Fe  Fe79  1  0.49704733  -0.00090061  0.74934236  1
  Fe  Fe80  1  0.87379528  0.62157346  0.37392438  1
  Fe  Fe81  1  0.25062557  0.24821544  0.25181601  1
  Fe  Fe82  1  0.37420115  0.37550062  0.12395806  1
  Fe  Fe83  1  0.37454974  0.62520651  0.62233037  1
  Fe  Fe84  1  0.37676210  0.37556931  0.37554443  1
  Fe  Fe85  1  0.74998543  0.25005500  0.75239615  1
  Fe  Fe86  1  0.49906829  0.74840382  0.25001738  1
  Fe  Fe87  1  0.87686949  0.12589465  0.37690316  1
  Fe  Fe88  1  0.37671372  0.62364132  0.88021643  1
  Fe  Fe89  1  0.62367044  0.87613025  0.87540988  1
  Co  Co90  1  0.12356251  0.87483592  0.87097125  1
  Co  Co91  1  0.75094714  0.49790006  0.49884954  1
  Co  Co92  1  -0.00026798  0.25401438  0.50089855  1
  Co  Co93  1  0.37363981  0.87444949  0.37110400  1
  Co  Co94  1  0.87631085  0.87613366  0.37302645  1
  Co  Co95  1  0.62739359  0.62561982  0.62363942  1
  Co  Co96  1  0.75142128  0.50282606  0.75253058  1
  Co  Co97  1  0.25301436  0.25083765  0.75441619  1
  Co  Co98  1  0.12380835  0.37594531  0.87375147  1
  Co  Co99  1  0.12710810  0.37491298  0.12970011  1
  Co  Co100  1  0.37646597  0.62374639  0.37822700  1
  Co  Co101  1  0.74775467  0.50094484  0.24885908  1
  Co  Co102  1  0.87331429  0.37404643  0.12767020  1
  Co  Co103  1  0.24773567  0.75288401  -0.00141919  1
  Co  Co104  1  0.87596525  0.37418899  0.87548807  1
  Co  Co105  1  -0.00023079  0.24647885  0.24675849  1
  Co  Co106  1  0.75308304  0.00319661  0.24875574  1
  Co  Co107  1  0.12647826  0.87311473  0.13052877  1
  Co  Co108  1  0.74961271  0.74790258  0.25270523  1
  Co  Co109  1  0.74710383  0.74962657  -0.00204666  1
  Co  Co110  1  0.87413147  0.87105863  0.62498300  1
  Co  Co111  1  0.37676908  0.87505943  0.87749128  1
  Co  Co112  1  0.37465141  0.87465597  0.62380091  1
  Co  Co113  1  0.37899156  0.37645444  0.87989171  1
  Co  Co114  1  0.50264254  0.49975123  0.00433922  1
  Co  Co115  1  0.37775624  0.12635688  0.37511288  1
  Co  Co116  1  0.25364226  0.50154092  0.25002982  1
  Co  Co117  1  0.50170441  -0.00041551  0.00198282  1
  Co  Co118  1  0.49611340  0.50068560  0.74595293  1
  Co  Co119  1  0.49937424  0.00046203  0.25021928  1
  Co  Co120  1  0.74667159  0.25190529  -0.00118531  1
  Co  Co121  1  0.87526347  0.87466201  0.87686293  1
  Co  Co122  1  0.37262696  0.37325292  0.62086609  1
  Co  Co123  1  0.24846267  0.00378541  0.25194320  1
  Co  Co124  1  0.87408546  0.12840052  0.62487817  1
  Co  Co125  1  0.37354410  0.62542490  0.12106753  1
  Co  Co126  1  -0.00005514  0.50352835  0.24548801  1
  Co  Co127  1  0.24776412  0.25111460  0.49425145  1
