# generated using pymatgen
data_Fe45Co19
_symmetry_space_group_name_H-M   'P 1'
_cell_length_a   11.41590964
_cell_length_b   11.41583168
_cell_length_c   11.41554402
_cell_angle_alpha   89.99950494
_cell_angle_beta   89.99323926
_cell_angle_gamma   89.99534766
_symmetry_Int_Tables_number   1
_chemical_formula_structural   Fe45Co19
_chemical_formula_sum   'Fe90 Co38'
_cell_volume   1487.69768782
_cell_formula_units_Z   2
loop_
 _symmetry_equiv_pos_site_id
 _symmetry_equiv_pos_as_xyz
  1  'x, y, z'
loop_
 _atom_site_type_symbol
 _atom_site_label
 _atom_site_symmetry_multiplicity
 _atom_site_fract_x
 _atom_site_fract_y
 _atom_site_fract_z
 _atom_site_occupancy
  Fe  Fe0  1  0.12387292  0.12525269  0.62570863  1
  Fe  Fe1  1  0.12746788  0.87263003  0.12643063  1
  Fe  Fe2  1  0.37473280  0.62351183  0.62483302  1
  Fe  Fe3  1  0.25089118  0.50292415  0.24861120  1
  Fe  Fe4  1  0.62647561  0.62590513  0.37438247  1
  Fe  Fe5  1  -0.00035935  0.25003098  0.49888515  1
  Fe  Fe6  1  0.62636012  0.12747591  0.87673693  1
  Fe  Fe7  1  0.62505451  0.87483073  0.37234467  1
  Fe  Fe8  1  0.50121880  0.24894925  0.00378286  1
  Fe  Fe9  1  0.24989971  0.74976875  0.50085110  1
  Fe  Fe10  1  0.12537888  0.37219862  0.87439447  1
  Fe  Fe11  1  0.62718622  0.12535189  0.62500280  1
  Fe  Fe12  1  0.87267126  0.12536557  0.12696389  1
  Fe  Fe13  1  0.62628503  0.62411597  0.87369817  1
  Fe  Fe14  1  0.49888041  0.24907485  0.74941167  1
  Fe  Fe15  1  0.12409329  0.62679241  0.37460945  1
  Fe  Fe16  1  0.75007865  0.49707665  0.49906474  1
  Fe  Fe17  1  -0.00093936  0.00003185  0.25067810  1
  Fe  Fe18  1  0.87385012  0.87775455  0.62559745  1
  Fe  Fe19  1  0.37543087  0.62587826  0.37581893  1
  Fe  Fe20  1  0.87547366  0.12506805  0.62472269  1
  Fe  Fe21  1  0.12280833  0.37434248  0.62631478  1
  Fe  Fe22  1  -0.00045994  0.50036451  0.25149450  1
  Fe  Fe23  1  0.50327694  0.49985220  -0.00210021  1
  Fe  Fe24  1  0.62318833  0.62465832  0.12525556  1
  Fe  Fe25  1  0.24928882  0.00014775  0.49828725  1
  Fe  Fe26  1  -0.00088281  -0.00000339  0.49659733  1
  Fe  Fe27  1  0.12843684  0.12768553  0.37229959  1
  Fe  Fe28  1  0.50130762  0.75010015  0.74790393  1
  Fe  Fe29  1  0.74720535  0.25720206  0.00608571  1
  Fe  Fe30  1  0.37567113  0.87429383  0.37348665  1
  Fe  Fe31  1  0.74842971  0.75130496  0.50143992  1
  Fe  Fe32  1  0.74998530  0.74968753  0.00032737  1
  Fe  Fe33  1  -0.00167706  0.74969493  0.50205434  1
  Fe  Fe34  1  0.50224451  0.00250175  0.49874136  1
  Fe  Fe35  1  0.87458053  0.87659043  0.12445826  1
  Fe  Fe36  1  0.37380387  0.12516922  0.62205843  1
  Fe  Fe37  1  -0.00279233  0.74922665  0.24943788  1
  Fe  Fe38  1  0.62579157  0.87680973  0.87495517  1
  Fe  Fe39  1  0.49838432  0.50201471  0.25276957  1
  Fe  Fe40  1  0.12684808  0.37284118  0.37272280  1
  Fe  Fe41  1  0.62240571  0.37052301  0.37219635  1
  Fe  Fe42  1  0.00151228  0.00026367  0.00040486  1
  Fe  Fe43  1  0.74889989  -0.00049707  0.00102963  1
  Fe  Fe44  1  0.62527719  0.37391865  0.62492055  1
  Fe  Fe45  1  -0.00168662  0.00017050  0.75316768  1
  Fe  Fe46  1  0.37653285  0.37760118  0.12483904  1
  Fe  Fe47  1  0.37339221  0.12405508  0.87786742  1
  Fe  Fe48  1  0.49990319  0.75087198  0.00079351  1
  Fe  Fe49  1  0.12472902  0.87259534  0.37311749  1
  Fe  Fe50  1  0.75339525  0.25204151  0.74959013  1
  Fe  Fe51  1  0.49931995  0.00310627  0.24742337  1
  Fe  Fe52  1  0.37587019  0.87689549  0.62482884  1
  Fe  Fe53  1  0.87236727  0.12759476  0.37129775  1
  Fe  Fe54  1  0.24872112  0.49889023  0.49972238  1
  Fe  Fe55  1  0.12519857  0.87526674  0.62731133  1
  Fe  Fe56  1  0.12662872  0.12494149  0.87468965  1
  Fe  Fe57  1  0.75160967  0.49610039  0.75288003  1
  Fe  Fe58  1  0.12912706  0.12477031  0.12809765  1
  Fe  Fe59  1  0.62662938  0.12926671  0.37049569  1
  Fe  Fe60  1  0.50386343  0.74890777  0.50203336  1
  Fe  Fe61  1  0.25030372  0.24994426  0.00250766  1
  Fe  Fe62  1  0.50225275  0.49955884  0.49967842  1
  Fe  Fe63  1  0.87364928  0.62628920  0.37565595  1
  Fe  Fe64  1  0.12688212  0.62804504  0.87126111  1
  Fe  Fe65  1  0.87514524  0.37198603  0.37407773  1
  Fe  Fe66  1  0.37457788  0.37425561  0.62273701  1
  Fe  Fe67  1  0.12447737  0.62476376  0.62816377  1
  Fe  Fe68  1  0.12778557  0.87378412  0.87306378  1
  Fe  Fe69  1  0.75020256  0.75095711  0.24768980  1
  Fe  Fe70  1  0.24744741  0.50373519  0.00150520  1
  Fe  Fe71  1  -0.00025792  0.74936336  -0.00308318  1
  Fe  Fe72  1  0.50013986  0.49876948  0.74983595  1
  Fe  Fe73  1  0.50132105  0.00195998  0.75061910  1
  Fe  Fe74  1  0.12291945  0.37532398  0.12644757  1
  Fe  Fe75  1  0.37405306  0.62434283  0.87444139  1
  Fe  Fe76  1  0.00094622  0.24876089  0.00204695  1
  Fe  Fe77  1  0.75062327  0.75197304  0.75065179  1
  Fe  Fe78  1  0.87386599  0.62307609  0.62671443  1
  Fe  Fe79  1  0.37228996  0.87575707  0.87496248  1
  Fe  Fe80  1  0.87668825  0.61931691  0.11987540  1
  Fe  Fe81  1  0.25079058  0.24909230  0.74889439  1
  Fe  Fe82  1  -0.00119495  0.49966302  0.49849164  1
  Fe  Fe83  1  0.74987064  0.00016611  0.49710218  1
  Fe  Fe84  1  -0.00247325  0.49789060  0.75394921  1
  Fe  Fe85  1  0.87358346  0.12692598  0.87739797  1
  Fe  Fe86  1  0.75084160  0.49717484  0.24708174  1
  Fe  Fe87  1  0.50138543  0.00062721  0.00242107  1
  Fe  Fe88  1  0.37231733  0.87375173  0.12574046  1
  Fe  Fe89  1  0.37486612  0.37486397  0.87645585  1
  Co  Co90  1  -0.00362130  0.75119435  0.75080705  1
  Co  Co91  1  0.62765446  0.62212272  0.62656336  1
  Co  Co92  1  0.50093429  0.24931290  0.49989427  1
  Co  Co93  1  0.24758470  -0.00177391  -0.00003174  1
  Co  Co94  1  0.87201705  0.62256179  0.87751779  1
  Co  Co95  1  0.62567205  0.87861052  0.62591869  1
  Co  Co96  1  0.61739404  0.37660539  0.13011985  1
  Co  Co97  1  -0.00106438  0.24939862  0.24899755  1
  Co  Co98  1  0.49417483  0.24530983  0.24721368  1
  Co  Co99  1  0.87636745  0.37448882  0.88173837  1
  Co  Co100  1  0.25032448  0.74670138  0.00116366  1
  Co  Co101  1  0.25593541  0.25142601  0.24809816  1
  Co  Co102  1  0.25039915  0.49808271  0.75053448  1
  Co  Co103  1  0.75098248  0.25560130  0.24434127  1
  Co  Co104  1  0.25081445  -0.00050248  0.25162259  1
  Co  Co105  1  -0.00223771  0.24985325  0.75158590  1
  Co  Co106  1  0.62782842  0.12485650  0.12645659  1
  Co  Co107  1  0.62287544  0.37246653  0.87263050  1
  Co  Co108  1  0.87378134  0.87678313  0.87702442  1
  Co  Co109  1  0.87509177  0.87317760  0.37502015  1
  Co  Co110  1  0.24809319  0.25131965  0.50087741  1
  Co  Co111  1  0.88146673  0.37945197  0.12161397  1
  Co  Co112  1  0.75024030  0.00165541  0.75253071  1
  Co  Co113  1  0.00569701  0.50135006  -0.00526954  1
  Co  Co114  1  0.37332315  0.12639882  0.37738896  1
  Co  Co115  1  0.25069834  0.00160370  0.74987072  1
  Co  Co116  1  0.37541455  0.37434297  0.37604726  1
  Co  Co117  1  0.12040096  0.62607740  0.12649046  1
  Co  Co118  1  0.37133597  0.12237318  0.12135138  1
  Co  Co119  1  0.37919739  0.62455788  0.12433091  1
  Co  Co120  1  0.87745831  0.37523939  0.62337483  1
  Co  Co121  1  0.50050077  0.75026757  0.24974771  1
  Co  Co122  1  0.75016497  -0.00217368  0.25041950  1
  Co  Co123  1  0.75043896  0.25078134  0.50038885  1
  Co  Co124  1  0.62540968  0.87530054  0.12479070  1
  Co  Co125  1  0.25147084  0.74583053  0.24946768  1
  Co  Co126  1  0.74393670  0.49522677  0.00115554  1
  Co  Co127  1  0.25340505  0.75024430  0.74799364  1
