# generated using pymatgen
data_Fe45Co19
_symmetry_space_group_name_H-M   'P 1'
_cell_length_a   11.41449113
_cell_length_b   11.41369347
_cell_length_c   11.41494270
_cell_angle_alpha   89.99779860
_cell_angle_beta   89.99402520
_cell_angle_gamma   90.01001100
_symmetry_Int_Tables_number   1
_chemical_formula_structural   Fe45Co19
_chemical_formula_sum   'Fe90 Co38'
_cell_volume   1487.15585759
_cell_formula_units_Z   2
loop_
 _symmetry_equiv_pos_site_id
 _symmetry_equiv_pos_as_xyz
  1  'x, y, z'
loop_
 _atom_site_type_symbol
 _atom_site_label
 _atom_site_symmetry_multiplicity
 _atom_site_fract_x
 _atom_site_fract_y
 _atom_site_fract_z
 _atom_site_occupancy
  Fe  Fe0  1  0.25149242  0.49868263  0.49945141  1
  Fe  Fe1  1  0.37561912  0.87359391  0.87285264  1
  Fe  Fe2  1  0.74916512  0.75059948  0.25049865  1
  Fe  Fe3  1  -0.00532054  0.00283591  0.75106308  1
  Fe  Fe4  1  0.74298309  0.24784381  0.74458020  1
  Fe  Fe5  1  0.62767938  0.12405887  0.12525158  1
  Fe  Fe6  1  0.50901895  0.24950431  0.50148540  1
  Fe  Fe7  1  -0.00115261  0.24908170  0.24855612  1
  Fe  Fe8  1  0.37589016  0.37167959  0.37585946  1
  Fe  Fe9  1  0.87492325  0.62240719  0.62221086  1
  Fe  Fe10  1  -0.00252155  0.49714227  0.74755759  1
  Fe  Fe11  1  0.50233500  0.75072572  0.00103437  1
  Fe  Fe12  1  0.00253357  0.25185749  0.50577508  1
  Fe  Fe13  1  0.00035657  0.74898371  0.25029964  1
  Fe  Fe14  1  0.74951235  0.75225127  0.00144214  1
  Fe  Fe15  1  0.87415288  0.62491605  0.12496665  1
  Fe  Fe16  1  0.37752365  0.37390153  0.62423010  1
  Fe  Fe17  1  0.24821274  0.75025138  0.25075321  1
  Fe  Fe18  1  0.24711659  0.24670743  0.50295064  1
  Fe  Fe19  1  0.24903807  0.75283009  0.50053360  1
  Fe  Fe20  1  0.25191540  0.00249874  0.74971711  1
  Fe  Fe21  1  0.50177431  0.75073574  0.50147845  1
  Fe  Fe22  1  0.37400644  0.62887214  0.87284490  1
  Fe  Fe23  1  0.12472250  0.62358943  0.62379637  1
  Fe  Fe24  1  0.50046741  -0.00060095  0.00049215  1
  Fe  Fe25  1  0.12427352  0.87971443  0.62497244  1
  Fe  Fe26  1  0.50537430  0.25167953  0.00054514  1
  Fe  Fe27  1  0.37801338  0.12724054  0.87516653  1
  Fe  Fe28  1  0.37596810  0.37153167  0.87353976  1
  Fe  Fe29  1  0.12341406  0.12475558  0.12477032  1
  Fe  Fe30  1  -0.00435746  0.00419818  0.25120912  1
  Fe  Fe31  1  0.87235231  0.13066143  0.87654406  1
  Fe  Fe32  1  -0.00462647  0.00153982  -0.00126583  1
  Fe  Fe33  1  0.12478860  0.62436322  0.87286817  1
  Fe  Fe34  1  0.12490735  0.62158912  0.12535222  1
  Fe  Fe35  1  0.50292784  0.74835602  0.74680187  1
  Fe  Fe36  1  0.24884461  0.75120996  0.00002437  1
  Fe  Fe37  1  0.50597484  0.24847645  0.74685914  1
  Fe  Fe38  1  -0.00168539  0.49620406  -0.00180648  1
  Fe  Fe39  1  0.37440008  0.62757690  0.37581459  1
  Fe  Fe40  1  0.12728115  0.37372811  0.87090673  1
  Fe  Fe41  1  0.25151240  0.00310532  0.25276354  1
  Fe  Fe42  1  0.12560192  0.37491470  0.12580585  1
  Fe  Fe43  1  0.87083227  0.13294621  0.37977522  1
  Fe  Fe44  1  0.50546833  0.24905457  0.25163576  1
  Fe  Fe45  1  0.49942270  0.00107903  0.25133222  1
  Fe  Fe46  1  0.87216958  0.37053234  0.87271880  1
  Fe  Fe47  1  0.24959785  0.24896960  0.00034327  1
  Fe  Fe48  1  0.37644835  0.12470254  0.62345374  1
  Fe  Fe49  1  0.37450363  0.62364884  0.12594976  1
  Fe  Fe50  1  0.25073353  0.49874272  -0.00033578  1
  Fe  Fe51  1  0.62562790  0.62104034  0.37786596  1
  Fe  Fe52  1  0.12416353  0.37398169  0.37579780  1
  Fe  Fe53  1  0.75230720  0.49588510  0.25385610  1
  Fe  Fe54  1  0.62617446  0.62159425  0.12585213  1
  Fe  Fe55  1  0.12359763  0.87769886  0.37616010  1
  Fe  Fe56  1  0.87731188  0.62481149  0.37848860  1
  Fe  Fe57  1  0.50176395  0.00176470  0.74914093  1
  Fe  Fe58  1  -0.00270115  0.00277391  0.49985399  1
  Fe  Fe59  1  0.74986862  0.49639418  -0.00262734  1
  Fe  Fe60  1  0.37610330  0.37411225  0.12654972  1
  Fe  Fe61  1  0.87210475  0.36970032  0.12384657  1
  Fe  Fe62  1  0.37602336  0.87514193  0.12689979  1
  Fe  Fe63  1  0.62465034  0.87825911  0.37642338  1
  Fe  Fe64  1  0.62873309  0.88089879  0.62530823  1
  Fe  Fe65  1  0.12398086  0.87612651  0.87367269  1
  Fe  Fe66  1  0.37412077  0.87481260  0.62441969  1
  Fe  Fe67  1  0.50083682  0.49878974  -0.00237964  1
  Fe  Fe68  1  0.62826368  0.87584646  0.87176779  1
  Fe  Fe69  1  0.49858984  0.49909979  0.25276926  1
  Fe  Fe70  1  0.74927909  0.74996276  0.50150225  1
  Fe  Fe71  1  0.87548576  0.87232712  0.37554239  1
  Fe  Fe72  1  0.25202890  0.00208324  0.00001827  1
  Fe  Fe73  1  0.87441352  0.62770622  0.87421659  1
  Fe  Fe74  1  0.75285248  -0.00115721  -0.00073857  1
  Fe  Fe75  1  0.12229944  0.62268012  0.37774366  1
  Fe  Fe76  1  0.62523985  0.61562557  0.62387571  1
  Fe  Fe77  1  0.12529967  0.12694119  0.87241183  1
  Fe  Fe78  1  -0.00084114  0.75083324  0.00054308  1
  Fe  Fe79  1  0.50223814  0.75032180  0.25019040  1
  Fe  Fe80  1  0.25439197  0.50027711  0.74801241  1
  Fe  Fe81  1  0.87206568  0.87681793  0.62692076  1
  Fe  Fe82  1  0.00102437  0.25019472  0.74622862  1
  Fe  Fe83  1  -0.00221213  0.49721192  0.25146352  1
  Fe  Fe84  1  0.62636691  0.62287331  0.87214716  1
  Fe  Fe85  1  -0.00100381  0.75062072  0.74764704  1
  Fe  Fe86  1  0.12249833  0.87810805  0.12586503  1
  Fe  Fe87  1  0.24987007  0.24811588  0.25015229  1
  Fe  Fe88  1  0.37711900  0.12553891  0.37782953  1
  Fe  Fe89  1  0.75327051  0.00130518  0.25056268  1
  Co  Co90  1  0.87649230  0.87358048  0.12662450  1
  Co  Co91  1  0.62328821  0.38520548  0.62711165  1
  Co  Co92  1  0.25067688  0.00192592  0.49881605  1
  Co  Co93  1  0.12287464  0.12662502  0.37658435  1
  Co  Co94  1  0.49709552  -0.00160779  0.49997721  1
  Co  Co95  1  0.87725662  0.36847784  0.37816317  1
  Co  Co96  1  0.37779797  0.12696723  0.12476871  1
  Co  Co97  1  0.49486140  0.50023374  0.49718294  1
  Co  Co98  1  0.87217392  0.87099397  0.87217832  1
  Co  Co99  1  0.74560994  0.25161321  0.25334484  1
  Co  Co100  1  0.62591917  0.87708255  0.12641129  1
  Co  Co101  1  0.62484972  0.12300545  0.87678589  1
  Co  Co102  1  0.62348077  0.37849956  0.37632013  1
  Co  Co103  1  0.62717905  0.12026596  0.37748280  1
  Co  Co104  1  0.74304754  0.25273157  -0.00115343  1
  Co  Co105  1  -0.00069004  0.49466820  0.50226411  1
  Co  Co106  1  0.37460242  0.62726240  0.62379334  1
  Co  Co107  1  0.75428659  0.49565623  0.49586304  1
  Co  Co108  1  0.74850284  0.74681123  0.74500823  1
  Co  Co109  1  0.00324434  0.25118642  -0.00105578  1
  Co  Co110  1  0.87221018  0.13020571  0.12268280  1
  Co  Co111  1  0.75508638  -0.00124172  0.49699745  1
  Co  Co112  1  0.12402015  0.12191751  0.62697938  1
  Co  Co113  1  0.24720866  0.75139931  0.74844009  1
  Co  Co114  1  0.74097355  0.25502466  0.50246540  1
  Co  Co115  1  0.75258718  0.00508997  0.75299141  1
  Co  Co116  1  0.62787489  0.11699294  0.62012160  1
  Co  Co117  1  0.75444438  0.50067132  0.75143529  1
  Co  Co118  1  0.49393469  0.50142892  0.75213222  1
  Co  Co119  1  0.12856181  0.37586799  0.62732196  1
  Co  Co120  1  0.62502691  0.37738804  0.86882552  1
  Co  Co121  1  0.87087058  0.37202736  0.62492638  1
  Co  Co122  1  0.62489173  0.37787587  0.12742888  1
  Co  Co123  1  0.87227780  0.12802498  0.62218790  1
  Co  Co124  1  0.37625481  0.87444980  0.37462920  1
  Co  Co125  1  -0.00058492  0.75268562  0.50200188  1
  Co  Co126  1  0.25239396  0.24771648  0.74783210  1
  Co  Co127  1  0.25062439  0.49870041  0.25290282  1
