# generated using pymatgen
data_Fe45Co19
_symmetry_space_group_name_H-M   'P 1'
_cell_length_a   11.41555944
_cell_length_b   11.41456769
_cell_length_c   11.41561375
_cell_angle_alpha   90.00601474
_cell_angle_beta   90.00205706
_cell_angle_gamma   89.99905216
_symmetry_Int_Tables_number   1
_chemical_formula_structural   Fe45Co19
_chemical_formula_sum   'Fe90 Co38'
_cell_volume   1487.49642454
_cell_formula_units_Z   2
loop_
 _symmetry_equiv_pos_site_id
 _symmetry_equiv_pos_as_xyz
  1  'x, y, z'
loop_
 _atom_site_type_symbol
 _atom_site_label
 _atom_site_symmetry_multiplicity
 _atom_site_fract_x
 _atom_site_fract_y
 _atom_site_fract_z
 _atom_site_occupancy
  Fe  Fe0  1  0.12518824  0.62468803  0.37582787  1
  Fe  Fe1  1  0.50095927  0.74864316  0.49927975  1
  Fe  Fe2  1  0.87640790  0.87611967  0.12736816  1
  Fe  Fe3  1  0.12414479  0.12553661  0.62441548  1
  Fe  Fe4  1  0.12549639  0.87278224  0.12689019  1
  Fe  Fe5  1  0.62265955  0.37378442  0.37467636  1
  Fe  Fe6  1  0.37514079  0.12334062  0.37293807  1
  Fe  Fe7  1  0.37578223  0.37410683  0.87414901  1
  Fe  Fe8  1  0.50360200  0.24434416  0.24610744  1
  Fe  Fe9  1  0.74964263  0.49774243  -0.00121153  1
  Fe  Fe10  1  0.12127945  0.87432355  0.37563446  1
  Fe  Fe11  1  0.12211522  0.87380914  0.62415629  1
  Fe  Fe12  1  0.25056759  0.49850044  0.49973743  1
  Fe  Fe13  1  -0.00248978  0.25334622  0.00199643  1
  Fe  Fe14  1  0.25128663  0.75139000  0.75048349  1
  Fe  Fe15  1  0.50328494  0.00061857  0.49673005  1
  Fe  Fe16  1  0.49998377  -0.00015333  0.00175499  1
  Fe  Fe17  1  0.87606824  0.37491387  0.37438032  1
  Fe  Fe18  1  0.12362377  0.12677041  0.37648515  1
  Fe  Fe19  1  0.25090379  0.75125592  0.49791837  1
  Fe  Fe20  1  0.37816724  0.87585040  0.62493954  1
  Fe  Fe21  1  0.87821247  0.37846651  0.87299934  1
  Fe  Fe22  1  0.37221578  0.87699666  0.12930854  1
  Fe  Fe23  1  0.62663973  0.87693458  0.12630106  1
  Fe  Fe24  1  0.37323458  0.62779357  0.87755655  1
  Fe  Fe25  1  0.75141922  0.75048398  0.24977702  1
  Fe  Fe26  1  0.62761446  0.12381781  0.62377852  1
  Fe  Fe27  1  0.75022768  0.75404404  0.49926664  1
  Fe  Fe28  1  -0.00133807  0.00309710  0.25008885  1
  Fe  Fe29  1  0.37432565  0.62410718  0.62611750  1
  Fe  Fe30  1  0.74855744  0.49875490  0.25252276  1
  Fe  Fe31  1  -0.00211393  0.74651588  0.74814893  1
  Fe  Fe32  1  0.74788630  0.25081881  0.24577936  1
  Fe  Fe33  1  0.50341060  -0.00066537  0.75173515  1
  Fe  Fe34  1  0.37505549  0.62397630  0.37520123  1
  Fe  Fe35  1  0.37698160  0.37718424  0.62741318  1
  Fe  Fe36  1  0.24829991  0.50094951  0.24933763  1
  Fe  Fe37  1  -0.00011801  0.00005705  -0.00028595  1
  Fe  Fe38  1  0.62829915  0.12550712  0.87747626  1
  Fe  Fe39  1  0.75158761  -0.00361620  -0.00206928  1
  Fe  Fe40  1  0.36838663  0.62553165  0.12192990  1
  Fe  Fe41  1  0.62690342  0.63263510  0.87784516  1
  Fe  Fe42  1  0.25034855  0.00083700  0.74941204  1
  Fe  Fe43  1  -0.00076440  0.49975270  0.49955937  1
  Fe  Fe44  1  0.37681238  0.87690305  0.37151947  1
  Fe  Fe45  1  0.49898314  0.24893375  0.50157732  1
  Fe  Fe46  1  0.87507426  0.87192882  0.87429903  1
  Fe  Fe47  1  0.75104285  -0.00506668  0.49708533  1
  Fe  Fe48  1  0.87323658  0.62481674  0.37665006  1
  Fe  Fe49  1  0.37563496  0.37586123  0.12502649  1
  Fe  Fe50  1  0.50332202  0.50394273  0.75199886  1
  Fe  Fe51  1  -0.00392076  0.24865429  0.74564723  1
  Fe  Fe52  1  0.75034559  0.25376878  0.74828900  1
  Fe  Fe53  1  0.50048812  0.24768124  0.74798215  1
  Fe  Fe54  1  0.24663441  0.49888405  0.75423723  1
  Fe  Fe55  1  0.75200700  0.25492076  0.50458984  1
  Fe  Fe56  1  0.87786314  0.61927840  0.12442087  1
  Fe  Fe57  1  0.62277403  0.37371131  0.87614196  1
  Fe  Fe58  1  0.50164063  0.24746754  0.00334881  1
  Fe  Fe59  1  0.62817171  0.62491151  0.62396211  1
  Fe  Fe60  1  0.24860002  0.25380180  0.00011780  1
  Fe  Fe61  1  0.87415968  0.62374510  0.87451811  1
  Fe  Fe62  1  0.12436430  0.37331353  0.37519432  1
  Fe  Fe63  1  0.87062315  0.62085392  0.62566631  1
  Fe  Fe64  1  0.37870275  0.87267102  0.87459445  1
  Fe  Fe65  1  -0.00246867  0.00107114  0.74968013  1
  Fe  Fe66  1  0.49973979  0.50202357  0.00020629  1
  Fe  Fe67  1  0.12262727  0.87356057  0.87302782  1
  Fe  Fe68  1  0.25323316  0.24924478  0.50225996  1
  Fe  Fe69  1  0.62716896  0.62428056  0.12440393  1
  Fe  Fe70  1  0.49981316  0.74785238  0.24863506  1
  Fe  Fe71  1  0.24869476  -0.00172782  -0.00039122  1
  Fe  Fe72  1  0.12717229  0.62611537  0.62468222  1
  Fe  Fe73  1  0.12496366  0.12765779  0.87427704  1
  Fe  Fe74  1  0.87312413  0.12587981  0.87504661  1
  Fe  Fe75  1  0.37715308  0.37512247  0.37289908  1
  Fe  Fe76  1  0.00084429  0.74614078  0.25074853  1
  Fe  Fe77  1  0.37331533  0.12597158  0.87516759  1
  Fe  Fe78  1  0.12346512  0.37367511  0.62539733  1
  Fe  Fe79  1  0.87131294  0.12529103  0.12313180  1
  Fe  Fe80  1  0.50141822  0.50197219  0.24925312  1
  Fe  Fe81  1  0.87246244  0.12698156  0.37595358  1
  Fe  Fe82  1  0.24985552  0.00007730  0.49967864  1
  Fe  Fe83  1  0.74903132  -0.00600353  0.75016322  1
  Fe  Fe84  1  0.12557104  0.12573953  0.12338482  1
  Fe  Fe85  1  -0.00338804  0.00177527  0.49998364  1
  Fe  Fe86  1  -0.00151864  0.25063948  0.24860088  1
  Fe  Fe87  1  0.25016222  0.24861620  0.24926298  1
  Fe  Fe88  1  -0.00074446  0.74839066  0.00056148  1
  Fe  Fe89  1  0.50226115  0.50079197  0.49921959  1
  Co  Co90  1  0.62619444  0.62680269  0.37504486  1
  Co  Co91  1  0.63181787  0.12184303  0.11997966  1
  Co  Co92  1  0.87515648  0.37941864  0.12607703  1
  Co  Co93  1  0.24580612  0.49550736  -0.00320569  1
  Co  Co94  1  0.62209547  0.37634919  0.62532149  1
  Co  Co95  1  0.24651953  0.00100546  0.25143335  1
  Co  Co96  1  0.62911420  0.12708628  0.37806730  1
  Co  Co97  1  0.74508815  0.49845812  0.75383602  1
  Co  Co98  1  0.62415439  0.86986616  0.87922643  1
  Co  Co99  1  0.74832396  0.49619266  0.49718320  1
  Co  Co100  1  0.62395321  0.37778712  0.12426852  1
  Co  Co101  1  -0.00396192  0.25085270  0.50233692  1
  Co  Co102  1  0.62225221  0.87464524  0.62360008  1
  Co  Co103  1  0.75371485  0.75008586  0.00419089  1
  Co  Co104  1  0.74969170  0.75295449  0.74840338  1
  Co  Co105  1  0.24967759  0.75490244  -0.00136700  1
  Co  Co106  1  0.62303816  0.87338097  0.37050006  1
  Co  Co107  1  0.00423046  0.50425837  0.74975882  1
  Co  Co108  1  0.12133826  0.36979872  0.87085932  1
  Co  Co109  1  0.12667728  0.62563306  0.12276596  1
  Co  Co110  1  0.87916675  0.87304581  0.37370402  1
  Co  Co111  1  0.49832809  0.75068123  0.00581596  1
  Co  Co112  1  0.50325429  0.00578902  0.24811613  1
  Co  Co113  1  0.87613857  0.38258649  0.62801145  1
  Co  Co114  1  0.24890613  0.74908536  0.25415307  1
  Co  Co115  1  0.87823170  0.87432779  0.62441204  1
  Co  Co116  1  0.87078620  0.12185946  0.62505154  1
  Co  Co117  1  0.37740155  0.12119223  0.62518009  1
  Co  Co118  1  0.00116629  0.50059786  0.25318068  1
  Co  Co119  1  0.00489329  0.49841335  -0.00151493  1
  Co  Co120  1  -0.00135715  0.74563459  0.50151185  1
  Co  Co121  1  0.75137247  -0.00016259  0.25282709  1
  Co  Co122  1  0.37132616  0.12429459  0.12410918  1
  Co  Co123  1  0.12353067  0.37632825  0.12860477  1
  Co  Co124  1  0.50155623  0.74801881  0.74844072  1
  Co  Co125  1  0.12584537  0.62906653  0.87789523  1
  Co  Co126  1  0.25191407  0.24902530  0.74686940  1
  Co  Co127  1  0.75174037  0.25557124  -0.00060682  1
