# generated using pymatgen
data_Fe45Co19
_symmetry_space_group_name_H-M   'P 1'
_cell_length_a   11.41473521
_cell_length_b   11.41612973
_cell_length_c   11.41577680
_cell_angle_alpha   90.00702674
_cell_angle_beta   89.99024915
_cell_angle_gamma   90.00150928
_symmetry_Int_Tables_number   1
_chemical_formula_structural   Fe45Co19
_chemical_formula_sum   'Fe90 Co38'
_cell_volume   1487.61379157
_cell_formula_units_Z   2
loop_
 _symmetry_equiv_pos_site_id
 _symmetry_equiv_pos_as_xyz
  1  'x, y, z'
loop_
 _atom_site_type_symbol
 _atom_site_label
 _atom_site_symmetry_multiplicity
 _atom_site_fract_x
 _atom_site_fract_y
 _atom_site_fract_z
 _atom_site_occupancy
  Fe  Fe0  1  0.24970271  0.25451479  0.75064277  1
  Fe  Fe1  1  0.25478463  -0.00069415  0.49640452  1
  Fe  Fe2  1  0.37443838  0.87280549  0.87814056  1
  Fe  Fe3  1  0.87250818  0.62532819  0.37345529  1
  Fe  Fe4  1  0.50064836  0.74918142  0.50136980  1
  Fe  Fe5  1  0.37755462  0.87571250  0.62426448  1
  Fe  Fe6  1  0.87579104  0.37265328  0.87688691  1
  Fe  Fe7  1  0.25157693  -0.00092309  0.75145123  1
  Fe  Fe8  1  0.37556026  0.12694086  0.62610871  1
  Fe  Fe9  1  0.87359390  0.12668923  0.12692535  1
  Fe  Fe10  1  0.00281100  0.24841544  0.24952263  1
  Fe  Fe11  1  0.24920810  -0.00126747  -0.00030187  1
  Fe  Fe12  1  0.12942076  0.62584987  0.37774332  1
  Fe  Fe13  1  -0.00013455  0.24780094  0.49837671  1
  Fe  Fe14  1  0.12664626  0.62460624  0.12545236  1
  Fe  Fe15  1  0.00079742  0.50147372  0.50054889  1
  Fe  Fe16  1  0.25009198  0.25204522  0.00118233  1
  Fe  Fe17  1  0.74814570  0.25086185  0.75039997  1
  Fe  Fe18  1  0.49902510  0.74937596  0.24825333  1
  Fe  Fe19  1  0.25239174  0.49581433  0.74704006  1
  Fe  Fe20  1  0.87619429  0.37504742  0.62459233  1
  Fe  Fe21  1  0.00096928  0.00289007  0.49722998  1
  Fe  Fe22  1  0.49749965  0.50032870  0.75145153  1
  Fe  Fe23  1  0.00062027  0.74767619  0.25009884  1
  Fe  Fe24  1  0.75066965  0.00052074  0.49840578  1
  Fe  Fe25  1  0.87461913  0.37273593  0.37231649  1
  Fe  Fe26  1  0.49985787  0.00174055  0.75159513  1
  Fe  Fe27  1  0.12718544  0.87207495  0.37487289  1
  Fe  Fe28  1  0.62287157  0.87725910  0.12604770  1
  Fe  Fe29  1  0.13066715  0.12497782  0.37093940  1
  Fe  Fe30  1  0.62893890  0.62300217  0.12465807  1
  Fe  Fe31  1  0.74960895  0.49872537  0.49946103  1
  Fe  Fe32  1  0.37688751  0.37337821  0.37438282  1
  Fe  Fe33  1  -0.00111723  0.74780354  0.50332698  1
  Fe  Fe34  1  0.74900068  0.49822462  0.75241661  1
  Fe  Fe35  1  0.62281810  0.37560895  0.62404083  1
  Fe  Fe36  1  0.62509278  0.12633383  0.87716694  1
  Fe  Fe37  1  0.37210678  0.62784559  0.12220903  1
  Fe  Fe38  1  0.49963361  0.74774769  0.75183281  1
  Fe  Fe39  1  0.25042981  0.25197957  0.49987799  1
  Fe  Fe40  1  0.49928997  0.50425334  -0.00313203  1
  Fe  Fe41  1  0.12555597  0.37636288  0.37573210  1
  Fe  Fe42  1  0.62711106  0.62449834  0.37377716  1
  Fe  Fe43  1  0.37122303  0.12329392  0.12933001  1
  Fe  Fe44  1  0.75240846  -0.00211849  -0.00133226  1
  Fe  Fe45  1  0.12768440  0.62457591  0.87247342  1
  Fe  Fe46  1  0.12571498  0.12455273  0.87578138  1
  Fe  Fe47  1  0.37766094  0.37663709  0.12398385  1
  Fe  Fe48  1  -0.00127573  0.50183426  0.24885219  1
  Fe  Fe49  1  0.12627629  0.12458464  0.62565800  1
  Fe  Fe50  1  -0.00094458  0.49999973  0.75076122  1
  Fe  Fe51  1  0.49839496  0.50297822  0.25124235  1
  Fe  Fe52  1  0.25052356  0.49917567  -0.00180433  1
  Fe  Fe53  1  0.25052988  0.49965084  0.25057912  1
  Fe  Fe54  1  0.62130538  0.87633119  0.37512069  1
  Fe  Fe55  1  0.37564027  0.12860932  0.87463342  1
  Fe  Fe56  1  0.62365901  0.12280945  0.37224922  1
  Fe  Fe57  1  0.12783582  0.87489579  0.12559051  1
  Fe  Fe58  1  0.86904731  0.62907355  0.87630028  1
  Fe  Fe59  1  0.75067308  -0.00152458  0.25098170  1
  Fe  Fe60  1  0.00275096  0.24855804  0.00050814  1
  Fe  Fe61  1  -0.00043238  -0.00037094  -0.00135843  1
  Fe  Fe62  1  0.49868896  0.50088159  0.49941186  1
  Fe  Fe63  1  0.74684985  0.25280282  0.00509030  1
  Fe  Fe64  1  0.87499664  0.12423844  0.62470983  1
  Fe  Fe65  1  0.37082289  0.62807737  0.37893807  1
  Fe  Fe66  1  0.50462657  0.24949650  0.24554210  1
  Fe  Fe67  1  0.75098006  0.75019509  0.50238559  1
  Fe  Fe68  1  0.50192105  0.74769776  -0.00132595  1
  Fe  Fe69  1  0.75332408  -0.00066943  0.75259525  1
  Fe  Fe70  1  0.62508220  0.12277219  0.62587336  1
  Fe  Fe71  1  0.00202470  0.00109603  0.24988796  1
  Fe  Fe72  1  -0.00340138  0.00090690  0.75403938  1
  Fe  Fe73  1  0.12315876  0.37710399  0.12370465  1
  Fe  Fe74  1  0.49840735  0.00193587  0.00063576  1
  Fe  Fe75  1  0.62509804  0.62385179  0.62702733  1
  Fe  Fe76  1  0.50189198  0.24791871  0.50026401  1
  Fe  Fe77  1  0.00154941  0.24974304  0.75103218  1
  Fe  Fe78  1  0.61954172  0.37392607  0.87904197  1
  Fe  Fe79  1  0.25068526  0.75116934  0.74876070  1
  Fe  Fe80  1  0.74938115  0.24985658  0.49777464  1
  Fe  Fe81  1  -0.00305904  0.75004479  0.74701984  1
  Fe  Fe82  1  0.87643463  0.87447504  0.37563219  1
  Fe  Fe83  1  0.75151873  0.49636414  0.24623690  1
  Fe  Fe84  1  0.87501453  0.87163919  0.12577070  1
  Fe  Fe85  1  0.12297124  0.87749567  0.62596345  1
  Fe  Fe86  1  -0.00394009  0.50227852  0.00040438  1
  Fe  Fe87  1  0.00246646  0.74938514  -0.00029744  1
  Fe  Fe88  1  0.62426981  0.87742788  0.62527722  1
  Fe  Fe89  1  0.62643054  0.87347742  0.87373462  1
  Co  Co90  1  0.87184239  0.62905710  0.12492721  1
  Co  Co91  1  0.25149778  0.75034081  0.24840173  1
  Co  Co92  1  0.12145893  0.37495415  0.62404021  1
  Co  Co93  1  0.37789964  0.87052032  0.37543905  1
  Co  Co94  1  0.74555530  0.75216956  0.00258412  1
  Co  Co95  1  0.87433055  0.86984746  0.87647136  1
  Co  Co96  1  0.12668133  0.62377979  0.62611368  1
  Co  Co97  1  0.25290947  -0.00553800  0.25280201  1
  Co  Co98  1  0.62776783  0.11911520  0.12536098  1
  Co  Co99  1  0.87361267  0.12567153  0.37103746  1
  Co  Co100  1  0.50171824  0.24869012  0.74934949  1
  Co  Co101  1  0.24840322  0.25544952  0.24737759  1
  Co  Co102  1  0.37480918  0.62518339  0.62377856  1
  Co  Co103  1  0.12414773  0.37656481  0.87693042  1
  Co  Co104  1  0.12448761  0.87509120  0.87280954  1
  Co  Co105  1  0.87875485  0.37119934  0.12611080  1
  Co  Co106  1  0.74800909  0.75248799  0.25135061  1
  Co  Co107  1  0.37487347  0.87305455  0.12099225  1
  Co  Co108  1  0.49547919  -0.00122667  0.25003460  1
  Co  Co109  1  0.87317017  0.62068807  0.62518489  1
  Co  Co110  1  0.24662403  0.75001460  -0.00098368  1
  Co  Co111  1  0.62895278  0.62548592  0.87395303  1
  Co  Co112  1  0.37886657  0.37289975  0.87742040  1
  Co  Co113  1  0.24937268  0.75376583  0.50445051  1
  Co  Co114  1  0.87631356  0.87984161  0.62273305  1
  Co  Co115  1  0.75119519  0.75147954  0.74484828  1
  Co  Co116  1  0.62307082  0.37688585  0.37403748  1
  Co  Co117  1  0.75264955  0.49691443  0.00070828  1
  Co  Co118  1  0.37525486  0.12993560  0.37053774  1
  Co  Co119  1  0.49606119  0.00264680  0.49965140  1
  Co  Co120  1  0.37130052  0.62564792  0.87430495  1
  Co  Co121  1  0.87373286  0.12891781  0.87788257  1
  Co  Co122  1  0.25066627  0.49653279  0.50253044  1
  Co  Co123  1  0.49959214  0.24488479  0.00549897  1
  Co  Co124  1  0.37911685  0.37317301  0.62327986  1
  Co  Co125  1  0.74490602  0.25232736  0.24808041  1
  Co  Co126  1  0.12755613  0.12333651  0.12541669  1
  Co  Co127  1  0.61987383  0.38087463  0.12270394  1
