# generated using pymatgen
data_Fe45Co19
_symmetry_space_group_name_H-M   'P 1'
_cell_length_a   11.41693624
_cell_length_b   11.41714907
_cell_length_c   11.41562435
_cell_angle_alpha   90.00016037
_cell_angle_beta   90.00186973
_cell_angle_gamma   89.99913683
_symmetry_Int_Tables_number   1
_chemical_formula_structural   Fe45Co19
_chemical_formula_sum   'Fe90 Co38'
_cell_volume   1488.01365282
_cell_formula_units_Z   2
loop_
 _symmetry_equiv_pos_site_id
 _symmetry_equiv_pos_as_xyz
  1  'x, y, z'
loop_
 _atom_site_type_symbol
 _atom_site_label
 _atom_site_symmetry_multiplicity
 _atom_site_fract_x
 _atom_site_fract_y
 _atom_site_fract_z
 _atom_site_occupancy
  Fe  Fe0  1  0.37524566  0.37865661  0.37703913  1
  Fe  Fe1  1  0.50210735  -0.00207891  0.00187892  1
  Fe  Fe2  1  -0.00107999  0.25078160  0.50167661  1
  Fe  Fe3  1  0.37517370  0.62417950  0.12158377  1
  Fe  Fe4  1  0.24916766  -0.00064026  0.25163544  1
  Fe  Fe5  1  0.49951438  0.74975233  0.50399116  1
  Fe  Fe6  1  0.87587767  0.37261672  0.87302072  1
  Fe  Fe7  1  0.12771098  0.37556766  0.62418703  1
  Fe  Fe8  1  0.49799453  0.24913762  0.74826954  1
  Fe  Fe9  1  0.62545173  0.87267502  0.12683983  1
  Fe  Fe10  1  0.74813384  -0.00185961  0.25219906  1
  Fe  Fe11  1  0.87336914  0.87648733  0.87348913  1
  Fe  Fe12  1  0.25160261  0.24789186  0.74998525  1
  Fe  Fe13  1  0.75198325  0.75052282  0.49915570  1
  Fe  Fe14  1  0.74884819  0.49901437  -0.00129948  1
  Fe  Fe15  1  0.25269382  0.24913008  0.25127101  1
  Fe  Fe16  1  0.00121471  0.49930505  0.74821440  1
  Fe  Fe17  1  0.24652319  0.50212472  0.25059109  1
  Fe  Fe18  1  0.00166644  0.49993795  -0.00026174  1
  Fe  Fe19  1  0.87250102  0.62437309  0.62587574  1
  Fe  Fe20  1  0.37792729  0.87843336  0.37905514  1
  Fe  Fe21  1  0.87291086  0.87764735  0.62565422  1
  Fe  Fe22  1  0.00000508  -0.00056170  0.00147227  1
  Fe  Fe23  1  0.12645041  0.37158112  0.12249540  1
  Fe  Fe24  1  0.62413464  0.37428891  0.87416752  1
  Fe  Fe25  1  0.25321683  0.75009777  0.74776439  1
  Fe  Fe26  1  0.87461646  0.62455705  0.87390917  1
  Fe  Fe27  1  0.62349000  0.12475622  0.87428229  1
  Fe  Fe28  1  0.62313602  0.12714290  0.12975000  1
  Fe  Fe29  1  0.62794062  0.87397582  0.62623023  1
  Fe  Fe30  1  0.87219453  0.37221094  0.62752828  1
  Fe  Fe31  1  0.74845723  -0.00089413  -0.00051416  1
  Fe  Fe32  1  0.49857984  0.25157604  0.00136100  1
  Fe  Fe33  1  0.87537632  0.37712089  0.12566116  1
  Fe  Fe34  1  0.12480031  0.87340893  0.87485204  1
  Fe  Fe35  1  0.62486703  0.37387646  0.12798586  1
  Fe  Fe36  1  0.37498853  0.37725393  0.87626348  1
  Fe  Fe37  1  0.37478368  0.37810951  0.62233514  1
  Fe  Fe38  1  0.37566709  0.12331231  0.12756740  1
  Fe  Fe39  1  0.50046370  -0.00121239  0.74717699  1
  Fe  Fe40  1  0.25025936  0.74970388  0.50212826  1
  Fe  Fe41  1  0.75026088  0.75248667  -0.00135912  1
  Fe  Fe42  1  0.12113337  0.37697106  0.37573276  1
  Fe  Fe43  1  0.11975148  0.62433543  0.37968789  1
  Fe  Fe44  1  0.12134908  0.87278134  0.37435638  1
  Fe  Fe45  1  0.87300724  0.12754122  0.37515117  1
  Fe  Fe46  1  0.62422935  0.62606068  0.37679438  1
  Fe  Fe47  1  0.12414150  0.12837890  0.87756384  1
  Fe  Fe48  1  0.12746067  0.12363453  0.62402771  1
  Fe  Fe49  1  0.37543291  0.87428493  0.12459386  1
  Fe  Fe50  1  -0.00151500  0.24888325  0.24734391  1
  Fe  Fe51  1  0.50004907  0.74939963  0.74698525  1
  Fe  Fe52  1  0.37626971  0.12308638  0.87534335  1
  Fe  Fe53  1  0.62536409  0.37479799  0.62481921  1
  Fe  Fe54  1  0.75002489  0.24927874  0.00026284  1
  Fe  Fe55  1  0.24943636  0.50163423  0.74990492  1
  Fe  Fe56  1  0.12144241  0.87345121  0.12696679  1
  Fe  Fe57  1  0.87259087  0.12629634  0.62572894  1
  Fe  Fe58  1  0.37661286  0.87503987  0.87527703  1
  Fe  Fe59  1  0.25136705  0.24928637  0.49775118  1
  Fe  Fe60  1  0.37624771  0.62295136  0.37875085  1
  Fe  Fe61  1  0.62748660  0.12639991  0.62613361  1
  Fe  Fe62  1  0.12443207  0.62789927  0.87546480  1
  Fe  Fe63  1  0.37590478  0.62455382  0.87844974  1
  Fe  Fe64  1  0.88046027  0.62212455  0.37683674  1
  Fe  Fe65  1  0.12691399  0.87613476  0.62593303  1
  Fe  Fe66  1  0.00037812  0.00002155  0.49911191  1
  Fe  Fe67  1  0.74993502  0.49589679  0.49748333  1
  Fe  Fe68  1  0.49883102  0.75014620  0.25035269  1
  Fe  Fe69  1  0.00072267  0.00195151  0.74931200  1
  Fe  Fe70  1  0.50091910  0.24772390  0.49626120  1
  Fe  Fe71  1  0.24862613  -0.00022159  0.00040337  1
  Fe  Fe72  1  0.37358120  0.37873040  0.12300724  1
  Fe  Fe73  1  0.87468764  0.12195567  0.12637550  1
  Fe  Fe74  1  0.62555495  0.62628188  0.87467182  1
  Fe  Fe75  1  0.75276737  0.74924549  0.25138498  1
  Fe  Fe76  1  0.50093332  0.49983518  0.25110378  1
  Fe  Fe77  1  0.87584842  0.12725852  0.87282255  1
  Fe  Fe78  1  0.74581255  0.00152404  0.49677961  1
  Fe  Fe79  1  0.50194365  0.50281906  0.74755064  1
  Fe  Fe80  1  0.62489948  0.62561643  0.12500104  1
  Fe  Fe81  1  0.12457483  0.12571566  0.37356372  1
  Fe  Fe82  1  0.25044820  0.74903259  0.25199584  1
  Fe  Fe83  1  0.37242367  0.11922400  0.62050547  1
  Fe  Fe84  1  0.87700930  0.87486589  0.37383821  1
  Fe  Fe85  1  -0.00173009  0.75045599  0.74755911  1
  Fe  Fe86  1  0.75108762  0.49954319  0.25297694  1
  Fe  Fe87  1  0.87607629  0.62570027  0.12329137  1
  Fe  Fe88  1  0.12363706  0.62917315  0.12234758  1
  Fe  Fe89  1  0.12524797  0.37073251  0.87729383  1
  Co  Co90  1  0.62420550  0.87568406  0.87249838  1
  Co  Co91  1  0.00238054  0.50113507  0.24597398  1
  Co  Co92  1  -0.00047655  0.00139503  0.25194286  1
  Co  Co93  1  0.62463174  0.37165627  0.37140121  1
  Co  Co94  1  0.12592210  0.12573657  0.12519959  1
  Co  Co95  1  -0.00387766  0.24914459  0.00350622  1
  Co  Co96  1  0.00236754  0.24950564  0.74658194  1
  Co  Co97  1  0.25068650  0.75163339  0.00048644  1
  Co  Co98  1  0.75023611  0.75015600  0.75117536  1
  Co  Co99  1  0.49347057  0.25252269  0.25130396  1
  Co  Co100  1  0.37423731  0.62122485  0.62294356  1
  Co  Co101  1  -0.00143667  0.75229979  0.50357682  1
  Co  Co102  1  0.50195145  -0.00307982  0.25185348  1
  Co  Co103  1  0.12537838  0.62553114  0.62389986  1
  Co  Co104  1  0.62917626  0.62530923  0.62244125  1
  Co  Co105  1  0.74847005  0.49902355  0.75041341  1
  Co  Co106  1  0.62504061  0.12976033  0.36800709  1
  Co  Co107  1  0.50423423  0.49919730  0.49953875  1
  Co  Co108  1  -0.00323534  0.75194110  -0.00088213  1
  Co  Co109  1  0.50189047  0.75076619  0.00024094  1
  Co  Co110  1  0.24665837  0.50144684  -0.00068366  1
  Co  Co111  1  0.24806903  0.50144451  0.49877334  1
  Co  Co112  1  0.87533131  0.87548702  0.12676599  1
  Co  Co113  1  0.74793231  0.24953734  0.75221622  1
  Co  Co114  1  0.37343564  0.88034277  0.62288816  1
  Co  Co115  1  0.24910594  0.00131263  0.75363073  1
  Co  Co116  1  0.24561587  -0.00157234  0.49590328  1
  Co  Co117  1  0.62408114  0.87040761  0.37514780  1
  Co  Co118  1  0.75438800  0.25225241  0.24914497  1
  Co  Co119  1  -0.00251366  0.49718064  0.50615026  1
  Co  Co120  1  0.25501691  0.24811008  -0.00010603  1
  Co  Co121  1  0.74988793  0.00182640  0.75096681  1
  Co  Co122  1  0.74857484  0.25211795  0.49841425  1
  Co  Co123  1  -0.00205398  0.74800082  0.25002325  1
  Co  Co124  1  0.87958981  0.37507243  0.37299641  1
  Co  Co125  1  0.37659406  0.11965307  0.37586045  1
  Co  Co126  1  0.50797474  0.00209989  0.49934805  1
  Co  Co127  1  0.50302321  0.49985555  0.00049353  1
