# generated using pymatgen
data_Fe45Co19
_symmetry_space_group_name_H-M   'P 1'
_cell_length_a   11.41473599
_cell_length_b   11.41462068
_cell_length_c   11.41528728
_cell_angle_alpha   90.01310037
_cell_angle_beta   89.99486284
_cell_angle_gamma   90.00206255
_symmetry_Int_Tables_number   1
_chemical_formula_structural   Fe45Co19
_chemical_formula_sum   'Fe90 Co38'
_cell_volume   1487.35345711
_cell_formula_units_Z   2
loop_
 _symmetry_equiv_pos_site_id
 _symmetry_equiv_pos_as_xyz
  1  'x, y, z'
loop_
 _atom_site_type_symbol
 _atom_site_label
 _atom_site_symmetry_multiplicity
 _atom_site_fract_x
 _atom_site_fract_y
 _atom_site_fract_z
 _atom_site_occupancy
  Fe  Fe0  1  0.00119860  0.00044021  0.50013237  1
  Fe  Fe1  1  -0.00382327  0.00356115  -0.00042204  1
  Fe  Fe2  1  0.25151061  0.25093193  0.24835392  1
  Fe  Fe3  1  0.12299308  0.62687850  0.87379321  1
  Fe  Fe4  1  0.37677847  0.87370824  0.12255863  1
  Fe  Fe5  1  0.74708933  0.49563696  0.74846556  1
  Fe  Fe6  1  0.62551034  0.12463638  0.37677212  1
  Fe  Fe7  1  -0.00068787  0.25067264  0.75259948  1
  Fe  Fe8  1  0.75021349  0.50002407  0.00206793  1
  Fe  Fe9  1  0.50098569  0.00135355  -0.00214320  1
  Fe  Fe10  1  0.87751101  0.37588394  0.12539280  1
  Fe  Fe11  1  0.00183436  0.49861369  0.75178282  1
  Fe  Fe12  1  0.87581291  0.87783905  0.37338869  1
  Fe  Fe13  1  -0.00082536  0.74857726  0.49922958  1
  Fe  Fe14  1  0.50117686  0.75023800  0.24917283  1
  Fe  Fe15  1  0.25092655  0.50087452  0.50103810  1
  Fe  Fe16  1  0.75062790  0.74988694  0.24967010  1
  Fe  Fe17  1  0.37722888  0.62976339  0.87625539  1
  Fe  Fe18  1  0.87408834  0.62066362  0.36858884  1
  Fe  Fe19  1  0.62514538  0.62370929  0.87427164  1
  Fe  Fe20  1  -0.00053507  -0.00047261  0.75002762  1
  Fe  Fe21  1  0.12586079  0.87150038  0.62537753  1
  Fe  Fe22  1  0.12432226  0.12637034  0.12275064  1
  Fe  Fe23  1  0.12406480  0.37319241  0.12133266  1
  Fe  Fe24  1  0.62516206  0.12612900  0.12425800  1
  Fe  Fe25  1  0.25041181  0.50260802  0.75134253  1
  Fe  Fe26  1  -0.00053744  0.24803386  0.24922007  1
  Fe  Fe27  1  0.12353116  0.87367922  0.87499730  1
  Fe  Fe28  1  0.87176566  0.12493518  0.62770730  1
  Fe  Fe29  1  0.12720129  0.12517645  0.37625015  1
  Fe  Fe30  1  0.62591657  0.87476758  0.87421647  1
  Fe  Fe31  1  0.37440843  0.37412457  0.37393430  1
  Fe  Fe32  1  0.37374036  0.87429313  0.37578130  1
  Fe  Fe33  1  0.50047638  0.74855177  0.50090852  1
  Fe  Fe34  1  0.50123407  0.00025824  0.25116902  1
  Fe  Fe35  1  0.24886261  -0.00099856  0.24878730  1
  Fe  Fe36  1  0.74891334  -0.00043133  0.50134413  1
  Fe  Fe37  1  0.25203810  -0.00034729  -0.00161370  1
  Fe  Fe38  1  0.87390947  0.12307058  0.37292525  1
  Fe  Fe39  1  0.50058948  0.50002019  0.25053328  1
  Fe  Fe40  1  0.25025812  0.00023075  0.50269446  1
  Fe  Fe41  1  0.87613974  0.37528538  0.62491691  1
  Fe  Fe42  1  0.62240272  0.62121346  0.62440687  1
  Fe  Fe43  1  0.75008923  0.25181535  0.50311778  1
  Fe  Fe44  1  0.87326119  0.37460841  0.87615017  1
  Fe  Fe45  1  0.50106916  -0.00008379  0.50322493  1
  Fe  Fe46  1  0.37522280  0.62710380  0.12365366  1
  Fe  Fe47  1  0.87385254  0.87478636  0.62655109  1
  Fe  Fe48  1  0.37441069  0.62694728  0.37287226  1
  Fe  Fe49  1  0.25026288  0.50046991  -0.00013729  1
  Fe  Fe50  1  0.61965901  0.37216600  0.12226238  1
  Fe  Fe51  1  0.25112530  0.24921339  0.75006131  1
  Fe  Fe52  1  0.87721943  0.62386274  0.62904576  1
  Fe  Fe53  1  0.50247550  0.00094169  0.74804580  1
  Fe  Fe54  1  0.12555868  0.37371181  0.37614393  1
  Fe  Fe55  1  0.37704556  0.37520373  0.62532579  1
  Fe  Fe56  1  0.12187902  0.62670350  0.12497372  1
  Fe  Fe57  1  0.12198331  0.87475771  0.12382772  1
  Fe  Fe58  1  0.87478360  0.87914093  0.12698359  1
  Fe  Fe59  1  0.24771098  0.75217581  0.24864716  1
  Fe  Fe60  1  -0.00040333  0.50027295  -0.00167541  1
  Fe  Fe61  1  0.62605460  0.37994196  0.37936794  1
  Fe  Fe62  1  0.37850442  0.12694006  0.12511014  1
  Fe  Fe63  1  0.75285758  0.74967606  -0.00102205  1
  Fe  Fe64  1  0.12490842  0.62633691  0.37475050  1
  Fe  Fe65  1  0.50368463  0.25151297  0.75006565  1
  Fe  Fe66  1  0.12668098  0.12581741  0.87518692  1
  Fe  Fe67  1  -0.00053721  0.24926318  0.50003105  1
  Fe  Fe68  1  0.12567681  0.37513588  0.62574631  1
  Fe  Fe69  1  0.62509200  0.87303853  0.37690700  1
  Fe  Fe70  1  0.49936980  0.50079093  -0.00082549  1
  Fe  Fe71  1  0.37407831  0.87370740  0.62762635  1
  Fe  Fe72  1  0.86964408  0.12612408  0.87393326  1
  Fe  Fe73  1  0.37397589  0.12527715  0.37605286  1
  Fe  Fe74  1  0.87367276  0.37740385  0.37329877  1
  Fe  Fe75  1  0.75061057  0.74580135  0.49974862  1
  Fe  Fe76  1  0.74975236  0.75080466  0.75055893  1
  Fe  Fe77  1  0.37598835  0.37411487  0.87643026  1
  Fe  Fe78  1  -0.00032071  0.49997928  0.49929956  1
  Fe  Fe79  1  0.62558035  0.87605431  0.12463618  1
  Fe  Fe80  1  0.24920072  0.49889954  0.24725863  1
  Fe  Fe81  1  0.74823815  0.25125539  0.24877378  1
  Fe  Fe82  1  -0.00619268  0.74785541  -0.00151258  1
  Fe  Fe83  1  0.12663211  0.12649020  0.62611387  1
  Fe  Fe84  1  0.62965830  0.12765616  0.87433349  1
  Fe  Fe85  1  0.37559735  0.87271224  0.87397416  1
  Fe  Fe86  1  0.49961365  0.24928356  0.50105837  1
  Fe  Fe87  1  0.25359712  0.24997718  -0.00115620  1
  Fe  Fe88  1  0.37627729  0.62567511  0.62699632  1
  Fe  Fe89  1  0.62524411  0.62639509  0.12516180  1
  Co  Co90  1  0.12290548  0.62425767  0.62531295  1
  Co  Co91  1  0.12695080  0.37369474  0.87546297  1
  Co  Co92  1  0.74988110  -0.00072633  -0.00053116  1
  Co  Co93  1  0.00394008  0.49757378  0.24990508  1
  Co  Co94  1  0.24888412  -0.00170837  0.75051412  1
  Co  Co95  1  0.50222652  0.75012707  0.74906333  1
  Co  Co96  1  0.37782572  0.37392592  0.12378416  1
  Co  Co97  1  0.24893752  0.74800095  0.75116224  1
  Co  Co98  1  0.24825863  0.75083183  -0.00019065  1
  Co  Co99  1  0.87318971  0.62166002  0.87202616  1
  Co  Co100  1  0.74610336  -0.00001759  0.25136967  1
  Co  Co101  1  0.62594040  0.62353696  0.37467431  1
  Co  Co102  1  0.75169242  0.25169216  0.00329797  1
  Co  Co103  1  0.49934019  0.49903696  0.75344840  1
  Co  Co104  1  0.62182543  0.37884190  0.62019544  1
  Co  Co105  1  0.74540636  0.49700144  0.24595604  1
  Co  Co106  1  0.87238594  0.12275949  0.12735983  1
  Co  Co107  1  0.74749748  0.25631582  0.74735999  1
  Co  Co108  1  0.50334566  0.75078283  -0.00024361  1
  Co  Co109  1  -0.00099905  0.75193349  0.25149917  1
  Co  Co110  1  0.25065332  0.74795958  0.50149751  1
  Co  Co111  1  0.75387172  0.50273188  0.50258952  1
  Co  Co112  1  0.25085753  0.25120143  0.50188531  1
  Co  Co113  1  0.37566151  0.12561057  0.62616878  1
  Co  Co114  1  0.62728178  0.87365272  0.62359400  1
  Co  Co115  1  0.62531627  0.37479279  0.87856958  1
  Co  Co116  1  0.49862797  0.24727551  -0.00414792  1
  Co  Co117  1  0.37491383  0.12406491  0.87203854  1
  Co  Co118  1  0.74908288  -0.00236668  0.74957940  1
  Co  Co119  1  0.87570644  0.62225981  0.12810219  1
  Co  Co120  1  0.12637205  0.87464839  0.37702145  1
  Co  Co121  1  0.87492887  0.87656977  0.87372729  1
  Co  Co122  1  -0.00280394  0.24822045  -0.00197815  1
  Co  Co123  1  0.50185192  0.25059350  0.25420996  1
  Co  Co124  1  0.00345903  0.00186822  0.25072497  1
  Co  Co125  1  0.62779659  0.12523343  0.62565517  1
  Co  Co126  1  -0.00061650  0.75109816  0.75066198  1
  Co  Co127  1  0.49572316  0.50226248  0.49745859  1
