# generated using pymatgen
data_Fe45Co19
_symmetry_space_group_name_H-M   'P 1'
_cell_length_a   11.41564699
_cell_length_b   11.41553882
_cell_length_c   11.41568479
_cell_angle_alpha   90.00604570
_cell_angle_beta   89.99144061
_cell_angle_gamma   89.99085990
_symmetry_Int_Tables_number   1
_chemical_formula_structural   Fe45Co19
_chemical_formula_sum   'Fe90 Co38'
_cell_volume   1487.64361137
_cell_formula_units_Z   2
loop_
 _symmetry_equiv_pos_site_id
 _symmetry_equiv_pos_as_xyz
  1  'x, y, z'
loop_
 _atom_site_type_symbol
 _atom_site_label
 _atom_site_symmetry_multiplicity
 _atom_site_fract_x
 _atom_site_fract_y
 _atom_site_fract_z
 _atom_site_occupancy
  Fe  Fe0  1  0.75143636  0.75353385  0.49897268  1
  Fe  Fe1  1  0.87710600  0.62805333  0.37421645  1
  Fe  Fe2  1  0.87449937  0.37514995  0.12449686  1
  Fe  Fe3  1  0.24913009  0.75062553  0.50078871  1
  Fe  Fe4  1  0.11576036  0.12329016  0.37378586  1
  Fe  Fe5  1  0.49763864  0.49675273  0.74634752  1
  Fe  Fe6  1  0.37391653  0.12384386  0.12560535  1
  Fe  Fe7  1  0.00008130  0.75066024  0.75155117  1
  Fe  Fe8  1  0.62614565  0.87623336  0.87322205  1
  Fe  Fe9  1  0.62404274  0.62452891  0.37738454  1
  Fe  Fe10  1  0.50012345  -0.00163754  0.50067489  1
  Fe  Fe11  1  0.49935545  0.75226532  0.74675564  1
  Fe  Fe12  1  0.12437678  0.37561082  0.87464789  1
  Fe  Fe13  1  0.37348635  0.87716442  0.87340298  1
  Fe  Fe14  1  0.24855456  0.50007844  0.50418705  1
  Fe  Fe15  1  0.49938981  0.00033541  -0.00041925  1
  Fe  Fe16  1  0.62816609  0.11721833  0.37372740  1
  Fe  Fe17  1  0.75421644  0.00149998  0.74863716  1
  Fe  Fe18  1  0.25026968  0.50047689  -0.00065870  1
  Fe  Fe19  1  -0.00056974  0.49888768  0.50227348  1
  Fe  Fe20  1  0.37750023  0.12464884  0.87337428  1
  Fe  Fe21  1  0.12351855  0.62502701  0.37572511  1
  Fe  Fe22  1  0.00147590  0.25077565  0.00193372  1
  Fe  Fe23  1  0.36792952  0.87727133  0.12703623  1
  Fe  Fe24  1  0.87207489  0.37199317  0.62247381  1
  Fe  Fe25  1  0.37653483  0.62483779  0.87310164  1
  Fe  Fe26  1  0.24883680  0.24844119  -0.00133547  1
  Fe  Fe27  1  0.49801306  0.75149029  0.25144253  1
  Fe  Fe28  1  0.74965709  0.50206588  0.00011091  1
  Fe  Fe29  1  0.62438588  0.87765652  0.12821781  1
  Fe  Fe30  1  0.74902607  0.24865751  -0.00093572  1
  Fe  Fe31  1  0.12318497  0.37451588  0.37542534  1
  Fe  Fe32  1  0.87590641  0.37517894  0.87704619  1
  Fe  Fe33  1  0.12341177  0.87696969  0.62699620  1
  Fe  Fe34  1  0.62631374  0.37559362  0.87436832  1
  Fe  Fe35  1  0.62378530  0.62641300  0.87480677  1
  Fe  Fe36  1  0.12321153  0.87695375  0.37197438  1
  Fe  Fe37  1  0.62497779  0.12267293  0.12673618  1
  Fe  Fe38  1  0.87640077  0.12416302  0.87719140  1
  Fe  Fe39  1  0.00365179  0.75034999  0.24424474  1
  Fe  Fe40  1  0.62745242  0.12154736  0.62522853  1
  Fe  Fe41  1  0.50131477  0.24992779  -0.00199000  1
  Fe  Fe42  1  0.49929499  0.49946920  0.25131555  1
  Fe  Fe43  1  -0.00154186  0.24985159  0.74870033  1
  Fe  Fe44  1  0.24725860  0.00124957  0.49813276  1
  Fe  Fe45  1  0.37656066  0.12516032  0.62352227  1
  Fe  Fe46  1  0.24975075  0.25023183  0.74879155  1
  Fe  Fe47  1  0.75250757  0.50325186  0.74972712  1
  Fe  Fe48  1  0.37196637  0.62685170  0.12602255  1
  Fe  Fe49  1  0.50188452  0.25146836  0.74928414  1
  Fe  Fe50  1  0.37535975  0.62355107  0.37879251  1
  Fe  Fe51  1  0.87437620  0.37154285  0.37705904  1
  Fe  Fe52  1  0.37678419  0.12550966  0.37716919  1
  Fe  Fe53  1  0.37435708  0.37382667  0.37762311  1
  Fe  Fe54  1  0.25189309  0.74956198  0.74693569  1
  Fe  Fe55  1  0.24753730  0.24828345  0.25146799  1
  Fe  Fe56  1  0.49934724  0.49891577  0.00104484  1
  Fe  Fe57  1  0.49883388  0.75185239  0.50133419  1
  Fe  Fe58  1  0.74772777  0.75153960  0.25125365  1
  Fe  Fe59  1  0.50662436  0.25339417  0.49979998  1
  Fe  Fe60  1  0.50180828  0.24945262  0.25250952  1
  Fe  Fe61  1  0.75073628  0.24757516  0.75082226  1
  Fe  Fe62  1  -0.00141884  0.50106123  0.74817578  1
  Fe  Fe63  1  0.62728008  0.87716309  0.62460879  1
  Fe  Fe64  1  0.00075505  0.50002414  0.24687515  1
  Fe  Fe65  1  0.24507013  0.24818223  0.50095610  1
  Fe  Fe66  1  0.00079320  0.50359281  0.00354086  1
  Fe  Fe67  1  0.25031364  0.00160150  0.74937776  1
  Fe  Fe68  1  0.00458165  -0.00619719  -0.00040090  1
  Fe  Fe69  1  0.12493743  0.62724744  0.87535527  1
  Fe  Fe70  1  0.87687083  0.12320052  0.12552094  1
  Fe  Fe71  1  0.62561365  0.62579862  0.12570778  1
  Fe  Fe72  1  0.24842017  0.49999205  0.25022669  1
  Fe  Fe73  1  0.75223764  0.50194888  0.25174017  1
  Fe  Fe74  1  0.62634701  0.37409781  0.12717592  1
  Fe  Fe75  1  0.62480984  0.62299119  0.62263319  1
  Fe  Fe76  1  0.75182326  0.24655298  0.25247994  1
  Fe  Fe77  1  0.87337858  0.87196823  0.87518343  1
  Fe  Fe78  1  0.87572789  0.62877294  0.62331077  1
  Fe  Fe79  1  0.00044321  0.75321808  0.50084242  1
  Fe  Fe80  1  0.87412194  0.62978768  0.87905227  1
  Fe  Fe81  1  0.12429515  0.12237109  0.12718100  1
  Fe  Fe82  1  0.25049880  0.49922322  0.74640554  1
  Fe  Fe83  1  0.49872718  0.75195279  0.00098124  1
  Fe  Fe84  1  0.74917297  -0.00001050  0.00007236  1
  Fe  Fe85  1  0.87324774  0.87249919  0.12442413  1
  Fe  Fe86  1  0.37361226  0.37266168  0.12483054  1
  Fe  Fe87  1  0.11883045  0.12187952  0.62491549  1
  Fe  Fe88  1  0.37488597  0.87692998  0.37567620  1
  Fe  Fe89  1  0.12255116  0.12361222  0.87340966  1
  Co  Co90  1  0.74597080  0.75070748  0.00073292  1
  Co  Co91  1  0.62792714  0.37833090  0.37352378  1
  Co  Co92  1  0.87869348  0.12660085  0.37708395  1
  Co  Co93  1  0.37595918  0.62485731  0.62313340  1
  Co  Co94  1  0.87267251  0.62781360  0.12511532  1
  Co  Co95  1  0.87745703  0.87180234  0.37092638  1
  Co  Co96  1  0.12743391  0.87313363  0.87137927  1
  Co  Co97  1  0.12396501  0.37427850  0.62650327  1
  Co  Co98  1  0.25108431  0.74869914  0.25599148  1
  Co  Co99  1  0.75344826  0.50216989  0.49891913  1
  Co  Co100  1  0.00318545  0.75281540  0.00276228  1
  Co  Co101  1  -0.00073646  0.25226258  0.24808985  1
  Co  Co102  1  0.13407260  0.87542524  0.12747331  1
  Co  Co103  1  -0.00617588  -0.00478371  0.50035976  1
  Co  Co104  1  0.12664804  0.37472819  0.12374855  1
  Co  Co105  1  0.24820252  0.00220310  -0.00378537  1
  Co  Co106  1  0.25137138  0.75008600  -0.00339915  1
  Co  Co107  1  -0.00342735  -0.00053009  0.75210447  1
  Co  Co108  1  0.75476968  -0.00120565  0.25177572  1
  Co  Co109  1  0.49905678  -0.00124160  0.74898767  1
  Co  Co110  1  0.63019455  0.37747050  0.62608393  1
  Co  Co111  1  0.74555450  0.24694033  0.49776219  1
  Co  Co112  1  0.62357677  0.87759474  0.37505903  1
  Co  Co113  1  0.37249101  0.87832306  0.62291356  1
  Co  Co114  1  0.87628114  0.12733518  0.62049416  1
  Co  Co115  1  0.50037954  0.49587146  0.50074661  1
  Co  Co116  1  0.12990637  0.62783131  0.12448531  1
  Co  Co117  1  0.37385842  0.37415301  0.87493965  1
  Co  Co118  1  0.74798169  0.74797802  0.74838289  1
  Co  Co119  1  0.62503691  0.12277501  0.87384474  1
  Co  Co120  1  0.25037061  0.00423151  0.25559860  1
  Co  Co121  1  0.12334644  0.62762563  0.62506639  1
  Co  Co122  1  0.49578980  -0.00024379  0.25008782  1
  Co  Co123  1  0.75722245  -0.00434979  0.49923142  1
  Co  Co124  1  0.00167112  0.25160737  0.50168557  1
  Co  Co125  1  0.87630008  0.87256714  0.62916647  1
  Co  Co126  1  0.37358270  0.37107056  0.62174707  1
  Co  Co127  1  -0.00180752  -0.00332043  0.24693924  1
