# generated using pymatgen
data_Fe45Co19
_symmetry_space_group_name_H-M   'P 1'
_cell_length_a   11.41673110
_cell_length_b   11.41564664
_cell_length_c   11.41593877
_cell_angle_alpha   89.98801729
_cell_angle_beta   89.99912136
_cell_angle_gamma   90.00554602
_symmetry_Int_Tables_number   1
_chemical_formula_structural   Fe45Co19
_chemical_formula_sum   'Fe90 Co38'
_cell_volume   1487.83204582
_cell_formula_units_Z   2
loop_
 _symmetry_equiv_pos_site_id
 _symmetry_equiv_pos_as_xyz
  1  'x, y, z'
loop_
 _atom_site_type_symbol
 _atom_site_label
 _atom_site_symmetry_multiplicity
 _atom_site_fract_x
 _atom_site_fract_y
 _atom_site_fract_z
 _atom_site_occupancy
  Fe  Fe0  1  0.87202942  0.86948877  0.37755753  1
  Fe  Fe1  1  0.74865447  0.49946067  0.74936419  1
  Fe  Fe2  1  0.37226211  0.87497046  0.87542729  1
  Fe  Fe3  1  0.74995538  0.50162240  0.49873402  1
  Fe  Fe4  1  0.75052473  0.25055746  0.50240456  1
  Fe  Fe5  1  0.12684391  0.37875609  0.12465407  1
  Fe  Fe6  1  0.62016874  0.62195866  0.62446211  1
  Fe  Fe7  1  0.37442345  0.37806756  0.12805414  1
  Fe  Fe8  1  0.62175987  0.12500111  0.62590396  1
  Fe  Fe9  1  0.49955363  0.25280903  0.49655271  1
  Fe  Fe10  1  0.25021254  0.74972403  0.50007387  1
  Fe  Fe11  1  0.49752439  0.25401528  0.74980913  1
  Fe  Fe12  1  0.62508647  0.12929433  0.37171653  1
  Fe  Fe13  1  0.49894121  0.74962804  0.74929294  1
  Fe  Fe14  1  0.87804766  0.62188480  0.12414530  1
  Fe  Fe15  1  0.87513807  0.12679639  0.37590391  1
  Fe  Fe16  1  0.12557435  0.87606887  0.62544781  1
  Fe  Fe17  1  -0.00161221  0.74995123  0.25087874  1
  Fe  Fe18  1  0.25158351  0.74707971  0.74779590  1
  Fe  Fe19  1  0.62370170  0.62978686  0.37373296  1
  Fe  Fe20  1  0.62660798  0.87417089  0.87500373  1
  Fe  Fe21  1  0.12497919  0.12348246  0.37428233  1
  Fe  Fe22  1  -0.00056451  0.25195395  0.25018190  1
  Fe  Fe23  1  0.37501801  0.12440212  0.37369178  1
  Fe  Fe24  1  0.62560069  0.87015786  0.37383427  1
  Fe  Fe25  1  0.37847570  0.12302166  0.12677317  1
  Fe  Fe26  1  0.62357261  0.12729214  0.87454986  1
  Fe  Fe27  1  0.12628881  0.62538679  0.87697862  1
  Fe  Fe28  1  0.74749501  0.00041904  0.49999050  1
  Fe  Fe29  1  0.87470777  0.12434931  0.87650460  1
  Fe  Fe30  1  0.12283545  0.62273110  0.12532649  1
  Fe  Fe31  1  0.24787972  0.24575818  0.50416616  1
  Fe  Fe32  1  0.37642209  0.62170761  0.62320845  1
  Fe  Fe33  1  0.87804501  0.12425866  0.62510104  1
  Fe  Fe34  1  0.87403059  0.62372445  0.87562714  1
  Fe  Fe35  1  0.00296802  0.25439982  0.74779450  1
  Fe  Fe36  1  0.62190138  0.87712247  0.62515611  1
  Fe  Fe37  1  0.00205085  0.25312254  0.00042168  1
  Fe  Fe38  1  0.87303761  0.37481500  0.37502557  1
  Fe  Fe39  1  0.62558850  0.87456384  0.12598216  1
  Fe  Fe40  1  0.87266407  0.37644862  0.87654637  1
  Fe  Fe41  1  0.75036348  0.25178208  0.74825800  1
  Fe  Fe42  1  0.12748714  0.87494913  0.37274275  1
  Fe  Fe43  1  0.00117066  -0.00318654  0.75549539  1
  Fe  Fe44  1  0.62376399  0.37646184  0.62402225  1
  Fe  Fe45  1  0.87579583  0.37864456  0.12515574  1
  Fe  Fe46  1  0.62372918  0.62326463  0.87478169  1
  Fe  Fe47  1  0.87791741  0.62497653  0.62362868  1
  Fe  Fe48  1  0.74929821  0.74900548  0.74736435  1
  Fe  Fe49  1  0.75099044  0.50263643  0.25143823  1
  Fe  Fe50  1  0.25027749  0.00241877  0.74844949  1
  Fe  Fe51  1  0.24961699  0.24694633  0.24673793  1
  Fe  Fe52  1  0.00388648  0.49644462  0.75244007  1
  Fe  Fe53  1  0.37901236  0.12153279  0.62325960  1
  Fe  Fe54  1  0.12463928  0.62354522  0.62316452  1
  Fe  Fe55  1  0.00088573  -0.00213987  0.49768557  1
  Fe  Fe56  1  0.62374800  0.37535514  0.13010263  1
  Fe  Fe57  1  0.37479668  0.87353221  0.37308096  1
  Fe  Fe58  1  0.00021737  0.49874108  0.49792911  1
  Fe  Fe59  1  0.62306669  0.12677237  0.12804696  1
  Fe  Fe60  1  0.49741486  0.49736468  0.49166439  1
  Fe  Fe61  1  0.74922453  0.25128459  0.00244153  1
  Fe  Fe62  1  0.36731996  0.37415195  0.87432395  1
  Fe  Fe63  1  0.50137080  -0.00112736  -0.00079112  1
  Fe  Fe64  1  0.12910189  0.37440192  0.37526924  1
  Fe  Fe65  1  0.12805056  0.12952565  0.87442940  1
  Fe  Fe66  1  0.75135741  -0.00023638  0.24990113  1
  Fe  Fe67  1  0.49921271  0.75092173  0.00056222  1
  Fe  Fe68  1  0.25348673  0.50519478  0.25264366  1
  Fe  Fe69  1  0.12110226  0.12166092  0.12662981  1
  Fe  Fe70  1  0.25057961  0.74740397  0.00382500  1
  Fe  Fe71  1  0.49981600  0.49704430  -0.00200743  1
  Fe  Fe72  1  0.74969651  0.00021444  0.75060946  1
  Fe  Fe73  1  0.00054489  0.75211237  0.75247306  1
  Fe  Fe74  1  0.37399194  0.87513613  0.12744973  1
  Fe  Fe75  1  0.37708094  0.87819703  0.62384170  1
  Fe  Fe76  1  0.87634164  0.87831828  0.12081163  1
  Fe  Fe77  1  0.87584076  0.87392093  0.62418707  1
  Fe  Fe78  1  0.24788367  0.00153926  0.00158408  1
  Fe  Fe79  1  0.49866942  0.25294364  0.00023797  1
  Fe  Fe80  1  0.12346130  0.62664430  0.37471668  1
  Fe  Fe81  1  0.37048963  0.37888052  0.62283658  1
  Fe  Fe82  1  0.87792416  0.12109052  0.12305117  1
  Fe  Fe83  1  0.62062876  0.62302800  0.12700300  1
  Fe  Fe84  1  0.37365690  0.12669116  0.87588943  1
  Fe  Fe85  1  0.00035116  0.75172467  -0.00238500  1
  Fe  Fe86  1  0.00172221  0.25269595  0.50244162  1
  Fe  Fe87  1  0.12363600  0.87669739  0.12662021  1
  Fe  Fe88  1  0.74993878  0.74724308  0.00185579  1
  Fe  Fe89  1  0.37564075  0.62398179  0.87611011  1
  Co  Co90  1  0.00478441  -0.00121173  -0.00647468  1
  Co  Co91  1  0.13190792  0.87217960  0.87444891  1
  Co  Co92  1  0.36731417  0.37052999  0.37492766  1
  Co  Co93  1  0.49784140  0.49823109  0.25717694  1
  Co  Co94  1  0.75296733  0.74890500  0.24555695  1
  Co  Co95  1  0.87442381  0.37684825  0.62425144  1
  Co  Co96  1  0.74624296  0.00241017  0.00048984  1
  Co  Co97  1  0.25060465  0.00140719  0.24969414  1
  Co  Co98  1  0.13145036  0.37151258  0.87663499  1
  Co  Co99  1  0.87473303  0.62773800  0.37691967  1
  Co  Co100  1  0.25161255  0.50494841  0.49479557  1
  Co  Co101  1  0.24885987  0.74670649  0.24826723  1
  Co  Co102  1  0.49770689  0.49662086  0.75208344  1
  Co  Co103  1  0.12984271  0.37936783  0.62222058  1
  Co  Co104  1  0.49852003  0.75084914  0.24725496  1
  Co  Co105  1  0.24987994  0.24785128  0.74230240  1
  Co  Co106  1  0.24739298  0.50233409  0.75180443  1
  Co  Co107  1  0.75545325  0.24935355  0.24655691  1
  Co  Co108  1  0.11969087  0.12062419  0.62551951  1
  Co  Co109  1  0.50247154  -0.00026626  0.49430197  1
  Co  Co110  1  0.25052915  0.24811860  0.00664372  1
  Co  Co111  1  0.74766447  0.49991144  0.00160904  1
  Co  Co112  1  0.49645571  0.25257214  0.25200387  1
  Co  Co113  1  0.74751674  0.74790579  0.50565227  1
  Co  Co114  1  0.00214900  0.49766487  -0.00367916  1
  Co  Co115  1  0.50177050  -0.00147459  0.25193322  1
  Co  Co116  1  0.37823715  0.63202836  0.37373274  1
  Co  Co117  1  0.00012086  0.49944337  0.25373748  1
  Co  Co118  1  0.24987271  0.00017544  0.49963715  1
  Co  Co119  1  0.49956094  -0.00007732  0.75367970  1
  Co  Co120  1  0.62713226  0.37436281  0.87409370  1
  Co  Co121  1  0.87036238  0.87437567  0.87768218  1
  Co  Co122  1  0.62977250  0.37176302  0.37218140  1
  Co  Co123  1  -0.00336814  -0.00164038  0.25463435  1
  Co  Co124  1  0.25064375  0.50244206  0.00045700  1
  Co  Co125  1  0.49948551  0.75145124  0.50272079  1
  Co  Co126  1  0.00280783  0.75055263  0.49951989  1
  Co  Co127  1  0.37940789  0.62294185  0.12495974  1
