# generated using pymatgen
data_Fe45Co19
_symmetry_space_group_name_H-M   'P 1'
_cell_length_a   11.41530810
_cell_length_b   11.41531354
_cell_length_c   11.41427820
_cell_angle_alpha   89.99532769
_cell_angle_beta   89.99284486
_cell_angle_gamma   90.00188023
_symmetry_Int_Tables_number   1
_chemical_formula_structural   Fe45Co19
_chemical_formula_sum   'Fe90 Co38'
_cell_volume   1487.38682639
_cell_formula_units_Z   2
loop_
 _symmetry_equiv_pos_site_id
 _symmetry_equiv_pos_as_xyz
  1  'x, y, z'
loop_
 _atom_site_type_symbol
 _atom_site_label
 _atom_site_symmetry_multiplicity
 _atom_site_fract_x
 _atom_site_fract_y
 _atom_site_fract_z
 _atom_site_occupancy
  Fe  Fe0  1  0.87365160  0.37677402  0.12746852  1
  Fe  Fe1  1  0.74977281  0.75057012  0.75007387  1
  Fe  Fe2  1  0.12812954  0.12644362  0.12490863  1
  Fe  Fe3  1  0.50415976  0.24857687  0.74822652  1
  Fe  Fe4  1  0.37581995  0.12669274  0.62315980  1
  Fe  Fe5  1  0.74940194  0.25018980  0.00256609  1
  Fe  Fe6  1  -0.00181950  0.00448627  -0.00048343  1
  Fe  Fe7  1  0.37616793  0.37413422  0.87472730  1
  Fe  Fe8  1  0.87351827  0.37076654  0.62579035  1
  Fe  Fe9  1  0.00147643  0.74904814  0.00097813  1
  Fe  Fe10  1  0.49993510  0.00043263  0.49777247  1
  Fe  Fe11  1  0.87628870  0.36864854  0.87350079  1
  Fe  Fe12  1  0.12545429  0.87548421  0.12504820  1
  Fe  Fe13  1  0.74611361  0.49725023  0.49641772  1
  Fe  Fe14  1  0.62501771  0.37433640  0.87472400  1
  Fe  Fe15  1  0.87507974  0.87545406  0.12731542  1
  Fe  Fe16  1  0.50107840  0.74968660  0.74780019  1
  Fe  Fe17  1  0.12311421  0.87562235  0.62565529  1
  Fe  Fe18  1  0.37539271  0.62482312  0.87721507  1
  Fe  Fe19  1  0.75066565  0.49888209  -0.00137177  1
  Fe  Fe20  1  0.25235733  0.00118167  0.25094230  1
  Fe  Fe21  1  0.62135031  0.88163636  0.12798689  1
  Fe  Fe22  1  0.24732927  0.25131187  0.74837528  1
  Fe  Fe23  1  0.87279468  0.62524519  0.62469786  1
  Fe  Fe24  1  -0.00025662  0.49987361  0.25074098  1
  Fe  Fe25  1  0.86959513  0.12337824  0.12719294  1
  Fe  Fe26  1  0.62694284  0.12265633  0.87899611  1
  Fe  Fe27  1  0.37669420  0.87571378  0.62381874  1
  Fe  Fe28  1  0.87445891  0.62533298  0.37399761  1
  Fe  Fe29  1  0.62142658  0.87498776  0.37101290  1
  Fe  Fe30  1  0.00042984  0.74846125  0.25000123  1
  Fe  Fe31  1  0.50222043  0.49986251  0.74738886  1
  Fe  Fe32  1  0.74627068  0.74970054  0.49752287  1
  Fe  Fe33  1  0.37814833  0.87263007  0.37272788  1
  Fe  Fe34  1  0.12394991  0.37439656  0.37587713  1
  Fe  Fe35  1  0.37172113  0.62598046  0.12195589  1
  Fe  Fe36  1  0.12278585  0.37104457  0.87880093  1
  Fe  Fe37  1  0.75107894  0.00054682  0.49924017  1
  Fe  Fe38  1  0.87646283  0.87503152  0.62448003  1
  Fe  Fe39  1  0.25296438  0.00055775  0.00039747  1
  Fe  Fe40  1  0.62687238  0.37748820  0.12913117  1
  Fe  Fe41  1  0.87620934  0.87532658  0.37463802  1
  Fe  Fe42  1  0.37426453  0.12740775  0.87537411  1
  Fe  Fe43  1  0.24992944  0.00219646  0.74970094  1
  Fe  Fe44  1  0.50006482  0.49892273  0.00218700  1
  Fe  Fe45  1  0.50143640  0.24659817  0.24656492  1
  Fe  Fe46  1  -0.00018269  0.24743747  0.49686697  1
  Fe  Fe47  1  -0.00098466  0.49978303  0.50030889  1
  Fe  Fe48  1  -0.00007091  0.49782004  0.74896210  1
  Fe  Fe49  1  0.87477433  0.62682495  0.87565575  1
  Fe  Fe50  1  0.50262479  0.25304893  0.50153175  1
  Fe  Fe51  1  0.87647761  0.87557109  0.87432054  1
  Fe  Fe52  1  0.12412168  0.87625722  0.87454294  1
  Fe  Fe53  1  0.62390733  0.87781635  0.87488285  1
  Fe  Fe54  1  0.37570400  0.87410271  0.87621980  1
  Fe  Fe55  1  0.12574883  0.12614121  0.62052479  1
  Fe  Fe56  1  0.25195193  0.49961439  0.25000575  1
  Fe  Fe57  1  0.37382146  0.12773107  0.37611395  1
  Fe  Fe58  1  0.25046687  0.25066256  0.25225286  1
  Fe  Fe59  1  0.25204259  0.49681518  0.50063262  1
  Fe  Fe60  1  0.12471871  0.62480569  0.62508075  1
  Fe  Fe61  1  0.61910217  0.62233387  0.37061351  1
  Fe  Fe62  1  0.74998025  0.49877768  0.75148256  1
  Fe  Fe63  1  0.12542995  0.37403544  0.12367805  1
  Fe  Fe64  1  0.62718535  0.12536950  0.37239029  1
  Fe  Fe65  1  0.50150683  0.75114514  0.00320453  1
  Fe  Fe66  1  0.75163971  0.00399885  0.74945131  1
  Fe  Fe67  1  0.49967284  0.00213927  0.75015085  1
  Fe  Fe68  1  0.12413514  0.87650815  0.37443797  1
  Fe  Fe69  1  0.25095072  0.75078463  0.49919939  1
  Fe  Fe70  1  0.37728162  0.62427871  0.62217839  1
  Fe  Fe71  1  0.12659665  0.62405973  0.37464197  1
  Fe  Fe72  1  -0.00240760  0.24880118  0.25116127  1
  Fe  Fe73  1  -0.00014707  0.49982557  0.00131839  1
  Fe  Fe74  1  -0.00046140  0.00274788  0.25230453  1
  Fe  Fe75  1  0.62516621  0.62536130  0.87646920  1
  Fe  Fe76  1  0.25136457  0.74916383  0.24942180  1
  Fe  Fe77  1  0.25037004  0.74988444  0.75037998  1
  Fe  Fe78  1  0.37322811  0.37252354  0.12324103  1
  Fe  Fe79  1  0.87205068  0.62470744  0.12678370  1
  Fe  Fe80  1  0.12522631  0.62479515  0.87624535  1
  Fe  Fe81  1  0.00080308  0.75035698  0.50018122  1
  Fe  Fe82  1  0.37926014  0.37634271  0.37568548  1
  Fe  Fe83  1  0.50127449  0.24709656  0.00301095  1
  Fe  Fe84  1  0.24915399  0.49672040  0.74948267  1
  Fe  Fe85  1  -0.00106697  0.00609531  0.74996478  1
  Fe  Fe86  1  0.74789966  0.75322135  0.00322431  1
  Fe  Fe87  1  0.25027037  -0.00034387  0.49809484  1
  Fe  Fe88  1  0.74779032  0.25189698  0.49653993  1
  Fe  Fe89  1  0.62429224  0.87642861  0.62486851  1
  Co  Co90  1  0.49500618  0.50093198  0.24423317  1
  Co  Co91  1  0.24826793  0.75209417  -0.00015208  1
  Co  Co92  1  0.25205023  0.25052926  -0.00060382  1
  Co  Co93  1  0.87679217  0.37483076  0.37592441  1
  Co  Co94  1  0.37240015  0.12536401  0.12507703  1
  Co  Co95  1  0.62719291  0.62455983  0.62571325  1
  Co  Co96  1  0.12646426  0.12530941  0.37457639  1
  Co  Co97  1  0.49622801  0.00272827  0.00023958  1
  Co  Co98  1  0.49691754  0.00567532  0.25128608  1
  Co  Co99  1  0.62859435  0.62063635  0.12605639  1
  Co  Co100  1  0.74578437  0.24619045  0.75031037  1
  Co  Co101  1  0.50308609  0.49703529  0.50308994  1
  Co  Co102  1  0.75117026  0.49919872  0.25443219  1
  Co  Co103  1  0.61987643  0.37603983  0.36883962  1
  Co  Co104  1  0.12623569  0.62388349  0.12595522  1
  Co  Co105  1  0.62456832  0.12324955  0.62193982  1
  Co  Co106  1  0.50208605  0.75033679  0.50041450  1
  Co  Co107  1  0.62912123  0.12101269  0.12617696  1
  Co  Co108  1  0.00003063  0.74900423  0.74997284  1
  Co  Co109  1  0.12251243  0.37345625  0.62160468  1
  Co  Co110  1  0.37721910  0.37325709  0.62657258  1
  Co  Co111  1  0.87266529  0.12899967  0.87576931  1
  Co  Co112  1  0.74785349  0.75131783  0.24981990  1
  Co  Co113  1  0.24971773  0.49750854  -0.00113401  1
  Co  Co114  1  0.75187398  -0.00251349  -0.00066038  1
  Co  Co115  1  -0.00008454  0.00133553  0.49928767  1
  Co  Co116  1  0.25120113  0.25246543  0.49917205  1
  Co  Co117  1  0.49925699  0.74698238  0.24556419  1
  Co  Co118  1  0.12610953  0.12664467  0.87927717  1
  Co  Co119  1  -0.00314287  0.24751361  0.00467936  1
  Co  Co120  1  0.37649464  0.87621410  0.12627098  1
  Co  Co121  1  0.62769934  0.37504579  0.62745674  1
  Co  Co122  1  0.87413906  0.12914061  0.62290139  1
  Co  Co123  1  0.75079596  -0.00188488  0.25337952  1
  Co  Co124  1  0.87302054  0.12418858  0.37506866  1
  Co  Co125  1  0.00351642  0.24684078  0.74961982  1
  Co  Co126  1  0.75115825  0.25196254  0.25147718  1
  Co  Co127  1  0.37752977  0.62365405  0.37743884  1
