# generated using pymatgen
data_Fe45Co19
_symmetry_space_group_name_H-M   'P 1'
_cell_length_a   11.41516130
_cell_length_b   11.41583637
_cell_length_c   11.41427414
_cell_angle_alpha   90.01017697
_cell_angle_beta   89.99266334
_cell_angle_gamma   90.00936119
_symmetry_Int_Tables_number   1
_chemical_formula_structural   Fe45Co19
_chemical_formula_sum   'Fe90 Co38'
_cell_volume   1487.43525355
_cell_formula_units_Z   2
loop_
 _symmetry_equiv_pos_site_id
 _symmetry_equiv_pos_as_xyz
  1  'x, y, z'
loop_
 _atom_site_type_symbol
 _atom_site_label
 _atom_site_symmetry_multiplicity
 _atom_site_fract_x
 _atom_site_fract_y
 _atom_site_fract_z
 _atom_site_occupancy
  Fe  Fe0  1  0.12176007  0.37348997  0.13189054  1
  Fe  Fe1  1  0.12368286  0.12392426  0.62585529  1
  Fe  Fe2  1  0.37544926  0.62525308  0.62064063  1
  Fe  Fe3  1  0.49737707  -0.00322857  0.74798513  1
  Fe  Fe4  1  -0.00238761  0.49719954  0.00111208  1
  Fe  Fe5  1  0.62597570  0.87613588  0.12701774  1
  Fe  Fe6  1  0.87458219  0.62310995  0.37885979  1
  Fe  Fe7  1  0.74759964  -0.00361556  0.50059935  1
  Fe  Fe8  1  0.74593279  0.25339615  0.00353143  1
  Fe  Fe9  1  0.12136252  0.62161532  0.62541309  1
  Fe  Fe10  1  0.50063919  0.75053143  -0.00037579  1
  Fe  Fe11  1  0.24829565  0.49917934  0.00107952  1
  Fe  Fe12  1  0.25055522  0.74985790  0.74944716  1
  Fe  Fe13  1  0.87863246  0.37549810  0.37246289  1
  Fe  Fe14  1  0.37493352  0.87553508  0.37931745  1
  Fe  Fe15  1  0.62729257  0.62367716  0.62221887  1
  Fe  Fe16  1  0.24662571  0.74997660  0.50037952  1
  Fe  Fe17  1  0.37503453  0.12403902  0.12324629  1
  Fe  Fe18  1  0.12451458  0.12469900  0.12600894  1
  Fe  Fe19  1  0.87682422  0.87755269  0.62755062  1
  Fe  Fe20  1  0.87479199  0.62578058  0.87880727  1
  Fe  Fe21  1  0.50673028  0.75362552  0.49914033  1
  Fe  Fe22  1  0.00109427  0.25126136  0.00051657  1
  Fe  Fe23  1  0.37323810  0.62506035  0.12411872  1
  Fe  Fe24  1  0.24898408  0.25045044  0.49959074  1
  Fe  Fe25  1  0.75398506  0.74640288  0.74857244  1
  Fe  Fe26  1  0.37439421  0.62531582  0.87605615  1
  Fe  Fe27  1  -0.00173722  0.75078139  0.50149929  1
  Fe  Fe28  1  0.74872307  0.25479377  0.50236785  1
  Fe  Fe29  1  -0.00223054  0.74909562  0.24961033  1
  Fe  Fe30  1  0.24990247  0.25059002  0.00245368  1
  Fe  Fe31  1  0.12167699  0.87788682  0.62653519  1
  Fe  Fe32  1  0.75445734  0.00334704  0.75282464  1
  Fe  Fe33  1  0.12320621  0.62415127  0.87410616  1
  Fe  Fe34  1  0.50214418  0.49887532  0.49873055  1
  Fe  Fe35  1  0.12612320  0.12680066  0.87309418  1
  Fe  Fe36  1  -0.00150350  -0.00010543  -0.00371807  1
  Fe  Fe37  1  0.87408784  0.12619969  0.12132313  1
  Fe  Fe38  1  0.62400927  0.12402205  0.62398833  1
  Fe  Fe39  1  0.50007604  0.74813136  0.25222834  1
  Fe  Fe40  1  0.12750784  0.37349999  0.87123014  1
  Fe  Fe41  1  0.37552605  0.37661833  0.12706930  1
  Fe  Fe42  1  0.49903599  0.00077827  0.25233128  1
  Fe  Fe43  1  0.87119588  0.37239623  0.87174312  1
  Fe  Fe44  1  0.75115949  -0.00124055  -0.00312179  1
  Fe  Fe45  1  0.62682065  0.62323251  0.12332966  1
  Fe  Fe46  1  0.74944320  0.24886636  0.24788809  1
  Fe  Fe47  1  0.50078573  0.49916195  -0.00103594  1
  Fe  Fe48  1  0.37441519  0.37425693  0.37467934  1
  Fe  Fe49  1  0.62312428  0.12492421  0.37811526  1
  Fe  Fe50  1  0.37232973  0.87474675  0.12163222  1
  Fe  Fe51  1  0.37314704  0.37676431  0.62479038  1
  Fe  Fe52  1  0.75062724  0.74748702  0.25001285  1
  Fe  Fe53  1  -0.00230817  0.00167800  0.25135948  1
  Fe  Fe54  1  0.25259252  -0.00030471  0.74877025  1
  Fe  Fe55  1  0.12398576  0.62573073  0.12588650  1
  Fe  Fe56  1  0.12462916  0.12715420  0.37447751  1
  Fe  Fe57  1  0.00140480  0.75176975  -0.00003905  1
  Fe  Fe58  1  0.37787611  0.12283477  0.61875915  1
  Fe  Fe59  1  0.37426046  0.37459944  0.87323976  1
  Fe  Fe60  1  0.12693709  0.87621146  0.12444943  1
  Fe  Fe61  1  0.50193557  0.25173320  0.00133588  1
  Fe  Fe62  1  0.49954200  0.50430116  0.25270492  1
  Fe  Fe63  1  0.62502769  0.12614428  0.87427125  1
  Fe  Fe64  1  0.62530572  0.37607216  0.37158255  1
  Fe  Fe65  1  0.62667217  0.37838616  0.62885954  1
  Fe  Fe66  1  0.75085817  0.00253140  0.25023161  1
  Fe  Fe67  1  0.75348343  0.50067840  0.24651143  1
  Fe  Fe68  1  0.25100376  0.74917856  0.25148993  1
  Fe  Fe69  1  0.49897359  0.25097624  0.74749206  1
  Fe  Fe70  1  0.87297449  0.12587098  0.37888500  1
  Fe  Fe71  1  0.00056362  0.25370215  0.50178671  1
  Fe  Fe72  1  0.12287490  0.87470241  0.37576141  1
  Fe  Fe73  1  0.87375179  0.87526332  0.37602295  1
  Fe  Fe74  1  0.50032827  -0.00173108  -0.00096897  1
  Fe  Fe75  1  0.87360302  0.87401330  0.12337349  1
  Fe  Fe76  1  0.12585901  0.87495283  0.87308291  1
  Fe  Fe77  1  0.49949705  0.24783196  0.24956176  1
  Fe  Fe78  1  0.62637472  0.87410520  0.87102918  1
  Fe  Fe79  1  0.87738731  0.61833675  0.62174832  1
  Fe  Fe80  1  -0.00086967  0.25094616  0.74823137  1
  Fe  Fe81  1  0.25099238  0.50148552  0.74999880  1
  Fe  Fe82  1  0.24426881  0.49892346  0.49597731  1
  Fe  Fe83  1  0.24740147  0.50253580  0.25394521  1
  Fe  Fe84  1  0.37494471  0.12569303  0.87539117  1
  Fe  Fe85  1  0.25184461  0.00196440  0.25330475  1
  Fe  Fe86  1  0.87583437  0.12526531  0.62411677  1
  Fe  Fe87  1  0.62609390  0.37676746  0.87115070  1
  Fe  Fe88  1  0.49781252  0.75017417  0.74866587  1
  Fe  Fe89  1  0.62690120  0.62316968  0.87546259  1
  Co  Co90  1  0.62508782  0.12282074  0.12432174  1
  Co  Co91  1  0.74670983  0.75217440  -0.00057858  1
  Co  Co92  1  0.25424108  0.24676346  0.25002829  1
  Co  Co93  1  0.74878562  0.24809416  0.74567938  1
  Co  Co94  1  0.12194461  0.62896448  0.37577116  1
  Co  Co95  1  0.24837889  0.74753201  -0.00117635  1
  Co  Co96  1  0.87856855  0.37223475  0.12843756  1
  Co  Co97  1  0.49837100  0.50191046  0.74865297  1
  Co  Co98  1  0.37958573  0.12468867  0.38148496  1
  Co  Co99  1  0.37313910  0.87360817  0.62062332  1
  Co  Co100  1  0.50282432  0.25547442  0.50168790  1
  Co  Co101  1  0.37297995  0.87371725  0.87693377  1
  Co  Co102  1  0.50617661  -0.00698924  0.50102210  1
  Co  Co103  1  0.87550798  0.87088054  0.87371543  1
  Co  Co104  1  0.87378234  0.13227201  0.87728883  1
  Co  Co105  1  0.75148833  0.49600364  0.00179661  1
  Co  Co106  1  0.75204586  0.50353874  0.75036186  1
  Co  Co107  1  0.00001831  0.00064992  0.49765359  1
  Co  Co108  1  0.00499349  0.49497686  0.49708812  1
  Co  Co109  1  0.24694629  0.00112339  0.49906856  1
  Co  Co110  1  0.87477745  0.62755646  0.12076362  1
  Co  Co111  1  0.62962644  0.87433926  0.63173332  1
  Co  Co112  1  -0.00384036  0.24324127  0.25082816  1
  Co  Co113  1  -0.00142044  0.74769569  0.74857223  1
  Co  Co114  1  0.62223141  0.37782749  0.12833432  1
  Co  Co115  1  -0.00163242  0.49781751  0.75333944  1
  Co  Co116  1  0.25303085  0.24736073  0.74716017  1
  Co  Co117  1  0.74946446  0.49473601  0.49931389  1
  Co  Co118  1  0.24851123  0.00241888  -0.00168953  1
  Co  Co119  1  0.12643229  0.37646674  0.62886812  1
  Co  Co120  1  0.37515736  0.62676308  0.37989110  1
  Co  Co121  1  -0.00270395  0.00312945  0.75457252  1
  Co  Co122  1  0.75125166  0.75264467  0.50208941  1
  Co  Co123  1  -0.00081068  0.50513691  0.25062563  1
  Co  Co124  1  0.62908557  0.62434657  0.37695811  1
  Co  Co125  1  0.62823900  0.87452106  0.37054655  1
  Co  Co126  1  0.12254204  0.37013899  0.36871571  1
  Co  Co127  1  0.87591026  0.37798721  0.62685617  1
