# generated using pymatgen
data_Fe45Co19
_symmetry_space_group_name_H-M   'P 1'
_cell_length_a   11.41458859
_cell_length_b   11.41491883
_cell_length_c   11.41441183
_cell_angle_alpha   89.98887255
_cell_angle_beta   90.00279885
_cell_angle_gamma   90.00179463
_symmetry_Int_Tables_number   1
_chemical_formula_structural   Fe45Co19
_chemical_formula_sum   'Fe90 Co38'
_cell_volume   1487.25904744
_cell_formula_units_Z   2
loop_
 _symmetry_equiv_pos_site_id
 _symmetry_equiv_pos_as_xyz
  1  'x, y, z'
loop_
 _atom_site_type_symbol
 _atom_site_label
 _atom_site_symmetry_multiplicity
 _atom_site_fract_x
 _atom_site_fract_y
 _atom_site_fract_z
 _atom_site_occupancy
  Fe  Fe0  1  0.50003684  0.25100482  -0.00187021  1
  Fe  Fe1  1  0.87513116  0.37283396  0.12471603  1
  Fe  Fe2  1  0.74585170  0.25128530  -0.00613172  1
  Fe  Fe3  1  0.24964884  0.75225808  -0.00361142  1
  Fe  Fe4  1  0.12336405  0.87569276  0.37663519  1
  Fe  Fe5  1  0.37654903  0.11972729  0.37240862  1
  Fe  Fe6  1  0.24568735  0.24554213  0.25410307  1
  Fe  Fe7  1  0.74827697  0.75346759  0.50029639  1
  Fe  Fe8  1  0.13085365  0.62856308  0.62337955  1
  Fe  Fe9  1  0.00411535  0.00255454  0.24703843  1
  Fe  Fe10  1  0.74932223  0.00014694  0.25037660  1
  Fe  Fe11  1  0.12646360  0.12491462  0.62480274  1
  Fe  Fe12  1  0.24771910  -0.00061344  0.00191484  1
  Fe  Fe13  1  0.00008006  0.00134064  -0.00128966  1
  Fe  Fe14  1  0.62486657  0.37544011  0.62635496  1
  Fe  Fe15  1  0.87350146  0.62629555  0.62440294  1
  Fe  Fe16  1  0.12439987  0.87788695  0.87297293  1
  Fe  Fe17  1  0.74643802  0.75080421  0.25087716  1
  Fe  Fe18  1  -0.00229707  -0.00117043  0.50300318  1
  Fe  Fe19  1  0.62200741  0.62511548  0.12132647  1
  Fe  Fe20  1  0.00096063  0.24990998  0.74817197  1
  Fe  Fe21  1  0.49729138  0.50057496  0.50375648  1
  Fe  Fe22  1  0.74892595  0.74992043  -0.00193708  1
  Fe  Fe23  1  0.37301586  0.37132879  0.12798930  1
  Fe  Fe24  1  0.12548747  0.37407200  0.37817014  1
  Fe  Fe25  1  0.74731805  0.74962329  0.75099026  1
  Fe  Fe26  1  0.75149798  0.24936309  0.50218304  1
  Fe  Fe27  1  0.37349247  0.12323190  0.87389183  1
  Fe  Fe28  1  0.24619921  0.25338047  0.75085645  1
  Fe  Fe29  1  0.37179319  0.12360816  0.12652170  1
  Fe  Fe30  1  0.37403435  0.87619854  0.87411191  1
  Fe  Fe31  1  0.37648365  0.37283209  0.37542027  1
  Fe  Fe32  1  0.74999589  0.49985958  0.75047233  1
  Fe  Fe33  1  0.62457696  0.37704797  0.12328515  1
  Fe  Fe34  1  0.49747368  0.00019176  0.74689155  1
  Fe  Fe35  1  0.50190367  0.24750317  0.24890460  1
  Fe  Fe36  1  0.74987847  0.50068495  0.24892695  1
  Fe  Fe37  1  0.87488478  0.62650462  0.37668028  1
  Fe  Fe38  1  0.62321807  0.12167569  0.37663437  1
  Fe  Fe39  1  0.62443889  0.87849220  0.87279258  1
  Fe  Fe40  1  0.24939279  0.24978661  -0.00388295  1
  Fe  Fe41  1  0.37523579  0.62644926  0.37687623  1
  Fe  Fe42  1  0.87519832  0.37522986  0.37550055  1
  Fe  Fe43  1  0.37213578  0.12881595  0.62722003  1
  Fe  Fe44  1  0.87610074  0.12739809  0.12422395  1
  Fe  Fe45  1  0.87702304  0.12449284  0.37470028  1
  Fe  Fe46  1  0.12677783  0.62656455  0.12566275  1
  Fe  Fe47  1  0.49868163  0.50082179  0.24849201  1
  Fe  Fe48  1  0.87503624  0.62692255  0.12526628  1
  Fe  Fe49  1  0.12606107  0.37328723  0.12514709  1
  Fe  Fe50  1  0.25143702  0.75347648  0.25437678  1
  Fe  Fe51  1  0.87620809  0.87361370  0.12446793  1
  Fe  Fe52  1  0.00188244  0.75025823  0.74825858  1
  Fe  Fe53  1  0.00228294  0.74891755  -0.00205760  1
  Fe  Fe54  1  0.37687353  0.63106280  0.12218895  1
  Fe  Fe55  1  0.49833826  -0.00241116  0.00339284  1
  Fe  Fe56  1  0.25279384  0.49759181  0.50346032  1
  Fe  Fe57  1  0.00415485  0.24958243  -0.00268382  1
  Fe  Fe58  1  0.12720425  0.87453239  0.62586101  1
  Fe  Fe59  1  -0.00243354  0.24890452  0.50220539  1
  Fe  Fe60  1  0.50458869  0.24772905  0.75179958  1
  Fe  Fe61  1  0.00066219  0.50282107  0.50115277  1
  Fe  Fe62  1  -0.00353242  0.00145121  0.75117793  1
  Fe  Fe63  1  0.49973262  0.74810179  0.75046684  1
  Fe  Fe64  1  0.62111393  0.62082039  0.87839061  1
  Fe  Fe65  1  0.12891029  0.62159607  0.87265051  1
  Fe  Fe66  1  0.74976068  0.49944581  0.50100493  1
  Fe  Fe67  1  0.75353457  -0.00089769  -0.00392334  1
  Fe  Fe68  1  0.25252252  0.49914623  0.00043671  1
  Fe  Fe69  1  0.49996231  0.24656582  0.50138442  1
  Fe  Fe70  1  0.25263400  -0.00047534  0.50063075  1
  Fe  Fe71  1  0.00324005  0.49884275  0.74702263  1
  Fe  Fe72  1  0.63141190  0.11877302  0.62639630  1
  Fe  Fe73  1  0.37387817  0.87038749  0.62492519  1
  Fe  Fe74  1  0.87750030  0.87434776  0.37377161  1
  Fe  Fe75  1  0.25071429  0.50145750  0.25031395  1
  Fe  Fe76  1  0.49518353  0.50376121  0.74619694  1
  Fe  Fe77  1  0.00239510  0.74789844  0.25150010  1
  Fe  Fe78  1  0.87510377  0.37374995  0.87248764  1
  Fe  Fe79  1  0.87626193  0.62586127  0.87352564  1
  Fe  Fe80  1  0.62626129  0.12338335  0.12174900  1
  Fe  Fe81  1  0.00126718  0.50021001  0.25100790  1
  Fe  Fe82  1  0.74907447  0.24934082  0.25072658  1
  Fe  Fe83  1  0.62341895  0.37506692  0.37609328  1
  Fe  Fe84  1  0.37580417  0.37684005  0.87188671  1
  Fe  Fe85  1  0.50033829  0.75040436  0.50265519  1
  Fe  Fe86  1  0.87122999  0.87584537  0.62736934  1
  Fe  Fe87  1  0.61890576  0.87922320  0.37602867  1
  Fe  Fe88  1  -0.00088086  0.50044206  0.00057883  1
  Fe  Fe89  1  0.62332077  0.62431842  0.37681777  1
  Co  Co90  1  0.24553441  -0.00133590  0.25036618  1
  Co  Co91  1  0.62227304  0.38101478  0.87336783  1
  Co  Co92  1  0.87712380  0.87066720  0.87512195  1
  Co  Co93  1  0.62645377  0.62472919  0.62447039  1
  Co  Co94  1  0.25133840  0.75558107  0.49541693  1
  Co  Co95  1  0.62776338  0.87510976  0.12387374  1
  Co  Co96  1  0.12277460  0.12327091  0.38017303  1
  Co  Co97  1  0.50187161  0.00035991  0.24357114  1
  Co  Co98  1  0.62691151  0.87879041  0.62720339  1
  Co  Co99  1  0.37298603  0.87356824  0.12693210  1
  Co  Co100  1  -0.00095441  0.75042400  0.50282964  1
  Co  Co101  1  0.75250065  -0.00268556  0.49611090  1
  Co  Co102  1  0.24987941  0.75163630  0.75429521  1
  Co  Co103  1  0.25317689  0.24768204  0.49813829  1
  Co  Co104  1  0.49394770  0.49645835  0.00274980  1
  Co  Co105  1  0.50045343  0.75473318  -0.00328815  1
  Co  Co106  1  0.62177600  0.11895431  0.87552796  1
  Co  Co107  1  0.25197920  -0.00103686  0.74710301  1
  Co  Co108  1  0.00220622  0.25064263  0.25178613  1
  Co  Co109  1  0.12531985  0.37801600  0.87570625  1
  Co  Co110  1  0.87412136  0.37647145  0.62686552  1
  Co  Co111  1  0.36912222  0.63008959  0.62442616  1
  Co  Co112  1  0.12553334  0.12755903  0.12309679  1
  Co  Co113  1  0.12400911  0.87226711  0.12436487  1
  Co  Co114  1  0.37765581  0.36955395  0.62631738  1
  Co  Co115  1  0.87140602  0.12260845  0.62581759  1
  Co  Co116  1  0.74669509  0.24928061  0.75176513  1
  Co  Co117  1  0.25124587  0.49679773  0.74560625  1
  Co  Co118  1  0.38058078  0.87973302  0.37361318  1
  Co  Co119  1  0.12493604  0.37238628  0.62061851  1
  Co  Co120  1  0.50110922  0.74998330  0.25007131  1
  Co  Co121  1  0.37403239  0.62383820  0.87602525  1
  Co  Co122  1  0.12650607  0.12231000  0.87197282  1
  Co  Co123  1  0.12683874  0.62532553  0.37754583  1
  Co  Co124  1  0.49582415  0.00247444  0.50773958  1
  Co  Co125  1  0.87683798  0.13025421  0.87509050  1
  Co  Co126  1  0.75511463  0.00137214  0.75668823  1
  Co  Co127  1  0.75352557  0.50026537  -0.00040235  1
