# generated using pymatgen
data_Fe45Co19
_symmetry_space_group_name_H-M   'P 1'
_cell_length_a   11.41621592
_cell_length_b   11.41589774
_cell_length_c   11.41596819
_cell_angle_alpha   89.99694443
_cell_angle_beta   89.99953795
_cell_angle_gamma   90.00666571
_symmetry_Int_Tables_number   1
_chemical_formula_structural   Fe45Co19
_chemical_formula_sum   'Fe90 Co38'
_cell_volume   1487.80149375
_cell_formula_units_Z   2
loop_
 _symmetry_equiv_pos_site_id
 _symmetry_equiv_pos_as_xyz
  1  'x, y, z'
loop_
 _atom_site_type_symbol
 _atom_site_label
 _atom_site_symmetry_multiplicity
 _atom_site_fract_x
 _atom_site_fract_y
 _atom_site_fract_z
 _atom_site_occupancy
  Fe  Fe0  1  0.24900672  0.50048294  -0.00023186  1
  Fe  Fe1  1  0.12567080  0.37577278  0.12628113  1
  Fe  Fe2  1  0.62074575  0.12424894  0.12468644  1
  Fe  Fe3  1  0.74915935  0.75098505  0.50165152  1
  Fe  Fe4  1  0.25321851  0.00024030  -0.00324023  1
  Fe  Fe5  1  0.74998271  0.24986879  -0.00036177  1
  Fe  Fe6  1  -0.00049042  0.24672883  0.25114803  1
  Fe  Fe7  1  0.62303136  0.62465335  0.37763849  1
  Fe  Fe8  1  0.74828826  0.50281916  0.74749063  1
  Fe  Fe9  1  0.62242800  0.12639848  0.87555978  1
  Fe  Fe10  1  -0.00013874  0.00146972  0.75032062  1
  Fe  Fe11  1  0.49879732  0.74969020  0.25247470  1
  Fe  Fe12  1  0.62283878  0.12430186  0.62451989  1
  Fe  Fe13  1  0.37259938  0.87824967  0.37493597  1
  Fe  Fe14  1  0.62291770  0.87639875  0.12663288  1
  Fe  Fe15  1  0.74969545  0.00043576  0.49934637  1
  Fe  Fe16  1  0.87516182  0.37471741  0.37620618  1
  Fe  Fe17  1  0.87353798  0.87444715  0.87309012  1
  Fe  Fe18  1  0.75185726  0.74836170  0.24934168  1
  Fe  Fe19  1  0.62181639  0.87399193  0.62630351  1
  Fe  Fe20  1  0.62226955  0.12577233  0.37524913  1
  Fe  Fe21  1  0.49815858  0.25083375  0.74832026  1
  Fe  Fe22  1  0.49977555  -0.00321238  0.49803777  1
  Fe  Fe23  1  0.74954526  0.24845119  0.24989446  1
  Fe  Fe24  1  0.12756840  0.87642468  0.63049207  1
  Fe  Fe25  1  0.24847451  0.50389262  0.74299137  1
  Fe  Fe26  1  0.12328320  0.62487454  0.12609843  1
  Fe  Fe27  1  0.12562704  0.87783311  0.12574893  1
  Fe  Fe28  1  0.00028153  0.24843517  -0.00045084  1
  Fe  Fe29  1  0.25064920  0.24949891  0.00073905  1
  Fe  Fe30  1  0.49962818  0.49877658  -0.00226375  1
  Fe  Fe31  1  0.87743531  0.37563143  0.12567240  1
  Fe  Fe32  1  0.62466057  0.37564954  0.37478915  1
  Fe  Fe33  1  0.37505623  0.62629825  0.87296957  1
  Fe  Fe34  1  0.37543717  0.62091208  0.38163146  1
  Fe  Fe35  1  0.75117130  0.24656968  0.74924915  1
  Fe  Fe36  1  0.87533419  0.87575772  0.12624208  1
  Fe  Fe37  1  0.25154729  0.75003754  0.24959784  1
  Fe  Fe38  1  0.75240687  0.50122640  0.24898088  1
  Fe  Fe39  1  0.00259618  0.24581213  0.50143948  1
  Fe  Fe40  1  0.25114880  0.75162421  0.50382182  1
  Fe  Fe41  1  0.00216709  0.00160256  0.49771595  1
  Fe  Fe42  1  0.00382536  0.49869547  0.50104808  1
  Fe  Fe43  1  0.49754683  0.25417567  0.49992819  1
  Fe  Fe44  1  0.37506350  0.62574083  0.12394443  1
  Fe  Fe45  1  0.24935926  0.50140509  0.25061753  1
  Fe  Fe46  1  0.24928256  0.24790376  0.74828518  1
  Fe  Fe47  1  0.00178805  0.75413209  0.50013436  1
  Fe  Fe48  1  0.12612496  0.12356702  0.87440891  1
  Fe  Fe49  1  0.62296075  0.37513970  0.12533708  1
  Fe  Fe50  1  0.12595941  0.37521566  0.87300843  1
  Fe  Fe51  1  0.74925171  0.00051045  -0.00068846  1
  Fe  Fe52  1  0.49509828  -0.00167490  0.75430210  1
  Fe  Fe53  1  0.87657099  0.62571160  0.37611811  1
  Fe  Fe54  1  0.62577434  0.37573695  0.87325059  1
  Fe  Fe55  1  0.74977162  0.24893493  0.50182058  1
  Fe  Fe56  1  0.49889266  0.50016967  0.25095002  1
  Fe  Fe57  1  0.74839799  0.49985716  0.50238656  1
  Fe  Fe58  1  0.37529562  0.37562088  0.12580343  1
  Fe  Fe59  1  -0.00051845  0.75074469  0.25066353  1
  Fe  Fe60  1  0.87541592  0.37358656  0.62536065  1
  Fe  Fe61  1  0.24769327  0.74965301  -0.00079486  1
  Fe  Fe62  1  0.38234559  0.12315905  0.12243420  1
  Fe  Fe63  1  0.24956290  0.24867292  0.50028876  1
  Fe  Fe64  1  0.12720315  0.87880731  0.37057509  1
  Fe  Fe65  1  -0.00000559  0.24624225  0.74853394  1
  Fe  Fe66  1  0.37268054  0.37478004  0.87272796  1
  Fe  Fe67  1  0.87482121  0.37425151  0.87325043  1
  Fe  Fe68  1  0.12623161  0.62559052  0.37668831  1
  Fe  Fe69  1  0.74957597  0.00147509  0.74921379  1
  Fe  Fe70  1  -0.00048567  0.75043904  -0.00151892  1
  Fe  Fe71  1  -0.00147064  0.00122262  -0.00078353  1
  Fe  Fe72  1  0.62716223  0.87383429  0.37332779  1
  Fe  Fe73  1  0.87465620  0.87634604  0.62489532  1
  Fe  Fe74  1  0.25525973  0.24560111  0.25082510  1
  Fe  Fe75  1  -0.00019176  0.50094769  -0.00097694  1
  Fe  Fe76  1  0.75224299  0.00196689  0.25194461  1
  Fe  Fe77  1  0.62680328  0.62418057  0.12234249  1
  Fe  Fe78  1  0.50273636  0.74916992  -0.00189488  1
  Fe  Fe79  1  0.12438385  0.12211573  0.12740190  1
  Fe  Fe80  1  0.86975438  0.62792724  0.87601561  1
  Fe  Fe81  1  0.12755475  0.37376849  0.37440237  1
  Fe  Fe82  1  0.12582290  0.62838246  0.87138529  1
  Fe  Fe83  1  0.50069039  0.49982655  0.74735168  1
  Fe  Fe84  1  0.87765265  0.62736420  0.62346043  1
  Fe  Fe85  1  0.37275305  0.12061493  0.62389667  1
  Fe  Fe86  1  0.00050107  0.50201141  0.74875785  1
  Fe  Fe87  1  0.62592031  0.87181961  0.87304910  1
  Fe  Fe88  1  0.37722929  0.87486213  0.12302365  1
  Fe  Fe89  1  0.61892376  0.62836624  0.62268255  1
  Co  Co90  1  0.37203697  0.37863493  0.37596157  1
  Co  Co91  1  0.87373028  0.87438394  0.37643986  1
  Co  Co92  1  0.50251207  0.49294659  0.50315966  1
  Co  Co93  1  0.75168480  0.49658083  0.00088537  1
  Co  Co94  1  0.37563403  0.87685668  0.62457025  1
  Co  Co95  1  0.12709363  0.12272223  0.37186789  1
  Co  Co96  1  0.25524939  0.00249679  0.24697343  1
  Co  Co97  1  0.24667989  -0.00160144  0.50004852  1
  Co  Co98  1  0.74905183  0.74952004  0.74568928  1
  Co  Co99  1  0.49919567  -0.00154056  0.25344063  1
  Co  Co100  1  -0.00335659  0.00063843  0.25240261  1
  Co  Co101  1  0.62777339  0.37182076  0.62721149  1
  Co  Co102  1  0.12355764  0.37223918  0.62654608  1
  Co  Co103  1  0.87368456  0.12513834  0.12489261  1
  Co  Co104  1  0.50043382  -0.00233948  -0.00544162  1
  Co  Co105  1  0.50063211  0.25389100  -0.00117445  1
  Co  Co106  1  0.74934468  0.75344260  0.00191997  1
  Co  Co107  1  0.12860077  0.12136580  0.62738867  1
  Co  Co108  1  -0.00233137  0.75074494  0.75094864  1
  Co  Co109  1  0.37984344  0.62636687  0.62076281  1
  Co  Co110  1  0.00117900  0.49995151  0.25230431  1
  Co  Co111  1  0.62760874  0.62497197  0.87635950  1
  Co  Co112  1  0.25320281  0.75072539  0.74678281  1
  Co  Co113  1  0.25463664  -0.00190514  0.75630291  1
  Co  Co114  1  0.49862809  0.75585860  0.49569711  1
  Co  Co115  1  0.12270666  0.62992180  0.62499684  1
  Co  Co116  1  0.37617251  0.12226137  0.37982714  1
  Co  Co117  1  0.37603714  0.12963570  0.87601770  1
  Co  Co118  1  0.37340270  0.86884862  0.87766561  1
  Co  Co119  1  0.12477802  0.87505244  0.87432267  1
  Co  Co120  1  0.87386827  0.12302182  0.62351181  1
  Co  Co121  1  0.24517331  0.49988385  0.50526752  1
  Co  Co122  1  0.37145346  0.37554912  0.62523572  1
  Co  Co123  1  0.87647565  0.62535078  0.12456135  1
  Co  Co124  1  0.49771748  0.25042946  0.25299005  1
  Co  Co125  1  0.87435518  0.12586799  0.37694996  1
  Co  Co126  1  0.49882484  0.75045074  0.75149309  1
  Co  Co127  1  0.87451298  0.12427854  0.87527480  1
