# generated using pymatgen
data_Fe45Co19
_symmetry_space_group_name_H-M   'P 1'
_cell_length_a   11.41450406
_cell_length_b   11.41443442
_cell_length_c   11.41412411
_cell_angle_alpha   89.99163300
_cell_angle_beta   90.00976332
_cell_angle_gamma   90.00316212
_symmetry_Int_Tables_number   1
_chemical_formula_structural   Fe45Co19
_chemical_formula_sum   'Fe90 Co38'
_cell_volume   1487.14742335
_cell_formula_units_Z   2
loop_
 _symmetry_equiv_pos_site_id
 _symmetry_equiv_pos_as_xyz
  1  'x, y, z'
loop_
 _atom_site_type_symbol
 _atom_site_label
 _atom_site_symmetry_multiplicity
 _atom_site_fract_x
 _atom_site_fract_y
 _atom_site_fract_z
 _atom_site_occupancy
  Fe  Fe0  1  0.50040072  0.50087012  0.49854229  1
  Fe  Fe1  1  0.87411193  0.87349535  0.62553322  1
  Fe  Fe2  1  0.12727288  0.12394173  0.37336970  1
  Fe  Fe3  1  0.25093890  -0.00049775  0.00268804  1
  Fe  Fe4  1  0.25054809  0.75127933  0.74938010  1
  Fe  Fe5  1  0.74929866  0.50214811  -0.00175533  1
  Fe  Fe6  1  0.00057476  0.75051903  -0.00160215  1
  Fe  Fe7  1  -0.00119704  0.24631062  0.75401126  1
  Fe  Fe8  1  -0.00163838  0.24809769  -0.00232110  1
  Fe  Fe9  1  0.62379883  0.38038049  0.87197399  1
  Fe  Fe10  1  0.75254090  0.74377364  0.75360576  1
  Fe  Fe11  1  0.50213186  -0.00309260  0.50336661  1
  Fe  Fe12  1  0.00152509  0.00135632  0.75235799  1
  Fe  Fe13  1  0.62413041  0.37759911  0.62786237  1
  Fe  Fe14  1  0.49871165  0.74756595  0.75307691  1
  Fe  Fe15  1  0.49412591  0.74596159  0.25197346  1
  Fe  Fe16  1  -0.00139656  0.00283041  0.00065522  1
  Fe  Fe17  1  0.87389756  0.12410905  0.62533860  1
  Fe  Fe18  1  0.87612228  0.87471425  0.12494156  1
  Fe  Fe19  1  0.74747137  -0.00096287  0.74730660  1
  Fe  Fe20  1  0.12681607  0.87568884  0.87677280  1
  Fe  Fe21  1  -0.00192242  0.50356355  0.75262517  1
  Fe  Fe22  1  0.37524215  0.12239343  0.37412674  1
  Fe  Fe23  1  0.75037509  0.25096623  0.50040094  1
  Fe  Fe24  1  0.75113189  0.25249244  0.75317472  1
  Fe  Fe25  1  0.74668072  -0.00139166  0.50201113  1
  Fe  Fe26  1  0.13042103  0.87222751  0.37150356  1
  Fe  Fe27  1  0.87515781  0.37515956  0.12211801  1
  Fe  Fe28  1  0.75026512  0.50111873  0.49919746  1
  Fe  Fe29  1  0.49929361  0.25052456  0.75120808  1
  Fe  Fe30  1  0.00293300  0.75099753  0.49992301  1
  Fe  Fe31  1  0.37597006  0.12297211  0.62668145  1
  Fe  Fe32  1  0.49746499  0.25106257  0.24897272  1
  Fe  Fe33  1  0.87285316  0.87647082  0.87636149  1
  Fe  Fe34  1  0.12617507  0.37574279  0.37187618  1
  Fe  Fe35  1  0.37294670  0.62331939  0.87933782  1
  Fe  Fe36  1  0.62516456  0.37573446  0.37354935  1
  Fe  Fe37  1  0.24703125  0.50118495  0.50031914  1
  Fe  Fe38  1  0.50096722  -0.00133124  0.00116610  1
  Fe  Fe39  1  0.00134369  0.49973525  0.49886911  1
  Fe  Fe40  1  0.87735206  0.62608263  0.12248767  1
  Fe  Fe41  1  0.87592040  0.37638153  0.62646252  1
  Fe  Fe42  1  0.50128505  0.25184863  -0.00000310  1
  Fe  Fe43  1  0.37397731  0.37907754  0.37207697  1
  Fe  Fe44  1  0.24990893  0.74808802  0.00570072  1
  Fe  Fe45  1  0.12478503  0.12657780  0.12594633  1
  Fe  Fe46  1  -0.00123140  0.25005671  0.25072730  1
  Fe  Fe47  1  0.12654550  0.87526757  0.62678730  1
  Fe  Fe48  1  0.62397637  0.12551283  0.37486063  1
  Fe  Fe49  1  0.50201630  -0.00157089  0.74872848  1
  Fe  Fe50  1  0.25187743  -0.00151653  0.24490815  1
  Fe  Fe51  1  0.12401064  0.37477543  0.62848449  1
  Fe  Fe52  1  0.74925141  0.50359510  0.25007034  1
  Fe  Fe53  1  0.00196798  0.75134563  0.24978619  1
  Fe  Fe54  1  0.37474940  0.12453557  0.87679045  1
  Fe  Fe55  1  -0.00112866  0.74929094  0.75187071  1
  Fe  Fe56  1  0.37376575  0.62536380  0.62340227  1
  Fe  Fe57  1  0.37527571  0.37570059  0.62600097  1
  Fe  Fe58  1  0.25066278  0.25086084  0.49895306  1
  Fe  Fe59  1  0.62806375  0.12371000  0.87691253  1
  Fe  Fe60  1  0.12469144  0.62579240  0.62623717  1
  Fe  Fe61  1  0.49828505  0.00064596  0.24667097  1
  Fe  Fe62  1  0.62211013  0.62801630  0.12343725  1
  Fe  Fe63  1  0.62401055  0.87284282  0.37243974  1
  Fe  Fe64  1  0.62732823  0.87227873  0.87632354  1
  Fe  Fe65  1  0.24794222  0.50528440  0.24551962  1
  Fe  Fe66  1  0.74997789  0.74921858  0.49807755  1
  Fe  Fe67  1  0.00094348  -0.00174390  0.49862318  1
  Fe  Fe68  1  0.00013180  0.49947855  0.25006489  1
  Fe  Fe69  1  0.75139988  0.25123899  0.24905715  1
  Fe  Fe70  1  0.49835479  0.25090291  0.49958664  1
  Fe  Fe71  1  0.25055521  0.24970299  0.75222563  1
  Fe  Fe72  1  0.37388299  0.87571477  0.87595452  1
  Fe  Fe73  1  0.00081581  0.25089247  0.49818720  1
  Fe  Fe74  1  0.37314899  0.37756134  0.12502364  1
  Fe  Fe75  1  0.00636656  0.49941075  -0.00209190  1
  Fe  Fe76  1  0.24828884  0.25388103  -0.00038404  1
  Fe  Fe77  1  0.87402672  0.12317099  0.37364704  1
  Fe  Fe78  1  0.62562371  0.37606641  0.12512848  1
  Fe  Fe79  1  0.62492578  0.62461801  0.62660705  1
  Fe  Fe80  1  0.49902716  0.49993240  -0.00083789  1
  Fe  Fe81  1  0.25117890  0.49869750  0.75384631  1
  Fe  Fe82  1  0.87436579  0.87508106  0.37349978  1
  Fe  Fe83  1  0.62254786  0.86981482  0.12509132  1
  Fe  Fe84  1  0.87665153  0.62563959  0.37503306  1
  Fe  Fe85  1  0.25204389  -0.00335496  0.50275199  1
  Fe  Fe86  1  0.12610465  0.12435224  0.62547452  1
  Fe  Fe87  1  0.62713059  0.12683164  0.12332304  1
  Fe  Fe88  1  0.49652714  0.75060806  0.49819128  1
  Fe  Fe89  1  0.74984978  -0.00141217  0.24690361  1
  Co  Co90  1  0.37308304  0.87544700  0.37296315  1
  Co  Co91  1  0.12401701  0.37296434  0.12682155  1
  Co  Co92  1  0.12696051  0.62747344  0.87462774  1
  Co  Co93  1  0.00114696  -0.00041644  0.24978707  1
  Co  Co94  1  0.37627814  0.87468099  0.62755096  1
  Co  Co95  1  0.62524335  0.86769967  0.62672899  1
  Co  Co96  1  0.24604988  0.49910009  0.00011146  1
  Co  Co97  1  0.75420015  0.50357068  0.75088360  1
  Co  Co98  1  0.75039717  0.74911860  0.00017405  1
  Co  Co99  1  0.24946858  -0.00039898  0.75060553  1
  Co  Co100  1  0.25037735  0.75003174  0.50178049  1
  Co  Co101  1  0.87750632  0.37813708  0.87680482  1
  Co  Co102  1  0.87755513  0.62385969  0.87991300  1
  Co  Co103  1  0.62336866  0.62229347  0.87559251  1
  Co  Co104  1  0.49965589  0.75005590  -0.00369925  1
  Co  Co105  1  0.87342291  0.12674702  0.12489897  1
  Co  Co106  1  0.37488368  0.12762028  0.12191067  1
  Co  Co107  1  0.62440657  0.62669296  0.37502127  1
  Co  Co108  1  0.74944577  0.25374811  -0.00352671  1
  Co  Co109  1  0.86902642  0.12157310  0.87630139  1
  Co  Co110  1  0.62508416  0.12854150  0.62537985  1
  Co  Co111  1  0.12483586  0.62700475  0.37369618  1
  Co  Co112  1  0.87368473  0.37636738  0.37445875  1
  Co  Co113  1  0.37809353  0.87214217  0.12414073  1
  Co  Co114  1  0.50228421  0.50151904  0.25019989  1
  Co  Co115  1  0.74869018  -0.00400214  0.00516241  1
  Co  Co116  1  0.12372097  0.87480760  0.12378258  1
  Co  Co117  1  0.37587826  0.37504654  0.87738659  1
  Co  Co118  1  0.37142092  0.62317460  0.37545500  1
  Co  Co119  1  0.75203837  0.74787803  0.24807389  1
  Co  Co120  1  0.25197109  0.74701360  0.24429807  1
  Co  Co121  1  0.49510149  0.50302409  0.75015014  1
  Co  Co122  1  0.87672580  0.62611124  0.62124442  1
  Co  Co123  1  0.12291345  0.37427723  0.87242075  1
  Co  Co124  1  0.12160189  0.62631393  0.12439479  1
  Co  Co125  1  0.25243257  0.24939350  0.25038341  1
  Co  Co126  1  0.12794401  0.12422120  0.87730186  1
  Co  Co127  1  0.37813534  0.62198722  0.12175308  1
