# generated using pymatgen
data_Fe45Co19
_symmetry_space_group_name_H-M   'P 1'
_cell_length_a   11.41449935
_cell_length_b   11.41597205
_cell_length_c   11.41527054
_cell_angle_alpha   90.00227051
_cell_angle_beta   89.99822168
_cell_angle_gamma   89.99840210
_symmetry_Int_Tables_number   1
_chemical_formula_structural   Fe45Co19
_chemical_formula_sum   'Fe90 Co38'
_cell_volume   1487.49656790
_cell_formula_units_Z   2
loop_
 _symmetry_equiv_pos_site_id
 _symmetry_equiv_pos_as_xyz
  1  'x, y, z'
loop_
 _atom_site_type_symbol
 _atom_site_label
 _atom_site_symmetry_multiplicity
 _atom_site_fract_x
 _atom_site_fract_y
 _atom_site_fract_z
 _atom_site_occupancy
  Fe  Fe0  1  0.74891216  -0.00245293  0.74924843  1
  Fe  Fe1  1  0.62563702  0.12510035  0.87809764  1
  Fe  Fe2  1  0.62152452  0.37471322  0.62608111  1
  Fe  Fe3  1  0.87607051  0.12499289  0.12407623  1
  Fe  Fe4  1  0.00336561  0.50331446  0.00003423  1
  Fe  Fe5  1  0.00023403  0.24774659  0.25103276  1
  Fe  Fe6  1  0.74935607  -0.00280164  0.24702027  1
  Fe  Fe7  1  0.00145112  0.00017027  0.49895664  1
  Fe  Fe8  1  0.12852736  0.37326675  0.62703480  1
  Fe  Fe9  1  0.74905585  0.25131014  0.50098621  1
  Fe  Fe10  1  0.62365583  0.87465049  0.87567037  1
  Fe  Fe11  1  0.37211564  0.62748563  0.12455059  1
  Fe  Fe12  1  0.87592337  0.62548441  0.62331875  1
  Fe  Fe13  1  0.87570794  0.37779975  0.87569818  1
  Fe  Fe14  1  0.87400023  0.62461525  0.12378054  1
  Fe  Fe15  1  0.25253341  0.49903742  0.50293496  1
  Fe  Fe16  1  0.37363222  0.12219045  0.37073580  1
  Fe  Fe17  1  0.12307405  0.87494587  0.87658069  1
  Fe  Fe18  1  0.49917538  0.24843796  0.75242969  1
  Fe  Fe19  1  0.49813376  0.24779765  0.00131149  1
  Fe  Fe20  1  0.74670119  -0.00467411  0.50156277  1
  Fe  Fe21  1  0.12812289  0.62686583  0.37463556  1
  Fe  Fe22  1  0.12477694  0.12153032  0.87563658  1
  Fe  Fe23  1  0.74839305  0.49707336  0.24536763  1
  Fe  Fe24  1  0.25146015  0.75142633  0.75297583  1
  Fe  Fe25  1  0.00171482  0.24733710  0.74968102  1
  Fe  Fe26  1  0.49970007  0.50228925  0.00135647  1
  Fe  Fe27  1  0.12950995  0.62996767  0.12448730  1
  Fe  Fe28  1  0.49564705  0.50375849  0.74803299  1
  Fe  Fe29  1  0.62122784  0.63122300  0.62408360  1
  Fe  Fe30  1  0.37245449  0.62398175  0.37474113  1
  Fe  Fe31  1  0.87661193  0.12327832  0.62522697  1
  Fe  Fe32  1  0.50028670  0.74919382  0.25121292  1
  Fe  Fe33  1  0.00250466  0.50359323  0.24933440  1
  Fe  Fe34  1  0.25193031  0.25019730  0.49717608  1
  Fe  Fe35  1  0.37813252  0.87839603  0.37304038  1
  Fe  Fe36  1  0.87749714  0.87449237  0.37415940  1
  Fe  Fe37  1  0.75025556  0.25043074  0.75004731  1
  Fe  Fe38  1  0.62430545  0.12398452  0.62434565  1
  Fe  Fe39  1  0.37248005  0.37638158  0.87319366  1
  Fe  Fe40  1  0.12703520  0.62752635  0.62534775  1
  Fe  Fe41  1  0.62248605  0.37565780  0.37471640  1
  Fe  Fe42  1  0.87744462  0.37593478  0.62433577  1
  Fe  Fe43  1  0.74891276  0.75065521  0.75015344  1
  Fe  Fe44  1  0.87823588  0.87290254  0.12329512  1
  Fe  Fe45  1  0.87256610  0.12420183  0.37540865  1
  Fe  Fe46  1  0.37950953  0.87170539  0.62586308  1
  Fe  Fe47  1  0.49954286  0.50166729  0.24884794  1
  Fe  Fe48  1  0.12367483  0.87426947  0.62357099  1
  Fe  Fe49  1  0.49954758  0.74936872  -0.00408177  1
  Fe  Fe50  1  0.12692237  0.37716222  0.37313238  1
  Fe  Fe51  1  0.25109065  -0.00228208  0.49995673  1
  Fe  Fe52  1  0.62688097  0.62605040  0.37473194  1
  Fe  Fe53  1  0.49818987  0.24900502  0.49839080  1
  Fe  Fe54  1  0.74862830  0.50120529  0.74878329  1
  Fe  Fe55  1  0.74843173  0.74826848  -0.00089035  1
  Fe  Fe56  1  0.24753908  -0.00232516  0.00551932  1
  Fe  Fe57  1  -0.00058885  0.74878625  0.49728097  1
  Fe  Fe58  1  0.74927539  0.75132763  0.25070574  1
  Fe  Fe59  1  0.12820340  0.37713754  0.87328220  1
  Fe  Fe60  1  0.75097494  0.25465409  0.00170759  1
  Fe  Fe61  1  0.75012071  0.25375236  0.24729167  1
  Fe  Fe62  1  0.87363415  0.62283803  0.37663705  1
  Fe  Fe63  1  0.00300463  0.50223298  0.75020371  1
  Fe  Fe64  1  0.87619872  0.12204960  0.87536267  1
  Fe  Fe65  1  0.74845717  0.49999573  0.50211167  1
  Fe  Fe66  1  0.87685483  0.37769687  0.37541276  1
  Fe  Fe67  1  0.37345057  0.12016936  0.87818159  1
  Fe  Fe68  1  0.87684306  0.87455494  0.62600142  1
  Fe  Fe69  1  0.25023775  0.24939346  0.00095090  1
  Fe  Fe70  1  0.12816494  0.12070766  0.37161063  1
  Fe  Fe71  1  0.12027839  0.87172274  0.12911311  1
  Fe  Fe72  1  0.62622888  0.12252598  0.37392079  1
  Fe  Fe73  1  0.37329770  0.12653210  0.62596645  1
  Fe  Fe74  1  0.00011486  0.75020533  0.75424369  1
  Fe  Fe75  1  0.49654092  0.50068735  0.50213299  1
  Fe  Fe76  1  0.37360288  0.37510031  0.12749285  1
  Fe  Fe77  1  0.74894344  -0.00152193  0.00161511  1
  Fe  Fe78  1  0.24857087  -0.00070661  0.74817046  1
  Fe  Fe79  1  0.50287934  0.00152417  0.24427800  1
  Fe  Fe80  1  0.00180628  0.24938563  0.49894465  1
  Fe  Fe81  1  0.49952665  0.24821840  0.24851304  1
  Fe  Fe82  1  0.37791669  0.87440372  0.12291983  1
  Fe  Fe83  1  0.62412082  0.37834708  0.87621642  1
  Fe  Fe84  1  0.87385419  0.62399783  0.87631391  1
  Fe  Fe85  1  0.00149949  0.24865153  0.00004067  1
  Fe  Fe86  1  0.36844821  0.62433991  0.87659122  1
  Fe  Fe87  1  0.50050228  -0.00068833  0.75051618  1
  Fe  Fe88  1  0.12539996  0.37378885  0.12645644  1
  Fe  Fe89  1  0.25157689  0.75371800  0.49618749  1
  Co  Co90  1  0.62427566  0.62689743  0.12501079  1
  Co  Co91  1  0.00107592  -0.00091511  0.00165736  1
  Co  Co92  1  0.25264682  0.75347910  0.25146695  1
  Co  Co93  1  0.25037518  0.25103886  0.24997279  1
  Co  Co94  1  0.50264321  0.00101085  0.00263229  1
  Co  Co95  1  0.49946096  0.75020748  0.49392759  1
  Co  Co96  1  0.25037424  0.75470135  -0.00034141  1
  Co  Co97  1  0.24979288  0.24598511  0.75401016  1
  Co  Co98  1  0.88081133  0.37639467  0.12483205  1
  Co  Co99  1  0.25269825  0.50281565  0.74656456  1
  Co  Co100  1  0.25022883  -0.00536466  0.24646752  1
  Co  Co101  1  0.37200376  0.12402602  0.12543302  1
  Co  Co102  1  0.74923401  0.49807823  0.00347715  1
  Co  Co103  1  0.12605150  0.12454959  0.62318264  1
  Co  Co104  1  0.62328929  0.87087744  0.12372483  1
  Co  Co105  1  0.12573589  0.12535758  0.12785948  1
  Co  Co106  1  0.87459770  0.87521545  0.87698439  1
  Co  Co107  1  0.49725793  0.74880687  0.75770501  1
  Co  Co108  1  0.24916828  0.49855793  0.00267796  1
  Co  Co109  1  0.00037288  0.74795875  -0.00222427  1
  Co  Co110  1  0.62248805  0.87668693  0.37400272  1
  Co  Co111  1  -0.00196915  0.74582784  0.25186029  1
  Co  Co112  1  0.00332578  0.50073798  0.50062727  1
  Co  Co113  1  0.62610389  0.62242319  0.87601175  1
  Co  Co114  1  0.37432081  0.88040793  0.87670157  1
  Co  Co115  1  0.49910789  0.00141346  0.50152531  1
  Co  Co116  1  0.37356107  0.37045519  0.62729327  1
  Co  Co117  1  0.24968781  0.50127334  0.24819110  1
  Co  Co118  1  0.61898474  0.87055582  0.62543404  1
  Co  Co119  1  0.75010905  0.75285330  0.49912942  1
  Co  Co120  1  0.62060426  0.37488755  0.12346276  1
  Co  Co121  1  0.12947509  0.62535570  0.87517465  1
  Co  Co122  1  0.37569560  0.37654623  0.37217630  1
  Co  Co123  1  0.62808762  0.12739783  0.12371730  1
  Co  Co124  1  -0.00202323  0.00174163  0.24969905  1
  Co  Co125  1  0.37450395  0.63249845  0.62368052  1
  Co  Co126  1  0.12233198  0.87530417  0.37248420  1
  Co  Co127  1  0.00113292  -0.00107910  0.75047519  1
