# generated using pymatgen
data_Fe45Co19
_symmetry_space_group_name_H-M   'P 1'
_cell_length_a   11.41560997
_cell_length_b   11.41579445
_cell_length_c   11.41478241
_cell_angle_alpha   90.00255750
_cell_angle_beta   89.99605808
_cell_angle_gamma   89.99981740
_symmetry_Int_Tables_number   1
_chemical_formula_structural   Fe45Co19
_chemical_formula_sum   'Fe90 Co38'
_cell_volume   1487.55454311
_cell_formula_units_Z   2
loop_
 _symmetry_equiv_pos_site_id
 _symmetry_equiv_pos_as_xyz
  1  'x, y, z'
loop_
 _atom_site_type_symbol
 _atom_site_label
 _atom_site_symmetry_multiplicity
 _atom_site_fract_x
 _atom_site_fract_y
 _atom_site_fract_z
 _atom_site_occupancy
  Fe  Fe0  1  0.24766378  0.49839895  0.25259198  1
  Fe  Fe1  1  0.00079919  0.75081718  0.74769092  1
  Fe  Fe2  1  0.12111561  0.12428194  0.87839565  1
  Fe  Fe3  1  0.24985579  0.24999571  0.75175874  1
  Fe  Fe4  1  0.12321684  0.12422126  0.37651041  1
  Fe  Fe5  1  0.50172969  0.00134017  0.75045466  1
  Fe  Fe6  1  0.49971003  0.24962725  0.50102780  1
  Fe  Fe7  1  0.62503111  0.62681763  0.37578269  1
  Fe  Fe8  1  0.25055191  0.25043861  0.25099027  1
  Fe  Fe9  1  0.00122563  0.50071079  0.74707006  1
  Fe  Fe10  1  0.50069555  -0.00053209  0.24746153  1
  Fe  Fe11  1  0.37521635  0.37368568  0.62681579  1
  Fe  Fe12  1  0.12412168  0.87399374  0.12462430  1
  Fe  Fe13  1  0.12287763  0.87554007  0.37277968  1
  Fe  Fe14  1  0.24789310  -0.00009538  0.75176239  1
  Fe  Fe15  1  0.87401893  0.87626391  0.87801822  1
  Fe  Fe16  1  0.87299930  0.62402709  0.12912196  1
  Fe  Fe17  1  0.62769040  0.62069246  0.87662429  1
  Fe  Fe18  1  0.62760850  0.87478851  0.87857705  1
  Fe  Fe19  1  0.50139058  0.75142790  0.50021364  1
  Fe  Fe20  1  0.12369904  0.37658291  0.87446809  1
  Fe  Fe21  1  0.62474775  0.12355028  0.37549221  1
  Fe  Fe22  1  -0.00108676  0.75294182  0.50113893  1
  Fe  Fe23  1  0.62560381  0.12743513  0.12164834  1
  Fe  Fe24  1  0.75306354  0.74995061  0.25441732  1
  Fe  Fe25  1  0.62442472  0.12709948  0.87810134  1
  Fe  Fe26  1  0.75078388  0.74814493  0.75096771  1
  Fe  Fe27  1  0.12190014  0.37279679  0.12810668  1
  Fe  Fe28  1  0.12252185  0.62720545  0.37389321  1
  Fe  Fe29  1  0.50065433  0.75021717  0.75127807  1
  Fe  Fe30  1  -0.00111105  -0.00055129  0.74924371  1
  Fe  Fe31  1  0.75021288  0.00122432  0.75241624  1
  Fe  Fe32  1  0.37378682  0.62352853  0.12655169  1
  Fe  Fe33  1  -0.00323187  0.74919422  0.00263049  1
  Fe  Fe34  1  0.37422796  0.12395378  0.62520703  1
  Fe  Fe35  1  0.62971830  0.87385525  0.12306766  1
  Fe  Fe36  1  0.74935758  0.25336111  0.75434459  1
  Fe  Fe37  1  0.24808802  0.75062451  0.50148516  1
  Fe  Fe38  1  0.24979021  0.49799901  0.00008406  1
  Fe  Fe39  1  0.50114639  -0.00061276  0.50040259  1
  Fe  Fe40  1  0.49993229  0.75124296  0.24890443  1
  Fe  Fe41  1  0.12326004  0.87466670  0.87710220  1
  Fe  Fe42  1  0.25064942  0.00076195  0.24922074  1
  Fe  Fe43  1  -0.00347677  0.00115812  0.24626818  1
  Fe  Fe44  1  0.62794943  0.62631138  0.12436856  1
  Fe  Fe45  1  0.63111858  0.37346929  0.12365426  1
  Fe  Fe46  1  0.50204304  0.49893874  0.24926724  1
  Fe  Fe47  1  0.87711049  0.37519383  0.36647244  1
  Fe  Fe48  1  0.25106289  0.74965418  -0.00088116  1
  Fe  Fe49  1  0.62729707  0.87368415  0.62566853  1
  Fe  Fe50  1  0.87586443  0.13040588  0.12005924  1
  Fe  Fe51  1  0.25016570  0.25078073  0.49753513  1
  Fe  Fe52  1  0.37299238  0.62513325  0.62797472  1
  Fe  Fe53  1  0.50048459  0.74899806  -0.00037084  1
  Fe  Fe54  1  -0.00375786  0.49654952  0.00467883  1
  Fe  Fe55  1  0.49971849  0.49904280  0.00196414  1
  Fe  Fe56  1  0.24846903  0.49845361  0.49935431  1
  Fe  Fe57  1  0.62463328  0.37373330  0.37460968  1
  Fe  Fe58  1  0.75268215  0.00294695  0.24866466  1
  Fe  Fe59  1  0.75219953  0.25098528  0.49616389  1
  Fe  Fe60  1  0.37631759  0.12398764  0.87802384  1
  Fe  Fe61  1  0.49974200  0.25118576  0.24839961  1
  Fe  Fe62  1  0.87404005  0.37476882  0.62645266  1
  Fe  Fe63  1  0.75116294  0.49923644  0.49761265  1
  Fe  Fe64  1  0.75050068  -0.00246325  0.49935023  1
  Fe  Fe65  1  -0.00194349  0.24999407  0.49767640  1
  Fe  Fe66  1  0.87393164  0.62584184  0.62275081  1
  Fe  Fe67  1  0.12409942  0.37386885  0.62377377  1
  Fe  Fe68  1  0.62729104  0.12750614  0.62486233  1
  Fe  Fe69  1  0.12489893  0.62447304  0.87465173  1
  Fe  Fe70  1  0.37438753  0.87657859  0.12240125  1
  Fe  Fe71  1  0.62745659  0.62518866  0.62400281  1
  Fe  Fe72  1  0.37505091  0.87635303  0.87632550  1
  Fe  Fe73  1  -0.00014456  0.49851830  0.49773292  1
  Fe  Fe74  1  0.50326048  0.49580772  0.74879999  1
  Fe  Fe75  1  0.37648876  0.12543336  0.37355450  1
  Fe  Fe76  1  -0.00133378  -0.00110456  0.50301241  1
  Fe  Fe77  1  0.12414967  0.12618130  0.12152242  1
  Fe  Fe78  1  -0.00115260  0.24966691  0.75184082  1
  Fe  Fe79  1  0.37324894  0.62209476  0.87256650  1
  Fe  Fe80  1  0.37237711  0.87630842  0.62553187  1
  Fe  Fe81  1  0.25094638  0.25159503  0.00016072  1
  Fe  Fe82  1  0.12627289  0.62675537  0.12619785  1
  Fe  Fe83  1  0.87342246  0.12549339  0.62608541  1
  Fe  Fe84  1  0.87504175  0.62116869  0.87447082  1
  Fe  Fe85  1  0.12517034  0.12478286  0.62400179  1
  Fe  Fe86  1  0.49704953  0.25315805  0.00029082  1
  Fe  Fe87  1  0.37501370  0.87464481  0.37516506  1
  Fe  Fe88  1  0.37500471  0.62507788  0.37335911  1
  Fe  Fe89  1  0.50036676  0.49926638  0.50054247  1
  Co  Co90  1  0.87761144  0.12332240  0.87551300  1
  Co  Co91  1  0.87408820  0.37139896  0.13354731  1
  Co  Co92  1  0.87620366  0.38012336  0.87162132  1
  Co  Co93  1  0.24786321  0.75084219  0.75065303  1
  Co  Co94  1  0.75200292  0.74563769  -0.00171613  1
  Co  Co95  1  0.12671632  0.87704015  0.62531707  1
  Co  Co96  1  0.87102950  0.87353525  0.12283679  1
  Co  Co97  1  0.24803442  -0.00005276  0.00021413  1
  Co  Co98  1  0.62653664  0.37272438  0.62267812  1
  Co  Co99  1  0.12189995  0.37321518  0.37334543  1
  Co  Co100  1  0.87203049  0.87471496  0.62609000  1
  Co  Co101  1  0.50145754  0.24984632  0.75058159  1
  Co  Co102  1  0.12362339  0.62440537  0.62394647  1
  Co  Co103  1  0.25056898  0.75108223  0.24935976  1
  Co  Co104  1  0.37372234  0.37689110  0.12683680  1
  Co  Co105  1  0.24968809  0.00047782  0.49750295  1
  Co  Co106  1  -0.00253037  0.75040737  0.24776920  1
  Co  Co107  1  0.87713217  0.62510473  0.37569869  1
  Co  Co108  1  0.00229927  0.50293172  0.24860308  1
  Co  Co109  1  0.37731585  0.37545777  0.37419026  1
  Co  Co110  1  0.75510624  0.49755198  0.00302464  1
  Co  Co111  1  0.87654125  0.87705075  0.37472203  1
  Co  Co112  1  -0.00305751  0.25519021  -0.00239845  1
  Co  Co113  1  0.37500871  0.37645899  0.87385169  1
  Co  Co114  1  0.00056235  0.24460076  0.25138612  1
  Co  Co115  1  -0.00197357  -0.00112943  0.00247942  1
  Co  Co116  1  0.74949220  0.24473486  0.25246385  1
  Co  Co117  1  0.62469258  0.37733571  0.87862850  1
  Co  Co118  1  0.74863470  0.49909223  0.74743381  1
  Co  Co119  1  0.24677166  0.49869938  0.74827371  1
  Co  Co120  1  0.75106368  0.00358051  0.00060422  1
  Co  Co121  1  0.74777333  0.50183961  0.25148216  1
  Co  Co122  1  0.37505287  0.12480404  0.12401599  1
  Co  Co123  1  0.74995437  0.75105814  0.49747177  1
  Co  Co124  1  0.50289515  -0.00099135  0.00148352  1
  Co  Co125  1  0.62644763  0.87639532  0.37272828  1
  Co  Co126  1  0.75555562  0.25393569  -0.00481257  1
  Co  Co127  1  0.87595902  0.12226486  0.37755702  1
