# generated using pymatgen
data_Fe45Co19
_symmetry_space_group_name_H-M   'P 1'
_cell_length_a   11.41579174
_cell_length_b   11.41594693
_cell_length_c   11.41613275
_cell_angle_alpha   89.99714816
_cell_angle_beta   89.99556581
_cell_angle_gamma   89.99580953
_symmetry_Int_Tables_number   1
_chemical_formula_structural   Fe45Co19
_chemical_formula_sum   'Fe90 Co38'
_cell_volume   1487.77407115
_cell_formula_units_Z   2
loop_
 _symmetry_equiv_pos_site_id
 _symmetry_equiv_pos_as_xyz
  1  'x, y, z'
loop_
 _atom_site_type_symbol
 _atom_site_label
 _atom_site_symmetry_multiplicity
 _atom_site_fract_x
 _atom_site_fract_y
 _atom_site_fract_z
 _atom_site_occupancy
  Fe  Fe0  1  0.62831017  0.38025947  0.62158000  1
  Fe  Fe1  1  0.50336803  0.50294272  0.74841770  1
  Fe  Fe2  1  0.50096623  0.50020304  0.00330776  1
  Fe  Fe3  1  0.62654774  0.37144670  0.12673030  1
  Fe  Fe4  1  0.00265558  0.50048133  0.24803698  1
  Fe  Fe5  1  0.37295864  0.37402672  0.12780543  1
  Fe  Fe6  1  0.87388806  0.62285267  0.87717167  1
  Fe  Fe7  1  0.74900114  0.75276139  0.24956968  1
  Fe  Fe8  1  0.12769805  0.12790849  0.87493525  1
  Fe  Fe9  1  0.37839515  0.87548685  0.87146365  1
  Fe  Fe10  1  0.87598154  0.87684009  0.37299858  1
  Fe  Fe11  1  0.37493246  0.12363694  0.62678358  1
  Fe  Fe12  1  0.25170340  0.75227806  -0.00085784  1
  Fe  Fe13  1  0.74799895  -0.00393123  0.00233048  1
  Fe  Fe14  1  0.12445561  0.87622027  0.12548469  1
  Fe  Fe15  1  0.75220272  0.25353444  0.49821043  1
  Fe  Fe16  1  -0.00164238  0.49977751  0.49961424  1
  Fe  Fe17  1  0.50026928  0.74898403  0.25130835  1
  Fe  Fe18  1  0.87154494  0.12510576  0.87493130  1
  Fe  Fe19  1  0.74994032  0.74625014  0.74898183  1
  Fe  Fe20  1  -0.00264111  0.24700367  0.74868550  1
  Fe  Fe21  1  0.12235425  0.87694383  0.37425755  1
  Fe  Fe22  1  0.50441383  0.00040291  0.24898426  1
  Fe  Fe23  1  0.00018819  0.50202949  0.75057669  1
  Fe  Fe24  1  0.50206836  0.00023969  0.50112851  1
  Fe  Fe25  1  0.37753477  0.87593684  0.62756033  1
  Fe  Fe26  1  0.37552025  0.87552924  0.12779836  1
  Fe  Fe27  1  0.37431323  0.12641602  0.87096511  1
  Fe  Fe28  1  0.24852056  0.49493088  -0.00248902  1
  Fe  Fe29  1  0.12242813  0.87436578  0.87255820  1
  Fe  Fe30  1  0.37453006  0.37726881  0.62653921  1
  Fe  Fe31  1  0.74951889  0.49821134  0.24919271  1
  Fe  Fe32  1  0.50168559  0.25035352  0.74847590  1
  Fe  Fe33  1  0.12396974  0.37397113  0.62477767  1
  Fe  Fe34  1  0.12770505  0.62674109  0.12342522  1
  Fe  Fe35  1  0.37136198  0.62438481  0.12692931  1
  Fe  Fe36  1  0.37367155  0.62264074  0.87482940  1
  Fe  Fe37  1  0.00104952  0.24530058  0.24872512  1
  Fe  Fe38  1  0.62445464  0.37607486  0.87595887  1
  Fe  Fe39  1  0.62108978  0.87150945  0.87577878  1
  Fe  Fe40  1  0.12611255  0.62552675  0.37512392  1
  Fe  Fe41  1  0.49914354  0.74772279  0.49980723  1
  Fe  Fe42  1  0.75227628  0.75002243  0.50111458  1
  Fe  Fe43  1  0.62577387  0.62604586  0.87899814  1
  Fe  Fe44  1  0.24954769  0.75156608  0.49919304  1
  Fe  Fe45  1  0.12558493  0.37348443  0.37526267  1
  Fe  Fe46  1  0.24933541  -0.00007011  0.49966450  1
  Fe  Fe47  1  0.87581902  0.12212012  0.37551534  1
  Fe  Fe48  1  0.74681075  -0.00226846  0.24670705  1
  Fe  Fe49  1  0.87538890  0.37691259  0.87489030  1
  Fe  Fe50  1  0.75053949  0.25290118  0.74902715  1
  Fe  Fe51  1  0.49952145  0.25277925  0.49928658  1
  Fe  Fe52  1  0.62719116  0.62951324  0.12220917  1
  Fe  Fe53  1  0.12560260  0.12446076  0.62446352  1
  Fe  Fe54  1  0.50065667  0.00150200  0.00007417  1
  Fe  Fe55  1  0.12452642  0.62561475  0.62470486  1
  Fe  Fe56  1  0.62333799  0.87218263  0.62594072  1
  Fe  Fe57  1  0.37624213  0.87697164  0.37431947  1
  Fe  Fe58  1  0.87325265  0.12306683  0.12537216  1
  Fe  Fe59  1  0.75137946  0.25285362  0.00258413  1
  Fe  Fe60  1  0.87648372  0.37467096  0.37118873  1
  Fe  Fe61  1  0.62494787  0.62133368  0.37782754  1
  Fe  Fe62  1  0.37271782  0.12674785  0.12581639  1
  Fe  Fe63  1  0.87613178  0.62545326  0.37377293  1
  Fe  Fe64  1  -0.00202886  0.75136698  0.50146332  1
  Fe  Fe65  1  0.49815897  0.24996041  -0.00061538  1
  Fe  Fe66  1  0.62566551  0.12607360  0.37544528  1
  Fe  Fe67  1  0.00085270  0.49899407  0.00150449  1
  Fe  Fe68  1  0.62681877  0.12635952  0.62390806  1
  Fe  Fe69  1  0.75138882  -0.00234872  0.50230629  1
  Fe  Fe70  1  0.00008936  0.00147625  -0.00019371  1
  Fe  Fe71  1  0.37468932  0.37932231  0.37250013  1
  Fe  Fe72  1  0.62622983  0.12671471  0.87671534  1
  Fe  Fe73  1  0.50011121  0.24950594  0.25239236  1
  Fe  Fe74  1  0.87714027  0.87499948  0.87188893  1
  Fe  Fe75  1  0.37288342  0.62361301  0.62481111  1
  Fe  Fe76  1  0.87318142  0.62525079  0.12405361  1
  Fe  Fe77  1  -0.00120736  0.74993112  -0.00018754  1
  Fe  Fe78  1  0.12673922  0.36965210  0.12450860  1
  Fe  Fe79  1  0.74886789  -0.00025756  0.74928221  1
  Fe  Fe80  1  0.25061381  0.00032230  -0.00158441  1
  Fe  Fe81  1  0.24611676  0.49680688  0.75248965  1
  Fe  Fe82  1  0.24664766  0.00482931  0.25250331  1
  Fe  Fe83  1  -0.00269492  0.24897372  0.00105171  1
  Fe  Fe84  1  0.00097803  0.75046458  0.24820512  1
  Fe  Fe85  1  -0.00356898  0.24924832  0.50207216  1
  Fe  Fe86  1  0.24926961  0.75054181  0.75099569  1
  Fe  Fe87  1  0.25248249  0.24952285  0.49811627  1
  Fe  Fe88  1  0.12058107  0.87606393  0.62881912  1
  Fe  Fe89  1  0.37261017  0.62170299  0.37316731  1
  Co  Co90  1  0.87688340  0.87394936  0.62943138  1
  Co  Co91  1  0.74911323  0.50200770  0.75144043  1
  Co  Co92  1  0.25045527  0.25268867  0.74981098  1
  Co  Co93  1  0.49435803  0.74823406  0.00033603  1
  Co  Co94  1  0.12022789  0.37143538  0.87474643  1
  Co  Co95  1  0.74907722  0.49671429  0.00237979  1
  Co  Co96  1  0.25378858  0.25328630  -0.00477946  1
  Co  Co97  1  0.62559974  0.12813105  0.12410801  1
  Co  Co98  1  0.50307649  0.50144062  0.24655637  1
  Co  Co99  1  -0.00159164  0.00576558  0.75091958  1
  Co  Co100  1  0.37988393  0.37712243  0.87217612  1
  Co  Co101  1  0.24524568  0.49896219  0.24971269  1
  Co  Co102  1  0.12865491  0.12770485  0.12067267  1
  Co  Co103  1  0.75580836  0.49837102  0.49631814  1
  Co  Co104  1  0.24899833  0.75117646  0.25189213  1
  Co  Co105  1  0.62760627  0.62235800  0.61949018  1
  Co  Co106  1  0.87187095  0.12503057  0.62455448  1
  Co  Co107  1  0.87507465  0.37738084  0.62726445  1
  Co  Co108  1  0.75398512  0.75415641  -0.00143619  1
  Co  Co109  1  0.87624353  0.37508950  0.12693582  1
  Co  Co110  1  0.50056027  0.74499063  0.74855433  1
  Co  Co111  1  0.12144706  0.12493790  0.38044089  1
  Co  Co112  1  0.24821065  0.49954804  0.49948818  1
  Co  Co113  1  0.12645251  0.62568726  0.87718166  1
  Co  Co114  1  0.50359061  0.00280033  0.75033141  1
  Co  Co115  1  0.24880743  -0.00105650  0.75036290  1
  Co  Co116  1  0.49758409  0.49944824  0.50025356  1
  Co  Co117  1  0.00235365  0.00344056  0.24820940  1
  Co  Co118  1  0.62484237  0.37658547  0.37476018  1
  Co  Co119  1  -0.00266236  -0.00162315  0.50307033  1
  Co  Co120  1  0.87762625  0.87540509  0.12643493  1
  Co  Co121  1  -0.00100254  0.74503646  0.75119179  1
  Co  Co122  1  0.87527367  0.62326276  0.62396223  1
  Co  Co123  1  0.24966327  0.24665719  0.25535197  1
  Co  Co124  1  0.62145072  0.87042106  0.12164891  1
  Co  Co125  1  0.75191045  0.24887543  0.25102808  1
  Co  Co126  1  0.37893624  0.12228495  0.37606313  1
  Co  Co127  1  0.62474251  0.87476811  0.37719105  1
