# generated using pymatgen
data_Fe45Co19
_symmetry_space_group_name_H-M   'P 1'
_cell_length_a   11.41294140
_cell_length_b   11.41524942
_cell_length_c   11.41408771
_cell_angle_alpha   90.00454702
_cell_angle_beta   89.99992257
_cell_angle_gamma   90.00338682
_symmetry_Int_Tables_number   1
_chemical_formula_structural   Fe45Co19
_chemical_formula_sum   'Fe90 Co38'
_cell_volume   1487.04529056
_cell_formula_units_Z   2
loop_
 _symmetry_equiv_pos_site_id
 _symmetry_equiv_pos_as_xyz
  1  'x, y, z'
loop_
 _atom_site_type_symbol
 _atom_site_label
 _atom_site_symmetry_multiplicity
 _atom_site_fract_x
 _atom_site_fract_y
 _atom_site_fract_z
 _atom_site_occupancy
  Fe  Fe0  1  0.37530703  0.37306607  0.87482204  1
  Fe  Fe1  1  -0.00344104  -0.00196436  0.25045938  1
  Fe  Fe2  1  0.75083322  0.50070509  0.25223172  1
  Fe  Fe3  1  -0.00316710  0.49948513  0.24972832  1
  Fe  Fe4  1  0.50174827  0.49649955  0.75088170  1
  Fe  Fe5  1  0.50551628  0.75271625  0.74650293  1
  Fe  Fe6  1  0.24885311  0.75188116  0.74856869  1
  Fe  Fe7  1  0.87428081  0.37246486  0.62762214  1
  Fe  Fe8  1  0.12746511  0.37589157  0.62172438  1
  Fe  Fe9  1  0.37703831  0.62678210  0.87460444  1
  Fe  Fe10  1  -0.00459489  0.24950749  -0.00162194  1
  Fe  Fe11  1  0.74750129  0.74971325  0.50550384  1
  Fe  Fe12  1  0.24919042  0.25042840  0.00197757  1
  Fe  Fe13  1  0.87297185  0.62659416  0.87209915  1
  Fe  Fe14  1  0.87446128  0.62589891  0.62564485  1
  Fe  Fe15  1  -0.00049809  0.75187020  0.75002928  1
  Fe  Fe16  1  0.49983647  0.50076616  0.24967497  1
  Fe  Fe17  1  0.87128921  0.12269617  0.12744108  1
  Fe  Fe18  1  0.50258653  0.00069670  -0.00318495  1
  Fe  Fe19  1  0.87004701  0.37398327  0.12326329  1
  Fe  Fe20  1  0.24975637  -0.00077717  -0.00142630  1
  Fe  Fe21  1  0.12228581  0.12444255  0.12414621  1
  Fe  Fe22  1  0.25113576  0.74809666  0.25044782  1
  Fe  Fe23  1  0.50302255  0.74996216  0.00088971  1
  Fe  Fe24  1  0.87216641  0.87300640  0.87449978  1
  Fe  Fe25  1  0.62521280  0.62473705  0.37801549  1
  Fe  Fe26  1  0.12418518  0.62582404  0.87503151  1
  Fe  Fe27  1  0.49789039  0.49924164  0.50179240  1
  Fe  Fe28  1  0.37646775  0.87261451  0.87546436  1
  Fe  Fe29  1  0.62662199  0.37361561  0.37678646  1
  Fe  Fe30  1  -0.00085724  0.25175256  0.24881831  1
  Fe  Fe31  1  0.24650619  0.24947166  0.74900767  1
  Fe  Fe32  1  0.12287096  0.62149192  0.37700672  1
  Fe  Fe33  1  0.00190636  0.24783096  0.50255738  1
  Fe  Fe34  1  0.12214226  0.12365802  0.87548143  1
  Fe  Fe35  1  0.62722710  0.62641380  0.87397380  1
  Fe  Fe36  1  0.12305360  0.87634356  0.12412914  1
  Fe  Fe37  1  0.50435310  0.00192482  0.25230227  1
  Fe  Fe38  1  0.50618768  0.24967794  0.00283650  1
  Fe  Fe39  1  0.62415668  0.11989249  0.62864112  1
  Fe  Fe40  1  0.62597600  0.62200089  0.12298101  1
  Fe  Fe41  1  0.12338201  0.62461056  0.62386209  1
  Fe  Fe42  1  0.37579189  0.12709156  0.37324200  1
  Fe  Fe43  1  0.24977496  0.75052484  0.00026150  1
  Fe  Fe44  1  0.63005418  0.87752321  0.12386877  1
  Fe  Fe45  1  0.50391666  0.25293115  0.74855182  1
  Fe  Fe46  1  -0.00439699  0.49972201  -0.00071507  1
  Fe  Fe47  1  0.12398135  0.62470934  0.12400722  1
  Fe  Fe48  1  0.87190789  0.62868582  0.12624814  1
  Fe  Fe49  1  0.75264312  0.50018869  0.50094906  1
  Fe  Fe50  1  0.87713135  0.12485880  0.63078552  1
  Fe  Fe51  1  0.37436774  0.37307897  0.37704409  1
  Fe  Fe52  1  0.24864890  0.25152843  0.24809263  1
  Fe  Fe53  1  0.75240889  0.00114965  0.50118943  1
  Fe  Fe54  1  0.87215225  0.87213108  0.37495397  1
  Fe  Fe55  1  0.37806563  0.62467264  0.62587111  1
  Fe  Fe56  1  0.37566733  0.12603740  0.62697442  1
  Fe  Fe57  1  0.25084789  0.49985949  0.74953842  1
  Fe  Fe58  1  0.37657235  0.87564115  0.12582415  1
  Fe  Fe59  1  -0.00034698  0.49742505  0.74934201  1
  Fe  Fe60  1  0.50620808  0.24891214  0.24785735  1
  Fe  Fe61  1  -0.00085378  -0.00227083  0.75182527  1
  Fe  Fe62  1  0.25208570  0.50016212  0.00051629  1
  Fe  Fe63  1  0.12397412  0.87685801  0.37634083  1
  Fe  Fe64  1  0.25148290  0.74813402  0.49950284  1
  Fe  Fe65  1  -0.00250394  0.75078175  0.25035636  1
  Fe  Fe66  1  0.62462790  0.87570683  0.37978644  1
  Fe  Fe67  1  0.87426870  0.37307409  0.37681635  1
  Fe  Fe68  1  0.12485735  0.37705643  0.37763283  1
  Fe  Fe69  1  0.37797038  0.37588844  0.12393460  1
  Fe  Fe70  1  0.63053028  0.37390917  0.87862600  1
  Fe  Fe71  1  0.87259052  0.12801160  0.37279003  1
  Fe  Fe72  1  0.37720573  0.12398943  0.12456723  1
  Fe  Fe73  1  -0.00175121  0.74955169  0.49964259  1
  Fe  Fe74  1  0.75109293  0.00358457  -0.00625611  1
  Fe  Fe75  1  0.12338435  0.37574001  0.87768058  1
  Fe  Fe76  1  0.37932004  0.87619715  0.62210296  1
  Fe  Fe77  1  0.50144827  0.24849890  0.50166895  1
  Fe  Fe78  1  0.74878212  0.24807717  0.50391120  1
  Fe  Fe79  1  -0.00231337  0.75233498  0.00051113  1
  Fe  Fe80  1  0.12396406  0.12445382  0.37466912  1
  Fe  Fe81  1  0.37723134  0.12755112  0.87526438  1
  Fe  Fe82  1  0.12265499  0.87787809  0.62243864  1
  Fe  Fe83  1  0.25015152  0.00052172  0.24933334  1
  Fe  Fe84  1  0.25163064  -0.00134886  0.75146759  1
  Fe  Fe85  1  0.74959645  0.49888295  0.74944085  1
  Fe  Fe86  1  0.25119260  0.50045123  0.24840372  1
  Fe  Fe87  1  0.50235311  0.74898516  0.24970766  1
  Fe  Fe88  1  0.25182263  0.00257577  0.49958015  1
  Fe  Fe89  1  0.37770090  0.87369153  0.37552113  1
  Co  Co90  1  0.74908340  0.74960472  -0.00090632  1
  Co  Co91  1  0.87224235  0.37269423  0.87263066  1
  Co  Co92  1  0.74809225  -0.00121585  0.25488951  1
  Co  Co93  1  0.37642696  0.62509313  0.12307408  1
  Co  Co94  1  0.62264289  0.88232700  0.62377922  1
  Co  Co95  1  0.87424178  0.62681722  0.37689712  1
  Co  Co96  1  0.62682175  0.37631917  0.62263405  1
  Co  Co97  1  -0.00392164  0.49882867  0.50237436  1
  Co  Co98  1  0.37704944  0.62597413  0.37534399  1
  Co  Co99  1  0.12255742  0.37563882  0.12336169  1
  Co  Co100  1  0.75297726  0.50239009  -0.00133806  1
  Co  Co101  1  0.74666382  0.24959489  0.74978047  1
  Co  Co102  1  0.25383441  0.50233524  0.50129756  1
  Co  Co103  1  0.74645278  0.25164123  0.24798881  1
  Co  Co104  1  0.62847355  0.12698294  0.37683023  1
  Co  Co105  1  0.74734436  0.75281608  0.74512606  1
  Co  Co106  1  0.24829296  0.24646311  0.50042002  1
  Co  Co107  1  0.37418741  0.37299670  0.62502456  1
  Co  Co108  1  0.62921013  0.12128247  0.12542383  1
  Co  Co109  1  0.49840398  0.00465955  0.49730173  1
  Co  Co110  1  0.50226612  0.74836141  0.50215369  1
  Co  Co111  1  0.74658920  0.74878151  0.25103238  1
  Co  Co112  1  -0.00421734  -0.00074066  -0.00074385  1
  Co  Co113  1  0.62340001  0.12507994  0.87016502  1
  Co  Co114  1  0.00467470  0.25313631  0.74901254  1
  Co  Co115  1  0.50015066  0.49939258  -0.00334514  1
  Co  Co116  1  0.87646367  0.12835924  0.86792431  1
  Co  Co117  1  0.12374780  0.87501838  0.87506411  1
  Co  Co118  1  0.62478557  0.62076551  0.62501129  1
  Co  Co119  1  0.86972202  0.87622169  0.12574256  1
  Co  Co120  1  0.75142075  -0.00278403  0.75127078  1
  Co  Co121  1  -0.00452548  0.00199848  0.49693775  1
  Co  Co122  1  0.87687807  0.87562806  0.62478877  1
  Co  Co123  1  0.49694716  -0.00183133  0.75386961  1
  Co  Co124  1  0.62661673  0.87476012  0.87337085  1
  Co  Co125  1  0.75006138  0.24491691  -0.00076224  1
  Co  Co126  1  0.62818860  0.37903838  0.12346578  1
  Co  Co127  1  0.12298459  0.11953972  0.62622098  1
