# generated using pymatgen
data_Fe45Co19
_symmetry_space_group_name_H-M   'P 1'
_cell_length_a   11.41620466
_cell_length_b   11.41453121
_cell_length_c   11.41610308
_cell_angle_alpha   89.99754086
_cell_angle_beta   90.00206482
_cell_angle_gamma   89.98853749
_symmetry_Int_Tables_number   1
_chemical_formula_structural   Fe45Co19
_chemical_formula_sum   'Fe90 Co38'
_cell_volume   1487.63948844
_cell_formula_units_Z   2
loop_
 _symmetry_equiv_pos_site_id
 _symmetry_equiv_pos_as_xyz
  1  'x, y, z'
loop_
 _atom_site_type_symbol
 _atom_site_label
 _atom_site_symmetry_multiplicity
 _atom_site_fract_x
 _atom_site_fract_y
 _atom_site_fract_z
 _atom_site_occupancy
  Fe  Fe0  1  0.37558792  0.87847453  0.37121583  1
  Fe  Fe1  1  0.37402286  0.62178285  0.37062097  1
  Fe  Fe2  1  0.75079793  0.25191531  -0.00125432  1
  Fe  Fe3  1  0.87272083  0.62501773  0.87863517  1
  Fe  Fe4  1  0.87303277  0.37805255  0.62455093  1
  Fe  Fe5  1  0.49970457  0.25043982  0.75072816  1
  Fe  Fe6  1  0.12143531  0.13054585  0.37576917  1
  Fe  Fe7  1  0.74953100  0.75004254  0.49892874  1
  Fe  Fe8  1  0.87839622  0.87230120  0.12475828  1
  Fe  Fe9  1  0.50125653  0.50054574  -0.00110786  1
  Fe  Fe10  1  0.50108393  0.00095422  0.74988424  1
  Fe  Fe11  1  0.12660447  0.87431994  0.62399015  1
  Fe  Fe12  1  0.74834690  0.50113132  0.25096675  1
  Fe  Fe13  1  0.87459835  0.37659991  0.12697546  1
  Fe  Fe14  1  0.87668176  0.87346586  0.87738674  1
  Fe  Fe15  1  0.49973929  0.49861077  0.49839860  1
  Fe  Fe16  1  0.12609345  0.62390388  0.62259345  1
  Fe  Fe17  1  0.25229485  0.74909492  0.00352999  1
  Fe  Fe18  1  0.12331768  0.87267052  0.12527557  1
  Fe  Fe19  1  0.37425921  0.37496048  0.87847426  1
  Fe  Fe20  1  0.12484067  0.12703723  0.62404757  1
  Fe  Fe21  1  0.24947919  0.00454376  -0.00048858  1
  Fe  Fe22  1  0.00078195  0.49609739  0.49601746  1
  Fe  Fe23  1  0.25141226  0.00386786  0.49918143  1
  Fe  Fe24  1  0.74844768  0.00086654  0.49714409  1
  Fe  Fe25  1  0.74675041  0.50107541  0.75105224  1
  Fe  Fe26  1  -0.00066076  0.74959691  0.49750289  1
  Fe  Fe27  1  0.62361127  0.87461934  0.62319625  1
  Fe  Fe28  1  0.50011418  0.00449764  0.00270412  1
  Fe  Fe29  1  0.12461770  0.62564711  0.12836723  1
  Fe  Fe30  1  0.87541566  0.12403633  0.62451937  1
  Fe  Fe31  1  0.12811551  0.62435500  0.37270046  1
  Fe  Fe32  1  0.12771943  0.37409285  0.62156235  1
  Fe  Fe33  1  0.12907864  0.62342851  0.87573525  1
  Fe  Fe34  1  0.25233398  0.50080296  0.74774957  1
  Fe  Fe35  1  0.12264201  0.12879038  0.12206885  1
  Fe  Fe36  1  0.62317612  0.37134488  0.12490386  1
  Fe  Fe37  1  0.62451090  0.62569543  0.37366824  1
  Fe  Fe38  1  0.37564036  0.62236989  0.12765482  1
  Fe  Fe39  1  0.37512681  0.87609900  0.87722434  1
  Fe  Fe40  1  0.24628548  0.00250515  0.25020296  1
  Fe  Fe41  1  0.00127506  -0.00034537  0.75097315  1
  Fe  Fe42  1  0.37422295  0.37413150  0.62247962  1
  Fe  Fe43  1  0.49973224  0.50098133  0.75284916  1
  Fe  Fe44  1  0.62380921  0.87251400  0.87817339  1
  Fe  Fe45  1  0.62322831  0.87365849  0.12720134  1
  Fe  Fe46  1  0.75179932  0.74948258  0.24960287  1
  Fe  Fe47  1  0.62385463  0.12720050  0.87787195  1
  Fe  Fe48  1  0.75125694  0.24734905  0.25098111  1
  Fe  Fe49  1  0.37610511  0.87855242  0.12805851  1
  Fe  Fe50  1  0.74945097  0.25001522  0.75117889  1
  Fe  Fe51  1  0.00036193  0.00051546  0.49991656  1
  Fe  Fe52  1  -0.00032418  0.25159584  0.74952709  1
  Fe  Fe53  1  0.12551421  0.87354628  0.37408638  1
  Fe  Fe54  1  0.50542548  0.00630255  0.25085465  1
  Fe  Fe55  1  0.62328456  0.62676839  0.12480844  1
  Fe  Fe56  1  0.62422692  0.37126620  0.37440158  1
  Fe  Fe57  1  0.62289564  0.62428774  0.62434903  1
  Fe  Fe58  1  0.87772844  0.12464534  0.87678703  1
  Fe  Fe59  1  0.00124651  0.49994438  0.00039988  1
  Fe  Fe60  1  0.87423773  0.37703814  0.87450529  1
  Fe  Fe61  1  0.87477324  0.62228772  0.62168194  1
  Fe  Fe62  1  0.37535379  0.87673425  0.62424404  1
  Fe  Fe63  1  0.24970136  0.00294934  0.75130636  1
  Fe  Fe64  1  0.75302699  0.25043093  0.49942924  1
  Fe  Fe65  1  0.74835746  -0.00030200  0.75113283  1
  Fe  Fe66  1  0.12731430  0.37395881  0.87734324  1
  Fe  Fe67  1  0.49818743  0.75060908  0.49652066  1
  Fe  Fe68  1  0.37378045  0.37382010  0.37369491  1
  Fe  Fe69  1  0.25334100  0.74911049  0.49837764  1
  Fe  Fe70  1  0.00044807  0.49834866  0.25268151  1
  Fe  Fe71  1  0.87544410  0.12544261  0.12492086  1
  Fe  Fe72  1  0.74716071  0.49946293  0.00062256  1
  Fe  Fe73  1  0.87454441  0.87689593  0.37299291  1
  Fe  Fe74  1  0.50033510  0.00356466  0.49711373  1
  Fe  Fe75  1  0.62376300  0.12667988  0.62320031  1
  Fe  Fe76  1  0.74971610  0.74998849  0.74992392  1
  Fe  Fe77  1  0.75010350  -0.00181661  0.00194800  1
  Fe  Fe78  1  0.00118218  0.49986979  0.75033884  1
  Fe  Fe79  1  0.87480059  0.87587927  0.62458346  1
  Fe  Fe80  1  0.12479227  0.87483709  0.87667231  1
  Fe  Fe81  1  0.25044407  0.25064238  0.24897470  1
  Fe  Fe82  1  0.25235420  0.74907203  0.74846442  1
  Fe  Fe83  1  0.62461666  0.37477753  0.62461911  1
  Fe  Fe84  1  0.25084969  0.24738801  0.75192149  1
  Fe  Fe85  1  0.00019185  0.00092807  0.24879283  1
  Fe  Fe86  1  0.12447434  0.37287632  0.12383819  1
  Fe  Fe87  1  0.00002372  0.74849652  0.75026507  1
  Fe  Fe88  1  0.49815983  0.74875361  0.75242935  1
  Fe  Fe89  1  0.37659466  0.37431062  0.12444928  1
  Co  Co90  1  0.24936740  0.49977436  0.00419920  1
  Co  Co91  1  -0.00133808  0.25192057  0.24933928  1
  Co  Co92  1  0.49699367  0.24906739  0.49868370  1
  Co  Co93  1  0.37414740  0.12526271  0.37108162  1
  Co  Co94  1  0.62373695  0.37362159  0.87595076  1
  Co  Co95  1  0.25257148  0.24713708  0.00017942  1
  Co  Co96  1  -0.00358682  0.25340518  0.50113845  1
  Co  Co97  1  0.62827100  0.12804886  0.12357412  1
  Co  Co98  1  0.37350435  0.12393694  0.12853103  1
  Co  Co99  1  0.49662773  0.74906654  0.00173183  1
  Co  Co100  1  0.74982188  -0.00011946  0.24807910  1
  Co  Co101  1  0.87321495  0.62229360  0.37568144  1
  Co  Co102  1  0.25116629  0.50083723  0.49866896  1
  Co  Co103  1  0.37235273  0.62326430  0.87704439  1
  Co  Co104  1  0.37755040  0.12467555  0.87428711  1
  Co  Co105  1  0.25253086  0.75164372  0.24903524  1
  Co  Co106  1  0.37612410  0.12442259  0.62708856  1
  Co  Co107  1  0.00070981  -0.00027957  0.00157705  1
  Co  Co108  1  0.24899325  0.49615069  0.24882494  1
  Co  Co109  1  0.74638801  0.49805495  0.49775512  1
  Co  Co110  1  0.25316411  0.24679508  0.49934322  1
  Co  Co111  1  0.50175931  0.49799022  0.25013812  1
  Co  Co112  1  0.12762656  0.37130556  0.37623585  1
  Co  Co113  1  0.62555658  0.62705667  0.87666705  1
  Co  Co114  1  0.87598869  0.62315443  0.12445490  1
  Co  Co115  1  0.49812826  0.24782499  0.00232434  1
  Co  Co116  1  -0.00287813  0.25356531  -0.00019007  1
  Co  Co117  1  0.87685308  0.12393272  0.37382700  1
  Co  Co118  1  0.62743367  0.12854576  0.37513965  1
  Co  Co119  1  0.74923010  0.75168742  0.00369622  1
  Co  Co120  1  0.12153859  0.12718959  0.87699573  1
  Co  Co121  1  0.87256667  0.37536072  0.37242403  1
  Co  Co122  1  0.00268553  0.74662361  -0.00116256  1
  Co  Co123  1  0.62561126  0.87468542  0.37264721  1
  Co  Co124  1  -0.00159568  0.74849181  0.25255232  1
  Co  Co125  1  0.49979573  0.24787390  0.24899877  1
  Co  Co126  1  0.37714748  0.62414586  0.62448479  1
  Co  Co127  1  0.49812849  0.74994009  0.25044738  1
