# generated using pymatgen
data_Fe45Co19
_symmetry_space_group_name_H-M   'P 1'
_cell_length_a   11.41502249
_cell_length_b   11.41551729
_cell_length_c   11.41486090
_cell_angle_alpha   90.00395243
_cell_angle_beta   89.99557269
_cell_angle_gamma   90.00383407
_symmetry_Int_Tables_number   1
_chemical_formula_structural   Fe45Co19
_chemical_formula_sum   'Fe90 Co38'
_cell_volume   1487.45209563
_cell_formula_units_Z   2
loop_
 _symmetry_equiv_pos_site_id
 _symmetry_equiv_pos_as_xyz
  1  'x, y, z'
loop_
 _atom_site_type_symbol
 _atom_site_label
 _atom_site_symmetry_multiplicity
 _atom_site_fract_x
 _atom_site_fract_y
 _atom_site_fract_z
 _atom_site_occupancy
  Fe  Fe0  1  0.74405681  0.50186338  -0.00020314  1
  Fe  Fe1  1  0.12630859  0.37394433  0.12444041  1
  Fe  Fe2  1  -0.00060277  0.24940538  0.25062366  1
  Fe  Fe3  1  -0.00107575  0.00293970  0.74749268  1
  Fe  Fe4  1  0.12546009  0.37548772  0.62899823  1
  Fe  Fe5  1  0.87645828  0.37389775  0.87298668  1
  Fe  Fe6  1  0.12280709  0.87586211  0.37299861  1
  Fe  Fe7  1  -0.00196565  0.74874949  0.49844350  1
  Fe  Fe8  1  0.37672885  0.37594531  0.12097846  1
  Fe  Fe9  1  0.37558523  0.37698041  0.37631509  1
  Fe  Fe10  1  0.62307456  0.12596231  0.87377088  1
  Fe  Fe11  1  0.87254340  0.12477155  0.62325447  1
  Fe  Fe12  1  0.74778979  0.74853869  -0.00255082  1
  Fe  Fe13  1  0.87681119  0.87663813  0.87623335  1
  Fe  Fe14  1  -0.00149549  0.24924353  -0.00060612  1
  Fe  Fe15  1  0.87649912  0.37573282  0.37565243  1
  Fe  Fe16  1  0.37192698  0.62281173  0.62333453  1
  Fe  Fe17  1  0.50170995  0.50033203  0.24539844  1
  Fe  Fe18  1  0.12398844  0.62623095  0.37201935  1
  Fe  Fe19  1  0.37639319  0.62251496  0.37654151  1
  Fe  Fe20  1  0.37817245  0.62733500  0.87980011  1
  Fe  Fe21  1  0.37328438  0.87597747  0.62490706  1
  Fe  Fe22  1  0.49889543  0.25060958  0.24868314  1
  Fe  Fe23  1  0.25228391  0.25070324  0.50161341  1
  Fe  Fe24  1  0.74530267  0.00016855  0.49402302  1
  Fe  Fe25  1  0.50156923  -0.00094368  0.00169824  1
  Fe  Fe26  1  0.50064272  0.75030290  0.50258649  1
  Fe  Fe27  1  0.37817383  0.37739966  0.87768734  1
  Fe  Fe28  1  0.62485300  0.62671540  0.37431987  1
  Fe  Fe29  1  0.75498422  0.75000239  0.25495978  1
  Fe  Fe30  1  0.24994348  0.00035292  0.50107943  1
  Fe  Fe31  1  0.87319504  0.37382069  0.62727883  1
  Fe  Fe32  1  0.37869351  0.87724469  0.37594586  1
  Fe  Fe33  1  0.12310036  0.87430480  0.87299031  1
  Fe  Fe34  1  0.37089865  0.62594035  0.12055182  1
  Fe  Fe35  1  0.25017564  0.00066918  0.74974464  1
  Fe  Fe36  1  0.74999820  0.50076594  0.75160372  1
  Fe  Fe37  1  0.24917215  -0.00201293  -0.00213140  1
  Fe  Fe38  1  0.49844271  0.25347447  0.74530321  1
  Fe  Fe39  1  0.25042025  0.74984337  0.49695837  1
  Fe  Fe40  1  0.37404943  0.12495744  0.12327028  1
  Fe  Fe41  1  0.00087617  0.25002855  0.50183346  1
  Fe  Fe42  1  0.25180594  0.24979459  0.25263185  1
  Fe  Fe43  1  0.37718898  0.12327956  0.87383157  1
  Fe  Fe44  1  0.24675423  0.50279933  0.75484396  1
  Fe  Fe45  1  0.74776346  0.24848043  0.49567823  1
  Fe  Fe46  1  0.00197726  0.74860391  0.00331652  1
  Fe  Fe47  1  0.00125864  0.00079437  0.00295178  1
  Fe  Fe48  1  0.74829715  0.49735456  0.24904163  1
  Fe  Fe49  1  -0.00235867  0.74761956  0.74838657  1
  Fe  Fe50  1  0.25167726  0.24840161  0.74917889  1
  Fe  Fe51  1  0.12642519  0.87174928  0.12954150  1
  Fe  Fe52  1  0.75035155  0.00114223  0.75167944  1
  Fe  Fe53  1  0.87872706  0.87995374  0.37433407  1
  Fe  Fe54  1  0.38158357  0.12332719  0.38035856  1
  Fe  Fe55  1  0.87362616  0.87649699  0.12565532  1
  Fe  Fe56  1  0.87176163  0.12380433  0.12689445  1
  Fe  Fe57  1  0.87604539  0.62403727  0.87648039  1
  Fe  Fe58  1  0.62886517  0.62834639  0.62682082  1
  Fe  Fe59  1  0.49961437  -0.00248667  0.74727744  1
  Fe  Fe60  1  0.24606708  0.49994126  0.49831650  1
  Fe  Fe61  1  0.62269522  0.12743457  0.62261312  1
  Fe  Fe62  1  0.74864901  0.50022251  0.49918866  1
  Fe  Fe63  1  0.62298322  0.37443074  0.87562747  1
  Fe  Fe64  1  0.12292401  0.12368606  0.37688357  1
  Fe  Fe65  1  0.87284467  0.62540424  0.62334422  1
  Fe  Fe66  1  0.12341280  0.12587575  0.87456317  1
  Fe  Fe67  1  0.00133929  0.49980875  0.24915661  1
  Fe  Fe68  1  0.00482366  0.50043385  -0.00092887  1
  Fe  Fe69  1  0.74984824  0.24951025  -0.00186688  1
  Fe  Fe70  1  0.74797116  -0.00062490  -0.00203870  1
  Fe  Fe71  1  0.62726609  0.87338457  0.12974005  1
  Fe  Fe72  1  0.62744703  0.12635897  0.12871218  1
  Fe  Fe73  1  0.87367975  0.62350870  0.12526481  1
  Fe  Fe74  1  0.24977460  0.49936567  0.24884859  1
  Fe  Fe75  1  0.50092810  0.50072513  0.74767187  1
  Fe  Fe76  1  0.87324249  0.37520087  0.12434791  1
  Fe  Fe77  1  0.49619299  0.74891217  0.24838978  1
  Fe  Fe78  1  0.25122099  0.25191424  -0.00301030  1
  Fe  Fe79  1  0.00211190  0.50030038  0.50207246  1
  Fe  Fe80  1  0.62918056  0.87026747  0.62677866  1
  Fe  Fe81  1  0.37313595  0.87374034  0.12214681  1
  Fe  Fe82  1  0.25181817  0.00080916  0.25175734  1
  Fe  Fe83  1  0.50231242  0.49785434  0.50392990  1
  Fe  Fe84  1  0.62318371  0.37392193  0.37456070  1
  Fe  Fe85  1  0.62241185  0.87035917  0.87178692  1
  Fe  Fe86  1  0.12746760  0.12648453  0.12521706  1
  Fe  Fe87  1  0.87247338  0.87565829  0.62354021  1
  Fe  Fe88  1  0.25183048  0.74935170  0.75234489  1
  Fe  Fe89  1  0.12500963  0.87323142  0.62460724  1
  Co  Co90  1  0.12772742  0.62648753  0.12773996  1
  Co  Co91  1  0.00014426  -0.00031172  0.50340349  1
  Co  Co92  1  0.87502108  0.61955885  0.37482995  1
  Co  Co93  1  0.49826075  -0.00004283  0.24566187  1
  Co  Co94  1  0.75561627  0.74948670  0.75337242  1
  Co  Co95  1  0.49984542  0.24699546  0.00056602  1
  Co  Co96  1  0.50389715  0.75010450  0.00282548  1
  Co  Co97  1  0.50565896  0.50449561  0.00334859  1
  Co  Co98  1  0.24658087  0.49855605  -0.00216711  1
  Co  Co99  1  0.12628665  0.12502517  0.62372864  1
  Co  Co100  1  0.75113457  0.25084035  0.25392933  1
  Co  Co101  1  0.12649761  0.62725958  0.62432274  1
  Co  Co102  1  0.74953156  0.24782263  0.75183353  1
  Co  Co103  1  0.50474808  -0.00578217  0.50396074  1
  Co  Co104  1  0.36909631  0.38049251  0.62560708  1
  Co  Co105  1  0.25416899  0.75023393  0.25369150  1
  Co  Co106  1  0.62873056  0.62946496  0.12987494  1
  Co  Co107  1  0.37768737  0.87511388  0.87624136  1
  Co  Co108  1  0.87570254  0.12327593  0.87663962  1
  Co  Co109  1  0.12219473  0.37164227  0.87232125  1
  Co  Co110  1  0.00104097  0.00219050  0.24635253  1
  Co  Co111  1  0.12504523  0.37420639  0.37490754  1
  Co  Co112  1  0.12342913  0.62793083  0.87543671  1
  Co  Co113  1  0.37798035  0.12270518  0.62316357  1
  Co  Co114  1  0.24665491  0.75216016  -0.00273018  1
  Co  Co115  1  0.63009321  0.37501837  0.62629221  1
  Co  Co116  1  0.62069557  0.87258794  0.37067294  1
  Co  Co117  1  0.62487771  0.37051197  0.12330713  1
  Co  Co118  1  0.62236924  0.62826681  0.87012683  1
  Co  Co119  1  0.75174367  0.75184256  0.49411295  1
  Co  Co120  1  0.61725396  0.12642177  0.37454694  1
  Co  Co121  1  -0.00027884  0.50251094  0.74906319  1
  Co  Co122  1  0.87871381  0.12401060  0.37542894  1
  Co  Co123  1  0.74978211  0.00099722  0.25576586  1
  Co  Co124  1  -0.00229260  0.24628050  0.74825464  1
  Co  Co125  1  0.49494631  0.74912223  0.74529355  1
  Co  Co126  1  -0.00427320  0.74871635  0.25053687  1
  Co  Co127  1  0.49794762  0.25731744  0.50443824  1
