# generated using pymatgen
data_Fe45Co19
_symmetry_space_group_name_H-M   'P 1'
_cell_length_a   11.41440282
_cell_length_b   11.41607459
_cell_length_c   11.41547692
_cell_angle_alpha   90.00367030
_cell_angle_beta   90.00424782
_cell_angle_gamma   90.00667742
_symmetry_Int_Tables_number   1
_chemical_formula_structural   Fe45Co19
_chemical_formula_sum   'Fe90 Co38'
_cell_volume   1487.52422806
_cell_formula_units_Z   2
loop_
 _symmetry_equiv_pos_site_id
 _symmetry_equiv_pos_as_xyz
  1  'x, y, z'
loop_
 _atom_site_type_symbol
 _atom_site_label
 _atom_site_symmetry_multiplicity
 _atom_site_fract_x
 _atom_site_fract_y
 _atom_site_fract_z
 _atom_site_occupancy
  Fe  Fe0  1  0.49931771  0.25054070  0.50165748  1
  Fe  Fe1  1  0.00038193  0.50024725  0.74586722  1
  Fe  Fe2  1  0.50055247  0.74819877  0.24814237  1
  Fe  Fe3  1  0.87381702  0.12701920  0.62362888  1
  Fe  Fe4  1  -0.00133324  0.49929116  0.00180664  1
  Fe  Fe5  1  0.12425863  0.87468732  0.12597356  1
  Fe  Fe6  1  0.87420765  0.62499762  0.12566528  1
  Fe  Fe7  1  0.50065053  0.49726874  0.50251237  1
  Fe  Fe8  1  0.62482323  0.12576149  0.87601332  1
  Fe  Fe9  1  0.37544505  0.12750526  0.87677321  1
  Fe  Fe10  1  -0.00275596  -0.00183494  0.00020758  1
  Fe  Fe11  1  0.75210972  0.24785751  0.25059567  1
  Fe  Fe12  1  -0.00022947  0.00034779  0.25048675  1
  Fe  Fe13  1  0.37495508  0.87567656  0.12641419  1
  Fe  Fe14  1  0.24416458  0.24858529  0.75376533  1
  Fe  Fe15  1  0.74891896  0.75146629  0.49983232  1
  Fe  Fe16  1  0.37391105  0.37497710  0.37522567  1
  Fe  Fe17  1  0.62557328  0.37435759  0.37627683  1
  Fe  Fe18  1  -0.00063516  0.49947707  0.50063163  1
  Fe  Fe19  1  0.87184600  0.37153937  0.62481649  1
  Fe  Fe20  1  0.50036009  0.00162848  0.74805962  1
  Fe  Fe21  1  0.12618066  0.37566704  0.62471048  1
  Fe  Fe22  1  0.87409323  0.62645535  0.62352236  1
  Fe  Fe23  1  0.49864545  -0.00174216  0.50358424  1
  Fe  Fe24  1  0.25057955  0.75022658  -0.00066837  1
  Fe  Fe25  1  0.62466000  0.62443723  0.37746176  1
  Fe  Fe26  1  0.50106393  0.24978921  0.25116845  1
  Fe  Fe27  1  0.24644309  0.24957991  0.25357148  1
  Fe  Fe28  1  0.49946579  0.74893906  0.00131483  1
  Fe  Fe29  1  0.87854145  0.37483284  0.37295006  1
  Fe  Fe30  1  0.37378966  0.12266933  0.37378830  1
  Fe  Fe31  1  0.37527150  0.87420575  0.87257167  1
  Fe  Fe32  1  0.62501269  0.12415217  0.37914562  1
  Fe  Fe33  1  0.00427469  0.24783667  0.49948975  1
  Fe  Fe34  1  0.74983543  0.00316847  0.74932417  1
  Fe  Fe35  1  0.12038266  0.37478981  0.12876204  1
  Fe  Fe36  1  0.00149446  0.75404068  0.50184879  1
  Fe  Fe37  1  0.37668439  0.62538646  0.37576631  1
  Fe  Fe38  1  0.25014449  0.00068322  -0.00093015  1
  Fe  Fe39  1  0.25095051  0.75457992  0.50017426  1
  Fe  Fe40  1  0.24952535  0.50057094  0.25171771  1
  Fe  Fe41  1  0.12465053  0.87822094  0.87302233  1
  Fe  Fe42  1  0.87887034  0.37240040  0.87211380  1
  Fe  Fe43  1  0.62583611  0.87472887  0.87420684  1
  Fe  Fe44  1  0.63013331  0.87766346  0.12524722  1
  Fe  Fe45  1  0.49721303  0.49958528  0.00020717  1
  Fe  Fe46  1  0.37517149  0.37402927  0.12749716  1
  Fe  Fe47  1  0.50095750  0.00154492  0.24842827  1
  Fe  Fe48  1  0.50194521  0.24887448  0.74740231  1
  Fe  Fe49  1  0.75434520  0.25036172  0.00032920  1
  Fe  Fe50  1  0.74776144  0.74729158  0.74928398  1
  Fe  Fe51  1  0.12382184  0.62619066  0.37787349  1
  Fe  Fe52  1  0.87630662  0.62557564  0.87367290  1
  Fe  Fe53  1  0.62590251  0.87632496  0.37444377  1
  Fe  Fe54  1  0.24668734  0.24758397  0.49809487  1
  Fe  Fe55  1  0.75084952  0.75042990  0.00040906  1
  Fe  Fe56  1  0.24792426  0.74793595  0.74746283  1
  Fe  Fe57  1  0.25002301  0.50142778  0.50153810  1
  Fe  Fe58  1  0.87424270  0.87512695  0.37313749  1
  Fe  Fe59  1  0.87565242  0.12404000  0.37704698  1
  Fe  Fe60  1  0.62415023  0.37385779  0.87402165  1
  Fe  Fe61  1  0.12647097  0.62526437  0.12439313  1
  Fe  Fe62  1  0.62881499  0.12407201  0.12344824  1
  Fe  Fe63  1  0.87580591  0.62624442  0.37683464  1
  Fe  Fe64  1  0.75107779  0.50141074  0.25264048  1
  Fe  Fe65  1  0.12348377  0.62254817  0.87370536  1
  Fe  Fe66  1  0.49968882  0.25102991  0.00124757  1
  Fe  Fe67  1  0.50201895  0.74726204  0.74748573  1
  Fe  Fe68  1  0.24608140  0.25264542  -0.00390392  1
  Fe  Fe69  1  0.49909791  0.75303230  0.50316696  1
  Fe  Fe70  1  0.37408539  0.62367593  0.87309427  1
  Fe  Fe71  1  0.62532373  0.62251190  0.12439266  1
  Fe  Fe72  1  0.37064453  0.12345701  0.62512235  1
  Fe  Fe73  1  -0.00102260  0.75100839  -0.00018780  1
  Fe  Fe74  1  0.49986692  -0.00032241  0.00015659  1
  Fe  Fe75  1  0.37227589  0.37439069  0.62788005  1
  Fe  Fe76  1  0.75219500  0.49823874  -0.00176661  1
  Fe  Fe77  1  0.12346697  0.12569616  0.12530049  1
  Fe  Fe78  1  0.00185521  0.75128186  0.74846806  1
  Fe  Fe79  1  0.25082198  0.75184849  0.25166727  1
  Fe  Fe80  1  0.12718728  0.88243779  0.62496000  1
  Fe  Fe81  1  0.87990525  0.12793059  0.87378808  1
  Fe  Fe82  1  0.87285226  0.87584882  0.62566005  1
  Fe  Fe83  1  0.87433580  0.87423350  0.87365077  1
  Fe  Fe84  1  0.25105073  0.49685477  -0.00213443  1
  Fe  Fe85  1  0.37314835  0.12674711  0.12559408  1
  Fe  Fe86  1  0.62646594  0.37522034  0.12635471  1
  Fe  Fe87  1  0.50204771  0.50135511  0.74731734  1
  Fe  Fe88  1  0.74807691  0.50041106  0.74912835  1
  Fe  Fe89  1  -0.00083569  0.74940336  0.24895000  1
  Co  Co90  1  0.50018491  0.49917554  0.25138792  1
  Co  Co91  1  0.62513231  0.62490751  0.87731318  1
  Co  Co92  1  0.25378902  -0.00334948  0.49571038  1
  Co  Co93  1  0.75232681  0.49846867  0.49880063  1
  Co  Co94  1  0.74957611  0.74793111  0.25033472  1
  Co  Co95  1  0.37337862  0.62404195  0.12568129  1
  Co  Co96  1  0.62771606  0.12681076  0.62170146  1
  Co  Co97  1  0.62706345  0.62448754  0.62086623  1
  Co  Co98  1  0.37304766  0.87586619  0.62903242  1
  Co  Co99  1  0.11880095  0.37755772  0.87362372  1
  Co  Co100  1  0.62822859  0.37258764  0.62402635  1
  Co  Co101  1  0.00066385  0.50475574  0.25110024  1
  Co  Co102  1  0.11906538  0.12332590  0.87667680  1
  Co  Co103  1  0.12579021  0.11983231  0.37666058  1
  Co  Co104  1  0.75250926  0.00148353  -0.00433498  1
  Co  Co105  1  0.87228960  0.87629013  0.12669915  1
  Co  Co106  1  0.75027610  -0.00182513  0.50067100  1
  Co  Co107  1  0.00507731  0.24885775  0.74505367  1
  Co  Co108  1  0.12737243  0.11866124  0.62316687  1
  Co  Co109  1  -0.00318929  0.00020621  0.74788474  1
  Co  Co110  1  0.87679351  0.37538753  0.12962729  1
  Co  Co111  1  0.37845940  0.87600963  0.37185091  1
  Co  Co112  1  -0.00111290  0.25179969  0.00247400  1
  Co  Co113  1  0.12354631  0.62566027  0.62236999  1
  Co  Co114  1  0.37703720  0.37412704  0.87136283  1
  Co  Co115  1  0.75089563  0.25036500  0.49684544  1
  Co  Co116  1  0.37523637  0.62547976  0.62388624  1
  Co  Co117  1  0.00039259  0.24625867  0.25270210  1
  Co  Co118  1  0.25145107  0.00354157  0.75510200  1
  Co  Co119  1  0.62661519  0.87543897  0.62675200  1
  Co  Co120  1  0.12329455  0.37719469  0.37530705  1
  Co  Co121  1  0.74875436  0.24848360  0.75196743  1
  Co  Co122  1  0.87548543  0.12321887  0.12506771  1
  Co  Co123  1  0.12264899  0.87676424  0.37471026  1
  Co  Co124  1  0.24831855  0.50039508  0.74920531  1
  Co  Co125  1  0.24984598  -0.00125399  0.24898746  1
  Co  Co126  1  0.75034661  0.00262416  0.25346425  1
  Co  Co127  1  -0.00321897  -0.00036487  0.50078132  1
