# generated using pymatgen
data_Fe45Co19
_symmetry_space_group_name_H-M   'P 1'
_cell_length_a   11.41516735
_cell_length_b   11.41582010
_cell_length_c   11.41614971
_cell_angle_alpha   89.99909226
_cell_angle_beta   90.00307646
_cell_angle_gamma   90.00391463
_symmetry_Int_Tables_number   1
_chemical_formula_structural   Fe45Co19
_chemical_formula_sum   'Fe90 Co38'
_cell_volume   1487.67838399
_cell_formula_units_Z   2
loop_
 _symmetry_equiv_pos_site_id
 _symmetry_equiv_pos_as_xyz
  1  'x, y, z'
loop_
 _atom_site_type_symbol
 _atom_site_label
 _atom_site_symmetry_multiplicity
 _atom_site_fract_x
 _atom_site_fract_y
 _atom_site_fract_z
 _atom_site_occupancy
  Fe  Fe0  1  0.75249674  0.74865374  0.24981496  1
  Fe  Fe1  1  0.12579415  0.37494399  0.12404322  1
  Fe  Fe2  1  0.12501667  0.12495484  0.12453816  1
  Fe  Fe3  1  0.62633805  0.37532734  0.87432860  1
  Fe  Fe4  1  0.12431761  0.12472467  0.87679822  1
  Fe  Fe5  1  0.49980723  0.49807856  0.74587580  1
  Fe  Fe6  1  0.25109748  0.75056825  0.74901160  1
  Fe  Fe7  1  -0.00260285  -0.00245205  0.50111154  1
  Fe  Fe8  1  0.37711617  0.87636416  0.87467571  1
  Fe  Fe9  1  0.62612077  0.87483158  0.37495644  1
  Fe  Fe10  1  0.25150756  0.75093766  0.00208456  1
  Fe  Fe11  1  0.37731811  0.62622524  0.37390423  1
  Fe  Fe12  1  0.00138867  0.24921735  0.74928934  1
  Fe  Fe13  1  0.12008075  0.62676174  0.37630371  1
  Fe  Fe14  1  0.37545050  0.12600001  0.12524475  1
  Fe  Fe15  1  0.75032177  0.24847462  0.74950678  1
  Fe  Fe16  1  0.12493205  0.87602118  0.62492011  1
  Fe  Fe17  1  0.37669139  0.62509299  0.87451274  1
  Fe  Fe18  1  0.62662011  0.36872971  0.37797521  1
  Fe  Fe19  1  0.74936221  -0.00080093  -0.00516932  1
  Fe  Fe20  1  0.12244920  0.87436537  0.87757907  1
  Fe  Fe21  1  0.50197442  0.00104770  0.25037237  1
  Fe  Fe22  1  -0.00057934  0.74972762  0.74705586  1
  Fe  Fe23  1  0.75090265  0.74924128  0.75248474  1
  Fe  Fe24  1  0.50102780  0.24720347  0.25066949  1
  Fe  Fe25  1  -0.00051154  -0.00274371  0.24779916  1
  Fe  Fe26  1  0.62566351  0.62328125  0.62443656  1
  Fe  Fe27  1  0.87433947  0.37483628  0.37255845  1
  Fe  Fe28  1  0.25088364  -0.00151105  0.00046575  1
  Fe  Fe29  1  0.62366614  0.62581994  0.37662158  1
  Fe  Fe30  1  0.87489196  0.62355121  0.62520764  1
  Fe  Fe31  1  0.87377736  0.12356773  0.12198653  1
  Fe  Fe32  1  0.12654909  0.37515828  0.87520563  1
  Fe  Fe33  1  0.37641413  0.87447636  0.37298796  1
  Fe  Fe34  1  0.74854345  0.00295748  0.25181048  1
  Fe  Fe35  1  -0.00082201  0.25120622  0.50213951  1
  Fe  Fe36  1  0.87277695  0.37581486  0.62689110  1
  Fe  Fe37  1  -0.00077343  0.25018552  0.24850481  1
  Fe  Fe38  1  0.87451595  0.37595133  0.87315568  1
  Fe  Fe39  1  0.37338914  0.37221996  0.37231013  1
  Fe  Fe40  1  0.25111770  0.24755515  0.49991634  1
  Fe  Fe41  1  0.50055299  0.75202600  0.00119206  1
  Fe  Fe42  1  0.37262623  0.37553664  0.87199722  1
  Fe  Fe43  1  0.13105863  0.37797350  0.62524364  1
  Fe  Fe44  1  0.75076490  0.00098009  0.75175554  1
  Fe  Fe45  1  0.75136900  0.50164628  -0.00192312  1
  Fe  Fe46  1  0.12556227  0.12321218  0.62530006  1
  Fe  Fe47  1  0.25087222  0.50061946  0.00051898  1
  Fe  Fe48  1  0.49988664  0.00192727  0.49771653  1
  Fe  Fe49  1  0.37604986  0.12470334  0.87454033  1
  Fe  Fe50  1  0.24855670  0.75038889  0.24846634  1
  Fe  Fe51  1  0.87934662  0.62357381  0.37204634  1
  Fe  Fe52  1  -0.00142259  0.00080820  0.75147860  1
  Fe  Fe53  1  0.49754116  0.49599509  0.50248383  1
  Fe  Fe54  1  0.12567091  0.37393138  0.37609411  1
  Fe  Fe55  1  0.87321113  0.37901259  0.12751230  1
  Fe  Fe56  1  0.87556206  0.12561223  0.37572312  1
  Fe  Fe57  1  0.37718257  0.62465350  0.12729454  1
  Fe  Fe58  1  0.50316408  0.49937873  0.25091818  1
  Fe  Fe59  1  0.62694759  0.87513493  0.62491161  1
  Fe  Fe60  1  0.75060388  0.49917722  0.49883080  1
  Fe  Fe61  1  0.49890987  0.49709205  0.00128986  1
  Fe  Fe62  1  0.25139946  0.75071081  0.50125210  1
  Fe  Fe63  1  0.25283513  0.25076328  0.00041219  1
  Fe  Fe64  1  0.62592103  0.12850692  0.62092599  1
  Fe  Fe65  1  0.49883680  0.75139442  0.50199616  1
  Fe  Fe66  1  0.24945873  -0.00156110  0.24896438  1
  Fe  Fe67  1  0.12120178  0.62395573  0.12520725  1
  Fe  Fe68  1  0.25071158  -0.00153432  0.49885933  1
  Fe  Fe69  1  0.62599634  0.87462705  0.12427980  1
  Fe  Fe70  1  0.37280300  0.12300090  0.62655381  1
  Fe  Fe71  1  0.75275064  0.74852377  -0.00144862  1
  Fe  Fe72  1  0.62500467  0.12790807  0.12071253  1
  Fe  Fe73  1  0.12163130  0.62629630  0.87803516  1
  Fe  Fe74  1  0.50238272  -0.00053427  0.75034569  1
  Fe  Fe75  1  0.24776237  0.50060954  0.25066908  1
  Fe  Fe76  1  0.12431372  0.12507624  0.37412347  1
  Fe  Fe77  1  0.75209836  0.00081524  0.49992899  1
  Fe  Fe78  1  0.49926157  0.75099360  0.74731294  1
  Fe  Fe79  1  0.62349476  0.12864806  0.87767549  1
  Fe  Fe80  1  -0.00518772  0.75185686  0.00570524  1
  Fe  Fe81  1  0.62634985  0.37308426  0.12496536  1
  Fe  Fe82  1  0.62330181  0.62415039  0.87398688  1
  Fe  Fe83  1  0.49917991  0.25237027  0.74675219  1
  Fe  Fe84  1  0.62537149  0.62503013  0.12523762  1
  Fe  Fe85  1  0.75311213  0.75058400  0.49894424  1
  Fe  Fe86  1  0.00164007  0.50087493  0.75021069  1
  Fe  Fe87  1  0.12149243  0.87278532  0.37438578  1
  Fe  Fe88  1  0.12745202  0.62222429  0.62168165  1
  Fe  Fe89  1  -0.00267473  0.25073631  0.00019045  1
  Co  Co90  1  0.87317638  0.87549061  0.62712532  1
  Co  Co91  1  0.49768021  0.25328042  -0.00104156  1
  Co  Co92  1  0.62676783  0.12907704  0.37889298  1
  Co  Co93  1  0.37384096  0.62312497  0.62464226  1
  Co  Co94  1  0.49409209  0.25014556  0.50211020  1
  Co  Co95  1  0.37590759  0.87791462  0.62542200  1
  Co  Co96  1  0.75235392  0.25219108  -0.00050173  1
  Co  Co97  1  0.24805748  0.24613332  0.75083526  1
  Co  Co98  1  0.36777117  0.37586282  0.62742858  1
  Co  Co99  1  0.37495671  0.37528893  0.12920740  1
  Co  Co100  1  -0.00278586  0.75342897  0.24602615  1
  Co  Co101  1  0.62395634  0.87340828  0.87452875  1
  Co  Co102  1  0.87583958  0.61951937  0.12821782  1
  Co  Co103  1  0.87554924  0.12604539  0.87541986  1
  Co  Co104  1  0.00368407  0.49737652  0.25114245  1
  Co  Co105  1  0.00005958  0.00068566  -0.00013436  1
  Co  Co106  1  0.25230842  0.50141134  0.49482054  1
  Co  Co107  1  0.50059466  -0.00076468  0.00058022  1
  Co  Co108  1  0.87743944  0.87452755  0.87422403  1
  Co  Co109  1  0.37651008  0.87421089  0.12666012  1
  Co  Co110  1  0.87076271  0.87926802  0.12404238  1
  Co  Co111  1  -0.00075302  0.49766566  -0.00103769  1
  Co  Co112  1  0.87577046  0.12483946  0.62542506  1
  Co  Co113  1  0.74547108  0.50074006  0.25296418  1
  Co  Co114  1  0.50312862  0.75113996  0.24960350  1
  Co  Co115  1  0.24832911  0.50530819  0.75436701  1
  Co  Co116  1  0.74986320  0.50211437  0.75096131  1
  Co  Co117  1  -0.00129617  0.49774368  0.50090381  1
  Co  Co118  1  0.75118953  0.24757854  0.24869412  1
  Co  Co119  1  0.37235678  0.12472030  0.37269290  1
  Co  Co120  1  0.24830020  -0.00205669  0.75264222  1
  Co  Co121  1  0.12487788  0.87583334  0.12351252  1
  Co  Co122  1  0.87521182  0.87574226  0.37443523  1
  Co  Co123  1  0.87862777  0.62523160  0.87475772  1
  Co  Co124  1  0.75506384  0.24970996  0.50051920  1
  Co  Co125  1  0.62869351  0.37346550  0.62291995  1
  Co  Co126  1  -0.00200130  0.75111803  0.50237890  1
  Co  Co127  1  0.24735477  0.24963186  0.24946941  1
