# generated using pymatgen
data_Fe45Co19
_symmetry_space_group_name_H-M   'P 1'
_cell_length_a   11.41505228
_cell_length_b   11.41363250
_cell_length_c   11.41518218
_cell_angle_alpha   89.99598999
_cell_angle_beta   89.99951960
_cell_angle_gamma   89.99430980
_symmetry_Int_Tables_number   1
_chemical_formula_structural   Fe45Co19
_chemical_formula_sum   'Fe90 Co38'
_cell_volume   1487.25224546
_cell_formula_units_Z   2
loop_
 _symmetry_equiv_pos_site_id
 _symmetry_equiv_pos_as_xyz
  1  'x, y, z'
loop_
 _atom_site_type_symbol
 _atom_site_label
 _atom_site_symmetry_multiplicity
 _atom_site_fract_x
 _atom_site_fract_y
 _atom_site_fract_z
 _atom_site_occupancy
  Fe  Fe0  1  0.87413901  0.87580566  0.12705156  1
  Fe  Fe1  1  0.62276214  0.62270778  0.87672397  1
  Fe  Fe2  1  0.62325518  0.87423117  0.87595878  1
  Fe  Fe3  1  0.37232936  0.37839114  0.12362561  1
  Fe  Fe4  1  0.12585743  0.62806673  0.12302547  1
  Fe  Fe5  1  0.74774342  0.74938714  0.75073617  1
  Fe  Fe6  1  0.12611072  0.62430079  0.62545113  1
  Fe  Fe7  1  0.87218668  0.87525307  0.62640622  1
  Fe  Fe8  1  0.37727697  0.62726083  0.37342172  1
  Fe  Fe9  1  0.25304147  0.25115237  0.49858389  1
  Fe  Fe10  1  0.74940973  0.00153460  0.75292405  1
  Fe  Fe11  1  0.12346953  0.12598614  0.87589347  1
  Fe  Fe12  1  0.37839540  0.12509455  0.37380898  1
  Fe  Fe13  1  0.62496041  0.12467767  0.62363164  1
  Fe  Fe14  1  0.37395312  0.87619151  0.62782482  1
  Fe  Fe15  1  0.50043543  0.00008106  0.00118230  1
  Fe  Fe16  1  -0.00037578  0.50320313  0.25050173  1
  Fe  Fe17  1  0.87773035  0.37504861  0.37458682  1
  Fe  Fe18  1  0.12800833  0.12363764  0.12469609  1
  Fe  Fe19  1  0.50111672  0.50231336  0.24584392  1
  Fe  Fe20  1  0.87504135  0.37390362  0.62627144  1
  Fe  Fe21  1  0.75047689  0.49692441  -0.00180305  1
  Fe  Fe22  1  0.12528846  0.87264272  0.87526616  1
  Fe  Fe23  1  0.75026908  0.75195112  -0.00043300  1
  Fe  Fe24  1  0.12831608  0.12330668  0.62456228  1
  Fe  Fe25  1  0.75047667  0.49895614  0.75124240  1
  Fe  Fe26  1  0.12816317  0.37745628  0.62523627  1
  Fe  Fe27  1  0.25248442  0.75235741  0.49738318  1
  Fe  Fe28  1  0.24704621  -0.00573029  0.25258232  1
  Fe  Fe29  1  0.49998198  0.74659350  0.00328211  1
  Fe  Fe30  1  0.74812476  0.75142417  0.49795162  1
  Fe  Fe31  1  0.25077642  0.25124288  -0.00089259  1
  Fe  Fe32  1  -0.00156620  0.74947548  0.50125708  1
  Fe  Fe33  1  -0.00098924  0.00042317  0.50050815  1
  Fe  Fe34  1  0.25129190  -0.00306891  0.49576001  1
  Fe  Fe35  1  0.50019420  0.00082558  0.75182996  1
  Fe  Fe36  1  0.00061066  0.74918365  0.74936320  1
  Fe  Fe37  1  0.87652726  0.62553332  0.87481183  1
  Fe  Fe38  1  0.74963408  0.50059614  0.25365495  1
  Fe  Fe39  1  0.25254186  0.74605806  -0.00288680  1
  Fe  Fe40  1  0.00128915  0.24996838  0.50185434  1
  Fe  Fe41  1  0.87319477  0.62383352  0.62463382  1
  Fe  Fe42  1  0.12189919  0.37448419  0.87531989  1
  Fe  Fe43  1  0.87331143  0.62438753  0.12546146  1
  Fe  Fe44  1  0.37666334  0.37505310  0.37349045  1
  Fe  Fe45  1  -0.00009714  0.50043457  -0.00020867  1
  Fe  Fe46  1  0.62617980  0.62486109  0.62236587  1
  Fe  Fe47  1  0.87879415  0.36900056  0.87356251  1
  Fe  Fe48  1  0.24894169  0.50239215  0.25096923  1
  Fe  Fe49  1  0.12397243  0.62811435  0.37565623  1
  Fe  Fe50  1  0.25184269  0.25002700  0.25016261  1
  Fe  Fe51  1  0.87814357  0.87486682  0.37238674  1
  Fe  Fe52  1  0.50294803  0.74719600  0.24615008  1
  Fe  Fe53  1  0.37294440  0.12319686  0.12539503  1
  Fe  Fe54  1  0.00038411  0.50095824  0.50025644  1
  Fe  Fe55  1  0.50405967  -0.00014991  0.24936642  1
  Fe  Fe56  1  0.62616779  0.12668533  0.87788021  1
  Fe  Fe57  1  0.25163358  0.24880010  0.75239349  1
  Fe  Fe58  1  0.12482009  0.37591735  0.12542362  1
  Fe  Fe59  1  0.37420740  0.87372283  0.12667160  1
  Fe  Fe60  1  0.12753037  0.87556190  0.62567166  1
  Fe  Fe61  1  0.74704077  -0.00125111  0.49620028  1
  Fe  Fe62  1  -0.00188777  0.24848311  0.24677401  1
  Fe  Fe63  1  0.74866685  0.24967478  0.49759127  1
  Fe  Fe64  1  0.50250275  -0.00237031  0.49830495  1
  Fe  Fe65  1  0.62799083  0.37460876  0.12689000  1
  Fe  Fe66  1  0.37407674  0.12307430  0.62595116  1
  Fe  Fe67  1  -0.00157256  -0.00016934  0.00075870  1
  Fe  Fe68  1  0.49758685  0.49826890  0.50241451  1
  Fe  Fe69  1  0.62963255  0.12556993  0.12615456  1
  Fe  Fe70  1  0.62192797  0.37570310  0.87448189  1
  Fe  Fe71  1  0.87533241  0.87533877  0.87375740  1
  Fe  Fe72  1  0.24933100  0.50400206  0.75546397  1
  Fe  Fe73  1  0.12398148  0.12482983  0.37408203  1
  Fe  Fe74  1  0.49976835  0.25032876  0.00398416  1
  Fe  Fe75  1  0.37593823  0.87358158  0.87312348  1
  Fe  Fe76  1  0.12462433  0.37418813  0.37429038  1
  Fe  Fe77  1  0.49876857  0.25075177  0.74780349  1
  Fe  Fe78  1  0.25214086  -0.00076592  -0.00304460  1
  Fe  Fe79  1  0.37320865  0.62374092  0.62532214  1
  Fe  Fe80  1  0.62075265  0.37123162  0.37401084  1
  Fe  Fe81  1  0.74980916  0.49964538  0.49687505  1
  Fe  Fe82  1  0.00007627  0.00155262  0.75010105  1
  Fe  Fe83  1  0.87052992  0.12396727  0.12375360  1
  Fe  Fe84  1  0.62597075  0.37426057  0.62526827  1
  Fe  Fe85  1  0.87441888  0.12362147  0.37236963  1
  Fe  Fe86  1  0.37835676  0.37958717  0.87676742  1
  Fe  Fe87  1  0.87317208  0.12626143  0.62655521  1
  Fe  Fe88  1  0.74771606  0.74944640  0.25201439  1
  Fe  Fe89  1  0.50042642  0.74780184  0.74795582  1
  Co  Co90  1  0.74640400  -0.00245435  0.25252248  1
  Co  Co91  1  0.25065941  0.74668900  0.75217470  1
  Co  Co92  1  0.62188456  0.87111596  0.37454531  1
  Co  Co93  1  0.49750326  0.24971435  0.24477381  1
  Co  Co94  1  0.00207897  0.00017001  0.24634992  1
  Co  Co95  1  0.49688664  0.25151841  0.50403422  1
  Co  Co96  1  0.24723426  0.75327876  0.25229792  1
  Co  Co97  1  0.25000580  0.00060042  0.75397863  1
  Co  Co98  1  0.75308497  0.25222470  0.25092573  1
  Co  Co99  1  0.00045906  0.24878471  0.00506577  1
  Co  Co100  1  0.00202578  0.75087795  0.24754515  1
  Co  Co101  1  0.37732691  0.12681110  0.87637873  1
  Co  Co102  1  0.75026880  -0.00246097  -0.00189493  1
  Co  Co103  1  -0.00118677  0.50079581  0.74929425  1
  Co  Co104  1  0.00237326  0.24804226  0.74577314  1
  Co  Co105  1  0.62493659  0.87437343  0.12340856  1
  Co  Co106  1  0.74973262  0.25368498  0.00024232  1
  Co  Co107  1  0.62638890  0.87599450  0.62683060  1
  Co  Co108  1  0.87544881  0.62665039  0.37471303  1
  Co  Co109  1  0.37110628  0.62475160  0.12610214  1
  Co  Co110  1  0.25110284  0.50134687  0.49590509  1
  Co  Co111  1  0.12712776  0.87354243  0.11983655  1
  Co  Co112  1  0.36955496  0.37746446  0.62796876  1
  Co  Co113  1  0.62273698  0.12952409  0.37330914  1
  Co  Co114  1  0.38070178  0.87306355  0.37148677  1
  Co  Co115  1  0.38108399  0.62079930  0.87644762  1
  Co  Co116  1  0.24728607  0.50224739  -0.00228388  1
  Co  Co117  1  0.11930578  0.87447869  0.37738453  1
  Co  Co118  1  0.62125162  0.62490218  0.37794902  1
  Co  Co119  1  -0.00349917  0.75117149  0.00092052  1
  Co  Co120  1  0.50237770  0.50092239  0.00669732  1
  Co  Co121  1  0.74786076  0.24949796  0.75040239  1
  Co  Co122  1  0.63107713  0.62419270  0.12314211  1
  Co  Co123  1  0.87597808  0.37816580  0.12569934  1
  Co  Co124  1  0.50146990  0.50105341  0.74516034  1
  Co  Co125  1  0.87548755  0.12854830  0.87621365  1
  Co  Co126  1  0.12040342  0.62746928  0.87656397  1
  Co  Co127  1  0.49845680  0.75179084  0.50447136  1
