# generated using pymatgen
data_Fe45Co19
_symmetry_space_group_name_H-M   'P 1'
_cell_length_a   11.41572189
_cell_length_b   11.41442077
_cell_length_c   11.41586422
_cell_angle_alpha   89.98909681
_cell_angle_beta   90.00151394
_cell_angle_gamma   89.99955361
_symmetry_Int_Tables_number   1
_chemical_formula_structural   Fe45Co19
_chemical_formula_sum   'Fe90 Co38'
_cell_volume   1487.53106714
_cell_formula_units_Z   2
loop_
 _symmetry_equiv_pos_site_id
 _symmetry_equiv_pos_as_xyz
  1  'x, y, z'
loop_
 _atom_site_type_symbol
 _atom_site_label
 _atom_site_symmetry_multiplicity
 _atom_site_fract_x
 _atom_site_fract_y
 _atom_site_fract_z
 _atom_site_occupancy
  Fe  Fe0  1  0.74885800  -0.00096583  -0.00009456  1
  Fe  Fe1  1  0.12765173  0.62564196  0.37503104  1
  Fe  Fe2  1  0.00263081  0.24948879  0.50038810  1
  Fe  Fe3  1  0.00134493  0.74983684  0.75034570  1
  Fe  Fe4  1  0.62289111  0.87873675  0.87253688  1
  Fe  Fe5  1  0.75098205  0.24830741  0.24856886  1
  Fe  Fe6  1  0.24803905  0.49685061  0.75095804  1
  Fe  Fe7  1  0.25069381  0.74896136  -0.00032209  1
  Fe  Fe8  1  0.74723626  0.49839142  0.74767758  1
  Fe  Fe9  1  0.37463231  0.12280230  0.12141710  1
  Fe  Fe10  1  0.75105689  0.25078077  0.00183529  1
  Fe  Fe11  1  0.37446585  0.62589316  0.62475649  1
  Fe  Fe12  1  0.12570017  0.62446094  0.87602126  1
  Fe  Fe13  1  0.37345071  0.37289328  0.37345020  1
  Fe  Fe14  1  0.00130951  0.49603080  0.75375062  1
  Fe  Fe15  1  0.25036427  0.75111262  0.50163521  1
  Fe  Fe16  1  0.87258283  0.62522586  0.87500625  1
  Fe  Fe17  1  0.87368643  0.62527432  0.37589051  1
  Fe  Fe18  1  0.74851987  0.25081779  0.50112369  1
  Fe  Fe19  1  0.13145871  0.12625545  0.37340049  1
  Fe  Fe20  1  0.87586247  0.12362227  0.62556714  1
  Fe  Fe21  1  0.12571842  0.12488780  0.12223611  1
  Fe  Fe22  1  0.87760598  0.37348030  0.62688034  1
  Fe  Fe23  1  0.62386075  0.12577313  0.12245492  1
  Fe  Fe24  1  0.12441337  0.87550701  0.12409837  1
  Fe  Fe25  1  0.00027597  0.24857618  0.24862380  1
  Fe  Fe26  1  0.49689853  0.24581938  0.75555102  1
  Fe  Fe27  1  0.12784306  0.87585823  0.62775061  1
  Fe  Fe28  1  0.50222366  0.50098597  -0.00019526  1
  Fe  Fe29  1  0.37683565  0.37444384  0.62771320  1
  Fe  Fe30  1  0.37002370  0.12344595  0.62550954  1
  Fe  Fe31  1  0.12788976  0.12836811  0.87510460  1
  Fe  Fe32  1  0.12067229  0.37772138  0.12278268  1
  Fe  Fe33  1  0.37541445  0.87541169  0.12218318  1
  Fe  Fe34  1  0.75251647  0.75352374  0.50116371  1
  Fe  Fe35  1  0.74984523  0.50188051  0.24823637  1
  Fe  Fe36  1  0.12744640  0.87435829  0.87417266  1
  Fe  Fe37  1  0.49796080  0.24804742  0.49922099  1
  Fe  Fe38  1  0.00148237  0.49831510  0.49854704  1
  Fe  Fe39  1  0.75064555  0.00154468  0.24954260  1
  Fe  Fe40  1  0.37473745  0.62414371  0.87496349  1
  Fe  Fe41  1  0.49920090  0.74493580  0.25252146  1
  Fe  Fe42  1  0.24945859  0.50170972  0.24768013  1
  Fe  Fe43  1  0.87666941  0.62480103  0.62663542  1
  Fe  Fe44  1  0.74813479  0.49729618  0.50274677  1
  Fe  Fe45  1  0.87508289  0.12408219  0.37550378  1
  Fe  Fe46  1  0.00210318  -0.00096653  0.49954293  1
  Fe  Fe47  1  -0.00415574  0.25120614  -0.00136151  1
  Fe  Fe48  1  0.12614236  0.87560637  0.37272180  1
  Fe  Fe49  1  0.62404957  0.12401156  0.37587633  1
  Fe  Fe50  1  0.00193350  0.00182566  0.75112587  1
  Fe  Fe51  1  0.62391246  0.37409701  0.37443991  1
  Fe  Fe52  1  -0.00006656  0.74693433  0.24919169  1
  Fe  Fe53  1  0.49652890  -0.00011336  0.50106663  1
  Fe  Fe54  1  0.37378319  0.87600297  0.37566927  1
  Fe  Fe55  1  0.12909287  0.12817102  0.62789785  1
  Fe  Fe56  1  0.50063254  0.75031537  -0.00208051  1
  Fe  Fe57  1  -0.00059718  0.75201236  0.50049221  1
  Fe  Fe58  1  0.50071045  0.50102788  0.49849312  1
  Fe  Fe59  1  0.74930539  0.24945985  0.74937877  1
  Fe  Fe60  1  0.62671836  0.62670764  0.87604525  1
  Fe  Fe61  1  0.25472537  0.25270432  -0.00151974  1
  Fe  Fe62  1  0.12490433  0.62399255  0.62606277  1
  Fe  Fe63  1  0.49565450  0.75279539  0.74998338  1
  Fe  Fe64  1  0.62379457  0.62839107  0.62259472  1
  Fe  Fe65  1  0.62302475  0.37461853  0.12567129  1
  Fe  Fe66  1  0.62508743  0.12309325  0.62712759  1
  Fe  Fe67  1  0.87657400  0.87661337  0.12456238  1
  Fe  Fe68  1  0.00113215  0.00206980  0.24913193  1
  Fe  Fe69  1  0.25136645  0.74841293  0.24713370  1
  Fe  Fe70  1  0.62319046  0.87645801  0.62652096  1
  Fe  Fe71  1  0.87629457  0.87662030  0.87411652  1
  Fe  Fe72  1  0.75023875  0.74824182  0.24849237  1
  Fe  Fe73  1  0.24941998  0.49639688  0.50184826  1
  Fe  Fe74  1  0.50249844  0.50136742  0.75021955  1
  Fe  Fe75  1  0.37748779  0.37733977  0.12434288  1
  Fe  Fe76  1  0.87364579  0.12395669  0.87486368  1
  Fe  Fe77  1  0.75229995  -0.00268577  0.50023286  1
  Fe  Fe78  1  0.62376418  0.87326147  0.12582385  1
  Fe  Fe79  1  0.75032834  0.75265730  0.74979573  1
  Fe  Fe80  1  0.24957283  0.50002418  -0.00042969  1
  Fe  Fe81  1  0.50028272  0.50540384  0.25171596  1
  Fe  Fe82  1  0.12712914  0.37275536  0.37312447  1
  Fe  Fe83  1  0.49773860  0.24777217  0.24937262  1
  Fe  Fe84  1  0.49767695  0.00164236  0.24944985  1
  Fe  Fe85  1  0.62400594  0.87467991  0.37451121  1
  Fe  Fe86  1  -0.00114502  0.74887522  -0.00007531  1
  Fe  Fe87  1  0.87549363  0.37369147  0.37286393  1
  Fe  Fe88  1  0.62419029  0.37264006  0.87490876  1
  Fe  Fe89  1  0.75169315  0.49916432  0.00197879  1
  Co  Co90  1  0.87610028  0.62511619  0.12313036  1
  Co  Co91  1  0.25061852  0.25053610  0.24383591  1
  Co  Co92  1  0.25157714  0.74867195  0.75112899  1
  Co  Co93  1  0.12392751  0.37189239  0.62726706  1
  Co  Co94  1  0.25109275  -0.00027866  0.24730451  1
  Co  Co95  1  0.37595822  0.62489126  0.12217344  1
  Co  Co96  1  0.62469305  0.62667935  0.12263446  1
  Co  Co97  1  0.25435653  0.25278120  0.75428531  1
  Co  Co98  1  0.25100357  0.00008064  0.75336878  1
  Co  Co99  1  0.24877177  -0.00039220  0.49836453  1
  Co  Co100  1  0.37771943  0.37910393  0.87501025  1
  Co  Co101  1  0.87817835  0.87656629  0.62808096  1
  Co  Co102  1  0.49805789  0.25030147  -0.00163192  1
  Co  Co103  1  0.87843470  0.37625268  0.12785170  1
  Co  Co104  1  0.24653505  -0.00163584  0.00037643  1
  Co  Co105  1  0.00159209  0.00026009  -0.00265073  1
  Co  Co106  1  0.12338633  0.62341475  0.12275875  1
  Co  Co107  1  -0.00080269  0.24997021  0.75186185  1
  Co  Co108  1  0.62781352  0.62579563  0.37841411  1
  Co  Co109  1  0.49576005  0.00158355  0.74910885  1
  Co  Co110  1  0.37379270  0.87769914  0.87759980  1
  Co  Co111  1  0.49815122  0.75129914  0.49940495  1
  Co  Co112  1  0.50286826  -0.00079189  0.00081412  1
  Co  Co113  1  0.25069847  0.25226190  0.50172618  1
  Co  Co114  1  0.37419150  0.11947484  0.88040611  1
  Co  Co115  1  0.37141756  0.87585721  0.62539778  1
  Co  Co116  1  0.37137116  0.12586597  0.37403380  1
  Co  Co117  1  -0.00309457  0.50057474  -0.00421767  1
  Co  Co118  1  0.00115809  0.50267897  0.25271639  1
  Co  Co119  1  0.74995870  0.75343907  -0.00111161  1
  Co  Co120  1  0.87648167  0.87585552  0.37175264  1
  Co  Co121  1  0.62002774  0.37121253  0.62650053  1
  Co  Co122  1  0.37092193  0.62485461  0.37749693  1
  Co  Co123  1  0.12465730  0.37209741  0.87777330  1
  Co  Co124  1  0.87157631  0.37451493  0.87327354  1
  Co  Co125  1  0.75090449  -0.00023411  0.75071279  1
  Co  Co126  1  0.87584291  0.12262826  0.12337795  1
  Co  Co127  1  0.62586300  0.12453234  0.87617266  1
