# generated using pymatgen
data_Fe45Co19
_symmetry_space_group_name_H-M   'P 1'
_cell_length_a   11.41599679
_cell_length_b   11.41507202
_cell_length_c   11.41583728
_cell_angle_alpha   90.01193298
_cell_angle_beta   89.99526210
_cell_angle_gamma   90.01458490
_symmetry_Int_Tables_number   1
_chemical_formula_structural   Fe45Co19
_chemical_formula_sum   'Fe90 Co38'
_cell_volume   1487.64819222
_cell_formula_units_Z   2
loop_
 _symmetry_equiv_pos_site_id
 _symmetry_equiv_pos_as_xyz
  1  'x, y, z'
loop_
 _atom_site_type_symbol
 _atom_site_label
 _atom_site_symmetry_multiplicity
 _atom_site_fract_x
 _atom_site_fract_y
 _atom_site_fract_z
 _atom_site_occupancy
  Fe  Fe0  1  0.00013576  -0.00047423  0.50006620  1
  Fe  Fe1  1  0.74994770  0.24834328  0.75051864  1
  Fe  Fe2  1  0.12711223  0.87495239  0.37595927  1
  Fe  Fe3  1  0.50422797  0.00207376  0.75096161  1
  Fe  Fe4  1  0.00011784  0.49862902  0.00090073  1
  Fe  Fe5  1  0.74872008  0.24605585  0.49495947  1
  Fe  Fe6  1  0.62516897  0.87545885  0.37357834  1
  Fe  Fe7  1  0.62827657  0.87420763  0.62805875  1
  Fe  Fe8  1  0.38068560  0.12472864  0.37946790  1
  Fe  Fe9  1  0.62520459  0.62625250  0.62610231  1
  Fe  Fe10  1  0.00114829  0.49440800  0.50038220  1
  Fe  Fe11  1  0.12508805  0.37370609  0.87162467  1
  Fe  Fe12  1  0.00087614  -0.00164307  0.25126656  1
  Fe  Fe13  1  0.24962896  0.00295999  0.74910623  1
  Fe  Fe14  1  0.49830590  0.49908671  0.00213280  1
  Fe  Fe15  1  0.37374834  0.62729432  0.87420678  1
  Fe  Fe16  1  0.87354486  0.62315454  0.87468074  1
  Fe  Fe17  1  0.87329751  0.12390139  0.87537995  1
  Fe  Fe18  1  0.37681598  0.12755779  0.12121815  1
  Fe  Fe19  1  -0.00020805  0.75181412  0.74622048  1
  Fe  Fe20  1  0.12738266  0.87598102  0.87423174  1
  Fe  Fe21  1  0.00018518  0.75155392  0.50163837  1
  Fe  Fe22  1  0.50290290  0.24920355  0.75185455  1
  Fe  Fe23  1  0.75066251  0.75057906  0.00250117  1
  Fe  Fe24  1  0.62780037  0.62416523  0.87569741  1
  Fe  Fe25  1  0.50002727  0.00103745  -0.00277154  1
  Fe  Fe26  1  0.74955132  -0.00020543  0.00274766  1
  Fe  Fe27  1  0.87430198  0.87605205  0.37548414  1
  Fe  Fe28  1  0.62651895  0.37612873  0.87742555  1
  Fe  Fe29  1  0.25018108  0.49781650  0.50398932  1
  Fe  Fe30  1  0.62824410  0.37447766  0.62405671  1
  Fe  Fe31  1  0.87681351  0.12549545  0.12622737  1
  Fe  Fe32  1  0.12371458  0.62573388  0.87307671  1
  Fe  Fe33  1  0.87231279  0.37626903  0.87645876  1
  Fe  Fe34  1  0.74940747  0.24943307  0.00200032  1
  Fe  Fe35  1  0.62368493  0.62524269  0.37291435  1
  Fe  Fe36  1  0.62284016  0.12702662  0.12682012  1
  Fe  Fe37  1  0.25089929  0.50035392  0.24831288  1
  Fe  Fe38  1  0.49672608  0.49770839  0.24811519  1
  Fe  Fe39  1  0.37188947  0.87393854  0.87234442  1
  Fe  Fe40  1  0.62883337  0.87515080  0.87348628  1
  Fe  Fe41  1  0.12447787  0.12634857  0.37627648  1
  Fe  Fe42  1  0.75158457  0.75225149  0.24810403  1
  Fe  Fe43  1  0.24993727  0.50158279  0.00080552  1
  Fe  Fe44  1  0.50003972  0.75036759  -0.00120930  1
  Fe  Fe45  1  0.00145811  0.00037493  -0.00073782  1
  Fe  Fe46  1  -0.00330263  0.25422913  0.25403892  1
  Fe  Fe47  1  0.12244381  0.12728097  0.62562452  1
  Fe  Fe48  1  0.25043352  0.75248209  0.50514804  1
  Fe  Fe49  1  0.12376459  0.62372870  0.37583018  1
  Fe  Fe50  1  0.49832985  -0.00082110  0.25106109  1
  Fe  Fe51  1  0.12219024  0.62567862  0.12632767  1
  Fe  Fe52  1  0.12564573  0.37343012  0.12580018  1
  Fe  Fe53  1  0.75255510  0.49766867  0.24766206  1
  Fe  Fe54  1  -0.00200001  0.00052312  0.74923409  1
  Fe  Fe55  1  0.49892131  0.75159583  0.24964606  1
  Fe  Fe56  1  0.37529620  0.37441631  0.87467969  1
  Fe  Fe57  1  0.25135561  0.25088284  0.50226621  1
  Fe  Fe58  1  0.37432949  0.37528423  0.37634069  1
  Fe  Fe59  1  0.75053774  0.74836740  0.49997771  1
  Fe  Fe60  1  0.12557588  0.87505354  0.12414424  1
  Fe  Fe61  1  0.12382667  0.12594435  0.12532862  1
  Fe  Fe62  1  0.37414457  0.87371886  0.12316397  1
  Fe  Fe63  1  0.37563606  0.62629831  0.37627152  1
  Fe  Fe64  1  0.62394446  0.62540116  0.12555499  1
  Fe  Fe65  1  0.50217798  0.49991740  0.74979637  1
  Fe  Fe66  1  -0.00222800  0.49550754  0.74693883  1
  Fe  Fe67  1  0.74729562  0.00279070  0.49937293  1
  Fe  Fe68  1  0.00133171  0.24909515  -0.00324658  1
  Fe  Fe69  1  0.25154616  0.00224819  0.25028001  1
  Fe  Fe70  1  0.38154582  0.12545351  0.62359726  1
  Fe  Fe71  1  0.24919279  0.24700432  -0.00342454  1
  Fe  Fe72  1  0.62668682  0.37382742  0.37262145  1
  Fe  Fe73  1  0.87751599  0.62483844  0.12622270  1
  Fe  Fe74  1  0.87204916  0.87578028  0.87344999  1
  Fe  Fe75  1  0.49875649  0.75420532  0.50140490  1
  Fe  Fe76  1  0.24913183  0.50107017  0.74787149  1
  Fe  Fe77  1  0.24999432  0.74858486  0.24925535  1
  Fe  Fe78  1  0.87441046  0.12573831  0.62404988  1
  Fe  Fe79  1  0.74993525  0.00162874  0.24976623  1
  Fe  Fe80  1  0.50117470  0.49817111  0.50085017  1
  Fe  Fe81  1  0.87638361  0.62248355  0.37372853  1
  Fe  Fe82  1  0.62482466  0.37202876  0.12575676  1
  Fe  Fe83  1  0.25289604  -0.00109195  0.50166575  1
  Fe  Fe84  1  0.25294735  0.24858664  0.25171972  1
  Fe  Fe85  1  0.37670697  0.62635672  0.62687509  1
  Fe  Fe86  1  -0.00108208  0.25331952  0.49878871  1
  Fe  Fe87  1  -0.00059218  0.75165848  0.00005657  1
  Fe  Fe88  1  0.87364968  0.62181208  0.62431681  1
  Fe  Fe89  1  0.25079818  0.24757225  0.74968197  1
  Co  Co90  1  0.49652639  0.25170883  0.25093469  1
  Co  Co91  1  0.62308355  0.87591823  0.12483442  1
  Co  Co92  1  0.50062935  0.25050971  -0.00271046  1
  Co  Co93  1  0.12881690  0.37469274  0.37485078  1
  Co  Co94  1  0.24992820  0.00228609  0.00024003  1
  Co  Co95  1  0.24578650  0.74835203  0.74675169  1
  Co  Co96  1  0.50246104  0.74938474  0.75196269  1
  Co  Co97  1  0.50166089  -0.00582745  0.50122881  1
  Co  Co98  1  0.87721167  0.12248474  0.37431285  1
  Co  Co99  1  0.37215103  0.37229252  0.12189128  1
  Co  Co100  1  0.74955136  0.00348271  0.74806333  1
  Co  Co101  1  0.37660714  0.62667467  0.12474427  1
  Co  Co102  1  0.75011526  0.50072834  0.00320408  1
  Co  Co103  1  0.75318145  0.24869612  0.25155758  1
  Co  Co104  1  0.24896763  0.74880470  -0.00022040  1
  Co  Co105  1  0.86941627  0.37388094  0.62211211  1
  Co  Co106  1  0.50198410  0.25463580  0.49944570  1
  Co  Co107  1  0.75232503  0.74725880  0.74925404  1
  Co  Co108  1  0.87645329  0.37323398  0.12193327  1
  Co  Co109  1  -0.00010373  0.75228906  0.25205128  1
  Co  Co110  1  0.62778670  0.12503673  0.87753573  1
  Co  Co111  1  0.37371977  0.87418696  0.37379007  1
  Co  Co112  1  0.62300883  0.12560836  0.62259389  1
  Co  Co113  1  0.87221846  0.87679710  0.62376207  1
  Co  Co114  1  0.74608083  0.50320602  0.49892780  1
  Co  Co115  1  0.12556288  0.37216676  0.62769174  1
  Co  Co116  1  -0.00038757  0.49536326  0.25062814  1
  Co  Co117  1  0.12451986  0.87845168  0.62521084  1
  Co  Co118  1  0.74882077  0.50013266  0.74961272  1
  Co  Co119  1  0.37619207  0.12509344  0.87448689  1
  Co  Co120  1  0.12280219  0.62211002  0.62377651  1
  Co  Co121  1  0.87055295  0.37822816  0.37838167  1
  Co  Co122  1  0.87660769  0.87652733  0.12525515  1
  Co  Co123  1  -0.00435474  0.25077387  0.75111065  1
  Co  Co124  1  0.37630315  0.37443975  0.62772821  1
  Co  Co125  1  0.61946159  0.12469996  0.37291318  1
  Co  Co126  1  0.37597119  0.87564421  0.63155183  1
  Co  Co127  1  0.12348180  0.12376069  0.87246187  1
