# generated using pymatgen
data_Fe45Co19
_symmetry_space_group_name_H-M   'P 1'
_cell_length_a   11.41479372
_cell_length_b   11.41522557
_cell_length_c   11.41536897
_cell_angle_alpha   90.00197252
_cell_angle_beta   89.99980467
_cell_angle_gamma   89.99758197
_symmetry_Int_Tables_number   1
_chemical_formula_structural   Fe45Co19
_chemical_formula_sum   'Fe90 Co38'
_cell_volume   1487.45048662
_cell_formula_units_Z   2
loop_
 _symmetry_equiv_pos_site_id
 _symmetry_equiv_pos_as_xyz
  1  'x, y, z'
loop_
 _atom_site_type_symbol
 _atom_site_label
 _atom_site_symmetry_multiplicity
 _atom_site_fract_x
 _atom_site_fract_y
 _atom_site_fract_z
 _atom_site_occupancy
  Fe  Fe0  1  0.75021561  0.00005318  0.75011731  1
  Fe  Fe1  1  0.12242620  0.37395408  0.62606020  1
  Fe  Fe2  1  0.50185824  0.00092027  0.49995607  1
  Fe  Fe3  1  -0.00079518  0.00110287  0.75111788  1
  Fe  Fe4  1  0.37301405  0.37697414  0.37522772  1
  Fe  Fe5  1  0.37329516  0.37754375  0.12372312  1
  Fe  Fe6  1  0.87472302  0.12443907  0.87817728  1
  Fe  Fe7  1  0.62516856  0.37515741  0.37381845  1
  Fe  Fe8  1  0.74827763  0.75309149  0.00096512  1
  Fe  Fe9  1  0.37802175  0.87501788  0.87162283  1
  Fe  Fe10  1  0.87588464  0.87372387  0.12582744  1
  Fe  Fe11  1  0.24790321  -0.00066847  -0.00117616  1
  Fe  Fe12  1  0.37354907  0.62536783  0.62628711  1
  Fe  Fe13  1  0.37433494  0.12398537  0.37381202  1
  Fe  Fe14  1  0.12243021  0.87430325  0.62650809  1
  Fe  Fe15  1  0.12311015  0.37679340  0.37456772  1
  Fe  Fe16  1  0.49882226  -0.00239423  0.25038531  1
  Fe  Fe17  1  0.87525365  0.62341994  0.12563631  1
  Fe  Fe18  1  0.87538520  0.12505533  0.12404126  1
  Fe  Fe19  1  0.75212041  -0.00068583  0.49893159  1
  Fe  Fe20  1  0.75312242  0.25080408  0.75103571  1
  Fe  Fe21  1  0.12497918  0.87397833  0.37246744  1
  Fe  Fe22  1  0.37487211  0.12486046  0.62454567  1
  Fe  Fe23  1  0.75181009  0.49966656  0.50036683  1
  Fe  Fe24  1  0.62584970  0.37484869  0.12576096  1
  Fe  Fe25  1  0.24946934  0.00178057  0.75155018  1
  Fe  Fe26  1  0.87629701  0.62194729  0.37346048  1
  Fe  Fe27  1  0.24872855  -0.00021708  0.49906345  1
  Fe  Fe28  1  -0.00268791  0.75054648  0.49900024  1
  Fe  Fe29  1  0.49927796  0.24762932  0.75172484  1
  Fe  Fe30  1  0.62593709  0.12718145  0.37266762  1
  Fe  Fe31  1  0.24768620  0.50174523  0.75044184  1
  Fe  Fe32  1  -0.00197480  0.25143804  -0.00065624  1
  Fe  Fe33  1  0.75059669  -0.00194841  0.24888185  1
  Fe  Fe34  1  0.24958295  0.25032038  0.49937592  1
  Fe  Fe35  1  0.62568254  0.62661342  0.87525720  1
  Fe  Fe36  1  0.75401170  0.25096144  0.49788285  1
  Fe  Fe37  1  0.24963935  0.24902167  0.24969509  1
  Fe  Fe38  1  0.25267726  0.75098228  -0.00125815  1
  Fe  Fe39  1  0.62473729  0.62486698  0.37562450  1
  Fe  Fe40  1  0.12360881  0.37319408  0.87341542  1
  Fe  Fe41  1  0.00024263  0.75122229  0.00170254  1
  Fe  Fe42  1  0.50127941  0.50280353  0.74996123  1
  Fe  Fe43  1  0.62493172  0.37456353  0.62537271  1
  Fe  Fe44  1  0.87854086  0.37744016  0.62709403  1
  Fe  Fe45  1  0.25424297  0.75199153  0.24933862  1
  Fe  Fe46  1  0.00117620  -0.00253404  0.24824387  1
  Fe  Fe47  1  0.12422255  0.37544381  0.12584842  1
  Fe  Fe48  1  0.62684351  0.12521551  0.87661500  1
  Fe  Fe49  1  0.24982449  0.24909385  -0.00159538  1
  Fe  Fe50  1  0.12247147  0.12591840  0.62525341  1
  Fe  Fe51  1  0.50550437  -0.00335159  -0.00070447  1
  Fe  Fe52  1  0.49978971  0.50168479  -0.00062947  1
  Fe  Fe53  1  0.75418701  0.25313775  0.24971665  1
  Fe  Fe54  1  0.75133775  0.74802318  0.74730904  1
  Fe  Fe55  1  0.12319984  0.87474327  0.87533393  1
  Fe  Fe56  1  0.49896444  0.74970070  0.50086346  1
  Fe  Fe57  1  0.00120628  0.50011855  -0.00051513  1
  Fe  Fe58  1  0.25020532  0.75006809  0.50067163  1
  Fe  Fe59  1  0.37556566  0.87556902  0.62671511  1
  Fe  Fe60  1  0.62429926  0.62632934  0.12561731  1
  Fe  Fe61  1  0.87554775  0.62493737  0.87523822  1
  Fe  Fe62  1  0.50107624  0.25026702  0.00057142  1
  Fe  Fe63  1  0.12871772  0.62631803  0.12522464  1
  Fe  Fe64  1  0.49856554  0.50103797  0.24992388  1
  Fe  Fe65  1  0.62572974  0.12617869  0.12604164  1
  Fe  Fe66  1  0.75054373  0.49821254  0.00145512  1
  Fe  Fe67  1  0.24980571  0.24589502  0.75242831  1
  Fe  Fe68  1  0.37499693  0.12263836  0.12387710  1
  Fe  Fe69  1  -0.00361942  0.24927818  0.49821328  1
  Fe  Fe70  1  0.49980753  0.24997297  0.49854508  1
  Fe  Fe71  1  0.62549702  0.87315910  0.37424865  1
  Fe  Fe72  1  0.12683215  0.62427233  0.37342071  1
  Fe  Fe73  1  0.62656178  0.37495809  0.87511290  1
  Fe  Fe74  1  0.75330629  0.74989207  0.50147712  1
  Fe  Fe75  1  0.49945076  0.75095575  -0.00011641  1
  Fe  Fe76  1  0.37407837  0.37635393  0.87545908  1
  Fe  Fe77  1  0.75129338  0.74887339  0.25043462  1
  Fe  Fe78  1  0.62496013  0.87425903  0.62737154  1
  Fe  Fe79  1  0.12313728  0.12454715  0.37375831  1
  Fe  Fe80  1  0.49486048  0.75030290  0.24959153  1
  Fe  Fe81  1  0.49894028  0.50036428  0.50077609  1
  Fe  Fe82  1  0.12111360  0.62663104  0.62685633  1
  Fe  Fe83  1  -0.00327988  -0.00091134  0.49898067  1
  Fe  Fe84  1  0.37393193  0.37456809  0.62631548  1
  Fe  Fe85  1  0.62672506  0.12696844  0.62472893  1
  Fe  Fe86  1  0.12405782  0.12402841  0.12381673  1
  Fe  Fe87  1  0.12550441  0.62758490  0.87477333  1
  Fe  Fe88  1  0.75114738  0.50171237  0.74954339  1
  Fe  Fe89  1  0.87423864  0.87514459  0.87584611  1
  Co  Co90  1  0.75025836  0.25152892  0.00138908  1
  Co  Co91  1  0.74767182  -0.00291917  0.00206669  1
  Co  Co92  1  -0.00156562  0.75118772  0.75210400  1
  Co  Co93  1  0.62557224  0.87273070  0.87078476  1
  Co  Co94  1  0.24795822  0.50030254  0.50286613  1
  Co  Co95  1  0.00132313  0.50183791  0.75354981  1
  Co  Co96  1  0.12636503  0.87290611  0.12530994  1
  Co  Co97  1  0.24951762  0.49918682  0.25017047  1
  Co  Co98  1  -0.00199823  0.24753832  0.75117213  1
  Co  Co99  1  0.50160329  0.74634000  0.74849064  1
  Co  Co100  1  0.87678905  0.37679352  0.12464094  1
  Co  Co101  1  0.37315023  0.62285110  0.12269129  1
  Co  Co102  1  0.87516733  0.12306909  0.37266702  1
  Co  Co103  1  0.24866105  0.75083161  0.75016577  1
  Co  Co104  1  0.50112034  0.00274040  0.74947347  1
  Co  Co105  1  0.87541724  0.87455625  0.37286054  1
  Co  Co106  1  0.87791604  0.37912524  0.37290481  1
  Co  Co107  1  -0.00071361  0.25013593  0.25050975  1
  Co  Co108  1  0.87862572  0.62385938  0.62578610  1
  Co  Co109  1  -0.00026304  0.74857376  0.24909166  1
  Co  Co110  1  0.37394482  0.87775465  0.12295410  1
  Co  Co111  1  0.49756056  0.25133328  0.24934927  1
  Co  Co112  1  0.37335094  0.62371646  0.37662631  1
  Co  Co113  1  0.62530111  0.87190918  0.12855073  1
  Co  Co114  1  0.62655263  0.62411329  0.62244186  1
  Co  Co115  1  0.37642610  0.12325671  0.87873686  1
  Co  Co116  1  -0.00063102  -0.00317377  0.00167767  1
  Co  Co117  1  0.24852669  -0.00012457  0.25054035  1
  Co  Co118  1  0.00203079  0.50172413  0.24767958  1
  Co  Co119  1  0.37446281  0.62467690  0.87484509  1
  Co  Co120  1  0.87486922  0.12416760  0.62459685  1
  Co  Co121  1  0.24728491  0.49975416  -0.00243166  1
  Co  Co122  1  0.12194249  0.12491328  0.87730912  1
  Co  Co123  1  0.00148255  0.50185502  0.49919488  1
  Co  Co124  1  0.87589909  0.87537858  0.62588340  1
  Co  Co125  1  0.87504830  0.37627473  0.87509257  1
  Co  Co126  1  0.37412719  0.87632104  0.37754436  1
  Co  Co127  1  0.74877848  0.50001497  0.24867698  1
