# generated using pymatgen
data_Fe45Co19
_symmetry_space_group_name_H-M   'P 1'
_cell_length_a   11.41522852
_cell_length_b   11.41461748
_cell_length_c   11.41543013
_cell_angle_alpha   89.99894805
_cell_angle_beta   89.99127575
_cell_angle_gamma   89.99971923
_symmetry_Int_Tables_number   1
_chemical_formula_structural   Fe45Co19
_chemical_formula_sum   'Fe90 Co38'
_cell_volume   1487.43586056
_cell_formula_units_Z   2
loop_
 _symmetry_equiv_pos_site_id
 _symmetry_equiv_pos_as_xyz
  1  'x, y, z'
loop_
 _atom_site_type_symbol
 _atom_site_label
 _atom_site_symmetry_multiplicity
 _atom_site_fract_x
 _atom_site_fract_y
 _atom_site_fract_z
 _atom_site_occupancy
  Fe  Fe0  1  0.25161641  0.50222342  0.74998508  1
  Fe  Fe1  1  -0.00116136  0.49879756  0.49769299  1
  Fe  Fe2  1  0.37614057  0.87744413  0.87275190  1
  Fe  Fe3  1  0.87420894  0.37105772  0.62641132  1
  Fe  Fe4  1  0.25265395  0.74888771  0.49803428  1
  Fe  Fe5  1  -0.00287476  0.25249176  0.25235891  1
  Fe  Fe6  1  0.62661630  0.37349151  0.62400038  1
  Fe  Fe7  1  -0.00035687  0.50030611  0.75057700  1
  Fe  Fe8  1  0.12355019  0.37360713  0.62384018  1
  Fe  Fe9  1  0.87225576  0.37485772  0.12601516  1
  Fe  Fe10  1  0.87294890  0.12509013  0.12727003  1
  Fe  Fe11  1  0.24958735  0.00053678  0.50045319  1
  Fe  Fe12  1  0.37666365  0.12244943  0.62669118  1
  Fe  Fe13  1  0.50069490  0.75036415  0.75026705  1
  Fe  Fe14  1  0.24879677  -0.00124371  0.24947922  1
  Fe  Fe15  1  0.87537883  0.87471621  0.61819093  1
  Fe  Fe16  1  0.12529487  0.37633855  0.87682716  1
  Fe  Fe17  1  0.62342957  0.62644273  0.62325253  1
  Fe  Fe18  1  0.37591186  0.37566964  0.87574437  1
  Fe  Fe19  1  0.37781127  0.12257355  0.12656281  1
  Fe  Fe20  1  0.62471592  0.87461517  0.62085558  1
  Fe  Fe21  1  -0.00230645  0.00056458  0.74869994  1
  Fe  Fe22  1  0.25284922  0.50058162  0.24620318  1
  Fe  Fe23  1  -0.00110260  0.49923891  0.25061104  1
  Fe  Fe24  1  0.75057968  0.50167903  0.50149586  1
  Fe  Fe25  1  0.37495240  0.37538640  0.37323848  1
  Fe  Fe26  1  0.87396852  0.37283823  0.87418344  1
  Fe  Fe27  1  0.37525781  0.12240833  0.37326111  1
  Fe  Fe28  1  0.62526577  0.37709030  0.12323033  1
  Fe  Fe29  1  0.49727083  0.50170247  0.00299355  1
  Fe  Fe30  1  0.25092729  0.24985313  0.49874479  1
  Fe  Fe31  1  0.50243990  0.25131561  0.24996864  1
  Fe  Fe32  1  0.37612339  0.37416663  0.62545693  1
  Fe  Fe33  1  0.62803550  0.37554413  0.37542573  1
  Fe  Fe34  1  0.25150295  0.24802824  -0.00038955  1
  Fe  Fe35  1  0.25170133  0.74887985  0.00125425  1
  Fe  Fe36  1  0.87356828  0.87202388  0.12753210  1
  Fe  Fe37  1  0.50187757  0.75256453  0.25364557  1
  Fe  Fe38  1  0.12453604  0.87353614  0.12356043  1
  Fe  Fe39  1  -0.00101851  0.75064276  0.75003780  1
  Fe  Fe40  1  0.37776427  0.12071356  0.87246772  1
  Fe  Fe41  1  0.12536013  0.37452202  0.12547783  1
  Fe  Fe42  1  0.74912873  0.49889167  0.75097070  1
  Fe  Fe43  1  0.49971595  0.50140387  0.74980135  1
  Fe  Fe44  1  -0.00040684  0.75124169  0.25091978  1
  Fe  Fe45  1  0.50034728  0.24802057  0.49808589  1
  Fe  Fe46  1  0.12348062  0.12516477  0.12652930  1
  Fe  Fe47  1  0.12353456  0.12186232  0.87507210  1
  Fe  Fe48  1  -0.00214317  -0.00099312  0.00219704  1
  Fe  Fe49  1  0.12368708  0.12636416  0.62537269  1
  Fe  Fe50  1  0.74750141  -0.00166627  0.00111172  1
  Fe  Fe51  1  -0.00044215  0.24923558  -0.00050488  1
  Fe  Fe52  1  0.74977977  0.00012175  0.74946315  1
  Fe  Fe53  1  0.50364919  0.25044679  0.75185093  1
  Fe  Fe54  1  0.12397718  0.87565185  0.87594600  1
  Fe  Fe55  1  0.62672714  0.12507557  0.62529957  1
  Fe  Fe56  1  0.62418027  0.62432053  0.37507353  1
  Fe  Fe57  1  0.37803801  0.87643937  0.12710149  1
  Fe  Fe58  1  0.75316139  0.24670140  0.49665892  1
  Fe  Fe59  1  0.50087156  0.24848453  -0.00064449  1
  Fe  Fe60  1  0.37756940  0.87610973  0.62271179  1
  Fe  Fe61  1  0.87523556  0.62617206  0.62346118  1
  Fe  Fe62  1  0.12669167  0.62338583  0.37364084  1
  Fe  Fe63  1  0.12425129  0.62694979  0.87771884  1
  Fe  Fe64  1  0.25105099  0.74996519  0.75013942  1
  Fe  Fe65  1  0.25252545  0.50046915  0.50040700  1
  Fe  Fe66  1  -0.00355476  0.24961321  0.49523516  1
  Fe  Fe67  1  0.62833132  0.87787427  0.37743882  1
  Fe  Fe68  1  0.25096709  0.75064450  0.25042616  1
  Fe  Fe69  1  0.74709255  0.25001928  -0.00256453  1
  Fe  Fe70  1  0.25135767  -0.00003530  0.00069988  1
  Fe  Fe71  1  0.74882200  0.50286328  0.24670799  1
  Fe  Fe72  1  0.62567118  0.62445445  0.87702535  1
  Fe  Fe73  1  0.74972383  0.74987804  0.74750748  1
  Fe  Fe74  1  0.62820260  0.12266133  0.37184055  1
  Fe  Fe75  1  0.25053677  0.25084090  0.24917518  1
  Fe  Fe76  1  0.87245376  0.87408596  0.87646613  1
  Fe  Fe77  1  0.62419454  0.12071142  0.12613828  1
  Fe  Fe78  1  0.24899216  0.24979119  0.75182955  1
  Fe  Fe79  1  0.12522765  0.62551329  0.62455429  1
  Fe  Fe80  1  0.74780356  0.74840160  0.00532114  1
  Fe  Fe81  1  -0.00235021  0.50204164  0.00204498  1
  Fe  Fe82  1  0.87271113  0.62774449  0.37460357  1
  Fe  Fe83  1  0.12299686  0.87449922  0.62287608  1
  Fe  Fe84  1  0.12183211  0.87714395  0.37735537  1
  Fe  Fe85  1  0.25293710  0.50332845  0.00432954  1
  Fe  Fe86  1  0.12278533  0.12440657  0.37280518  1
  Fe  Fe87  1  0.87399880  0.62724341  0.87660482  1
  Fe  Fe88  1  0.50139119  0.75302478  -0.00053164  1
  Fe  Fe89  1  0.49834251  0.50088440  0.49933168  1
  Co  Co90  1  0.12296032  0.62641458  0.12526926  1
  Co  Co91  1  0.24830276  -0.00108731  0.74833354  1
  Co  Co92  1  -0.00130815  0.75133778  0.00035228  1
  Co  Co93  1  0.12767844  0.37576220  0.37445313  1
  Co  Co94  1  0.50147798  0.00244644  0.49854547  1
  Co  Co95  1  0.50128177  0.49668967  0.24993571  1
  Co  Co96  1  0.62848075  0.87301283  0.87457339  1
  Co  Co97  1  0.50482170  -0.00249019  0.74880664  1
  Co  Co98  1  0.62464051  0.12095134  0.87543037  1
  Co  Co99  1  0.50116643  -0.00301001  -0.00138257  1
  Co  Co100  1  0.37645135  0.62732596  0.62405172  1
  Co  Co101  1  0.87580159  0.87475669  0.37800813  1
  Co  Co102  1  -0.00039476  -0.00334216  0.24765150  1
  Co  Co103  1  0.37576804  0.62355316  0.37225333  1
  Co  Co104  1  0.87320389  0.12898944  0.62849956  1
  Co  Co105  1  0.62272372  0.87678805  0.12694355  1
  Co  Co106  1  0.87329394  0.12433318  0.87597232  1
  Co  Co107  1  0.74740606  0.75090734  0.25010375  1
  Co  Co108  1  0.86934394  0.37684089  0.37409673  1
  Co  Co109  1  0.50069911  -0.00114818  0.25276467  1
  Co  Co110  1  0.87627647  0.62749325  0.12715318  1
  Co  Co111  1  0.37424901  0.87823999  0.37621760  1
  Co  Co112  1  0.74831897  0.25046248  0.24875732  1
  Co  Co113  1  0.75148466  0.00343250  0.49991618  1
  Co  Co114  1  0.00205906  0.24895745  0.75250035  1
  Co  Co115  1  0.62305651  0.37943990  0.87751141  1
  Co  Co116  1  0.37625363  0.62637533  0.87569410  1
  Co  Co117  1  0.37593662  0.37193190  0.12504522  1
  Co  Co118  1  0.37979828  0.62962289  0.12882266  1
  Co  Co119  1  0.75108624  -0.00442051  0.24880854  1
  Co  Co120  1  -0.00191613  0.00483877  0.50087335  1
  Co  Co121  1  0.75271879  0.50142522  0.00088208  1
  Co  Co122  1  0.87470255  0.12036727  0.36903164  1
  Co  Co123  1  0.74881196  0.74872247  0.49917174  1
  Co  Co124  1  0.00103754  0.74642926  0.49881213  1
  Co  Co125  1  0.49913219  0.75019292  0.49628591  1
  Co  Co126  1  0.74558163  0.25099045  0.75499712  1
  Co  Co127  1  0.62159718  0.62501597  0.12489171  1
