# generated using pymatgen
data_Fe45Co19
_symmetry_space_group_name_H-M   'P 1'
_cell_length_a   11.41483487
_cell_length_b   11.41554675
_cell_length_c   11.41481043
_cell_angle_alpha   90.00435370
_cell_angle_beta   89.98629881
_cell_angle_gamma   89.99953922
_symmetry_Int_Tables_number   1
_chemical_formula_structural   Fe45Co19
_chemical_formula_sum   'Fe90 Co38'
_cell_volume   1487.42487404
_cell_formula_units_Z   2
loop_
 _symmetry_equiv_pos_site_id
 _symmetry_equiv_pos_as_xyz
  1  'x, y, z'
loop_
 _atom_site_type_symbol
 _atom_site_label
 _atom_site_symmetry_multiplicity
 _atom_site_fract_x
 _atom_site_fract_y
 _atom_site_fract_z
 _atom_site_occupancy
  Fe  Fe0  1  0.24636704  0.25163448  -0.00505792  1
  Fe  Fe1  1  0.87597687  0.87368704  0.62780663  1
  Fe  Fe2  1  0.36995858  0.87355103  0.88166580  1
  Fe  Fe3  1  0.75300804  0.50050037  0.25002191  1
  Fe  Fe4  1  0.37429527  0.87189487  0.62561345  1
  Fe  Fe5  1  0.87840657  0.87979250  0.37469826  1
  Fe  Fe6  1  0.12246191  0.88036656  0.37384572  1
  Fe  Fe7  1  0.62573468  0.12450108  0.37438082  1
  Fe  Fe8  1  0.75282727  0.24725202  0.24994321  1
  Fe  Fe9  1  0.87474424  0.87476989  0.12219429  1
  Fe  Fe10  1  0.25018759  -0.00119472  0.50197304  1
  Fe  Fe11  1  0.12302842  0.62415580  0.12334180  1
  Fe  Fe12  1  0.49941226  0.74982657  0.75419267  1
  Fe  Fe13  1  0.00006485  0.49936201  0.24736649  1
  Fe  Fe14  1  0.00241353  0.24657122  0.49978464  1
  Fe  Fe15  1  0.37428992  0.37475851  0.62575575  1
  Fe  Fe16  1  0.00052428  0.24572485  0.25280564  1
  Fe  Fe17  1  0.25062600  0.00192658  0.24656342  1
  Fe  Fe18  1  0.00032112  0.50066226  0.50264666  1
  Fe  Fe19  1  0.37559520  0.62507689  0.37424312  1
  Fe  Fe20  1  0.87772989  0.37378330  0.37696835  1
  Fe  Fe21  1  0.75196473  0.49890718  0.74947093  1
  Fe  Fe22  1  0.12731886  0.87475749  0.12183453  1
  Fe  Fe23  1  0.12436471  0.12794287  0.12570265  1
  Fe  Fe24  1  -0.00050975  0.75132054  0.24955179  1
  Fe  Fe25  1  0.62607624  0.37459976  0.62688512  1
  Fe  Fe26  1  0.75054907  0.00088980  -0.00177655  1
  Fe  Fe27  1  0.24891599  0.75139195  0.49740463  1
  Fe  Fe28  1  0.24733047  0.74724381  0.75493807  1
  Fe  Fe29  1  0.00050075  0.75021107  0.49978469  1
  Fe  Fe30  1  0.12311236  0.62337067  0.37542832  1
  Fe  Fe31  1  0.36930962  0.37204488  0.12798865  1
  Fe  Fe32  1  0.37456747  0.12717846  0.12347288  1
  Fe  Fe33  1  0.62446381  0.12440603  0.87359812  1
  Fe  Fe34  1  0.49949173  0.49968919  0.50025079  1
  Fe  Fe35  1  0.74765567  0.74915703  0.75340562  1
  Fe  Fe36  1  0.37592477  0.62664961  0.12173669  1
  Fe  Fe37  1  0.37798778  0.62162649  0.87910288  1
  Fe  Fe38  1  0.49831671  0.49863412  0.24701174  1
  Fe  Fe39  1  0.00398391  0.25056856  -0.00402447  1
  Fe  Fe40  1  0.87423503  0.62773906  0.12464035  1
  Fe  Fe41  1  0.00300086  0.74922529  -0.00210997  1
  Fe  Fe42  1  0.87739590  0.36989743  0.12483955  1
  Fe  Fe43  1  0.62510752  0.62553527  0.37152454  1
  Fe  Fe44  1  0.88006837  0.37653735  0.87162970  1
  Fe  Fe45  1  0.50197891  0.75254925  0.24406436  1
  Fe  Fe46  1  0.75078747  0.00035056  0.50316866  1
  Fe  Fe47  1  0.24787537  0.50073996  0.75047913  1
  Fe  Fe48  1  0.62061585  0.61920924  0.87922826  1
  Fe  Fe49  1  0.12255836  0.37482909  0.62836010  1
  Fe  Fe50  1  0.62438649  0.12479836  0.12278111  1
  Fe  Fe51  1  0.87500429  0.87423855  0.87469755  1
  Fe  Fe52  1  0.75077336  0.50037838  0.49876182  1
  Fe  Fe53  1  0.50064594  0.75086528  0.49885200  1
  Fe  Fe54  1  0.00344668  0.00169512  -0.00260583  1
  Fe  Fe55  1  0.62603511  0.87788988  0.37116242  1
  Fe  Fe56  1  0.87433699  0.62688603  0.62381550  1
  Fe  Fe57  1  0.74963299  0.25153728  -0.00367735  1
  Fe  Fe58  1  0.62454180  0.37428920  0.37364074  1
  Fe  Fe59  1  0.62701867  0.37416956  0.12512631  1
  Fe  Fe60  1  0.75138459  0.75020107  0.49582510  1
  Fe  Fe61  1  0.74443216  0.75039448  0.00038527  1
  Fe  Fe62  1  0.87451890  0.12572868  0.62843184  1
  Fe  Fe63  1  0.75539937  0.00396509  0.24667692  1
  Fe  Fe64  1  0.37378490  0.12675166  0.62710145  1
  Fe  Fe65  1  0.62423393  0.12529630  0.62921240  1
  Fe  Fe66  1  0.87733205  0.62355710  0.87678500  1
  Fe  Fe67  1  0.37329190  0.12550136  0.37621889  1
  Fe  Fe68  1  0.49657688  -0.00226076  0.75163493  1
  Fe  Fe69  1  0.00407235  0.74723311  0.75289739  1
  Fe  Fe70  1  0.62417651  0.62614047  0.62569992  1
  Fe  Fe71  1  0.87557217  0.12556065  0.87346973  1
  Fe  Fe72  1  0.75295918  0.49771343  0.00158231  1
  Fe  Fe73  1  0.37360886  0.62628482  0.62469591  1
  Fe  Fe74  1  0.37501454  0.87545078  0.37166671  1
  Fe  Fe75  1  0.24830117  0.74822055  0.24909380  1
  Fe  Fe76  1  0.49869335  0.24914411  0.25043865  1
  Fe  Fe77  1  0.49910145  0.25128899  0.49927803  1
  Fe  Fe78  1  0.24636541  0.49765903  0.00180710  1
  Fe  Fe79  1  0.49950003  0.25519130  -0.00277322  1
  Fe  Fe80  1  0.12494325  0.87438345  0.62784940  1
  Fe  Fe81  1  0.49923432  0.25433242  0.75332448  1
  Fe  Fe82  1  0.12739506  0.12299784  0.63113392  1
  Fe  Fe83  1  0.37176221  0.12561114  0.87425967  1
  Fe  Fe84  1  0.24975061  0.49817506  0.49716896  1
  Fe  Fe85  1  0.49870378  -0.00321610  0.00199905  1
  Fe  Fe86  1  0.62471930  0.87428979  0.62747373  1
  Fe  Fe87  1  0.75129826  0.24969202  0.50098960  1
  Fe  Fe88  1  0.24723913  0.25129824  0.49775131  1
  Fe  Fe89  1  0.49948602  -0.00005108  0.49986673  1
  Co  Co90  1  0.24761159  0.00535486  0.00219108  1
  Co  Co91  1  0.75295347  0.75043604  0.25143254  1
  Co  Co92  1  0.62677031  0.62215415  0.12382079  1
  Co  Co93  1  0.12070092  0.37908183  0.87208710  1
  Co  Co94  1  -0.00125124  0.49752824  0.00501341  1
  Co  Co95  1  0.37036146  0.87357256  0.12235009  1
  Co  Co96  1  0.87879665  0.62356810  0.37484557  1
  Co  Co97  1  0.50444494  0.75395728  0.00215121  1
  Co  Co98  1  0.24983564  0.25376671  0.75229644  1
  Co  Co99  1  0.00085089  0.00246342  0.50612720  1
  Co  Co100  1  0.25253508  -0.00325205  0.74979584  1
  Co  Co101  1  0.49678576  0.00225335  0.24853797  1
  Co  Co102  1  -0.00029368  0.50479918  0.74560866  1
  Co  Co103  1  0.12776474  0.12385399  0.86918653  1
  Co  Co104  1  0.24811171  0.24682764  0.25411794  1
  Co  Co105  1  -0.00094232  0.00196216  0.24393753  1
  Co  Co106  1  0.37422700  0.37518853  0.37309679  1
  Co  Co107  1  0.75034271  0.25228212  0.75230326  1
  Co  Co108  1  0.62569080  0.37914442  0.87543629  1
  Co  Co109  1  0.24725242  0.74446327  -0.00111710  1
  Co  Co110  1  0.24928600  0.50324667  0.24912064  1
  Co  Co111  1  -0.00072650  -0.00152446  0.75239472  1
  Co  Co112  1  0.12816808  0.87675772  0.87708073  1
  Co  Co113  1  0.49794571  0.49352256  0.00498796  1
  Co  Co114  1  0.37216967  0.37827709  0.87501741  1
  Co  Co115  1  0.12575464  0.37180630  0.12770154  1
  Co  Co116  1  0.12318085  0.37608029  0.37221934  1
  Co  Co117  1  0.62878676  0.87959931  0.12757437  1
  Co  Co118  1  0.12488744  0.11931401  0.37481675  1
  Co  Co119  1  0.12184525  0.61880463  0.87828937  1
  Co  Co120  1  0.12806742  0.62667201  0.62223227  1
  Co  Co121  1  0.87636236  0.12253745  0.37753529  1
  Co  Co122  1  0.75195746  -0.00021145  0.75018488  1
  Co  Co123  1  0.49897549  0.49859095  0.74765606  1
  Co  Co124  1  -0.00023111  0.24806355  0.75007711  1
  Co  Co125  1  0.62565916  0.87790324  0.87388158  1
  Co  Co126  1  0.87689383  0.12800609  0.11913375  1
  Co  Co127  1  0.87687261  0.37406050  0.62403226  1
