# generated using pymatgen
data_Fe45Co19
_symmetry_space_group_name_H-M   'P 1'
_cell_length_a   11.41492713
_cell_length_b   11.41619977
_cell_length_c   11.41471381
_cell_angle_alpha   89.99577582
_cell_angle_beta   89.99713507
_cell_angle_gamma   90.00544957
_symmetry_Int_Tables_number   1
_chemical_formula_structural   Fe45Co19
_chemical_formula_sum   'Fe90 Co38'
_cell_volume   1487.50942674
_cell_formula_units_Z   2
loop_
 _symmetry_equiv_pos_site_id
 _symmetry_equiv_pos_as_xyz
  1  'x, y, z'
loop_
 _atom_site_type_symbol
 _atom_site_label
 _atom_site_symmetry_multiplicity
 _atom_site_fract_x
 _atom_site_fract_y
 _atom_site_fract_z
 _atom_site_occupancy
  Fe  Fe0  1  0.00103328  0.74924893  0.24865284  1
  Fe  Fe1  1  0.37941406  0.87837993  0.62804480  1
  Fe  Fe2  1  -0.00142225  0.00275350  0.00060266  1
  Fe  Fe3  1  0.49679529  0.24928290  -0.00222853  1
  Fe  Fe4  1  -0.00469256  0.25209438  0.50505318  1
  Fe  Fe5  1  0.37509789  0.62665129  0.37434416  1
  Fe  Fe6  1  0.50071924  0.49802872  0.50028478  1
  Fe  Fe7  1  0.74940343  -0.00002854  0.25187242  1
  Fe  Fe8  1  0.62571233  0.12441781  0.12393031  1
  Fe  Fe9  1  0.62530440  0.12853954  0.37965472  1
  Fe  Fe10  1  0.00082417  0.49999988  0.25091057  1
  Fe  Fe11  1  0.37472576  0.12572182  0.37662691  1
  Fe  Fe12  1  0.24874516  -0.00027025  -0.00038685  1
  Fe  Fe13  1  0.62516599  0.62333790  0.62579800  1
  Fe  Fe14  1  0.87389612  0.37557456  0.37656816  1
  Fe  Fe15  1  0.37477378  0.37559428  0.62755578  1
  Fe  Fe16  1  0.50127596  0.75079378  0.50439062  1
  Fe  Fe17  1  0.37470579  0.62260173  0.63176177  1
  Fe  Fe18  1  0.87360182  0.62487670  0.12535070  1
  Fe  Fe19  1  0.74993556  0.49984945  0.24978318  1
  Fe  Fe20  1  0.50475137  0.75045006  0.24420540  1
  Fe  Fe21  1  0.74516380  0.74996477  0.00373165  1
  Fe  Fe22  1  0.12198287  0.12639979  0.87285897  1
  Fe  Fe23  1  0.37631102  0.87719912  0.12415369  1
  Fe  Fe24  1  0.87748340  0.37451846  0.87358876  1
  Fe  Fe25  1  0.62749643  0.87142662  0.37819658  1
  Fe  Fe26  1  0.12589718  0.87313796  0.37573450  1
  Fe  Fe27  1  0.50087709  0.25181049  0.25137872  1
  Fe  Fe28  1  0.25235810  0.75013092  0.50353712  1
  Fe  Fe29  1  0.62222841  0.87477274  0.87485022  1
  Fe  Fe30  1  0.00055683  0.50127387  0.50201020  1
  Fe  Fe31  1  0.37453779  0.12557688  0.12521184  1
  Fe  Fe32  1  0.37449587  0.62203699  0.12534856  1
  Fe  Fe33  1  0.49474994  0.49788476  -0.00461944  1
  Fe  Fe34  1  0.62470920  0.12231282  0.62054035  1
  Fe  Fe35  1  0.12313034  0.87142643  0.62586275  1
  Fe  Fe36  1  0.37609766  0.12303812  0.62462749  1
  Fe  Fe37  1  0.24806367  -0.00151093  0.75065700  1
  Fe  Fe38  1  0.74711009  0.75002604  0.74854103  1
  Fe  Fe39  1  0.74952128  0.50072591  0.49779492  1
  Fe  Fe40  1  0.24851057  0.75034649  0.24782091  1
  Fe  Fe41  1  0.74947818  0.25155631  0.24985331  1
  Fe  Fe42  1  0.62122261  0.62590339  0.87702780  1
  Fe  Fe43  1  0.12286942  0.87314157  0.87507617  1
  Fe  Fe44  1  0.00313163  0.49974220  0.74890182  1
  Fe  Fe45  1  0.87174875  0.86979760  0.37418509  1
  Fe  Fe46  1  0.75128641  0.49836228  -0.00134237  1
  Fe  Fe47  1  0.12348447  0.12676153  0.37695469  1
  Fe  Fe48  1  0.87546439  0.87451305  0.87449063  1
  Fe  Fe49  1  0.25281798  0.74882975  -0.00116751  1
  Fe  Fe50  1  0.87599404  0.12698599  0.37476508  1
  Fe  Fe51  1  0.12328296  0.12602445  0.12614738  1
  Fe  Fe52  1  -0.00000680  0.74770426  -0.00035496  1
  Fe  Fe53  1  0.62715956  0.37381122  0.62374855  1
  Fe  Fe54  1  0.87325310  0.87625307  0.62623031  1
  Fe  Fe55  1  0.12199218  0.12551730  0.62529958  1
  Fe  Fe56  1  0.74673044  0.50014174  0.75305383  1
  Fe  Fe57  1  0.24785091  0.25116415  0.74899838  1
  Fe  Fe58  1  0.12617309  0.37427668  0.37927682  1
  Fe  Fe59  1  0.62534142  0.37050182  0.87487275  1
  Fe  Fe60  1  0.87840255  0.37438102  0.12371582  1
  Fe  Fe61  1  0.37833617  0.87365630  0.87352610  1
  Fe  Fe62  1  0.12437903  0.37770686  0.12239617  1
  Fe  Fe63  1  0.50068405  0.24652093  0.75037940  1
  Fe  Fe64  1  0.37477287  0.87317716  0.37396536  1
  Fe  Fe65  1  0.87426111  0.62239452  0.62678240  1
  Fe  Fe66  1  0.24828561  -0.00036198  0.25002365  1
  Fe  Fe67  1  0.00055550  -0.00142026  0.24984877  1
  Fe  Fe68  1  0.75261004  0.00386746  -0.00190251  1
  Fe  Fe69  1  0.87366251  0.62560914  0.87396572  1
  Fe  Fe70  1  0.12240250  0.37501075  0.87671310  1
  Fe  Fe71  1  0.24852119  0.25210933  0.25040223  1
  Fe  Fe72  1  0.49955698  0.00455762  -0.00443481  1
  Fe  Fe73  1  0.49957122  0.49816953  0.25230559  1
  Fe  Fe74  1  0.74899809  0.00186789  0.75094591  1
  Fe  Fe75  1  0.62318217  0.37605312  0.12321890  1
  Fe  Fe76  1  0.24985583  0.50159346  0.50272236  1
  Fe  Fe77  1  0.50142396  0.00003507  0.25309238  1
  Fe  Fe78  1  0.24992080  -0.00050306  0.50019713  1
  Fe  Fe79  1  0.12764839  0.62186001  0.12332814  1
  Fe  Fe80  1  0.75527963  0.24781513  0.00029801  1
  Fe  Fe81  1  -0.00112640  -0.00204963  0.49974225  1
  Fe  Fe82  1  -0.00298517  0.74775938  0.50168052  1
  Fe  Fe83  1  0.75457201  0.24757374  0.74659843  1
  Fe  Fe84  1  0.25139949  0.25338212  0.00010528  1
  Fe  Fe85  1  0.37322269  0.37453007  0.37664370  1
  Fe  Fe86  1  0.12817955  0.62565795  0.87231042  1
  Fe  Fe87  1  0.62687350  0.62649423  0.37426379  1
  Fe  Fe88  1  0.87393965  0.87528423  0.12490967  1
  Fe  Fe89  1  0.12570266  0.62583933  0.37659545  1
  Co  Co90  1  0.50476381  0.49770069  0.75125283  1
  Co  Co91  1  0.87953222  0.12528958  0.86982140  1
  Co  Co92  1  0.62427736  0.88263508  0.12175512  1
  Co  Co93  1  0.62882396  0.12865737  0.87566961  1
  Co  Co94  1  0.50155020  0.00516310  0.75424519  1
  Co  Co95  1  0.12692530  0.37346731  0.62183861  1
  Co  Co96  1  0.50018877  0.74854919  0.00303835  1
  Co  Co97  1  0.24574329  0.49735722  0.75010273  1
  Co  Co98  1  0.37616939  0.62566836  0.86879702  1
  Co  Co99  1  0.25191840  0.24810264  0.50145811  1
  Co  Co100  1  0.75410843  0.24953100  0.50255607  1
  Co  Co101  1  0.00174283  -0.00297958  0.75016332  1
  Co  Co102  1  0.87352281  0.62636388  0.37353314  1
  Co  Co103  1  0.75007108  0.74833966  0.50488208  1
  Co  Co104  1  0.37566372  0.37379901  0.86827102  1
  Co  Co105  1  0.37573001  0.37527872  0.12730711  1
  Co  Co106  1  -0.00270850  0.74896143  0.75059636  1
  Co  Co107  1  0.24922797  0.49872960  0.25243194  1
  Co  Co108  1  -0.00184146  0.25410234  0.74603394  1
  Co  Co109  1  0.74518258  0.74931730  0.24378264  1
  Co  Co110  1  0.00163380  0.25336639  0.25061156  1
  Co  Co111  1  0.62708308  0.37482628  0.37672885  1
  Co  Co112  1  0.87137848  0.38197508  0.62667075  1
  Co  Co113  1  0.36923674  0.12618252  0.87410938  1
  Co  Co114  1  0.12401265  0.87453924  0.12315280  1
  Co  Co115  1  0.25476543  0.49855404  -0.00419364  1
  Co  Co116  1  -0.00175743  0.24698336  0.00034950  1
  Co  Co117  1  -0.00108771  0.50356448  -0.00153988  1
  Co  Co118  1  0.50313475  0.75002114  0.74682957  1
  Co  Co119  1  0.62502210  0.88019522  0.62497014  1
  Co  Co120  1  0.87530509  0.12534163  0.12932955  1
  Co  Co121  1  0.75194875  0.00056474  0.49789867  1
  Co  Co122  1  0.62369329  0.61684133  0.12259434  1
  Co  Co123  1  0.12553251  0.62837161  0.62659383  1
  Co  Co124  1  0.49941655  -0.00166461  0.49656305  1
  Co  Co125  1  0.49894896  0.25256353  0.50062703  1
  Co  Co126  1  0.87726857  0.12023073  0.62638970  1
  Co  Co127  1  0.25146114  0.75355307  0.74982010  1
