# generated using pymatgen
data_Fe45Co19
_symmetry_space_group_name_H-M   'P 1'
_cell_length_a   11.41423960
_cell_length_b   11.41511037
_cell_length_c   11.41533390
_cell_angle_alpha   90.00578773
_cell_angle_beta   90.00073460
_cell_angle_gamma   90.00882013
_symmetry_Int_Tables_number   1
_chemical_formula_structural   Fe45Co19
_chemical_formula_sum   'Fe90 Co38'
_cell_volume   1487.35867675
_cell_formula_units_Z   2
loop_
 _symmetry_equiv_pos_site_id
 _symmetry_equiv_pos_as_xyz
  1  'x, y, z'
loop_
 _atom_site_type_symbol
 _atom_site_label
 _atom_site_symmetry_multiplicity
 _atom_site_fract_x
 _atom_site_fract_y
 _atom_site_fract_z
 _atom_site_occupancy
  Fe  Fe0  1  0.24902499  0.49821778  -0.00068977  1
  Fe  Fe1  1  0.25366665  0.74724809  0.24641718  1
  Fe  Fe2  1  0.50141471  0.75085898  0.50191363  1
  Fe  Fe3  1  0.24953898  0.50035228  0.74996224  1
  Fe  Fe4  1  0.00120900  0.25144558  0.00050663  1
  Fe  Fe5  1  0.00175890  -0.00039293  0.25346938  1
  Fe  Fe6  1  0.12302513  0.12613917  0.12664771  1
  Fe  Fe7  1  0.37624639  0.37650695  0.62616039  1
  Fe  Fe8  1  0.87502154  0.87687364  0.12376727  1
  Fe  Fe9  1  0.25393820  0.74923435  0.74846801  1
  Fe  Fe10  1  0.37768374  0.62333596  0.87531667  1
  Fe  Fe11  1  0.12399105  0.62656051  0.87512220  1
  Fe  Fe12  1  0.37724174  0.37644684  0.12637324  1
  Fe  Fe13  1  0.24391130  -0.00334713  0.49674170  1
  Fe  Fe14  1  0.62269158  0.62516100  0.87524430  1
  Fe  Fe15  1  0.62370042  0.37504568  0.12676073  1
  Fe  Fe16  1  0.87924751  0.11850982  0.62197443  1
  Fe  Fe17  1  0.62678034  0.87289974  0.37288370  1
  Fe  Fe18  1  0.37392921  0.12364685  0.37781621  1
  Fe  Fe19  1  0.24828684  0.00031595  0.25123215  1
  Fe  Fe20  1  0.87508826  0.62564585  0.87768415  1
  Fe  Fe21  1  0.74889913  0.50057741  0.25022899  1
  Fe  Fe22  1  0.49886101  0.24860507  0.50179495  1
  Fe  Fe23  1  -0.00233005  0.24973511  0.74791876  1
  Fe  Fe24  1  0.75198790  0.00440308  0.75351898  1
  Fe  Fe25  1  0.87623922  0.12395745  0.12344983  1
  Fe  Fe26  1  0.87522620  0.37609753  0.12464153  1
  Fe  Fe27  1  0.75357803  0.24967250  0.25094112  1
  Fe  Fe28  1  0.62616438  0.12657410  0.62662470  1
  Fe  Fe29  1  -0.00339285  0.74927363  0.24835886  1
  Fe  Fe30  1  0.37609519  0.62390326  0.37801134  1
  Fe  Fe31  1  0.87160070  0.87533486  0.37774958  1
  Fe  Fe32  1  0.49845393  0.74968926  0.74949777  1
  Fe  Fe33  1  0.87279741  0.62567405  0.37825849  1
  Fe  Fe34  1  0.75062654  0.24991774  -0.00114562  1
  Fe  Fe35  1  0.25156714  0.00268571  0.75092845  1
  Fe  Fe36  1  0.87783847  0.37586181  0.37952812  1
  Fe  Fe37  1  0.37169585  0.37014684  0.87131340  1
  Fe  Fe38  1  0.87303328  0.87454040  0.87428958  1
  Fe  Fe39  1  0.24912470  0.24938569  0.25035601  1
  Fe  Fe40  1  0.62912865  0.87564615  0.62935094  1
  Fe  Fe41  1  0.24739148  0.49983781  0.50101011  1
  Fe  Fe42  1  0.74655029  0.75118128  0.00023842  1
  Fe  Fe43  1  0.37376971  0.37603654  0.37624814  1
  Fe  Fe44  1  0.00247661  0.49876041  -0.00193462  1
  Fe  Fe45  1  0.24966524  0.50171953  0.24985304  1
  Fe  Fe46  1  0.25109847  0.74832542  0.00191610  1
  Fe  Fe47  1  -0.00016645  0.50112170  0.25220932  1
  Fe  Fe48  1  0.12384716  0.37611269  0.12772780  1
  Fe  Fe49  1  0.74757569  0.00021546  -0.00222708  1
  Fe  Fe50  1  0.87355788  0.62190678  0.62202853  1
  Fe  Fe51  1  0.12397955  0.87227271  0.12590599  1
  Fe  Fe52  1  0.37828433  0.87664031  0.12555470  1
  Fe  Fe53  1  0.49722279  0.00559706  0.75174334  1
  Fe  Fe54  1  0.25014983  0.75214676  0.50243830  1
  Fe  Fe55  1  0.24833734  0.00052459  0.00011607  1
  Fe  Fe56  1  0.62551935  0.62464022  0.62645485  1
  Fe  Fe57  1  0.87412559  0.62427150  0.12191012  1
  Fe  Fe58  1  0.12735947  0.12966007  0.87424710  1
  Fe  Fe59  1  -0.00025946  0.75549289  0.50362848  1
  Fe  Fe60  1  0.62300779  0.87331347  0.12801306  1
  Fe  Fe61  1  0.50223613  0.49955770  0.50121120  1
  Fe  Fe62  1  0.37507831  0.87791468  0.62402973  1
  Fe  Fe63  1  0.74852270  0.00247556  0.25203941  1
  Fe  Fe64  1  0.38292081  0.62147140  0.12202409  1
  Fe  Fe65  1  0.12557641  0.62830920  0.37459833  1
  Fe  Fe66  1  -0.00395973  0.75190862  0.74796907  1
  Fe  Fe67  1  0.12262219  0.11970170  0.62423129  1
  Fe  Fe68  1  0.75393115  0.25010491  0.50379622  1
  Fe  Fe69  1  0.50187627  0.00098677  -0.00346786  1
  Fe  Fe70  1  0.24593469  0.25101781  0.50222977  1
  Fe  Fe71  1  0.49882478  0.24997330  -0.00226740  1
  Fe  Fe72  1  0.62542410  0.37265874  0.62839907  1
  Fe  Fe73  1  0.62504609  0.12646433  0.12544437  1
  Fe  Fe74  1  0.00232688  -0.00110117  -0.00397176  1
  Fe  Fe75  1  0.62575086  0.37183467  0.37591536  1
  Fe  Fe76  1  0.62472580  0.36922732  0.86852630  1
  Fe  Fe77  1  0.50467302  0.00076459  0.49855173  1
  Fe  Fe78  1  0.87813023  0.12409411  0.37844553  1
  Fe  Fe79  1  0.62631869  0.62685788  0.37401387  1
  Fe  Fe80  1  0.87567935  0.37456400  0.87351992  1
  Fe  Fe81  1  0.37518067  0.87594069  0.87542993  1
  Fe  Fe82  1  0.74619920  0.49841002  -0.00067056  1
  Fe  Fe83  1  0.11944982  0.37876214  0.62637799  1
  Fe  Fe84  1  0.49822842  0.24813997  0.25182926  1
  Fe  Fe85  1  0.12482206  0.62670045  0.62612824  1
  Fe  Fe86  1  0.37568015  0.12384602  0.12390716  1
  Fe  Fe87  1  0.12656903  0.87180893  0.87295802  1
  Fe  Fe88  1  0.37601125  0.87577710  0.37432311  1
  Fe  Fe89  1  0.75133112  0.49923489  0.74952925  1
  Co  Co90  1  0.74654784  0.49884936  0.50005113  1
  Co  Co91  1  0.00314060  0.50328105  0.49775701  1
  Co  Co92  1  0.12234116  0.62468411  0.12417780  1
  Co  Co93  1  0.87594077  0.12632156  0.87810994  1
  Co  Co94  1  0.12728947  0.87579010  0.63039722  1
  Co  Co95  1  0.49390662  0.24412416  0.74788588  1
  Co  Co96  1  0.62620639  0.13025589  0.37550684  1
  Co  Co97  1  0.74614935  0.00136507  0.49851790  1
  Co  Co98  1  0.62632932  0.12916355  0.87346111  1
  Co  Co99  1  0.49913633  0.49958325  0.74954208  1
  Co  Co100  1  0.12642297  0.86813831  0.36989197  1
  Co  Co101  1  0.75807536  0.24856752  0.74649347  1
  Co  Co102  1  0.62566213  0.87554104  0.86953266  1
  Co  Co103  1  0.12441666  0.37462732  0.37388896  1
  Co  Co104  1  0.50220372  0.49949044  0.25363888  1
  Co  Co105  1  0.24897753  0.24843780  0.74186167  1
  Co  Co106  1  0.50147850  0.75335255  -0.00232338  1
  Co  Co107  1  -0.00145471  0.50284414  0.75222123  1
  Co  Co108  1  0.37003240  0.12851561  0.87780042  1
  Co  Co109  1  0.37229735  0.12080137  0.61836782  1
  Co  Co110  1  0.74910166  0.75103724  0.50240816  1
  Co  Co111  1  0.49793771  0.74845790  0.25127263  1
  Co  Co112  1  0.12342186  0.12827917  0.37534613  1
  Co  Co113  1  0.87044169  0.88029447  0.62540216  1
  Co  Co114  1  0.50108815  0.49309620  -0.00470361  1
  Co  Co115  1  0.00136397  0.25015603  0.50331802  1
  Co  Co116  1  0.75177369  0.74862244  0.24785404  1
  Co  Co117  1  0.37512277  0.62369628  0.62366914  1
  Co  Co118  1  0.87760808  0.38071304  0.62304481  1
  Co  Co119  1  0.62201770  0.62462029  0.12353618  1
  Co  Co120  1  0.75258636  0.74664935  0.75006074  1
  Co  Co121  1  -0.00212188  0.25115432  0.25008743  1
  Co  Co122  1  -0.00042691  0.75205822  -0.00055745  1
  Co  Co123  1  0.50192680  0.00223491  0.25239415  1
  Co  Co124  1  0.00517899  -0.00750100  0.49706195  1
  Co  Co125  1  0.12600886  0.37234941  0.87199034  1
  Co  Co126  1  -0.00007874  -0.00184645  0.75460079  1
  Co  Co127  1  0.24875501  0.25262387  0.00491344  1
