# generated using pymatgen
data_Fe45Co19
_symmetry_space_group_name_H-M   'P 1'
_cell_length_a   11.41384781
_cell_length_b   11.41505352
_cell_length_c   11.41559892
_cell_angle_alpha   90.00432861
_cell_angle_beta   89.99628758
_cell_angle_gamma   89.99548307
_symmetry_Int_Tables_number   1
_chemical_formula_structural   Fe45Co19
_chemical_formula_sum   'Fe90 Co38'
_cell_volume   1487.33476115
_cell_formula_units_Z   2
loop_
 _symmetry_equiv_pos_site_id
 _symmetry_equiv_pos_as_xyz
  1  'x, y, z'
loop_
 _atom_site_type_symbol
 _atom_site_label
 _atom_site_symmetry_multiplicity
 _atom_site_fract_x
 _atom_site_fract_y
 _atom_site_fract_z
 _atom_site_occupancy
  Fe  Fe0  1  0.87359002  0.87672407  0.87739562  1
  Fe  Fe1  1  0.49492198  0.25498975  0.75204601  1
  Fe  Fe2  1  -0.00346955  0.49538284  0.24876826  1
  Fe  Fe3  1  0.12670210  0.37668490  0.37569090  1
  Fe  Fe4  1  0.50055289  0.74921256  0.75224401  1
  Fe  Fe5  1  0.25177346  0.24851018  0.50179560  1
  Fe  Fe6  1  0.37509696  0.62426431  0.62424484  1
  Fe  Fe7  1  -0.00142647  0.24934359  0.50100076  1
  Fe  Fe8  1  0.62747714  0.87450081  0.87599237  1
  Fe  Fe9  1  0.25033479  0.74954637  0.75184777  1
  Fe  Fe10  1  0.75291357  0.49602651  0.25002989  1
  Fe  Fe11  1  -0.00318732  0.25320532  0.25104254  1
  Fe  Fe12  1  0.50083711  0.00038655  0.25187314  1
  Fe  Fe13  1  0.87604073  0.87513812  0.37391696  1
  Fe  Fe14  1  0.87637972  0.62418841  0.37257644  1
  Fe  Fe15  1  0.50130887  0.74852779  0.00013019  1
  Fe  Fe16  1  0.75071717  0.00027143  0.74952399  1
  Fe  Fe17  1  0.25069643  0.50101343  0.00392474  1
  Fe  Fe18  1  0.87639716  0.12587806  0.87482608  1
  Fe  Fe19  1  0.37267540  0.37655653  0.37650332  1
  Fe  Fe20  1  0.74971612  0.49979118  0.00039105  1
  Fe  Fe21  1  0.74970242  0.00420664  0.24737341  1
  Fe  Fe22  1  0.00440730  0.74731178  0.49636462  1
  Fe  Fe23  1  -0.00089594  0.25356359  0.75171796  1
  Fe  Fe24  1  0.87624793  0.62595288  0.62734461  1
  Fe  Fe25  1  0.25351956  0.49729406  0.74768075  1
  Fe  Fe26  1  0.50089017  0.49819142  0.25017372  1
  Fe  Fe27  1  0.63105735  0.37222908  0.37773875  1
  Fe  Fe28  1  0.37793378  0.62082094  0.87649199  1
  Fe  Fe29  1  0.12495552  0.87469360  0.12271984  1
  Fe  Fe30  1  0.37880778  0.37267371  0.12210099  1
  Fe  Fe31  1  0.50292141  0.24869318  0.25370358  1
  Fe  Fe32  1  0.12588492  0.37499913  0.62623057  1
  Fe  Fe33  1  0.87395119  0.37623943  0.62382953  1
  Fe  Fe34  1  0.50110908  0.75141938  0.25175140  1
  Fe  Fe35  1  0.87427989  0.62421370  0.87396124  1
  Fe  Fe36  1  0.24910313  0.00202321  0.24622184  1
  Fe  Fe37  1  0.37389878  0.87451774  0.12183825  1
  Fe  Fe38  1  0.37161761  0.87564864  0.87892169  1
  Fe  Fe39  1  0.62482151  0.62641817  0.62700542  1
  Fe  Fe40  1  0.74663670  0.24685153  -0.00053158  1
  Fe  Fe41  1  0.62190515  0.37701083  0.87642551  1
  Fe  Fe42  1  0.00018959  -0.00032793  0.24837845  1
  Fe  Fe43  1  0.87605330  0.87369741  0.62425430  1
  Fe  Fe44  1  0.75102336  0.00300810  0.50299614  1
  Fe  Fe45  1  0.62183829  0.12511676  0.62737674  1
  Fe  Fe46  1  0.62654318  0.62486174  0.12681792  1
  Fe  Fe47  1  0.49838145  -0.00266331  0.75199320  1
  Fe  Fe48  1  0.75141758  0.74919729  0.00114924  1
  Fe  Fe49  1  0.50116485  0.74818486  0.49612571  1
  Fe  Fe50  1  0.74983895  0.74798770  0.49915805  1
  Fe  Fe51  1  0.00005302  0.75148157  0.75135154  1
  Fe  Fe52  1  0.37553095  0.62607564  0.12726638  1
  Fe  Fe53  1  0.37445599  0.87355801  0.62401648  1
  Fe  Fe54  1  0.74896212  0.50043313  0.75000596  1
  Fe  Fe55  1  0.87803683  0.12734542  0.12109347  1
  Fe  Fe56  1  0.74978184  0.25027147  0.74844946  1
  Fe  Fe57  1  0.12790053  0.87541263  0.87895493  1
  Fe  Fe58  1  0.62380000  0.37503042  0.62290187  1
  Fe  Fe59  1  0.49845002  0.00249683  0.49843518  1
  Fe  Fe60  1  0.00105507  -0.00211601  0.75092087  1
  Fe  Fe61  1  0.37948738  0.12590732  0.12421706  1
  Fe  Fe62  1  0.25115202  0.00307636  0.50237415  1
  Fe  Fe63  1  0.37295944  0.12411959  0.87335506  1
  Fe  Fe64  1  0.62591201  0.87835246  0.12266652  1
  Fe  Fe65  1  0.62487570  0.87379443  0.62499576  1
  Fe  Fe66  1  0.12148344  0.62422544  0.12664980  1
  Fe  Fe67  1  0.75244810  0.75082814  0.24881202  1
  Fe  Fe68  1  0.00204065  0.50163581  0.50150622  1
  Fe  Fe69  1  -0.00337250  0.49690633  -0.00155463  1
  Fe  Fe70  1  0.12331033  0.62263696  0.87318778  1
  Fe  Fe71  1  0.12228607  0.37310579  0.12325649  1
  Fe  Fe72  1  0.25004223  0.25134258  0.24811271  1
  Fe  Fe73  1  0.62440633  0.37223836  0.12412403  1
  Fe  Fe74  1  0.50252513  0.50201736  0.49794815  1
  Fe  Fe75  1  -0.00038916  0.00241983  0.50018917  1
  Fe  Fe76  1  0.12615902  0.12626330  0.62945715  1
  Fe  Fe77  1  0.37210885  0.87634089  0.37516239  1
  Fe  Fe78  1  0.62699206  0.87656810  0.37550508  1
  Fe  Fe79  1  0.37158108  0.62171837  0.37236099  1
  Fe  Fe80  1  0.12567922  0.87421765  0.62356259  1
  Fe  Fe81  1  0.12617611  0.12495456  0.87377115  1
  Fe  Fe82  1  0.24581464  0.74646555  0.49701879  1
  Fe  Fe83  1  0.24956672  0.24836051  0.00010026  1
  Fe  Fe84  1  0.49849156  0.24643584  0.49802186  1
  Fe  Fe85  1  0.12662300  0.12567764  0.37305484  1
  Fe  Fe86  1  -0.00254840  0.75064673  0.00229142  1
  Fe  Fe87  1  0.24568437  0.75004112  0.25145431  1
  Fe  Fe88  1  0.87224793  0.12840169  0.37588525  1
  Fe  Fe89  1  0.12703260  0.37595047  0.87480666  1
  Co  Co90  1  0.75046841  0.75021072  0.75044464  1
  Co  Co91  1  0.25066404  0.49574080  0.24396812  1
  Co  Co92  1  0.37680051  0.37602828  0.61973918  1
  Co  Co93  1  0.62900157  0.12545484  0.37619849  1
  Co  Co94  1  0.12525728  0.61854703  0.36916463  1
  Co  Co95  1  0.62042883  0.12464590  0.12481327  1
  Co  Co96  1  0.62504718  0.62428858  0.87546789  1
  Co  Co97  1  0.62328791  0.12612765  0.87038220  1
  Co  Co98  1  0.00185080  -0.00041026  0.00034722  1
  Co  Co99  1  0.75071799  0.24913241  0.24675256  1
  Co  Co100  1  0.50173736  0.50244726  0.00453832  1
  Co  Co101  1  0.24946821  0.74478908  -0.00011806  1
  Co  Co102  1  0.12512691  0.88005078  0.37551752  1
  Co  Co103  1  0.87337105  0.87811121  0.12467038  1
  Co  Co104  1  0.37604759  0.37925017  0.88100764  1
  Co  Co105  1  0.87115001  0.37347907  0.87556863  1
  Co  Co106  1  0.12498938  0.62537075  0.63076917  1
  Co  Co107  1  0.87557374  0.62330267  0.12560182  1
  Co  Co108  1  0.37212963  0.12463849  0.37212878  1
  Co  Co109  1  0.25371484  0.25541004  0.75078696  1
  Co  Co110  1  0.50034708  -0.00013058  -0.00338424  1
  Co  Co111  1  0.24706625  0.50146797  0.50297314  1
  Co  Co112  1  0.74873172  0.00457643  -0.00150689  1
  Co  Co113  1  0.00155301  0.25184316  -0.00447173  1
  Co  Co114  1  0.37582861  0.12515101  0.62981845  1
  Co  Co115  1  0.50024567  0.49879166  0.74809405  1
  Co  Co116  1  0.24905082  0.00485103  0.00328795  1
  Co  Co117  1  0.87782896  0.12505177  0.62928869  1
  Co  Co118  1  0.00163087  0.75259698  0.25004005  1
  Co  Co119  1  0.12046524  0.12868851  0.12599533  1
  Co  Co120  1  0.87403655  0.37121455  0.12019950  1
  Co  Co121  1  -0.00227678  0.49675032  0.75065270  1
  Co  Co122  1  0.62719615  0.62477543  0.37075367  1
  Co  Co123  1  0.50077797  0.24748495  -0.00428307  1
  Co  Co124  1  0.24923380  -0.00315607  0.74929874  1
  Co  Co125  1  0.87246324  0.37423423  0.38028936  1
  Co  Co126  1  0.75150970  0.24656584  0.50534897  1
  Co  Co127  1  0.74942157  0.50381110  0.50108849  1
