# generated using pymatgen
data_Fe45Co19
_symmetry_space_group_name_H-M   'P 1'
_cell_length_a   11.41604400
_cell_length_b   11.41631708
_cell_length_c   11.41457114
_cell_angle_alpha   89.99665536
_cell_angle_beta   90.00114120
_cell_angle_gamma   90.00226801
_symmetry_Int_Tables_number   1
_chemical_formula_structural   Fe45Co19
_chemical_formula_sum   'Fe90 Co38'
_cell_volume   1487.65166962
_cell_formula_units_Z   2
loop_
 _symmetry_equiv_pos_site_id
 _symmetry_equiv_pos_as_xyz
  1  'x, y, z'
loop_
 _atom_site_type_symbol
 _atom_site_label
 _atom_site_symmetry_multiplicity
 _atom_site_fract_x
 _atom_site_fract_y
 _atom_site_fract_z
 _atom_site_occupancy
  Fe  Fe0  1  0.62755885  0.62695821  0.37688712  1
  Fe  Fe1  1  0.12838489  0.37611447  0.87362834  1
  Fe  Fe2  1  0.87366468  0.87529582  0.12450326  1
  Fe  Fe3  1  0.49952384  0.49778898  0.49989201  1
  Fe  Fe4  1  0.62337889  0.12339462  0.12361245  1
  Fe  Fe5  1  0.62701156  0.37355400  0.62485474  1
  Fe  Fe6  1  0.25002586  0.00125949  -0.00243383  1
  Fe  Fe7  1  0.50033178  0.24983753  0.24944694  1
  Fe  Fe8  1  0.24888879  0.74811632  -0.00218100  1
  Fe  Fe9  1  0.25243868  0.50103345  0.00009844  1
  Fe  Fe10  1  0.87032376  0.87410610  0.37404322  1
  Fe  Fe11  1  0.75165847  0.50217366  0.50375564  1
  Fe  Fe12  1  0.50228573  0.75448887  0.49854728  1
  Fe  Fe13  1  0.62720405  0.37496327  0.37502136  1
  Fe  Fe14  1  -0.00169485  0.75114117  -0.00312039  1
  Fe  Fe15  1  -0.00049990  0.25347156  -0.00167711  1
  Fe  Fe16  1  0.24973280  0.50216889  0.25119060  1
  Fe  Fe17  1  0.49771110  0.49447002  -0.00086605  1
  Fe  Fe18  1  0.37199713  0.87377821  0.87056547  1
  Fe  Fe19  1  0.86913169  0.37916360  0.87132279  1
  Fe  Fe20  1  0.74554812  0.24524665  0.75296863  1
  Fe  Fe21  1  0.50044950  0.49973798  0.25214562  1
  Fe  Fe22  1  0.11994757  0.12385121  0.62223346  1
  Fe  Fe23  1  -0.00259020  0.49839204  -0.00056972  1
  Fe  Fe24  1  0.24667291  0.74872976  0.49964612  1
  Fe  Fe25  1  0.62640694  0.62111635  0.87609827  1
  Fe  Fe26  1  0.37245355  0.87310679  0.12651895  1
  Fe  Fe27  1  0.62927139  0.87860323  0.12742120  1
  Fe  Fe28  1  0.00223746  0.25064555  0.25172876  1
  Fe  Fe29  1  0.24615702  0.74719016  0.25258871  1
  Fe  Fe30  1  0.24968124  0.50265848  0.74815075  1
  Fe  Fe31  1  0.12264504  0.62450701  0.12433333  1
  Fe  Fe32  1  0.75098684  0.50309951  0.24762270  1
  Fe  Fe33  1  0.62211062  0.62683212  0.62315551  1
  Fe  Fe34  1  0.37725393  0.62634902  0.12548898  1
  Fe  Fe35  1  0.62747085  0.87614995  0.62787561  1
  Fe  Fe36  1  0.12664162  0.87652727  0.87277249  1
  Fe  Fe37  1  -0.00223757  0.49301873  0.50586207  1
  Fe  Fe38  1  0.24827676  0.24617668  0.49798918  1
  Fe  Fe39  1  0.12082486  0.62403304  0.62486035  1
  Fe  Fe40  1  -0.00277490  -0.00122552  0.75169445  1
  Fe  Fe41  1  0.74744917  0.24667343  0.49879343  1
  Fe  Fe42  1  0.87821289  0.12591525  0.12233377  1
  Fe  Fe43  1  0.12174084  0.12505688  0.87591102  1
  Fe  Fe44  1  0.49874158  -0.00261752  -0.00009377  1
  Fe  Fe45  1  -0.00067217  0.49931478  0.25054426  1
  Fe  Fe46  1  0.88012490  0.12573292  0.37907949  1
  Fe  Fe47  1  0.37251919  0.87277489  0.62824951  1
  Fe  Fe48  1  0.00050940  0.74960184  0.25175611  1
  Fe  Fe49  1  0.87570449  0.62577190  0.37801579  1
  Fe  Fe50  1  0.12706112  0.37616951  0.37756495  1
  Fe  Fe51  1  0.50114891  0.49717579  0.74967547  1
  Fe  Fe52  1  0.25089423  0.00254446  0.25452759  1
  Fe  Fe53  1  0.12036279  0.62343233  0.87175850  1
  Fe  Fe54  1  -0.00075988  0.00003035  0.25025144  1
  Fe  Fe55  1  0.87784135  0.12792889  0.62416550  1
  Fe  Fe56  1  0.87360747  0.37414663  0.12592783  1
  Fe  Fe57  1  0.25036457  0.00094300  0.49798782  1
  Fe  Fe58  1  0.62159963  0.12100668  0.37417519  1
  Fe  Fe59  1  0.75400645  0.00438221  -0.00421338  1
  Fe  Fe60  1  0.75100099  0.00088567  0.50071321  1
  Fe  Fe61  1  0.24975777  0.24606537  0.74961171  1
  Fe  Fe62  1  0.25283492  0.25154670  0.00050103  1
  Fe  Fe63  1  0.38018061  0.12605738  0.87380083  1
  Fe  Fe64  1  0.62290777  0.62475665  0.12399390  1
  Fe  Fe65  1  0.37435171  0.37248595  0.37556761  1
  Fe  Fe66  1  0.37720066  0.62746179  0.62537775  1
  Fe  Fe67  1  0.74847310  0.24809659  -0.00311524  1
  Fe  Fe68  1  0.37688709  0.62607693  0.87321586  1
  Fe  Fe69  1  0.37578957  0.62744777  0.37632009  1
  Fe  Fe70  1  0.12659807  0.87709348  0.62751354  1
  Fe  Fe71  1  0.62131922  0.12239670  0.62676589  1
  Fe  Fe72  1  0.00050046  0.75404131  0.49998179  1
  Fe  Fe73  1  0.75093222  0.24601560  0.25077462  1
  Fe  Fe74  1  0.12589009  0.87621112  0.12499818  1
  Fe  Fe75  1  0.62915065  0.87815885  0.87187923  1
  Fe  Fe76  1  0.50131030  0.75302917  -0.00239182  1
  Fe  Fe77  1  0.50357610  0.75414644  0.25165824  1
  Fe  Fe78  1  0.12719415  0.37554743  0.12490139  1
  Fe  Fe79  1  0.37492941  0.12629834  0.12615484  1
  Fe  Fe80  1  0.87210843  0.37404572  0.37635301  1
  Fe  Fe81  1  0.62589495  0.37406347  0.12416992  1
  Fe  Fe82  1  0.75173412  0.74478185  0.74947922  1
  Fe  Fe83  1  0.00082755  0.25577949  0.74809705  1
  Fe  Fe84  1  0.87236070  0.87417761  0.62764659  1
  Fe  Fe85  1  0.37306466  0.37280840  0.62479647  1
  Fe  Fe86  1  0.49857607  -0.00408995  0.49814285  1
  Fe  Fe87  1  0.75275957  0.74574046  0.00027820  1
  Fe  Fe88  1  0.37912340  0.12595798  0.62455245  1
  Fe  Fe89  1  0.12449490  0.12493320  0.12384144  1
  Co  Co90  1  0.75416990  0.00557602  0.25056434  1
  Co  Co91  1  0.86652830  0.36947933  0.62711499  1
  Co  Co92  1  0.75186809  0.50193175  0.00537259  1
  Co  Co93  1  0.37824228  0.12749575  0.37578028  1
  Co  Co94  1  0.12077114  0.62203414  0.37928940  1
  Co  Co95  1  0.87989940  0.12799397  0.87384201  1
  Co  Co96  1  0.75365045  0.00523442  0.75024571  1
  Co  Co97  1  0.49672614  -0.00221295  0.25008060  1
  Co  Co98  1  0.87689038  0.62029007  0.87173349  1
  Co  Co99  1  0.24657318  0.24863213  0.25226666  1
  Co  Co100  1  -0.00271370  -0.00573945  0.50129653  1
  Co  Co101  1  0.00033148  0.49272587  0.74472313  1
  Co  Co102  1  0.25240393  0.50281040  0.50097193  1
  Co  Co103  1  0.24740617  0.74613869  0.74953721  1
  Co  Co104  1  0.74940878  0.74632327  0.24792205  1
  Co  Co105  1  0.37356724  0.37551884  0.12887159  1
  Co  Co106  1  0.25005235  0.00531734  0.74961185  1
  Co  Co107  1  0.88071112  0.62679507  0.62543446  1
  Co  Co108  1  0.74929459  0.75028786  0.50274333  1
  Co  Co109  1  0.37204160  0.37396674  0.87075209  1
  Co  Co110  1  0.87895730  0.62583710  0.12534620  1
  Co  Co111  1  0.11966708  0.12296784  0.37861045  1
  Co  Co112  1  0.63031643  0.87763670  0.37285174  1
  Co  Co113  1  -0.00013317  -0.00206531  -0.00153260  1
  Co  Co114  1  0.12593278  0.87710687  0.37455469  1
  Co  Co115  1  0.50263699  0.25347861  0.75065940  1
  Co  Co116  1  0.62933815  0.37814675  0.87550743  1
  Co  Co117  1  0.00070839  0.25707750  0.50149312  1
  Co  Co118  1  0.13304530  0.37370874  0.62432262  1
  Co  Co119  1  0.49897992  0.25352138  -0.00006530  1
  Co  Co120  1  0.37235830  0.87166257  0.37522597  1
  Co  Co121  1  0.87153526  0.87412616  0.87441989  1
  Co  Co122  1  0.74828947  0.50524307  0.74320841  1
  Co  Co123  1  0.49794145  -0.00333119  0.74917523  1
  Co  Co124  1  -0.00071636  0.75367372  0.75104191  1
  Co  Co125  1  0.61878387  0.12199186  0.87527784  1
  Co  Co126  1  0.50291043  0.75091428  0.75213142  1
  Co  Co127  1  0.50294805  0.25167819  0.49995026  1
