# generated using pymatgen
data_Fe45Co19
_symmetry_space_group_name_H-M   'P 1'
_cell_length_a   11.41518237
_cell_length_b   11.41495600
_cell_length_c   11.41659187
_cell_angle_alpha   89.99624695
_cell_angle_beta   89.99707994
_cell_angle_gamma   89.99456538
_symmetry_Int_Tables_number   1
_chemical_formula_structural   Fe45Co19
_chemical_formula_sum   'Fe90 Co38'
_cell_volume   1487.62534354
_cell_formula_units_Z   2
loop_
 _symmetry_equiv_pos_site_id
 _symmetry_equiv_pos_as_xyz
  1  'x, y, z'
loop_
 _atom_site_type_symbol
 _atom_site_label
 _atom_site_symmetry_multiplicity
 _atom_site_fract_x
 _atom_site_fract_y
 _atom_site_fract_z
 _atom_site_occupancy
  Fe  Fe0  1  0.49794812  0.24809169  0.00500939  1
  Fe  Fe1  1  0.24900237  0.00054868  0.49898530  1
  Fe  Fe2  1  0.12533231  0.62529947  0.87427044  1
  Fe  Fe3  1  0.00090264  0.00238983  0.00039532  1
  Fe  Fe4  1  0.49831326  0.25086053  0.74866483  1
  Fe  Fe5  1  -0.00145183  0.25048783  0.49997558  1
  Fe  Fe6  1  0.74737711  0.24971116  0.24784962  1
  Fe  Fe7  1  0.87286612  0.12413982  0.62698314  1
  Fe  Fe8  1  0.62937536  0.87275667  0.12470255  1
  Fe  Fe9  1  -0.00101527  0.25015465  0.75065825  1
  Fe  Fe10  1  0.12707303  0.12680266  0.62525687  1
  Fe  Fe11  1  0.12716796  0.12570187  0.87440433  1
  Fe  Fe12  1  -0.00125128  0.74859041  0.00098146  1
  Fe  Fe13  1  0.87326592  0.12259733  0.37417387  1
  Fe  Fe14  1  0.74574908  0.50106274  0.25413550  1
  Fe  Fe15  1  0.74905099  -0.00099702  0.75099785  1
  Fe  Fe16  1  0.87357473  0.37584992  0.37461283  1
  Fe  Fe17  1  0.87061651  0.12439203  0.12231036  1
  Fe  Fe18  1  0.37135190  0.87874427  0.12598924  1
  Fe  Fe19  1  0.25404841  0.25146730  0.00006582  1
  Fe  Fe20  1  0.50037887  0.50323385  0.00191981  1
  Fe  Fe21  1  0.50234025  0.25034596  0.24661274  1
  Fe  Fe22  1  0.62497322  0.87271278  0.87833839  1
  Fe  Fe23  1  0.50159226  0.49797888  0.25027669  1
  Fe  Fe24  1  -0.00016047  0.49841990  0.74936614  1
  Fe  Fe25  1  0.12715282  0.37331597  0.62310336  1
  Fe  Fe26  1  0.74961534  0.25091424  0.75303827  1
  Fe  Fe27  1  0.37924413  0.62871549  0.37398863  1
  Fe  Fe28  1  0.62205231  0.37396215  0.87861127  1
  Fe  Fe29  1  0.12895712  0.12488833  0.12466374  1
  Fe  Fe30  1  -0.00040172  0.75073396  0.74759674  1
  Fe  Fe31  1  0.62579108  0.62915145  0.87409511  1
  Fe  Fe32  1  0.37375783  0.87706610  0.62499199  1
  Fe  Fe33  1  0.87387799  0.62605395  0.87132737  1
  Fe  Fe34  1  0.24978039  0.75218247  0.25035785  1
  Fe  Fe35  1  0.00037865  0.25056623  0.24824662  1
  Fe  Fe36  1  0.87008177  0.37805528  0.62347505  1
  Fe  Fe37  1  0.12478421  0.12681452  0.37551914  1
  Fe  Fe38  1  0.00183114  0.50031701  0.00028958  1
  Fe  Fe39  1  0.50294540  -0.00343713  0.25036000  1
  Fe  Fe40  1  0.49930427  0.24901673  0.50063185  1
  Fe  Fe41  1  0.24953797  0.75148472  0.74887916  1
  Fe  Fe42  1  0.62765456  0.37717476  0.62260496  1
  Fe  Fe43  1  0.37536547  0.62502741  0.12659337  1
  Fe  Fe44  1  0.12304499  0.62483731  0.37422260  1
  Fe  Fe45  1  0.24963339  0.25258976  0.25112861  1
  Fe  Fe46  1  0.37515272  0.12273021  0.37176055  1
  Fe  Fe47  1  -0.00036686  0.00145445  0.50144962  1
  Fe  Fe48  1  0.50150171  0.50002599  0.74922830  1
  Fe  Fe49  1  0.87438178  0.62371072  0.12790098  1
  Fe  Fe50  1  0.62426582  0.12533884  0.87725792  1
  Fe  Fe51  1  0.62771247  0.87306376  0.62163712  1
  Fe  Fe52  1  0.87316311  0.87432632  0.62200216  1
  Fe  Fe53  1  0.25035118  0.49919398  0.49825119  1
  Fe  Fe54  1  0.37707405  0.37401889  0.37596774  1
  Fe  Fe55  1  0.12524029  0.87580339  0.87572933  1
  Fe  Fe56  1  0.00103199  -0.00048772  0.74823672  1
  Fe  Fe57  1  0.25516668  0.25251077  0.75043824  1
  Fe  Fe58  1  0.75008540  0.24841126  0.49905787  1
  Fe  Fe59  1  0.75154566  0.74324622  0.49469063  1
  Fe  Fe60  1  0.37655351  0.62428149  0.62457161  1
  Fe  Fe61  1  0.25124209  0.49694841  0.75105555  1
  Fe  Fe62  1  0.12496623  0.62586303  0.12589619  1
  Fe  Fe63  1  0.00342408  0.49593213  0.24908150  1
  Fe  Fe64  1  0.50074735  0.75024500  0.74795536  1
  Fe  Fe65  1  0.49870462  0.00058184  0.00177230  1
  Fe  Fe66  1  0.62597415  0.12382065  0.37390186  1
  Fe  Fe67  1  0.87722320  0.37197910  0.87877356  1
  Fe  Fe68  1  -0.00002450  0.00024920  0.24888168  1
  Fe  Fe69  1  0.37513897  0.12290647  0.62569923  1
  Fe  Fe70  1  -0.00319934  0.74718094  0.49970997  1
  Fe  Fe71  1  0.12468621  0.62553008  0.62534650  1
  Fe  Fe72  1  0.87422254  0.87589685  0.87636821  1
  Fe  Fe73  1  0.12281934  0.87497506  0.37595378  1
  Fe  Fe74  1  0.50465469  0.50215827  0.49926421  1
  Fe  Fe75  1  0.50159024  -0.00242076  0.49779718  1
  Fe  Fe76  1  0.87326891  0.37455565  0.12336551  1
  Fe  Fe77  1  -0.00122929  0.50003065  0.50113617  1
  Fe  Fe78  1  0.24953540  0.49771283  -0.00051121  1
  Fe  Fe79  1  0.37531137  0.62579732  0.87503896  1
  Fe  Fe80  1  0.24883537  0.49798872  0.25135615  1
  Fe  Fe81  1  0.62471080  0.62949756  0.12824031  1
  Fe  Fe82  1  0.25050850  0.75134597  0.00105152  1
  Fe  Fe83  1  0.50154980  -0.00034381  0.75010338  1
  Fe  Fe84  1  0.25140646  0.75030650  0.49951855  1
  Fe  Fe85  1  -0.00230149  0.75211856  0.25044779  1
  Fe  Fe86  1  0.62575178  0.12497075  0.62537211  1
  Fe  Fe87  1  0.74931840  0.50183755  -0.00111813  1
  Fe  Fe88  1  0.87305539  0.87603405  0.12494174  1
  Fe  Fe89  1  0.37470001  0.87698021  0.87411364  1
  Co  Co90  1  0.62604709  0.12222699  0.12441974  1
  Co  Co91  1  0.62786175  0.87147855  0.37556032  1
  Co  Co92  1  0.74675963  0.50557899  0.49295548  1
  Co  Co93  1  0.37574455  0.37696272  0.12594271  1
  Co  Co94  1  0.12319836  0.87456315  0.12406231  1
  Co  Co95  1  0.62936980  0.62437414  0.62769500  1
  Co  Co96  1  0.37724342  0.37680893  0.62234845  1
  Co  Co97  1  0.25018781  -0.00003231  -0.00049062  1
  Co  Co98  1  0.37651976  0.12344507  0.87489620  1
  Co  Co99  1  0.12383320  0.37385270  0.37712168  1
  Co  Co100  1  0.74893293  -0.00031153  0.25041886  1
  Co  Co101  1  0.49666811  0.75704553  0.24682701  1
  Co  Co102  1  0.25289553  0.24881951  0.49876438  1
  Co  Co103  1  0.74844878  0.00256385  0.49988958  1
  Co  Co104  1  0.87401283  0.87924977  0.37681963  1
  Co  Co105  1  0.87969516  0.62036037  0.37088612  1
  Co  Co106  1  0.37987435  0.37631148  0.87712146  1
  Co  Co107  1  0.37417724  0.87524330  0.37588760  1
  Co  Co108  1  0.12378429  0.37305820  0.87575102  1
  Co  Co109  1  0.74828355  0.24947048  -0.00031146  1
  Co  Co110  1  0.24865427  -0.00008125  0.74904206  1
  Co  Co111  1  0.87039914  0.62282839  0.62850766  1
  Co  Co112  1  0.12507672  0.37377214  0.12276652  1
  Co  Co113  1  0.00056207  0.24621592  0.00172663  1
  Co  Co114  1  0.61749371  0.63217080  0.37002809  1
  Co  Co115  1  0.62580237  0.37700174  0.12339613  1
  Co  Co116  1  0.37337653  0.12220073  0.12917334  1
  Co  Co117  1  0.75260121  0.74778426  0.00083581  1
  Co  Co118  1  0.49975886  0.75132234  0.50323985  1
  Co  Co119  1  0.12481415  0.87366061  0.62248275  1
  Co  Co120  1  0.74944286  0.00016180  -0.00203246  1
  Co  Co121  1  0.75474240  0.74926978  0.25316784  1
  Co  Co122  1  0.62501592  0.37133664  0.37623977  1
  Co  Co123  1  0.74970694  0.75390143  0.75132277  1
  Co  Co124  1  0.74919364  0.49595615  0.75540680  1
  Co  Co125  1  0.87431370  0.12394321  0.87453782  1
  Co  Co126  1  0.49714311  0.75066532  0.00194176  1
  Co  Co127  1  0.24610276  -0.00226112  0.25229628  1
