# generated using pymatgen
data_Fe45Co19
_symmetry_space_group_name_H-M   'P 1'
_cell_length_a   11.41509024
_cell_length_b   11.41502707
_cell_length_c   11.41617178
_cell_angle_alpha   89.99926111
_cell_angle_beta   89.99481520
_cell_angle_gamma   89.99857429
_symmetry_Int_Tables_number   1
_chemical_formula_structural   Fe45Co19
_chemical_formula_sum   'Fe90 Co38'
_cell_volume   1487.56786567
_cell_formula_units_Z   2
loop_
 _symmetry_equiv_pos_site_id
 _symmetry_equiv_pos_as_xyz
  1  'x, y, z'
loop_
 _atom_site_type_symbol
 _atom_site_label
 _atom_site_symmetry_multiplicity
 _atom_site_fract_x
 _atom_site_fract_y
 _atom_site_fract_z
 _atom_site_occupancy
  Fe  Fe0  1  0.37417405  0.36753148  0.62164141  1
  Fe  Fe1  1  -0.00322917  0.25187885  0.24844467  1
  Fe  Fe2  1  0.12516914  0.87628326  0.87390745  1
  Fe  Fe3  1  0.37204738  0.62222755  0.12327767  1
  Fe  Fe4  1  -0.00059034  0.75044511  -0.00154913  1
  Fe  Fe5  1  0.87373823  0.37606070  0.12309398  1
  Fe  Fe6  1  0.00117752  0.50066764  0.00156757  1
  Fe  Fe7  1  0.75132489  -0.00187805  0.25044691  1
  Fe  Fe8  1  0.25224908  0.75090362  -0.00213093  1
  Fe  Fe9  1  0.62561683  0.62410178  0.62552269  1
  Fe  Fe10  1  0.24891863  0.74985353  0.49882904  1
  Fe  Fe11  1  0.87133196  0.12673572  0.12388543  1
  Fe  Fe12  1  0.12616172  0.62337292  0.62622521  1
  Fe  Fe13  1  0.62940688  0.12727205  0.37218580  1
  Fe  Fe14  1  0.12529434  0.62380111  0.87462691  1
  Fe  Fe15  1  0.62535833  0.87476807  0.37425536  1
  Fe  Fe16  1  -0.00303588  0.49926168  0.50490558  1
  Fe  Fe17  1  0.50230023  0.00165468  0.24739508  1
  Fe  Fe18  1  0.62612683  0.37371024  0.37430739  1
  Fe  Fe19  1  0.75018019  -0.00252528  -0.00196628  1
  Fe  Fe20  1  0.87399829  0.62642996  0.12524466  1
  Fe  Fe21  1  0.50079030  0.00399006  0.49999486  1
  Fe  Fe22  1  0.12520269  0.87664323  0.62585687  1
  Fe  Fe23  1  0.62115282  0.62568528  0.87465861  1
  Fe  Fe24  1  0.62206924  0.12863609  0.87613156  1
  Fe  Fe25  1  0.12395238  0.12691164  0.87433145  1
  Fe  Fe26  1  0.12548635  0.37544180  0.12344627  1
  Fe  Fe27  1  0.75063982  0.49668254  0.75256206  1
  Fe  Fe28  1  0.37756914  0.62387883  0.87505147  1
  Fe  Fe29  1  0.37586180  0.12738610  0.37471593  1
  Fe  Fe30  1  0.62735410  0.62597687  0.12268959  1
  Fe  Fe31  1  0.37412813  0.87635460  0.12610022  1
  Fe  Fe32  1  0.74805451  0.49819156  -0.00397539  1
  Fe  Fe33  1  -0.00310590  0.00064326  0.50090733  1
  Fe  Fe34  1  0.75067818  0.49867002  0.50007714  1
  Fe  Fe35  1  0.50281570  0.24830886  0.24562887  1
  Fe  Fe36  1  -0.00195461  0.25057044  0.74686262  1
  Fe  Fe37  1  0.25141579  0.75102853  0.75068554  1
  Fe  Fe38  1  0.12596479  0.12550770  0.12620639  1
  Fe  Fe39  1  0.37623456  0.87663671  0.62558017  1
  Fe  Fe40  1  0.24604935  0.50040082  0.25058970  1
  Fe  Fe41  1  0.24948387  0.24967049  -0.00072712  1
  Fe  Fe42  1  0.37509788  0.62409917  0.62418807  1
  Fe  Fe43  1  0.49773878  0.00439939  0.74892707  1
  Fe  Fe44  1  -0.00086703  0.00061031  0.00143562  1
  Fe  Fe45  1  -0.00175020  0.49857208  0.74776611  1
  Fe  Fe46  1  0.87731271  0.62301809  0.37442205  1
  Fe  Fe47  1  -0.00165783  -0.00150178  0.24921015  1
  Fe  Fe48  1  0.49919416  0.49721042  0.74651687  1
  Fe  Fe49  1  0.87373337  0.87430789  0.62693059  1
  Fe  Fe50  1  0.12040615  0.37731877  0.37667613  1
  Fe  Fe51  1  0.12118284  0.12426937  0.37503943  1
  Fe  Fe52  1  0.25321683  0.00510399  0.75024434  1
  Fe  Fe53  1  0.24861937  0.25143024  0.25242679  1
  Fe  Fe54  1  -0.00435209  0.24936745  0.50260636  1
  Fe  Fe55  1  0.75079098  0.74940908  0.49874452  1
  Fe  Fe56  1  0.24665279  0.74786808  0.25325491  1
  Fe  Fe57  1  0.50151515  0.74964661  0.24789469  1
  Fe  Fe58  1  0.75117578  0.49937962  0.25094881  1
  Fe  Fe59  1  0.74903664  0.75009915  0.75161748  1
  Fe  Fe60  1  0.37536942  0.37600368  0.12379838  1
  Fe  Fe61  1  0.12204299  0.37362336  0.87525219  1
  Fe  Fe62  1  0.87627831  0.87393459  0.87306416  1
  Fe  Fe63  1  0.62933374  0.12846708  0.62591293  1
  Fe  Fe64  1  0.87192720  0.87082838  0.12615357  1
  Fe  Fe65  1  0.25135587  0.49454766  0.75119712  1
  Fe  Fe66  1  0.24895354  0.00109539  0.25183189  1
  Fe  Fe67  1  0.62844706  0.37095510  0.62539483  1
  Fe  Fe68  1  0.25097498  0.49726494  0.50009991  1
  Fe  Fe69  1  0.25121355  0.00237827  -0.00197504  1
  Fe  Fe70  1  0.38115855  0.37027716  0.87775053  1
  Fe  Fe71  1  0.50045116  0.74979747  0.50167028  1
  Fe  Fe72  1  0.00020227  0.75051025  0.50020381  1
  Fe  Fe73  1  0.62513237  0.87577676  0.62569809  1
  Fe  Fe74  1  0.62330080  0.62320224  0.37686756  1
  Fe  Fe75  1  0.50079715  0.50079487  0.24879623  1
  Fe  Fe76  1  -0.00071084  0.00162065  0.74963636  1
  Fe  Fe77  1  0.37793748  0.37393240  0.37586945  1
  Fe  Fe78  1  0.74617133  0.25415471  -0.00188495  1
  Fe  Fe79  1  0.87578030  0.62477439  0.87329457  1
  Fe  Fe80  1  0.61944055  0.87249891  0.87649800  1
  Fe  Fe81  1  0.00345611  0.74841827  0.25280187  1
  Fe  Fe82  1  0.37619142  0.62293255  0.37666266  1
  Fe  Fe83  1  0.12610769  0.87447695  0.12490296  1
  Fe  Fe84  1  0.49879846  0.00252932  0.00329824  1
  Fe  Fe85  1  0.74910075  0.00102537  0.75293441  1
  Fe  Fe86  1  0.37543032  0.87555292  0.37473207  1
  Fe  Fe87  1  0.25038854  0.00371053  0.50027229  1
  Fe  Fe88  1  0.87561704  0.12837749  0.87609166  1
  Fe  Fe89  1  0.75247936  0.00177494  0.49869354  1
  Co  Co90  1  0.61872617  0.37373178  0.87336706  1
  Co  Co91  1  0.87515988  0.12527579  0.37229616  1
  Co  Co92  1  0.49971747  0.24822618  0.74656614  1
  Co  Co93  1  0.75147989  0.25171633  0.75506757  1
  Co  Co94  1  0.49936226  0.74922158  0.74691629  1
  Co  Co95  1  0.87889709  0.37430275  0.87645390  1
  Co  Co96  1  0.12339816  0.61998797  0.37857541  1
  Co  Co97  1  0.75206906  0.25366685  0.24953109  1
  Co  Co98  1  0.37378395  0.13017543  0.62211962  1
  Co  Co99  1  0.87315453  0.62579713  0.62671464  1
  Co  Co100  1  0.50338299  0.24877583  0.00810590  1
  Co  Co101  1  0.87662457  0.37748454  0.37494315  1
  Co  Co102  1  0.75031626  0.75002388  -0.00435981  1
  Co  Co103  1  0.00056955  0.24884085  0.00318230  1
  Co  Co104  1  0.00127423  0.74961746  0.74992994  1
  Co  Co105  1  0.62732908  0.87454441  0.12373934  1
  Co  Co106  1  0.37803934  0.87666938  0.87401063  1
  Co  Co107  1  0.50083482  0.49682040  0.50251838  1
  Co  Co108  1  0.12511215  0.37429919  0.62451185  1
  Co  Co109  1  0.63154478  0.12315955  0.12491422  1
  Co  Co110  1  0.24962760  0.49694510  -0.00303552  1
  Co  Co111  1  0.87058659  0.37407629  0.62635754  1
  Co  Co112  1  0.50434873  0.24801177  0.49826096  1
  Co  Co113  1  0.87444600  0.87416548  0.37426824  1
  Co  Co114  1  0.00159316  0.50005061  0.24509270  1
  Co  Co115  1  0.12538684  0.87799022  0.37647687  1
  Co  Co116  1  0.50202964  0.50053199  0.00080200  1
  Co  Co117  1  0.24624087  0.24947536  0.49605796  1
  Co  Co118  1  0.24924783  0.25082724  0.75208048  1
  Co  Co119  1  0.62581720  0.37844152  0.12638908  1
  Co  Co120  1  0.37165025  0.12580938  0.12608558  1
  Co  Co121  1  0.49772240  0.74907721  0.00347466  1
  Co  Co122  1  0.37790161  0.12978102  0.87692988  1
  Co  Co123  1  0.75363884  0.24882115  0.49772124  1
  Co  Co124  1  0.12479244  0.12610821  0.62504158  1
  Co  Co125  1  0.87166127  0.12431159  0.62850573  1
  Co  Co126  1  0.12684723  0.62608101  0.12128774  1
  Co  Co127  1  0.74794937  0.74754097  0.25323933  1
