# generated using pymatgen
data_Fe45Co19
_symmetry_space_group_name_H-M   'P 1'
_cell_length_a   11.41473637
_cell_length_b   11.41400094
_cell_length_c   11.41624668
_cell_angle_alpha   89.99822461
_cell_angle_beta   90.00511813
_cell_angle_gamma   90.00163553
_symmetry_Int_Tables_number   1
_chemical_formula_structural   Fe45Co19
_chemical_formula_sum   'Fe90 Co38'
_cell_volume   1487.39779135
_cell_formula_units_Z   2
loop_
 _symmetry_equiv_pos_site_id
 _symmetry_equiv_pos_as_xyz
  1  'x, y, z'
loop_
 _atom_site_type_symbol
 _atom_site_label
 _atom_site_symmetry_multiplicity
 _atom_site_fract_x
 _atom_site_fract_y
 _atom_site_fract_z
 _atom_site_occupancy
  Fe  Fe0  1  0.50135795  0.49841160  -0.00179555  1
  Fe  Fe1  1  0.49847349  0.00237074  0.25291741  1
  Fe  Fe2  1  0.25227329  0.49924691  0.74860772  1
  Fe  Fe3  1  0.00012953  0.50024740  0.25016390  1
  Fe  Fe4  1  0.37154078  0.12978036  0.38330022  1
  Fe  Fe5  1  0.24852465  0.74964891  0.74878773  1
  Fe  Fe6  1  0.37495882  0.62560988  0.62370962  1
  Fe  Fe7  1  0.74985686  -0.00203389  0.49840153  1
  Fe  Fe8  1  0.87365221  0.12786821  0.37641507  1
  Fe  Fe9  1  0.12326418  0.87556192  0.12631759  1
  Fe  Fe10  1  0.62546408  0.62424664  0.12566911  1
  Fe  Fe11  1  0.74994099  0.00010382  0.25246468  1
  Fe  Fe12  1  0.75194328  0.75152706  0.25235806  1
  Fe  Fe13  1  0.49605493  -0.00024545  0.75011882  1
  Fe  Fe14  1  0.62460136  0.12519144  0.62393384  1
  Fe  Fe15  1  0.74903872  0.25241807  0.00094962  1
  Fe  Fe16  1  0.62729309  0.62441967  0.87508465  1
  Fe  Fe17  1  -0.00030931  0.25047521  0.25087433  1
  Fe  Fe18  1  0.50049239  -0.00110188  0.50004378  1
  Fe  Fe19  1  0.50104592  0.25046319  -0.00040156  1
  Fe  Fe20  1  -0.00021782  0.00023390  0.49970611  1
  Fe  Fe21  1  -0.00079930  0.00219556  0.25066204  1
  Fe  Fe22  1  0.75111631  -0.00051102  -0.00048376  1
  Fe  Fe23  1  0.87902543  0.87432572  0.12648832  1
  Fe  Fe24  1  0.75081132  0.75416342  0.50005359  1
  Fe  Fe25  1  0.12372637  0.62551939  0.12325157  1
  Fe  Fe26  1  0.24727422  0.75159545  0.50178164  1
  Fe  Fe27  1  0.62799033  0.37147901  0.37463494  1
  Fe  Fe28  1  0.50067019  0.75111233  0.50026510  1
  Fe  Fe29  1  0.87680829  0.12561455  0.62298676  1
  Fe  Fe30  1  0.12598869  0.37499773  0.87197550  1
  Fe  Fe31  1  0.62518696  0.12558567  0.87373960  1
  Fe  Fe32  1  0.87508830  0.37184565  0.37566333  1
  Fe  Fe33  1  0.12612050  0.62306747  0.37575258  1
  Fe  Fe34  1  0.49624061  0.25042702  0.25300340  1
  Fe  Fe35  1  0.87660403  0.62631880  0.62406311  1
  Fe  Fe36  1  0.75025287  0.49922169  0.75116939  1
  Fe  Fe37  1  0.25114598  0.49828586  0.00128754  1
  Fe  Fe38  1  0.62411069  0.87604203  0.12656993  1
  Fe  Fe39  1  0.49997859  0.49905900  0.74986880  1
  Fe  Fe40  1  0.12468970  0.12560728  0.12495185  1
  Fe  Fe41  1  0.75018024  0.75202379  -0.00024475  1
  Fe  Fe42  1  0.87785412  0.87357247  0.87170281  1
  Fe  Fe43  1  0.49993535  0.75303176  0.75101704  1
  Fe  Fe44  1  0.12374124  0.62184663  0.62531646  1
  Fe  Fe45  1  0.37456211  0.37220523  0.87483223  1
  Fe  Fe46  1  0.12178892  0.87426476  0.37287691  1
  Fe  Fe47  1  0.25519927  0.00417814  0.74807616  1
  Fe  Fe48  1  0.37178775  0.62159777  0.37722408  1
  Fe  Fe49  1  0.62478593  0.37526833  0.12695353  1
  Fe  Fe50  1  -0.00166395  0.50436051  0.75391568  1
  Fe  Fe51  1  0.49943592  0.49668141  0.49932983  1
  Fe  Fe52  1  0.00099001  0.00060740  -0.00104707  1
  Fe  Fe53  1  0.49983531  0.75220559  -0.00227564  1
  Fe  Fe54  1  0.49827015  0.74999220  0.25078089  1
  Fe  Fe55  1  0.87540330  0.62474420  0.12200894  1
  Fe  Fe56  1  0.87487949  0.37343407  0.87510369  1
  Fe  Fe57  1  0.00205379  0.24652400  0.74861550  1
  Fe  Fe58  1  0.87610710  0.12749086  0.12395072  1
  Fe  Fe59  1  0.75247277  0.49870257  0.24914072  1
  Fe  Fe60  1  0.24872635  0.24911170  -0.00012375  1
  Fe  Fe61  1  0.37318500  0.37169205  0.62276959  1
  Fe  Fe62  1  0.12613945  0.12801114  0.37774868  1
  Fe  Fe63  1  0.24882523  0.75184731  -0.00070007  1
  Fe  Fe64  1  0.25051197  0.00254246  0.25165044  1
  Fe  Fe65  1  0.75143331  0.00042199  0.74936498  1
  Fe  Fe66  1  0.87520785  0.12747709  0.87700184  1
  Fe  Fe67  1  0.75007293  0.75177893  0.74739705  1
  Fe  Fe68  1  0.37295308  0.87740531  0.12429207  1
  Fe  Fe69  1  0.62524305  0.62468684  0.37509063  1
  Fe  Fe70  1  0.12500691  0.37351538  0.12732581  1
  Fe  Fe71  1  0.62489631  0.12461833  0.12663182  1
  Fe  Fe72  1  0.24964139  0.74852646  0.24956991  1
  Fe  Fe73  1  0.49924867  -0.00172654  -0.00316112  1
  Fe  Fe74  1  -0.00088801  0.50083947  -0.00258999  1
  Fe  Fe75  1  0.12177030  0.87889008  0.62788918  1
  Fe  Fe76  1  0.37398869  0.12436315  0.12207949  1
  Fe  Fe77  1  0.12529161  0.87710107  0.87261547  1
  Fe  Fe78  1  0.37593881  0.62382162  0.12365544  1
  Fe  Fe79  1  0.49600483  0.49722120  0.25217494  1
  Fe  Fe80  1  0.37336169  0.62563628  0.87464418  1
  Fe  Fe81  1  0.87679831  0.37348686  0.62600133  1
  Fe  Fe82  1  0.87738820  0.62673564  0.37751427  1
  Fe  Fe83  1  0.62471707  0.62507344  0.62440224  1
  Fe  Fe84  1  0.37385881  0.87469218  0.37613314  1
  Fe  Fe85  1  0.12655337  0.12437194  0.87374157  1
  Fe  Fe86  1  0.00310815  0.49588241  0.49886535  1
  Fe  Fe87  1  0.49753634  0.24744329  0.74875895  1
  Fe  Fe88  1  0.62698775  0.37293536  0.62710578  1
  Fe  Fe89  1  0.74999336  0.49815517  0.50089312  1
  Co  Co90  1  0.24945031  0.24743033  0.74743964  1
  Co  Co91  1  0.37476415  0.87456641  0.62434542  1
  Co  Co92  1  -0.00224997  0.00475338  0.75172896  1
  Co  Co93  1  0.24784959  0.00091797  0.00032027  1
  Co  Co94  1  0.62658052  0.87693235  0.87374328  1
  Co  Co95  1  0.24081270  0.25501449  0.50621777  1
  Co  Co96  1  0.12120284  0.37798318  0.63195774  1
  Co  Co97  1  0.12910994  0.37486572  0.36899687  1
  Co  Co98  1  0.62333673  0.87499905  0.37392766  1
  Co  Co99  1  0.62548251  0.12715189  0.37553027  1
  Co  Co100  1  0.00014736  0.74671371  0.24998999  1
  Co  Co101  1  0.25123276  0.50196019  0.24614446  1
  Co  Co102  1  0.37462911  0.12666993  0.87756405  1
  Co  Co103  1  0.12958350  0.62268592  0.87523163  1
  Co  Co104  1  0.87874105  0.87558680  0.62673919  1
  Co  Co105  1  0.00161941  0.74996882  -0.00419363  1
  Co  Co106  1  0.12568272  0.12091964  0.62412439  1
  Co  Co107  1  0.24784668  0.49685555  0.50354556  1
  Co  Co108  1  0.00301647  0.24958149  -0.00196655  1
  Co  Co109  1  0.62407644  0.87718309  0.62561033  1
  Co  Co110  1  0.87073613  0.62646385  0.87554664  1
  Co  Co111  1  0.00274653  0.75095336  0.50274133  1
  Co  Co112  1  0.87916081  0.87492682  0.37472812  1
  Co  Co113  1  0.62481691  0.37275923  0.87199611  1
  Co  Co114  1  0.25259113  0.24626703  0.24859715  1
  Co  Co115  1  0.37345270  0.12692146  0.61808865  1
  Co  Co116  1  0.75197010  0.24810385  0.74914782  1
  Co  Co117  1  0.00251126  0.74594207  0.75131959  1
  Co  Co118  1  0.24794284  -0.00328688  0.49914044  1
  Co  Co119  1  0.87828822  0.37418913  0.12377615  1
  Co  Co120  1  0.74917234  0.49634460  -0.00039564  1
  Co  Co121  1  0.36728356  0.37358835  0.37705878  1
  Co  Co122  1  0.00382864  0.25247904  0.50124211  1
  Co  Co123  1  0.37152823  0.87534443  0.87472828  1
  Co  Co124  1  0.75129711  0.24988749  0.24765216  1
  Co  Co125  1  0.50261482  0.25412286  0.49982247  1
  Co  Co126  1  0.37437849  0.37299384  0.12354730  1
  Co  Co127  1  0.75023623  0.24957397  0.50293333  1
