# generated using pymatgen
data_Fe45Co19
_symmetry_space_group_name_H-M   'P 1'
_cell_length_a   11.41513521
_cell_length_b   11.41532692
_cell_length_c   11.41601298
_cell_angle_alpha   89.99719654
_cell_angle_beta   89.99835830
_cell_angle_gamma   90.01120334
_symmetry_Int_Tables_number   1
_chemical_formula_structural   Fe45Co19
_chemical_formula_sum   'Fe90 Co38'
_cell_volume   1487.59208310
_cell_formula_units_Z   2
loop_
 _symmetry_equiv_pos_site_id
 _symmetry_equiv_pos_as_xyz
  1  'x, y, z'
loop_
 _atom_site_type_symbol
 _atom_site_label
 _atom_site_symmetry_multiplicity
 _atom_site_fract_x
 _atom_site_fract_y
 _atom_site_fract_z
 _atom_site_occupancy
  Fe  Fe0  1  0.49865214  -0.00113983  0.00040066  1
  Fe  Fe1  1  0.62851567  0.37470801  0.87824897  1
  Fe  Fe2  1  0.12292467  0.62391608  0.62485458  1
  Fe  Fe3  1  0.75228077  0.50266429  0.50147415  1
  Fe  Fe4  1  0.00018571  0.74915124  0.49810780  1
  Fe  Fe5  1  0.12715551  0.87470018  0.87625400  1
  Fe  Fe6  1  0.75076636  0.24969717  0.74931270  1
  Fe  Fe7  1  0.75040018  0.00164939  0.50158817  1
  Fe  Fe8  1  0.25033502  -0.00183862  0.74733883  1
  Fe  Fe9  1  0.74984322  0.74912649  0.24911362  1
  Fe  Fe10  1  0.87860790  0.12381006  0.62853665  1
  Fe  Fe11  1  0.12699206  0.37572875  0.37622149  1
  Fe  Fe12  1  0.87725405  0.87320101  0.12294447  1
  Fe  Fe13  1  0.37286169  0.62598075  0.37315505  1
  Fe  Fe14  1  0.37396068  0.12348506  0.87357755  1
  Fe  Fe15  1  0.24989577  -0.00037278  0.00248400  1
  Fe  Fe16  1  0.24958010  0.00076300  0.50131221  1
  Fe  Fe17  1  0.50009492  0.00095445  0.49707846  1
  Fe  Fe18  1  0.62283140  0.12502502  0.62607116  1
  Fe  Fe19  1  0.62667437  0.37171207  0.12101001  1
  Fe  Fe20  1  0.37845809  0.62747375  0.87567190  1
  Fe  Fe21  1  0.74832479  0.74693402  0.50318384  1
  Fe  Fe22  1  0.25207908  0.74973680  0.74883457  1
  Fe  Fe23  1  0.87718951  0.12531149  0.12482392  1
  Fe  Fe24  1  0.74686080  0.74444232  0.00178990  1
  Fe  Fe25  1  0.62606267  0.87505908  0.37603857  1
  Fe  Fe26  1  -0.00068927  0.50195939  0.49912751  1
  Fe  Fe27  1  0.37893166  0.62655526  0.62388093  1
  Fe  Fe28  1  0.37777691  0.87441729  0.62195438  1
  Fe  Fe29  1  0.00091046  0.50015971  0.25258432  1
  Fe  Fe30  1  0.00037880  0.25388789  -0.00524732  1
  Fe  Fe31  1  0.00064061  -0.00237018  0.50055072  1
  Fe  Fe32  1  0.24994487  0.75051112  0.49818766  1
  Fe  Fe33  1  0.25018946  0.24885927  0.00009729  1
  Fe  Fe34  1  0.62404171  0.87420045  0.12479228  1
  Fe  Fe35  1  0.74980016  0.00122168  -0.00046457  1
  Fe  Fe36  1  0.62445118  0.37586752  0.62317571  1
  Fe  Fe37  1  0.25001635  0.50157482  0.50071854  1
  Fe  Fe38  1  0.12766232  0.87625148  0.37162283  1
  Fe  Fe39  1  0.74421767  0.74871347  0.74621608  1
  Fe  Fe40  1  0.12223270  0.12547290  0.62843887  1
  Fe  Fe41  1  0.25106280  0.75032148  0.00297866  1
  Fe  Fe42  1  0.87689560  0.62435035  0.12582963  1
  Fe  Fe43  1  0.49800548  0.25168447  0.75183891  1
  Fe  Fe44  1  0.37672874  0.62379336  0.12786859  1
  Fe  Fe45  1  0.12729303  0.37692486  0.12365752  1
  Fe  Fe46  1  0.37314287  0.37444565  0.12554212  1
  Fe  Fe47  1  0.74898458  0.49865111  0.24837097  1
  Fe  Fe48  1  0.62737860  0.12999487  0.37387852  1
  Fe  Fe49  1  0.00040759  0.49953363  -0.00518886  1
  Fe  Fe50  1  0.74787713  0.50287691  0.74945938  1
  Fe  Fe51  1  0.49986892  0.25071865  0.49915806  1
  Fe  Fe52  1  0.87340021  0.37574913  0.12094267  1
  Fe  Fe53  1  0.62198077  0.87132949  0.87737071  1
  Fe  Fe54  1  0.49896813  0.75247566  0.25285597  1
  Fe  Fe55  1  0.37219341  0.37387569  0.62582753  1
  Fe  Fe56  1  0.00140562  0.75023850  0.75120230  1
  Fe  Fe57  1  -0.00005147  0.25157569  0.50247781  1
  Fe  Fe58  1  0.87755172  0.12528145  0.87244410  1
  Fe  Fe59  1  0.37451288  0.12500613  0.37132402  1
  Fe  Fe60  1  0.12816457  0.62352707  0.87492022  1
  Fe  Fe61  1  0.00006676  0.25190125  0.25034153  1
  Fe  Fe62  1  0.87456509  0.12654664  0.37467517  1
  Fe  Fe63  1  0.62286060  0.12586402  0.87601924  1
  Fe  Fe64  1  0.87564054  0.87392664  0.62573973  1
  Fe  Fe65  1  0.12443451  0.12503087  0.87204187  1
  Fe  Fe66  1  0.37060893  0.37268767  0.37372534  1
  Fe  Fe67  1  0.24917077  0.24757999  0.50257059  1
  Fe  Fe68  1  0.12232135  0.12398006  0.12654957  1
  Fe  Fe69  1  0.12399155  0.12403649  0.37273755  1
  Fe  Fe70  1  0.87401246  0.87404155  0.37489795  1
  Fe  Fe71  1  0.49941308  0.49972351  0.75080241  1
  Fe  Fe72  1  0.74887967  -0.00263429  0.75066474  1
  Fe  Fe73  1  0.36979775  0.37658951  0.87482312  1
  Fe  Fe74  1  0.87222236  0.37348423  0.37538191  1
  Fe  Fe75  1  0.49906996  -0.00334939  0.75019522  1
  Fe  Fe76  1  0.37815215  0.12707290  0.12826767  1
  Fe  Fe77  1  0.87410810  0.87167305  0.87653406  1
  Fe  Fe78  1  0.50165222  0.50107510  0.00024977  1
  Fe  Fe79  1  0.00222906  0.74942516  0.25080324  1
  Fe  Fe80  1  0.49880845  0.49863012  0.49702055  1
  Fe  Fe81  1  0.87673470  0.37704761  0.62753276  1
  Fe  Fe82  1  0.62195585  0.12856706  0.12417240  1
  Fe  Fe83  1  0.37443750  0.87642502  0.12842197  1
  Fe  Fe84  1  -0.00013358  -0.00242584  -0.00173156  1
  Fe  Fe85  1  0.75035057  0.00111976  0.24819274  1
  Fe  Fe86  1  0.87330020  0.62435261  0.87342493  1
  Fe  Fe87  1  0.50106657  0.49470049  0.25230762  1
  Fe  Fe88  1  0.12573826  0.62345112  0.12576151  1
  Fe  Fe89  1  0.62586930  0.62294994  0.37456396  1
  Co  Co90  1  0.62111949  0.62677911  0.87443625  1
  Co  Co91  1  0.50257855  -0.00037394  0.25154666  1
  Co  Co92  1  0.63065885  0.37403538  0.37898811  1
  Co  Co93  1  0.12735118  0.37733973  0.62487652  1
  Co  Co94  1  0.00193874  0.49773700  0.75398529  1
  Co  Co95  1  0.50153087  0.75153152  0.74721181  1
  Co  Co96  1  0.49620258  0.25146180  -0.00346245  1
  Co  Co97  1  0.75258855  0.24560041  -0.00120124  1
  Co  Co98  1  0.87826349  0.62559677  0.62759705  1
  Co  Co99  1  0.12673032  0.62413552  0.37522450  1
  Co  Co100  1  0.87326760  0.62553918  0.37322124  1
  Co  Co101  1  -0.00252146  -0.00145789  0.25051175  1
  Co  Co102  1  0.13313098  0.37705754  0.87354080  1
  Co  Co103  1  0.37444663  0.87419432  0.87533968  1
  Co  Co104  1  0.25050954  0.24816389  0.74861466  1
  Co  Co105  1  0.37765631  0.12443216  0.62566852  1
  Co  Co106  1  0.12245907  0.87549653  0.12506856  1
  Co  Co107  1  0.50144216  0.74906238  0.49674015  1
  Co  Co108  1  0.62072402  0.62531469  0.12945525  1
  Co  Co109  1  0.75070214  0.25027709  0.24702357  1
  Co  Co110  1  0.00190671  0.74682566  -0.00148948  1
  Co  Co111  1  0.62021102  0.62145768  0.62289940  1
  Co  Co112  1  0.50155680  0.25451583  0.25257098  1
  Co  Co113  1  0.24957325  0.50000460  0.25068775  1
  Co  Co114  1  0.25217174  0.50301842  0.00113761  1
  Co  Co115  1  0.00096460  0.25681547  0.75277372  1
  Co  Co116  1  0.24924935  0.74999172  0.24810370  1
  Co  Co117  1  0.24789628  0.24983667  0.24878795  1
  Co  Co118  1  0.74743123  0.50651909  0.00175337  1
  Co  Co119  1  0.62227512  0.87755838  0.62199382  1
  Co  Co120  1  0.49807708  0.75026736  0.00340813  1
  Co  Co121  1  0.25217211  0.50465151  0.74726224  1
  Co  Co122  1  0.24968993  0.00087706  0.24770350  1
  Co  Co123  1  0.86890089  0.37791635  0.87648716  1
  Co  Co124  1  0.75229917  0.24874165  0.50551975  1
  Co  Co125  1  0.00049947  -0.00532292  0.75098750  1
  Co  Co126  1  0.37288955  0.87670871  0.37546858  1
  Co  Co127  1  0.12506743  0.87270528  0.62504883  1
