# generated using pymatgen
data_Fe45Co19
_symmetry_space_group_name_H-M   'P 1'
_cell_length_a   11.41488319
_cell_length_b   11.41438771
_cell_length_c   11.41626293
_cell_angle_alpha   89.98671667
_cell_angle_beta   90.00493960
_cell_angle_gamma   89.99979809
_symmetry_Int_Tables_number   1
_chemical_formula_structural   Fe45Co19
_chemical_formula_sum   'Fe90 Co38'
_cell_volume   1487.46940196
_cell_formula_units_Z   2
loop_
 _symmetry_equiv_pos_site_id
 _symmetry_equiv_pos_as_xyz
  1  'x, y, z'
loop_
 _atom_site_type_symbol
 _atom_site_label
 _atom_site_symmetry_multiplicity
 _atom_site_fract_x
 _atom_site_fract_y
 _atom_site_fract_z
 _atom_site_occupancy
  Fe  Fe0  1  0.87796979  0.12451627  0.12486392  1
  Fe  Fe1  1  -0.00110470  0.49789256  0.75345718  1
  Fe  Fe2  1  0.00076255  -0.00169245  0.00137271  1
  Fe  Fe3  1  0.25178792  0.24878225  0.74728541  1
  Fe  Fe4  1  0.87336902  0.87593225  0.87602715  1
  Fe  Fe5  1  0.24976030  0.50112622  -0.00091419  1
  Fe  Fe6  1  0.87746302  0.62702602  0.62230972  1
  Fe  Fe7  1  0.75133610  0.75046898  0.75088678  1
  Fe  Fe8  1  0.87434415  0.12429393  0.87684551  1
  Fe  Fe9  1  0.25014651  0.24886872  0.00147441  1
  Fe  Fe10  1  0.00169268  0.25050201  0.25171076  1
  Fe  Fe11  1  0.38034408  0.62389852  0.62474784  1
  Fe  Fe12  1  0.12323275  0.87460100  0.12739994  1
  Fe  Fe13  1  0.74744016  0.50246188  0.74660682  1
  Fe  Fe14  1  0.50022191  0.74857691  -0.00337616  1
  Fe  Fe15  1  -0.00095661  -0.00363867  0.49954851  1
  Fe  Fe16  1  0.37300511  0.12579261  0.37578116  1
  Fe  Fe17  1  0.00007872  0.25518107  -0.00345516  1
  Fe  Fe18  1  0.49992856  -0.00000233  -0.00201549  1
  Fe  Fe19  1  -0.00047754  0.25128025  0.50038266  1
  Fe  Fe20  1  0.37777015  0.62528663  0.37621187  1
  Fe  Fe21  1  0.25225281  0.74835753  0.24902302  1
  Fe  Fe22  1  0.12587956  0.37588795  0.62470280  1
  Fe  Fe23  1  0.49887618  -0.00163660  0.25095430  1
  Fe  Fe24  1  0.75113509  0.74547393  0.24632952  1
  Fe  Fe25  1  0.62557632  0.87564421  0.62812917  1
  Fe  Fe26  1  0.75041969  0.74949113  0.00201294  1
  Fe  Fe27  1  -0.00263440  0.74636792  0.25199371  1
  Fe  Fe28  1  0.62788458  0.37616229  0.87322483  1
  Fe  Fe29  1  0.74978330  0.00114415  0.24795183  1
  Fe  Fe30  1  0.50217714  0.74864623  0.75446151  1
  Fe  Fe31  1  0.74245191  0.50095441  0.50186718  1
  Fe  Fe32  1  -0.00244606  0.25284618  0.75093897  1
  Fe  Fe33  1  0.74649844  0.50359568  0.24863060  1
  Fe  Fe34  1  0.62344064  0.87427318  0.12440953  1
  Fe  Fe35  1  0.37539829  0.87436149  0.12553433  1
  Fe  Fe36  1  0.62747143  0.12188796  0.87694096  1
  Fe  Fe37  1  0.25004773  0.75058863  0.74788300  1
  Fe  Fe38  1  0.74807606  0.25084817  0.50059175  1
  Fe  Fe39  1  0.37624325  0.12548665  0.12478521  1
  Fe  Fe40  1  0.37359135  0.37472563  0.87386122  1
  Fe  Fe41  1  0.25190796  0.50145603  0.74818312  1
  Fe  Fe42  1  0.37672602  0.37648469  0.12443027  1
  Fe  Fe43  1  -0.00253632  -0.00287162  0.74798214  1
  Fe  Fe44  1  0.74847820  0.24960402  0.00364513  1
  Fe  Fe45  1  0.24932388  0.00209314  0.24786634  1
  Fe  Fe46  1  0.37446174  0.37408839  0.37989713  1
  Fe  Fe47  1  0.87343378  0.12216795  0.62257225  1
  Fe  Fe48  1  0.12910309  0.37358923  0.37741256  1
  Fe  Fe49  1  0.12524704  0.12595108  0.87372784  1
  Fe  Fe50  1  0.87154071  0.37751527  0.37483209  1
  Fe  Fe51  1  0.50328345  0.50027253  0.25354830  1
  Fe  Fe52  1  0.12367551  0.12367135  0.62555175  1
  Fe  Fe53  1  0.12522202  0.62563230  0.37695452  1
  Fe  Fe54  1  0.12448419  0.37605093  0.12579785  1
  Fe  Fe55  1  0.50065248  0.50248786  -0.00527797  1
  Fe  Fe56  1  0.50063513  0.24845154  0.75029420  1
  Fe  Fe57  1  0.37625889  0.12144208  0.62637660  1
  Fe  Fe58  1  0.74884328  0.50160003  0.00290295  1
  Fe  Fe59  1  0.74977101  0.74988029  0.50049730  1
  Fe  Fe60  1  0.12695740  0.12574952  0.37583918  1
  Fe  Fe61  1  0.25030153  0.49988946  0.25144301  1
  Fe  Fe62  1  0.50046336  -0.00219374  0.49913377  1
  Fe  Fe63  1  0.87401272  0.12460031  0.37541429  1
  Fe  Fe64  1  0.49923142  0.75318710  0.49807353  1
  Fe  Fe65  1  0.12397647  0.62612837  0.87532747  1
  Fe  Fe66  1  0.12694047  0.87436543  0.37449355  1
  Fe  Fe67  1  0.00037413  0.49936282  0.49805993  1
  Fe  Fe68  1  0.50202941  0.24998388  -0.00026517  1
  Fe  Fe69  1  0.37776099  0.62474136  0.12487793  1
  Fe  Fe70  1  0.25082432  -0.00352086  0.50389826  1
  Fe  Fe71  1  0.87667608  0.37831347  0.12607075  1
  Fe  Fe72  1  0.37475033  0.87659227  0.87185360  1
  Fe  Fe73  1  0.37930652  0.37753683  0.62211875  1
  Fe  Fe74  1  0.24968793  0.75028464  0.00050286  1
  Fe  Fe75  1  0.50033482  0.25152508  0.24997771  1
  Fe  Fe76  1  0.62677505  0.12246396  0.62357303  1
  Fe  Fe77  1  0.62556860  0.12596296  0.37427489  1
  Fe  Fe78  1  0.74756515  0.25012018  0.24652854  1
  Fe  Fe79  1  0.12140368  0.62731342  0.62431104  1
  Fe  Fe80  1  0.87645458  0.62435199  0.87788228  1
  Fe  Fe81  1  0.62555254  0.87281200  0.37221489  1
  Fe  Fe82  1  0.87356249  0.87515470  0.37423494  1
  Fe  Fe83  1  0.75019608  0.24772267  0.74879683  1
  Fe  Fe84  1  0.12451114  0.87444950  0.87216152  1
  Fe  Fe85  1  0.87329876  0.37569433  0.62476293  1
  Fe  Fe86  1  0.12035259  0.62346944  0.12351279  1
  Fe  Fe87  1  0.24956686  0.00103770  -0.00086096  1
  Fe  Fe88  1  0.87703142  0.87547433  0.12648107  1
  Fe  Fe89  1  0.25255525  0.75104093  0.50205697  1
  Co  Co90  1  0.00144692  0.50022378  0.25454871  1
  Co  Co91  1  0.87326279  0.87396667  0.62341030  1
  Co  Co92  1  0.12338486  0.87189498  0.62517173  1
  Co  Co93  1  -0.00340950  0.75090119  0.75147962  1
  Co  Co94  1  0.12263111  0.12650252  0.12318472  1
  Co  Co95  1  0.62247471  0.12247867  0.12590139  1
  Co  Co96  1  0.86753820  0.37564330  0.87391534  1
  Co  Co97  1  0.24914871  -0.00057383  0.74956697  1
  Co  Co98  1  0.87155456  0.62211293  0.37818668  1
  Co  Co99  1  0.00020074  0.00103057  0.25168864  1
  Co  Co100  1  0.74814306  -0.00229768  0.49804325  1
  Co  Co101  1  0.62481397  0.62966402  0.37444333  1
  Co  Co102  1  0.13100295  0.37363537  0.87212324  1
  Co  Co103  1  0.75153060  -0.00056892  0.75011910  1
  Co  Co104  1  0.25032402  0.50299934  0.50139235  1
  Co  Co105  1  0.49786562  0.75098572  0.25006575  1
  Co  Co106  1  0.62661123  0.87645356  0.87581855  1
  Co  Co107  1  0.50643849  0.50006838  0.49825972  1
  Co  Co108  1  0.00149918  0.49486123  -0.00574368  1
  Co  Co109  1  -0.00017095  0.75251215  -0.00019067  1
  Co  Co110  1  0.50084083  0.50085308  0.75294069  1
  Co  Co111  1  0.62275430  0.37795223  0.12410361  1
  Co  Co112  1  0.25095033  0.25081421  0.24841664  1
  Co  Co113  1  0.62144101  0.62947486  0.62556437  1
  Co  Co114  1  0.88049059  0.62132512  0.12226960  1
  Co  Co115  1  0.37140190  0.62634539  0.87380762  1
  Co  Co116  1  0.50314532  0.00204916  0.75158630  1
  Co  Co117  1  0.62638140  0.37203600  0.37496749  1
  Co  Co118  1  0.62270039  0.37312809  0.62719838  1
  Co  Co119  1  0.75076601  -0.00054191  0.00311808  1
  Co  Co120  1  0.50082329  0.24743031  0.50074483  1
  Co  Co121  1  0.62918402  0.62428623  0.87542908  1
  Co  Co122  1  0.37421523  0.12539539  0.87499322  1
  Co  Co123  1  0.62021675  0.62649003  0.12453824  1
  Co  Co124  1  0.25117124  0.24841089  0.50419624  1
  Co  Co125  1  0.37199254  0.87568062  0.37337199  1
  Co  Co126  1  0.37817318  0.87484396  0.62967762  1
  Co  Co127  1  -0.00171172  0.75208994  0.49636861  1
