# generated using pymatgen
data_Fe45Co19
_symmetry_space_group_name_H-M   'P 1'
_cell_length_a   11.41542324
_cell_length_b   11.41527538
_cell_length_c   11.41504627
_cell_angle_alpha   89.99569170
_cell_angle_beta   89.99604013
_cell_angle_gamma   90.00383810
_symmetry_Int_Tables_number   1
_chemical_formula_structural   Fe45Co19
_chemical_formula_sum   'Fe90 Co38'
_cell_volume   1487.49694939
_cell_formula_units_Z   2
loop_
 _symmetry_equiv_pos_site_id
 _symmetry_equiv_pos_as_xyz
  1  'x, y, z'
loop_
 _atom_site_type_symbol
 _atom_site_label
 _atom_site_symmetry_multiplicity
 _atom_site_fract_x
 _atom_site_fract_y
 _atom_site_fract_z
 _atom_site_occupancy
  Fe  Fe0  1  0.24925941  0.24893602  0.00306904  1
  Fe  Fe1  1  0.25107747  0.24894380  0.49796716  1
  Fe  Fe2  1  0.25099704  0.74817094  -0.00235658  1
  Fe  Fe3  1  0.87314617  0.12192284  0.87626627  1
  Fe  Fe4  1  0.49879158  0.00265944  0.75005533  1
  Fe  Fe5  1  0.87524607  0.37141805  0.37814914  1
  Fe  Fe6  1  0.00050211  0.50149782  0.00196822  1
  Fe  Fe7  1  0.62428169  0.62367724  0.37314289  1
  Fe  Fe8  1  0.74914046  0.25111779  0.74983278  1
  Fe  Fe9  1  0.75222480  0.75312725  0.25026467  1
  Fe  Fe10  1  0.12589498  0.37443850  0.62680252  1
  Fe  Fe11  1  0.24962934  0.74986278  0.24852916  1
  Fe  Fe12  1  0.75168187  0.75006553  0.75327396  1
  Fe  Fe13  1  0.12509126  0.87321576  0.37595040  1
  Fe  Fe14  1  0.49974179  -0.00118345  0.25051501  1
  Fe  Fe15  1  0.87552683  0.12809094  0.62417191  1
  Fe  Fe16  1  0.37355386  0.12381699  0.12677490  1
  Fe  Fe17  1  0.50159911  0.00287351  -0.00166750  1
  Fe  Fe18  1  0.37589433  0.37533343  0.62460816  1
  Fe  Fe19  1  0.74901256  0.24826995  0.00027084  1
  Fe  Fe20  1  0.37312872  0.87338845  0.62492952  1
  Fe  Fe21  1  0.62496810  0.87417413  0.62598726  1
  Fe  Fe22  1  0.37636116  0.87532427  0.87595470  1
  Fe  Fe23  1  0.62453988  0.87542329  0.12373971  1
  Fe  Fe24  1  0.37678048  0.62511901  0.12245496  1
  Fe  Fe25  1  0.00011461  0.00256117  0.50008816  1
  Fe  Fe26  1  0.74826779  -0.00006113  0.75171983  1
  Fe  Fe27  1  -0.00086088  0.49859272  0.24721167  1
  Fe  Fe28  1  0.37945375  0.37457927  0.87815175  1
  Fe  Fe29  1  0.37293212  0.12675530  0.87191616  1
  Fe  Fe30  1  0.62354574  0.12581124  0.62579228  1
  Fe  Fe31  1  0.12555713  0.12626204  0.37121850  1
  Fe  Fe32  1  0.49500206  0.25226273  0.25183463  1
  Fe  Fe33  1  0.49877806  0.74792451  0.75034756  1
  Fe  Fe34  1  0.62481463  0.12478310  0.12599425  1
  Fe  Fe35  1  0.75345136  -0.00230514  0.25088462  1
  Fe  Fe36  1  0.74802727  0.49972518  0.49925134  1
  Fe  Fe37  1  0.24912786  -0.00110910  0.24845364  1
  Fe  Fe38  1  0.00076086  0.25018649  0.75210097  1
  Fe  Fe39  1  0.74668383  0.49979634  0.00145419  1
  Fe  Fe40  1  0.12830494  0.12372898  0.87461251  1
  Fe  Fe41  1  0.50010627  0.74808395  0.49945491  1
  Fe  Fe42  1  0.62248299  0.37590875  0.62339524  1
  Fe  Fe43  1  0.87481839  0.37644065  0.87714762  1
  Fe  Fe44  1  -0.00138031  0.74861976  -0.00397484  1
  Fe  Fe45  1  -0.00296041  -0.00337053  0.24958039  1
  Fe  Fe46  1  0.00083563  0.24834342  0.00068805  1
  Fe  Fe47  1  0.62092023  0.37193269  0.87667415  1
  Fe  Fe48  1  0.62117503  0.62563368  0.87658953  1
  Fe  Fe49  1  0.87526861  0.87481578  0.62561435  1
  Fe  Fe50  1  0.74896832  0.74875385  0.49963662  1
  Fe  Fe51  1  0.12612670  0.87469968  0.87360104  1
  Fe  Fe52  1  0.62495646  0.12599216  0.37372290  1
  Fe  Fe53  1  0.00166381  0.49952301  0.50092472  1
  Fe  Fe54  1  0.00029322  0.25141178  0.24652059  1
  Fe  Fe55  1  0.37460605  0.87480343  0.37535234  1
  Fe  Fe56  1  0.87567223  0.37325049  0.62377724  1
  Fe  Fe57  1  0.24910270  0.50241223  0.50028061  1
  Fe  Fe58  1  0.62306717  0.37238609  0.12498593  1
  Fe  Fe59  1  0.49788772  0.24976942  0.49755014  1
  Fe  Fe60  1  0.87531450  0.12128075  0.12234315  1
  Fe  Fe61  1  0.25085365  0.00040949  0.50078442  1
  Fe  Fe62  1  0.49790162  0.00125476  0.50043507  1
  Fe  Fe63  1  0.12624674  0.62748264  0.63018873  1
  Fe  Fe64  1  0.12397624  0.87427579  0.12204797  1
  Fe  Fe65  1  0.12693306  0.87151372  0.62759021  1
  Fe  Fe66  1  0.74693487  0.49940680  0.75109107  1
  Fe  Fe67  1  -0.00082243  0.50071701  0.75063299  1
  Fe  Fe68  1  0.50026542  0.75038431  0.24852857  1
  Fe  Fe69  1  0.24995250  0.50196722  0.00005062  1
  Fe  Fe70  1  0.25039160  0.49899581  0.24582551  1
  Fe  Fe71  1  0.75164627  0.25076654  0.24991198  1
  Fe  Fe72  1  0.37506184  0.62389249  0.37425748  1
  Fe  Fe73  1  0.62500035  0.87577925  0.37637851  1
  Fe  Fe74  1  0.74904572  0.75315738  -0.00262834  1
  Fe  Fe75  1  0.00135420  0.00016321  0.75023328  1
  Fe  Fe76  1  0.87697614  0.62601591  0.37401631  1
  Fe  Fe77  1  0.75142598  0.00248391  0.49821212  1
  Fe  Fe78  1  0.25289604  0.50054187  0.75400982  1
  Fe  Fe79  1  0.12417846  0.37649055  0.87704643  1
  Fe  Fe80  1  0.37550332  0.87581706  0.12336989  1
  Fe  Fe81  1  0.12907534  0.12687188  0.62817765  1
  Fe  Fe82  1  0.87448421  0.62696937  0.12457869  1
  Fe  Fe83  1  0.87374036  0.62429186  0.62682295  1
  Fe  Fe84  1  0.12459910  0.62579837  0.37200570  1
  Fe  Fe85  1  0.75051723  0.49790588  0.24897817  1
  Fe  Fe86  1  0.37524867  0.62450248  0.62586271  1
  Fe  Fe87  1  0.49998748  0.49854002  0.24739815  1
  Fe  Fe88  1  0.12739563  0.37439690  0.37292503  1
  Fe  Fe89  1  0.00115541  0.74856078  0.50064298  1
  Co  Co90  1  0.12359501  0.62599302  0.12453189  1
  Co  Co91  1  0.87614229  0.12841222  0.37471727  1
  Co  Co92  1  0.37973693  0.62331755  0.87819183  1
  Co  Co93  1  0.49933939  0.24523653  0.00122695  1
  Co  Co94  1  0.12482342  0.12371381  0.12707822  1
  Co  Co95  1  0.87354811  0.62098716  0.87609242  1
  Co  Co96  1  0.00433049  0.24960146  0.50122567  1
  Co  Co97  1  0.00341343  0.00074072  -0.00129433  1
  Co  Co98  1  -0.00042627  0.75316261  0.24949183  1
  Co  Co99  1  0.74684280  0.24995909  0.50066572  1
  Co  Co100  1  0.24993065  0.25465037  0.75224884  1
  Co  Co101  1  0.25340154  0.74813478  0.75421934  1
  Co  Co102  1  0.25090867  -0.00249564  0.74967149  1
  Co  Co103  1  0.74482899  -0.00133828  -0.00076515  1
  Co  Co104  1  0.50022372  0.25011302  0.74895708  1
  Co  Co105  1  0.37487886  0.37485867  0.12128432  1
  Co  Co106  1  0.12428774  0.62396823  0.87307055  1
  Co  Co107  1  0.37367632  0.12237766  0.37317231  1
  Co  Co108  1  0.62534380  0.62595275  0.62666773  1
  Co  Co109  1  0.62606244  0.12669515  0.87328316  1
  Co  Co110  1  0.50338227  0.49995936  0.00393688  1
  Co  Co111  1  0.87585891  0.87407843  0.37942105  1
  Co  Co112  1  0.50049674  0.50017496  0.75044050  1
  Co  Co113  1  0.50064707  0.75142373  0.00197610  1
  Co  Co114  1  0.87585523  0.87517343  0.11964705  1
  Co  Co115  1  0.25122967  0.00050857  -0.00004533  1
  Co  Co116  1  0.62437075  0.37532260  0.37407478  1
  Co  Co117  1  0.25252159  0.25111542  0.24790512  1
  Co  Co118  1  0.50125311  0.50197693  0.50001730  1
  Co  Co119  1  0.25001093  0.74836529  0.49866315  1
  Co  Co120  1  0.87457865  0.37502614  0.12147474  1
  Co  Co121  1  0.87554085  0.88035668  0.87545562  1
  Co  Co122  1  0.37240614  0.37900218  0.37631905  1
  Co  Co123  1  0.37268949  0.12687432  0.62695230  1
  Co  Co124  1  0.62173230  0.87496691  0.87292775  1
  Co  Co125  1  0.62703752  0.62731838  0.12585480  1
  Co  Co126  1  0.12610559  0.37526556  0.12363094  1
  Co  Co127  1  -0.00348766  0.74982787  0.75268521  1
