# generated using pymatgen
data_Fe45Co19
_symmetry_space_group_name_H-M   'P 1'
_cell_length_a   11.41420217
_cell_length_b   11.41554035
_cell_length_c   11.41572552
_cell_angle_alpha   89.99345508
_cell_angle_beta   90.00031022
_cell_angle_gamma   89.99852524
_symmetry_Int_Tables_number   1
_chemical_formula_structural   Fe45Co19
_chemical_formula_sum   'Fe90 Co38'
_cell_volume   1487.46086708
_cell_formula_units_Z   2
loop_
 _symmetry_equiv_pos_site_id
 _symmetry_equiv_pos_as_xyz
  1  'x, y, z'
loop_
 _atom_site_type_symbol
 _atom_site_label
 _atom_site_symmetry_multiplicity
 _atom_site_fract_x
 _atom_site_fract_y
 _atom_site_fract_z
 _atom_site_occupancy
  Fe  Fe0  1  0.87467104  0.62870960  0.62421883  1
  Fe  Fe1  1  0.12586970  0.12508807  0.62610815  1
  Fe  Fe2  1  0.37430213  0.87161696  0.12510769  1
  Fe  Fe3  1  0.87336093  0.12197567  0.87185287  1
  Fe  Fe4  1  0.49646522  0.00105525  0.00235881  1
  Fe  Fe5  1  0.37503383  0.36989200  0.12205277  1
  Fe  Fe6  1  0.87714479  0.62684582  0.12864709  1
  Fe  Fe7  1  0.62465719  0.88055476  0.87540545  1
  Fe  Fe8  1  0.12807401  0.62045871  0.87571823  1
  Fe  Fe9  1  0.87541409  0.12781566  0.12825226  1
  Fe  Fe10  1  0.49912471  0.24821931  0.49763406  1
  Fe  Fe11  1  0.87755245  0.37203732  0.12320723  1
  Fe  Fe12  1  0.24938953  0.75261477  0.74981221  1
  Fe  Fe13  1  0.87309110  0.37157131  0.62406223  1
  Fe  Fe14  1  0.87344122  0.62632864  0.87327407  1
  Fe  Fe15  1  0.50110513  0.49522915  0.74844835  1
  Fe  Fe16  1  0.50317215  0.24686545  -0.00533067  1
  Fe  Fe17  1  0.74496385  0.25148730  0.75398308  1
  Fe  Fe18  1  0.12839375  0.12398867  0.37475548  1
  Fe  Fe19  1  0.50206802  0.74591070  0.49780042  1
  Fe  Fe20  1  0.75201933  0.00029192  0.50252979  1
  Fe  Fe21  1  0.62237987  0.87618433  0.12580888  1
  Fe  Fe22  1  0.00170416  0.24955964  0.50001648  1
  Fe  Fe23  1  0.49392025  0.50338065  0.00070055  1
  Fe  Fe24  1  0.62488751  0.12724983  0.62727666  1
  Fe  Fe25  1  0.87473438  0.62386879  0.37344368  1
  Fe  Fe26  1  0.12772435  0.87648688  0.12431533  1
  Fe  Fe27  1  0.12720735  0.37639755  0.37649780  1
  Fe  Fe28  1  0.75051712  0.00017288  0.00178377  1
  Fe  Fe29  1  0.62408270  0.12552833  0.12746498  1
  Fe  Fe30  1  0.25373464  0.49882878  0.50200996  1
  Fe  Fe31  1  0.24688547  0.25148645  0.75190294  1
  Fe  Fe32  1  0.00143984  0.74887203  -0.00158855  1
  Fe  Fe33  1  -0.00115073  0.50046824  0.74975521  1
  Fe  Fe34  1  -0.00095568  0.49973030  0.50084894  1
  Fe  Fe35  1  0.37758180  0.36929001  0.62471077  1
  Fe  Fe36  1  0.74636726  0.50167486  0.50286271  1
  Fe  Fe37  1  0.49598170  0.00119105  0.74560025  1
  Fe  Fe38  1  0.25641549  0.00255041  0.50606315  1
  Fe  Fe39  1  0.25232669  0.49682638  0.75109932  1
  Fe  Fe40  1  0.37764546  0.61941229  0.37336485  1
  Fe  Fe41  1  0.37380015  0.12929853  0.12600156  1
  Fe  Fe42  1  0.74978785  -0.00184645  0.25011781  1
  Fe  Fe43  1  0.37280957  0.87748096  0.87523586  1
  Fe  Fe44  1  0.24805600  0.75032009  0.25621071  1
  Fe  Fe45  1  0.74557220  0.74944556  0.49628046  1
  Fe  Fe46  1  0.62286685  0.62488043  0.12609518  1
  Fe  Fe47  1  0.00472822  0.75180244  0.25525589  1
  Fe  Fe48  1  0.74659566  0.75236115  0.25288955  1
  Fe  Fe49  1  0.87642262  0.37474619  0.87678846  1
  Fe  Fe50  1  0.12162155  0.37650142  0.11886103  1
  Fe  Fe51  1  0.00288030  0.25172082  0.25081583  1
  Fe  Fe52  1  0.00182174  0.25059605  0.75248236  1
  Fe  Fe53  1  0.12462529  0.37567238  0.62525537  1
  Fe  Fe54  1  0.50065844  0.75192901  0.75248024  1
  Fe  Fe55  1  0.74812090  0.49800756  0.74725957  1
  Fe  Fe56  1  0.62261836  0.87562174  0.62240945  1
  Fe  Fe57  1  0.12688841  0.62507161  0.62325953  1
  Fe  Fe58  1  -0.00369589  -0.00279204  0.74591204  1
  Fe  Fe59  1  0.12779013  0.88058646  0.87588484  1
  Fe  Fe60  1  0.87683717  0.87361834  0.12541297  1
  Fe  Fe61  1  0.00147694  0.75193414  0.75164823  1
  Fe  Fe62  1  0.49855144  0.74852860  -0.00202718  1
  Fe  Fe63  1  0.37234056  0.12475871  0.87200248  1
  Fe  Fe64  1  0.87517109  0.12579456  0.37329949  1
  Fe  Fe65  1  0.75269759  0.50174772  0.00175049  1
  Fe  Fe66  1  0.25310312  0.00022699  0.24799600  1
  Fe  Fe67  1  0.12618352  0.62231181  0.12594798  1
  Fe  Fe68  1  0.25147557  0.74722409  -0.00199341  1
  Fe  Fe69  1  0.37757053  0.87713830  0.37833813  1
  Fe  Fe70  1  0.62018630  0.37887668  0.37514834  1
  Fe  Fe71  1  0.74944344  0.49754616  0.24838449  1
  Fe  Fe72  1  0.62230216  0.12166349  0.37223998  1
  Fe  Fe73  1  0.00145699  0.00348082  0.00087596  1
  Fe  Fe74  1  0.00390808  0.74930173  0.49433104  1
  Fe  Fe75  1  0.37585911  0.62741951  0.62735376  1
  Fe  Fe76  1  0.74894358  0.24760417  -0.00207755  1
  Fe  Fe77  1  0.74922786  0.75123718  -0.00077782  1
  Fe  Fe78  1  0.75014657  0.75508039  0.75157848  1
  Fe  Fe79  1  0.25272748  0.49587469  0.24742601  1
  Fe  Fe80  1  0.50197493  0.75086457  0.25270457  1
  Fe  Fe81  1  0.24299381  0.24616668  -0.00300933  1
  Fe  Fe82  1  0.74823310  0.24890504  0.49659683  1
  Fe  Fe83  1  0.62413113  0.62219071  0.87407004  1
  Fe  Fe84  1  0.87436451  0.37486691  0.37566744  1
  Fe  Fe85  1  0.00114681  -0.00215189  0.25174192  1
  Fe  Fe86  1  0.62347925  0.37358267  0.12245307  1
  Fe  Fe87  1  -0.00333682  0.00132083  0.50158001  1
  Fe  Fe88  1  0.12688348  0.87361354  0.62047514  1
  Fe  Fe89  1  0.37306024  0.12921126  0.37323814  1
  Co  Co90  1  0.37425591  0.37204336  0.87697489  1
  Co  Co91  1  0.74719360  0.25247770  0.25126933  1
  Co  Co92  1  0.49571447  0.00131390  0.24704632  1
  Co  Co93  1  0.37773544  0.86850121  0.62182722  1
  Co  Co94  1  0.87385061  0.87490904  0.37584801  1
  Co  Co95  1  0.50103094  0.25074556  0.25150339  1
  Co  Co96  1  -0.00007447  0.49747477  0.25045933  1
  Co  Co97  1  0.37557245  0.62453583  0.87001374  1
  Co  Co98  1  0.25173822  0.74694451  0.49651950  1
  Co  Co99  1  0.12481926  0.12392668  0.12946800  1
  Co  Co100  1  0.62250381  0.61905491  0.37159568  1
  Co  Co101  1  0.49611450  0.00536828  0.50401022  1
  Co  Co102  1  0.50418587  0.25162184  0.75552736  1
  Co  Co103  1  0.37366659  0.63021609  0.12968999  1
  Co  Co104  1  0.75243475  -0.00333274  0.74434342  1
  Co  Co105  1  0.62184184  0.88125147  0.37670255  1
  Co  Co106  1  0.12703588  0.11842369  0.86911995  1
  Co  Co107  1  0.37586913  0.13417017  0.62889280  1
  Co  Co108  1  0.62466337  0.36930902  0.62250664  1
  Co  Co109  1  0.24843717  0.25092401  0.50102235  1
  Co  Co110  1  0.49709858  0.49644099  0.24412567  1
  Co  Co111  1  0.87577440  0.87759887  0.87787924  1
  Co  Co112  1  0.12411007  0.37943032  0.87872175  1
  Co  Co113  1  0.25181431  0.00310810  0.00333839  1
  Co  Co114  1  0.25438016  -0.00282895  0.74237556  1
  Co  Co115  1  0.37712837  0.37522086  0.37702100  1
  Co  Co116  1  0.87323427  0.13105606  0.62641622  1
  Co  Co117  1  0.50078675  0.50112129  0.50667124  1
  Co  Co118  1  0.62483449  0.62828974  0.62968314  1
  Co  Co119  1  0.87577050  0.86891554  0.62036377  1
  Co  Co120  1  0.25561026  0.50228842  0.00144249  1
  Co  Co121  1  0.12718652  0.61795246  0.37509315  1
  Co  Co122  1  0.24744382  0.25406641  0.24903174  1
  Co  Co123  1  -0.00376183  0.50435593  -0.00140669  1
  Co  Co124  1  0.62403878  0.38021018  0.88002435  1
  Co  Co125  1  0.12931231  0.88204472  0.37932361  1
  Co  Co126  1  0.00190120  0.24387020  -0.00329740  1
  Co  Co127  1  0.62549602  0.11792051  0.87314460  1
