# generated using pymatgen
data_Fe45Co19
_symmetry_space_group_name_H-M   'P 1'
_cell_length_a   11.41464421
_cell_length_b   11.41530114
_cell_length_c   11.41505132
_cell_angle_alpha   89.99643886
_cell_angle_beta   90.00219810
_cell_angle_gamma   89.99865625
_symmetry_Int_Tables_number   1
_chemical_formula_structural   Fe45Co19
_chemical_formula_sum   'Fe90 Co38'
_cell_volume   1487.39945810
_cell_formula_units_Z   2
loop_
 _symmetry_equiv_pos_site_id
 _symmetry_equiv_pos_as_xyz
  1  'x, y, z'
loop_
 _atom_site_type_symbol
 _atom_site_label
 _atom_site_symmetry_multiplicity
 _atom_site_fract_x
 _atom_site_fract_y
 _atom_site_fract_z
 _atom_site_occupancy
  Fe  Fe0  1  0.87425405  0.87379900  0.87372346  1
  Fe  Fe1  1  0.37182548  0.12667301  0.12414694  1
  Fe  Fe2  1  0.50104796  0.74844199  0.50005859  1
  Fe  Fe3  1  0.62463903  0.37393439  0.87368629  1
  Fe  Fe4  1  0.24935260  0.74731184  0.75036787  1
  Fe  Fe5  1  0.37261184  0.12836248  0.37728205  1
  Fe  Fe6  1  0.74931711  -0.00397638  0.74901562  1
  Fe  Fe7  1  0.24972187  0.75007960  0.25182652  1
  Fe  Fe8  1  0.24855533  0.49494501  0.25235202  1
  Fe  Fe9  1  0.87186807  0.37778788  0.62276858  1
  Fe  Fe10  1  0.62579740  0.87570585  0.12396657  1
  Fe  Fe11  1  0.87794777  0.87722047  0.37691105  1
  Fe  Fe12  1  0.37628131  0.62400551  0.87430807  1
  Fe  Fe13  1  0.12514361  0.62260340  0.12576167  1
  Fe  Fe14  1  0.50162936  0.49852301  0.00200485  1
  Fe  Fe15  1  -0.00177058  0.24757142  0.00576474  1
  Fe  Fe16  1  0.37465891  0.62248666  0.12667883  1
  Fe  Fe17  1  0.25032856  0.25272464  0.74787302  1
  Fe  Fe18  1  -0.00040427  0.74876903  0.24981618  1
  Fe  Fe19  1  0.37532262  0.62203187  0.62357082  1
  Fe  Fe20  1  0.62301245  0.87371851  0.37622978  1
  Fe  Fe21  1  0.24790176  0.49958987  0.75000565  1
  Fe  Fe22  1  0.37368496  0.12639026  0.87562903  1
  Fe  Fe23  1  0.00056476  0.00239890  -0.00244273  1
  Fe  Fe24  1  0.12533415  0.87740067  0.12518769  1
  Fe  Fe25  1  0.24823672  0.25147574  0.00115911  1
  Fe  Fe26  1  0.37160911  0.12581965  0.62246144  1
  Fe  Fe27  1  0.62577245  0.12545281  0.62375947  1
  Fe  Fe28  1  0.75793415  0.24649128  0.25021407  1
  Fe  Fe29  1  0.50088445  -0.00037451  0.74934623  1
  Fe  Fe30  1  0.12343075  0.13171631  0.37792741  1
  Fe  Fe31  1  0.87340779  0.62460218  0.37704134  1
  Fe  Fe32  1  0.49868062  0.00106039  0.25078647  1
  Fe  Fe33  1  0.50850971  0.49744055  0.49536045  1
  Fe  Fe34  1  0.24920214  0.49943565  -0.00132925  1
  Fe  Fe35  1  0.75002514  0.00221529  0.00053419  1
  Fe  Fe36  1  0.12449007  0.87425666  0.37678164  1
  Fe  Fe37  1  0.25090806  0.74975565  0.49838416  1
  Fe  Fe38  1  0.49998580  0.00387862  0.00141393  1
  Fe  Fe39  1  0.37663796  0.37496888  0.87587622  1
  Fe  Fe40  1  0.24770399  0.49567151  0.49775171  1
  Fe  Fe41  1  0.00102720  0.74835111  0.74631694  1
  Fe  Fe42  1  0.37813874  0.37670229  0.62350056  1
  Fe  Fe43  1  0.24908913  0.74951857  -0.00094787  1
  Fe  Fe44  1  0.49785157  0.00121112  0.49821477  1
  Fe  Fe45  1  0.75009821  0.49994328  -0.00205247  1
  Fe  Fe46  1  0.50192130  0.25196657  0.50079653  1
  Fe  Fe47  1  0.00154444  0.00425871  0.25096301  1
  Fe  Fe48  1  0.37389961  0.87544303  0.62299259  1
  Fe  Fe49  1  0.88062762  0.37348538  0.37646396  1
  Fe  Fe50  1  0.62705517  0.62516871  0.12679056  1
  Fe  Fe51  1  -0.00074858  0.50205683  0.74757580  1
  Fe  Fe52  1  0.37325508  0.87595094  0.12527339  1
  Fe  Fe53  1  0.12144608  0.37568165  0.87564116  1
  Fe  Fe54  1  -0.00152655  0.24817589  0.74721004  1
  Fe  Fe55  1  0.50345987  0.50063982  0.75022923  1
  Fe  Fe56  1  0.63145042  0.62321035  0.62403092  1
  Fe  Fe57  1  0.49957547  0.24940707  0.74938858  1
  Fe  Fe58  1  0.50531957  0.75043316  0.74988949  1
  Fe  Fe59  1  -0.00215937  0.50183815  0.00092178  1
  Fe  Fe60  1  0.87420645  0.12183888  0.62611999  1
  Fe  Fe61  1  0.62611373  0.12499970  0.87389728  1
  Fe  Fe62  1  0.37783634  0.62122178  0.37391941  1
  Fe  Fe63  1  -0.00049393  0.74795435  0.50221242  1
  Fe  Fe64  1  0.50246845  0.74924596  -0.00079173  1
  Fe  Fe65  1  0.74933045  0.49903367  0.25426453  1
  Fe  Fe66  1  0.75204697  0.75335125  0.25149376  1
  Fe  Fe67  1  0.12419940  0.87409207  0.87378118  1
  Fe  Fe68  1  0.49917474  0.74987232  0.24982236  1
  Fe  Fe69  1  0.37637550  0.87520956  0.87471639  1
  Fe  Fe70  1  0.75053274  0.25053929  0.74820880  1
  Fe  Fe71  1  0.75066479  0.24783513  0.00162787  1
  Fe  Fe72  1  0.12242432  0.62189544  0.37575376  1
  Fe  Fe73  1  0.49690886  0.25123860  0.24821557  1
  Fe  Fe74  1  0.25035381  -0.00001298  0.25372603  1
  Fe  Fe75  1  0.12442870  0.12656859  0.87369256  1
  Fe  Fe76  1  0.87567271  0.37286796  0.87580457  1
  Fe  Fe77  1  0.24733942  0.25597747  0.25176175  1
  Fe  Fe78  1  0.87156945  0.62771616  0.87231183  1
  Fe  Fe79  1  0.75002659  -0.00135687  0.49961727  1
  Fe  Fe80  1  0.86735921  0.62457072  0.62389762  1
  Fe  Fe81  1  0.87623935  0.87761599  0.12532601  1
  Fe  Fe82  1  0.87296004  0.62434534  0.12690624  1
  Fe  Fe83  1  0.62630358  0.37220595  0.12765688  1
  Fe  Fe84  1  0.62696744  0.12797620  0.37466409  1
  Fe  Fe85  1  0.24772564  0.00029879  0.74878651  1
  Fe  Fe86  1  0.00398333  0.00198923  0.50410082  1
  Fe  Fe87  1  0.12209187  0.37432004  0.62192827  1
  Fe  Fe88  1  0.75017048  0.00007690  0.25162302  1
  Fe  Fe89  1  -0.00073359  0.74876572  0.00193967  1
  Co  Co90  1  0.12682266  0.87327110  0.62495826  1
  Co  Co91  1  0.12808122  0.62456156  0.62321761  1
  Co  Co92  1  0.87386036  0.12650847  0.87358901  1
  Co  Co93  1  0.87488280  0.12034689  0.12490872  1
  Co  Co94  1  0.12312208  0.62405376  0.87500305  1
  Co  Co95  1  0.12807208  0.12725640  0.62465681  1
  Co  Co96  1  0.11533950  0.37248578  0.37729567  1
  Co  Co97  1  0.74547840  0.75535833  0.74898501  1
  Co  Co98  1  0.75054085  0.74943734  0.00064164  1
  Co  Co99  1  0.75177975  0.25110778  0.50088778  1
  Co  Co100  1  -0.00147172  0.50047221  0.24984149  1
  Co  Co101  1  0.50152006  0.24873745  -0.00048445  1
  Co  Co102  1  0.87658740  0.12319848  0.37784162  1
  Co  Co103  1  0.62624724  0.36668142  0.36975045  1
  Co  Co104  1  0.50283867  0.49822290  0.24981543  1
  Co  Co105  1  -0.00196634  0.50331635  0.50322315  1
  Co  Co106  1  0.87348426  0.37773380  0.12501212  1
  Co  Co107  1  0.62238106  0.87678466  0.62065371  1
  Co  Co108  1  0.37461766  0.37469213  0.12329679  1
  Co  Co109  1  0.25091980  0.25570859  0.49990924  1
  Co  Co110  1  0.62538215  0.87776886  0.87868781  1
  Co  Co111  1  0.12773334  0.12369665  0.12592897  1
  Co  Co112  1  0.75107671  0.49718714  0.75285442  1
  Co  Co113  1  0.37883099  0.37658074  0.37643869  1
  Co  Co114  1  0.62630268  0.62981297  0.37363966  1
  Co  Co115  1  -0.00258594  0.24771254  0.24478109  1
  Co  Co116  1  0.25025460  -0.00042097  -0.00215058  1
  Co  Co117  1  0.00132205  0.00149588  0.75041142  1
  Co  Co118  1  0.62588786  0.12684900  0.12858947  1
  Co  Co119  1  0.87804584  0.87563079  0.62528505  1
  Co  Co120  1  0.62618849  0.37449480  0.62731487  1
  Co  Co121  1  0.74594235  0.49490981  0.49384491  1
  Co  Co122  1  0.37637908  0.87358123  0.37610594  1
  Co  Co123  1  0.62717353  0.62417168  0.87408915  1
  Co  Co124  1  -0.00479156  0.24678156  0.50505346  1
  Co  Co125  1  0.75142556  0.75419156  0.49936085  1
  Co  Co126  1  0.12222726  0.37724837  0.12489650  1
  Co  Co127  1  0.24845034  0.00031062  0.49771975  1
