# generated using pymatgen
data_Fe45Co19
_symmetry_space_group_name_H-M   'P 1'
_cell_length_a   11.41526330
_cell_length_b   11.41461319
_cell_length_c   11.41514713
_cell_angle_alpha   90.00136468
_cell_angle_beta   89.99999939
_cell_angle_gamma   90.00760221
_symmetry_Int_Tables_number   1
_chemical_formula_structural   Fe45Co19
_chemical_formula_sum   'Fe90 Co38'
_cell_volume   1487.40296252
_cell_formula_units_Z   2
loop_
 _symmetry_equiv_pos_site_id
 _symmetry_equiv_pos_as_xyz
  1  'x, y, z'
loop_
 _atom_site_type_symbol
 _atom_site_label
 _atom_site_symmetry_multiplicity
 _atom_site_fract_x
 _atom_site_fract_y
 _atom_site_fract_z
 _atom_site_occupancy
  Fe  Fe0  1  0.62564096  0.62165819  0.37640919  1
  Fe  Fe1  1  0.62583454  0.12639217  0.37611374  1
  Fe  Fe2  1  0.25036001  0.24806481  0.50057433  1
  Fe  Fe3  1  0.74913926  0.00061599  0.24791660  1
  Fe  Fe4  1  0.12736683  0.87456686  0.62137465  1
  Fe  Fe5  1  0.75010468  0.74995314  0.24854857  1
  Fe  Fe6  1  0.12271279  0.37539073  0.12233105  1
  Fe  Fe7  1  0.49748109  0.74972711  0.49926116  1
  Fe  Fe8  1  0.49911721  0.75045822  0.24903620  1
  Fe  Fe9  1  0.62631617  0.87386460  0.62378469  1
  Fe  Fe10  1  0.25198766  0.49971224  0.50170450  1
  Fe  Fe11  1  0.37276456  0.87536350  0.37300599  1
  Fe  Fe12  1  0.12299984  0.37608164  0.87566563  1
  Fe  Fe13  1  0.12503381  0.62599474  0.12340419  1
  Fe  Fe14  1  0.87733329  0.37755721  0.62797698  1
  Fe  Fe15  1  0.37412279  0.12496899  0.87563276  1
  Fe  Fe16  1  0.74878104  0.00049985  0.75058710  1
  Fe  Fe17  1  0.75279524  0.74786840  0.49940725  1
  Fe  Fe18  1  0.00095300  0.25266325  0.25394848  1
  Fe  Fe19  1  0.75610704  0.50203178  0.00128500  1
  Fe  Fe20  1  0.87355155  0.87487524  0.87684690  1
  Fe  Fe21  1  -0.00318048  0.25164612  -0.00212539  1
  Fe  Fe22  1  0.24830879  0.25159452  0.24896535  1
  Fe  Fe23  1  0.12496945  0.12278645  0.37565404  1
  Fe  Fe24  1  -0.00067501  0.24978863  0.49734652  1
  Fe  Fe25  1  0.50165603  0.25123288  0.75080299  1
  Fe  Fe26  1  -0.00697258  0.74538719  0.00153282  1
  Fe  Fe27  1  0.37406543  0.12350361  0.37168945  1
  Fe  Fe28  1  0.87518607  0.87662613  0.37347891  1
  Fe  Fe29  1  0.50035442  0.49871136  0.74936551  1
  Fe  Fe30  1  0.12641712  0.62595108  0.37609753  1
  Fe  Fe31  1  0.50072153  -0.00088878  0.75057911  1
  Fe  Fe32  1  0.50159193  0.25157875  0.24879157  1
  Fe  Fe33  1  0.87512991  0.12290769  0.87401853  1
  Fe  Fe34  1  0.37417250  0.12533057  0.12475973  1
  Fe  Fe35  1  0.00116317  0.75060193  0.24988873  1
  Fe  Fe36  1  0.75007111  0.25496066  0.25296135  1
  Fe  Fe37  1  0.24669168  0.49879006  0.24906284  1
  Fe  Fe38  1  0.37521075  0.37591102  0.37406030  1
  Fe  Fe39  1  0.87818440  0.38106143  0.87068402  1
  Fe  Fe40  1  0.24793928  0.50077926  0.75072475  1
  Fe  Fe41  1  0.49949121  0.75127334  0.75204327  1
  Fe  Fe42  1  0.62695320  0.87311802  0.12138352  1
  Fe  Fe43  1  0.12511706  0.62506575  0.87808694  1
  Fe  Fe44  1  0.24634235  -0.00314545  0.24351133  1
  Fe  Fe45  1  0.75324996  0.25259754  0.49739817  1
  Fe  Fe46  1  0.62597158  0.87424156  0.37575912  1
  Fe  Fe47  1  0.00180506  -0.00143446  0.74811049  1
  Fe  Fe48  1  0.62503640  0.37384093  0.87840592  1
  Fe  Fe49  1  0.37199801  0.87519423  0.87792915  1
  Fe  Fe50  1  0.62788406  0.87483913  0.87881547  1
  Fe  Fe51  1  0.87783827  0.12434013  0.62517799  1
  Fe  Fe52  1  0.12417708  0.37252216  0.62547306  1
  Fe  Fe53  1  0.87506780  0.12802153  0.12691700  1
  Fe  Fe54  1  0.62786359  0.12968743  0.12010625  1
  Fe  Fe55  1  0.37362795  0.62438875  0.37261376  1
  Fe  Fe56  1  0.00014876  0.50012207  0.50012429  1
  Fe  Fe57  1  0.00196701  0.75130829  0.74995394  1
  Fe  Fe58  1  0.62495093  0.62384476  0.62371351  1
  Fe  Fe59  1  0.50268483  -0.00039155  0.24764826  1
  Fe  Fe60  1  0.75243524  0.00008489  0.49986488  1
  Fe  Fe61  1  0.00151054  -0.00112766  0.24709836  1
  Fe  Fe62  1  0.12630348  0.62762957  0.62387039  1
  Fe  Fe63  1  0.62536179  0.62346342  0.87689174  1
  Fe  Fe64  1  0.49618175  0.49886510  0.00064975  1
  Fe  Fe65  1  0.37422504  0.37584079  0.87459314  1
  Fe  Fe66  1  0.49817216  -0.00116372  0.50013494  1
  Fe  Fe67  1  0.00040330  0.00133465  0.00384280  1
  Fe  Fe68  1  0.49746333  0.74828677  -0.00035789  1
  Fe  Fe69  1  0.87445626  0.61872678  0.36967205  1
  Fe  Fe70  1  0.12452646  0.12530308  0.87610042  1
  Fe  Fe71  1  0.12605939  0.87391174  0.88088024  1
  Fe  Fe72  1  0.24817708  -0.00062692  0.74928877  1
  Fe  Fe73  1  0.12662816  0.87472031  0.37703439  1
  Fe  Fe74  1  0.24774690  0.24931169  0.74948399  1
  Fe  Fe75  1  0.62566060  0.37247188  0.11998715  1
  Fe  Fe76  1  0.37409808  0.62724892  0.62897981  1
  Fe  Fe77  1  0.37484994  0.12454445  0.62679279  1
  Fe  Fe78  1  0.74917568  0.74901080  0.75185416  1
  Fe  Fe79  1  0.62691010  0.62531098  0.12364332  1
  Fe  Fe80  1  0.62449696  0.37676965  0.62112749  1
  Fe  Fe81  1  0.75046038  0.25086822  0.75218967  1
  Fe  Fe82  1  0.87448531  0.62337563  0.62979938  1
  Fe  Fe83  1  0.49739132  0.25030115  0.49984880  1
  Fe  Fe84  1  0.50254694  0.49803299  0.24928018  1
  Fe  Fe85  1  0.50166070  0.00289279  -0.00028721  1
  Fe  Fe86  1  0.37286777  0.62387903  0.12522812  1
  Fe  Fe87  1  0.62543062  0.12550718  0.62495244  1
  Fe  Fe88  1  -0.00288701  0.75016746  0.49969234  1
  Fe  Fe89  1  0.25100182  0.25076471  0.00092242  1
  Co  Co90  1  0.24713496  0.00230557  0.00369469  1
  Co  Co91  1  0.75494832  0.74463014  0.00015636  1
  Co  Co92  1  0.75317234  0.49970150  0.50039492  1
  Co  Co93  1  -0.00106844  -0.00127005  0.50025477  1
  Co  Co94  1  -0.00321044  0.50253832  0.00024289  1
  Co  Co95  1  0.87407631  0.87405623  0.62657780  1
  Co  Co96  1  0.25008302  0.49880245  -0.00026713  1
  Co  Co97  1  0.37383973  0.37606135  0.12716259  1
  Co  Co98  1  0.00718311  0.49872617  0.25066199  1
  Co  Co99  1  0.62501131  0.12767903  0.87621079  1
  Co  Co100  1  0.74566611  0.49847048  0.75065635  1
  Co  Co101  1  0.00594697  0.50227820  0.74885586  1
  Co  Co102  1  0.12258218  0.12545711  0.62436015  1
  Co  Co103  1  0.62173438  0.37688281  0.37985015  1
  Co  Co104  1  0.37633356  0.87556476  0.12215345  1
  Co  Co105  1  0.87549924  0.62129026  0.13316808  1
  Co  Co106  1  0.87419867  0.87457740  0.12458574  1
  Co  Co107  1  0.12275435  0.86933528  0.11974820  1
  Co  Co108  1  0.75044322  0.00257543  0.00107626  1
  Co  Co109  1  0.37344293  0.37418514  0.62681260  1
  Co  Co110  1  0.25318776  0.74769580  0.00078061  1
  Co  Co111  1  0.75724130  0.25269460  -0.00387065  1
  Co  Co112  1  -0.00041115  0.24840557  0.75177275  1
  Co  Co113  1  0.87632728  0.38099418  0.37219818  1
  Co  Co114  1  0.37483067  0.62355175  0.87335822  1
  Co  Co115  1  0.87560805  0.62310338  0.86825338  1
  Co  Co116  1  0.49530065  0.50180044  0.50130426  1
  Co  Co117  1  0.12719037  0.37537061  0.37840355  1
  Co  Co118  1  0.24977387  0.75129978  0.24779332  1
  Co  Co119  1  0.12251348  0.13046839  0.12469819  1
  Co  Co120  1  0.37293860  0.87297510  0.62651838  1
  Co  Co121  1  0.24744930  0.75058489  0.75308570  1
  Co  Co122  1  0.49528328  0.24947840  -0.00001765  1
  Co  Co123  1  0.25228674  0.74895230  0.49851865  1
  Co  Co124  1  0.74405203  0.49519654  0.24817916  1
  Co  Co125  1  0.25130324  0.00177476  0.50123092  1
  Co  Co126  1  0.87841083  0.37665027  0.12897925  1
  Co  Co127  1  0.87545777  0.12344592  0.37307341  1
