# generated using pymatgen
data_Fe45Co19
_symmetry_space_group_name_H-M   'P 1'
_cell_length_a   11.41638949
_cell_length_b   11.41526370
_cell_length_c   11.41620027
_cell_angle_alpha   89.98962707
_cell_angle_beta   89.99325072
_cell_angle_gamma   90.00516687
_symmetry_Int_Tables_number   1
_chemical_formula_structural   Fe45Co19
_chemical_formula_sum   'Fe90 Co38'
_cell_volume   1487.77169519
_cell_formula_units_Z   2
loop_
 _symmetry_equiv_pos_site_id
 _symmetry_equiv_pos_as_xyz
  1  'x, y, z'
loop_
 _atom_site_type_symbol
 _atom_site_label
 _atom_site_symmetry_multiplicity
 _atom_site_fract_x
 _atom_site_fract_y
 _atom_site_fract_z
 _atom_site_occupancy
  Fe  Fe0  1  0.24944698  0.74915404  -0.00082668  1
  Fe  Fe1  1  0.87316219  0.87656993  0.62257218  1
  Fe  Fe2  1  0.00059244  0.49996349  0.49916092  1
  Fe  Fe3  1  0.12670853  0.87798462  0.62475127  1
  Fe  Fe4  1  0.12356728  0.37268284  0.87392044  1
  Fe  Fe5  1  0.62127828  0.12395085  0.37383330  1
  Fe  Fe6  1  0.12430314  0.87457050  0.12622892  1
  Fe  Fe7  1  0.87294818  0.37671275  0.12601069  1
  Fe  Fe8  1  0.87351653  0.37526791  0.37648883  1
  Fe  Fe9  1  -0.00073580  0.00092675  0.00011181  1
  Fe  Fe10  1  0.25089705  0.74994550  0.75075686  1
  Fe  Fe11  1  0.75082975  0.49868246  -0.00350695  1
  Fe  Fe12  1  0.62584301  0.62275942  0.12306215  1
  Fe  Fe13  1  0.37532008  0.62461893  0.62609684  1
  Fe  Fe14  1  0.74811323  0.75030405  0.75049421  1
  Fe  Fe15  1  0.37723124  0.87457665  0.12405349  1
  Fe  Fe16  1  0.74808431  0.25342158  -0.00067144  1
  Fe  Fe17  1  0.74929250  -0.00009683  0.25096495  1
  Fe  Fe18  1  -0.00233734  0.00033384  0.25030853  1
  Fe  Fe19  1  -0.00187306  0.25068194  0.24865570  1
  Fe  Fe20  1  0.50170959  0.75065953  0.50247022  1
  Fe  Fe21  1  0.12740044  0.62445909  0.62448495  1
  Fe  Fe22  1  0.87392445  0.87184015  0.12448047  1
  Fe  Fe23  1  0.87369141  0.87427298  0.87530299  1
  Fe  Fe24  1  0.12531632  0.37602371  0.37224226  1
  Fe  Fe25  1  0.74683300  0.24919456  0.24887450  1
  Fe  Fe26  1  0.74941160  0.74630966  0.25060892  1
  Fe  Fe27  1  0.12558896  0.37696634  0.12806904  1
  Fe  Fe28  1  0.00028459  0.74871526  0.00006345  1
  Fe  Fe29  1  0.37651009  0.62374126  0.12348689  1
  Fe  Fe30  1  0.74875400  -0.00243464  0.00031368  1
  Fe  Fe31  1  0.62478450  0.37397917  0.62700258  1
  Fe  Fe32  1  0.12460766  0.62241118  0.12781803  1
  Fe  Fe33  1  0.12532782  0.87662966  0.87466454  1
  Fe  Fe34  1  0.75143131  0.50376407  0.25393214  1
  Fe  Fe35  1  0.25063597  0.25055470  0.00059157  1
  Fe  Fe36  1  0.37693388  0.87558745  0.87414994  1
  Fe  Fe37  1  -0.00194020  0.74510136  0.25267808  1
  Fe  Fe38  1  0.49942623  0.49634485  -0.00107873  1
  Fe  Fe39  1  0.12559059  0.87506571  0.37569028  1
  Fe  Fe40  1  0.12600013  0.37039200  0.62598408  1
  Fe  Fe41  1  0.37297509  0.37082155  0.62593738  1
  Fe  Fe42  1  0.25168102  0.00141882  0.00059651  1
  Fe  Fe43  1  0.87180759  0.12535003  0.12363394  1
  Fe  Fe44  1  -0.00187334  0.50063243  0.74905694  1
  Fe  Fe45  1  0.12419591  0.12449132  0.12623322  1
  Fe  Fe46  1  0.49781111  0.24899009  0.49845466  1
  Fe  Fe47  1  0.25031392  0.24897597  0.25143512  1
  Fe  Fe48  1  0.62377228  0.87945874  0.62592872  1
  Fe  Fe49  1  0.37757006  0.37499650  0.37039618  1
  Fe  Fe50  1  0.37764127  0.62389763  0.37565310  1
  Fe  Fe51  1  0.37779077  0.12834675  0.87542376  1
  Fe  Fe52  1  -0.00076952  0.00425598  0.75047589  1
  Fe  Fe53  1  0.25059379  0.49764977  0.49884155  1
  Fe  Fe54  1  0.50119064  0.25051473  0.74974310  1
  Fe  Fe55  1  0.87284009  0.62602509  0.87568838  1
  Fe  Fe56  1  0.74951035  0.25006527  0.50162473  1
  Fe  Fe57  1  0.37615383  0.87742330  0.62602548  1
  Fe  Fe58  1  0.37953239  0.12483776  0.12903213  1
  Fe  Fe59  1  0.62550666  0.62175211  0.62579162  1
  Fe  Fe60  1  0.75212803  0.49429490  0.74931188  1
  Fe  Fe61  1  0.62382400  0.37651089  0.37344470  1
  Fe  Fe62  1  0.25313418  0.00772536  0.49875599  1
  Fe  Fe63  1  0.50384609  0.74992319  -0.00510027  1
  Fe  Fe64  1  -0.00473096  0.24626769  0.75133674  1
  Fe  Fe65  1  0.75050960  0.00377935  0.74988146  1
  Fe  Fe66  1  0.62449311  0.87598337  0.12347615  1
  Fe  Fe67  1  -0.00082204  0.49939706  0.00040288  1
  Fe  Fe68  1  0.87392160  0.12570191  0.37593043  1
  Fe  Fe69  1  0.24961259  0.74966544  0.49989104  1
  Fe  Fe70  1  0.37659076  0.87654204  0.37546163  1
  Fe  Fe71  1  0.87222311  0.62442719  0.61968657  1
  Fe  Fe72  1  -0.00053321  0.74992306  0.74721940  1
  Fe  Fe73  1  0.62385025  0.87534142  0.37686679  1
  Fe  Fe74  1  0.50037074  0.49883241  0.50138280  1
  Fe  Fe75  1  0.50208633  0.74884722  0.75187290  1
  Fe  Fe76  1  0.62573057  0.12602488  0.87639941  1
  Fe  Fe77  1  0.62441699  0.12468904  0.62367255  1
  Fe  Fe78  1  0.87319841  0.87162536  0.37853380  1
  Fe  Fe79  1  0.12592565  0.62497036  0.87337263  1
  Fe  Fe80  1  -0.00107374  0.24934031  0.00066257  1
  Fe  Fe81  1  0.50322163  0.25334841  0.00601181  1
  Fe  Fe82  1  0.25080878  0.74765565  0.25065008  1
  Fe  Fe83  1  0.25194880  0.49823749  -0.00179902  1
  Fe  Fe84  1  0.25133033  0.00573008  0.75045604  1
  Fe  Fe85  1  0.00075047  0.24924162  0.49919350  1
  Fe  Fe86  1  0.25296575  0.49719556  0.75214241  1
  Fe  Fe87  1  0.00019361  0.00197307  0.49988905  1
  Fe  Fe88  1  0.50122579  0.74903360  0.25007458  1
  Fe  Fe89  1  0.25067492  0.00071801  0.25054526  1
  Co  Co90  1  0.62531529  0.87876017  0.87311258  1
  Co  Co91  1  0.62292358  0.62440825  0.37782932  1
  Co  Co92  1  0.50134898  0.50016430  0.24826968  1
  Co  Co93  1  0.87318707  0.62452924  0.12197771  1
  Co  Co94  1  0.25207901  0.24820219  0.49412551  1
  Co  Co95  1  0.38128708  0.12583169  0.36932082  1
  Co  Co96  1  0.37781480  0.37150073  0.87475625  1
  Co  Co97  1  0.37618413  0.62477870  0.87461771  1
  Co  Co98  1  0.87649826  0.37363593  0.62271206  1
  Co  Co99  1  0.74707296  0.49594965  0.50028521  1
  Co  Co100  1  0.62976201  0.38041223  0.12679990  1
  Co  Co101  1  0.62588984  0.61959073  0.87273353  1
  Co  Co102  1  0.74635213  0.75044999  -0.00162182  1
  Co  Co103  1  0.49942671  0.00063991  -0.00052095  1
  Co  Co104  1  0.25199190  0.50208982  0.25087623  1
  Co  Co105  1  0.49761602  0.00145434  0.50095093  1
  Co  Co106  1  0.24970574  0.24918633  0.75293785  1
  Co  Co107  1  -0.00505586  0.50148940  0.25212484  1
  Co  Co108  1  0.87402442  0.12507382  0.62154291  1
  Co  Co109  1  0.12571335  0.62412990  0.37603686  1
  Co  Co110  1  0.49672808  0.49836214  0.74873220  1
  Co  Co111  1  0.37481199  0.12929930  0.62591231  1
  Co  Co112  1  0.87149098  0.12500478  0.87857069  1
  Co  Co113  1  0.12552344  0.12883883  0.62442261  1
  Co  Co114  1  0.87655650  0.37388350  0.87540408  1
  Co  Co115  1  0.62324477  0.37472582  0.87214565  1
  Co  Co116  1  0.74834634  0.00095662  0.49845343  1
  Co  Co117  1  0.50262887  -0.00302358  0.24904095  1
  Co  Co118  1  0.49885514  0.00311936  0.75018308  1
  Co  Co119  1  0.87243297  0.62731783  0.38328488  1
  Co  Co120  1  0.62610749  0.12198808  0.12420868  1
  Co  Co121  1  0.75221279  0.25038960  0.74856769  1
  Co  Co122  1  0.50508952  0.25331930  0.24468855  1
  Co  Co123  1  0.74482070  0.75182431  0.50268947  1
  Co  Co124  1  0.12256134  0.12512687  0.37329574  1
  Co  Co125  1  0.37315997  0.37547638  0.12785566  1
  Co  Co126  1  0.12468485  0.12524980  0.87689363  1
  Co  Co127  1  0.00312991  0.75042468  0.50288951  1
