# generated using pymatgen
data_Fe45Co19
_symmetry_space_group_name_H-M   'P 1'
_cell_length_a   11.41437885
_cell_length_b   11.41604611
_cell_length_c   11.41440114
_cell_angle_alpha   89.99576142
_cell_angle_beta   90.00021550
_cell_angle_gamma   89.99509520
_symmetry_Int_Tables_number   1
_chemical_formula_structural   Fe45Co19
_chemical_formula_sum   'Fe90 Co38'
_cell_volume   1487.37721969
_cell_formula_units_Z   2
loop_
 _symmetry_equiv_pos_site_id
 _symmetry_equiv_pos_as_xyz
  1  'x, y, z'
loop_
 _atom_site_type_symbol
 _atom_site_label
 _atom_site_symmetry_multiplicity
 _atom_site_fract_x
 _atom_site_fract_y
 _atom_site_fract_z
 _atom_site_occupancy
  Fe  Fe0  1  -0.00240487  0.25170395  0.24810754  1
  Fe  Fe1  1  0.87284986  0.37295145  0.62362723  1
  Fe  Fe2  1  0.87659859  0.12690210  0.38040368  1
  Fe  Fe3  1  0.49863080  0.00121609  0.50223105  1
  Fe  Fe4  1  -0.00298362  0.25149613  0.00192141  1
  Fe  Fe5  1  -0.00114502  0.75189074  0.50074202  1
  Fe  Fe6  1  0.37827286  0.62281925  0.37606183  1
  Fe  Fe7  1  0.74731494  0.24494169  0.74737709  1
  Fe  Fe8  1  0.25130918  0.24934871  0.75056232  1
  Fe  Fe9  1  0.87299679  0.62382112  0.37682670  1
  Fe  Fe10  1  0.87167363  0.62248627  0.12443713  1
  Fe  Fe11  1  0.37719195  0.62429370  0.12024685  1
  Fe  Fe12  1  0.50291113  0.25289360  -0.00300068  1
  Fe  Fe13  1  0.12482758  0.62708027  0.62548598  1
  Fe  Fe14  1  0.12508420  0.62557611  0.37620487  1
  Fe  Fe15  1  0.00047522  -0.00064097  0.74726557  1
  Fe  Fe16  1  0.62255743  0.37388081  0.62635764  1
  Fe  Fe17  1  0.37705287  0.37699526  0.12415100  1
  Fe  Fe18  1  0.12668948  0.62587239  0.12268051  1
  Fe  Fe19  1  0.49711144  0.24960992  0.49916566  1
  Fe  Fe20  1  0.50200080  0.75176164  -0.00450781  1
  Fe  Fe21  1  -0.00119249  0.50026463  0.74938911  1
  Fe  Fe22  1  -0.00237786  0.75046799  0.25051484  1
  Fe  Fe23  1  0.87103255  0.37591960  0.87465845  1
  Fe  Fe24  1  0.25215725  0.74977613  0.24987116  1
  Fe  Fe25  1  0.12353436  0.12495394  0.12463786  1
  Fe  Fe26  1  0.74184051  0.49848503  0.00285260  1
  Fe  Fe27  1  -0.00193864  0.75035449  -0.00141716  1
  Fe  Fe28  1  0.12552496  0.37471948  0.87579627  1
  Fe  Fe29  1  0.50408011  0.50262291  0.24807441  1
  Fe  Fe30  1  0.87263850  0.87534649  0.12584203  1
  Fe  Fe31  1  0.50057005  0.75000784  0.50149347  1
  Fe  Fe32  1  -0.00068351  0.25154480  0.74935588  1
  Fe  Fe33  1  0.37678003  0.37666249  0.87508101  1
  Fe  Fe34  1  0.62610665  0.87422354  0.12469345  1
  Fe  Fe35  1  0.25317423  0.75039271  0.50003574  1
  Fe  Fe36  1  0.24970173  0.75185162  0.75332450  1
  Fe  Fe37  1  0.74885349  0.74991607  -0.00247454  1
  Fe  Fe38  1  0.37806679  0.12277928  0.12423623  1
  Fe  Fe39  1  0.25220810  0.50040353  0.50054249  1
  Fe  Fe40  1  0.37866426  0.62330371  0.87625839  1
  Fe  Fe41  1  0.25044435  -0.00156204  -0.00210936  1
  Fe  Fe42  1  0.25114188  0.25042471  0.00013583  1
  Fe  Fe43  1  0.62518071  0.12507651  0.12420870  1
  Fe  Fe44  1  0.25118129  0.50083871  0.75123317  1
  Fe  Fe45  1  0.25074271  0.50067456  0.24785485  1
  Fe  Fe46  1  0.74552338  0.50173857  0.50116626  1
  Fe  Fe47  1  0.25390938  0.24979135  0.49815606  1
  Fe  Fe48  1  0.37623608  0.87539290  0.12378437  1
  Fe  Fe49  1  0.50304085  -0.00244885  -0.00366312  1
  Fe  Fe50  1  -0.00339781  -0.00157530  0.25238492  1
  Fe  Fe51  1  0.74939662  0.00027582  -0.00176039  1
  Fe  Fe52  1  0.12361398  0.12534795  0.87555562  1
  Fe  Fe53  1  0.87295736  0.87290441  0.62818334  1
  Fe  Fe54  1  0.37960796  0.62462447  0.62752048  1
  Fe  Fe55  1  -0.00254320  -0.00045733  -0.00053553  1
  Fe  Fe56  1  0.37683165  0.87762582  0.37419579  1
  Fe  Fe57  1  0.74964174  0.00068305  0.25117873  1
  Fe  Fe58  1  0.62356052  0.37555337  0.37343340  1
  Fe  Fe59  1  0.25138652  -0.00013670  0.24931974  1
  Fe  Fe60  1  0.12525987  0.62607136  0.87571976  1
  Fe  Fe61  1  0.74756534  0.74643379  0.50456715  1
  Fe  Fe62  1  0.62646671  0.87541420  0.37827939  1
  Fe  Fe63  1  0.49780611  0.24676191  0.25200420  1
  Fe  Fe64  1  0.75192365  0.24912246  0.25011087  1
  Fe  Fe65  1  -0.00071453  0.49927343  0.24830238  1
  Fe  Fe66  1  0.87227238  0.37651920  0.37658886  1
  Fe  Fe67  1  0.74783369  0.50369828  0.74659018  1
  Fe  Fe68  1  0.12377948  0.12581496  0.62238305  1
  Fe  Fe69  1  0.87366372  0.12459837  0.87325332  1
  Fe  Fe70  1  0.12347914  0.12425580  0.37726115  1
  Fe  Fe71  1  0.37675113  0.37524942  0.62612157  1
  Fe  Fe72  1  0.12721925  0.37494922  0.62586953  1
  Fe  Fe73  1  0.75220041  0.00296810  0.50495922  1
  Fe  Fe74  1  0.25283650  0.24894304  0.25024001  1
  Fe  Fe75  1  0.87163654  0.87435842  0.86982682  1
  Fe  Fe76  1  0.24765636  -0.00130287  0.75076821  1
  Fe  Fe77  1  0.87183118  0.62434730  0.87313079  1
  Fe  Fe78  1  0.37788979  0.87630352  0.63025019  1
  Fe  Fe79  1  0.00056171  0.49810112  -0.00003882  1
  Fe  Fe80  1  0.12525177  0.87487819  0.37667433  1
  Fe  Fe81  1  0.12495585  0.87421452  0.12329108  1
  Fe  Fe82  1  0.12722491  0.37534629  0.37350406  1
  Fe  Fe83  1  0.00044713  0.49842658  0.50208342  1
  Fe  Fe84  1  0.74972012  0.25072372  0.00099200  1
  Fe  Fe85  1  0.74888382  0.74845806  0.25158005  1
  Fe  Fe86  1  0.37812596  0.12322757  0.87184072  1
  Fe  Fe87  1  0.62390611  0.12383470  0.37695253  1
  Fe  Fe88  1  0.50107654  0.75164822  0.25098183  1
  Fe  Fe89  1  0.25133007  -0.00060395  0.50187370  1
  Co  Co90  1  0.62433796  0.37074203  0.12956455  1
  Co  Co91  1  0.74640890  0.50181647  0.25032103  1
  Co  Co92  1  0.87064133  0.87297181  0.37711596  1
  Co  Co93  1  0.74623342  0.74570687  0.74644120  1
  Co  Co94  1  0.24964934  0.49889277  -0.00074834  1
  Co  Co95  1  0.50679121  0.49726321  -0.00044628  1
  Co  Co96  1  0.50106119  0.24949144  0.75064592  1
  Co  Co97  1  0.87173027  0.37819721  0.12430038  1
  Co  Co98  1  0.62848392  0.37439609  0.87038687  1
  Co  Co99  1  0.37526848  0.12072685  0.37486391  1
  Co  Co100  1  0.87378002  0.12348234  0.12478493  1
  Co  Co101  1  0.50166279  0.49879076  0.50051402  1
  Co  Co102  1  0.87728674  0.62550889  0.62442210  1
  Co  Co103  1  0.00176895  0.25467116  0.50036837  1
  Co  Co104  1  0.00020582  0.74890203  0.75129202  1
  Co  Co105  1  0.62462533  0.62448339  0.87270366  1
  Co  Co106  1  0.74762724  0.00532040  0.74652636  1
  Co  Co107  1  0.37630018  0.87711944  0.87172302  1
  Co  Co108  1  0.62379559  0.62663551  0.37630149  1
  Co  Co109  1  0.50337297  -0.00139395  0.24903743  1
  Co  Co110  1  0.12587722  0.87217446  0.62464522  1
  Co  Co111  1  -0.00298081  -0.00376611  0.50172258  1
  Co  Co112  1  0.37565830  0.12408540  0.62853910  1
  Co  Co113  1  0.74625612  0.25032952  0.50038282  1
  Co  Co114  1  0.62470835  0.62962016  0.12404387  1
  Co  Co115  1  0.50649104  0.00100346  0.75169806  1
  Co  Co116  1  0.25178205  0.75167945  -0.00230374  1
  Co  Co117  1  0.61806428  0.62388561  0.62685573  1
  Co  Co118  1  0.62513130  0.87598419  0.62479925  1
  Co  Co119  1  0.62508970  0.12634606  0.87679956  1
  Co  Co120  1  0.62034967  0.12626311  0.62327442  1
  Co  Co121  1  0.63016695  0.87477262  0.87105751  1
  Co  Co122  1  0.12251340  0.87500019  0.87636480  1
  Co  Co123  1  0.87831528  0.12880228  0.62333667  1
  Co  Co124  1  0.50070034  0.49780334  0.75240419  1
  Co  Co125  1  0.37628451  0.37901078  0.37347687  1
  Co  Co126  1  0.50343530  0.75217689  0.75269459  1
  Co  Co127  1  0.12607237  0.37340044  0.12477172  1
