# generated using pymatgen
data_Fe45Co19
_symmetry_space_group_name_H-M   'P 1'
_cell_length_a   11.41653670
_cell_length_b   11.41541987
_cell_length_c   11.41492097
_cell_angle_alpha   90.00173002
_cell_angle_beta   89.99610329
_cell_angle_gamma   90.00894763
_symmetry_Int_Tables_number   1
_chemical_formula_structural   Fe45Co19
_chemical_formula_sum   'Fe90 Co38'
_cell_volume   1487.64453007
_cell_formula_units_Z   2
loop_
 _symmetry_equiv_pos_site_id
 _symmetry_equiv_pos_as_xyz
  1  'x, y, z'
loop_
 _atom_site_type_symbol
 _atom_site_label
 _atom_site_symmetry_multiplicity
 _atom_site_fract_x
 _atom_site_fract_y
 _atom_site_fract_z
 _atom_site_occupancy
  Fe  Fe0  1  -0.00108875  0.75038014  0.24996564  1
  Fe  Fe1  1  0.87804939  0.87240456  0.62288527  1
  Fe  Fe2  1  0.50087011  -0.00121780  -0.00385570  1
  Fe  Fe3  1  0.37515860  0.37440371  0.12575607  1
  Fe  Fe4  1  0.24808576  0.75078284  0.50011758  1
  Fe  Fe5  1  0.50180549  0.50099030  0.24807643  1
  Fe  Fe6  1  0.50081451  0.50132730  0.49965070  1
  Fe  Fe7  1  0.87591720  0.12819260  0.62553366  1
  Fe  Fe8  1  0.37252174  0.62452241  0.87531241  1
  Fe  Fe9  1  0.12302148  0.37424548  0.62590278  1
  Fe  Fe10  1  0.12401226  0.87907265  0.37129947  1
  Fe  Fe11  1  0.87491212  0.12494937  0.87564333  1
  Fe  Fe12  1  0.62664823  0.12455103  0.12418844  1
  Fe  Fe13  1  0.62228416  0.87378164  0.37670348  1
  Fe  Fe14  1  0.49584173  0.00105767  0.75095788  1
  Fe  Fe15  1  0.24963364  0.25145628  0.25256659  1
  Fe  Fe16  1  0.37428747  0.37584214  0.87662046  1
  Fe  Fe17  1  0.50238317  0.24985382  0.24816790  1
  Fe  Fe18  1  0.61985540  0.87505636  0.62405349  1
  Fe  Fe19  1  0.12382775  0.37696176  0.87572948  1
  Fe  Fe20  1  0.62656366  0.62788256  0.37177510  1
  Fe  Fe21  1  0.75146002  0.49716656  0.74813361  1
  Fe  Fe22  1  0.37672428  0.62775590  0.12448665  1
  Fe  Fe23  1  0.50311829  0.24926391  -0.00207620  1
  Fe  Fe24  1  0.25064100  0.75013899  0.74796364  1
  Fe  Fe25  1  0.87181929  0.37431528  0.12771482  1
  Fe  Fe26  1  0.74833116  -0.00162881  -0.00188035  1
  Fe  Fe27  1  0.12598401  0.12070178  0.13021277  1
  Fe  Fe28  1  0.87079936  0.62646293  0.12651578  1
  Fe  Fe29  1  0.62991844  0.37594922  0.12200139  1
  Fe  Fe30  1  0.37457762  0.12407991  0.12328112  1
  Fe  Fe31  1  0.87487938  0.37396855  0.87621063  1
  Fe  Fe32  1  0.12518592  0.12675329  0.62520002  1
  Fe  Fe33  1  0.62383074  0.12524930  0.62655309  1
  Fe  Fe34  1  0.37566949  0.37427261  0.62501498  1
  Fe  Fe35  1  0.24929746  0.49923233  0.00194448  1
  Fe  Fe36  1  0.87738709  0.87379423  0.12231519  1
  Fe  Fe37  1  0.25218417  0.00124985  0.50140055  1
  Fe  Fe38  1  0.37472303  0.12619819  0.37501075  1
  Fe  Fe39  1  0.37853138  0.87466417  0.37994158  1
  Fe  Fe40  1  0.24713700  0.25009361  0.00064672  1
  Fe  Fe41  1  0.25214160  0.00075766  0.75040184  1
  Fe  Fe42  1  -0.00203924  0.50149776  0.00307192  1
  Fe  Fe43  1  0.75062669  -0.00234336  0.24904272  1
  Fe  Fe44  1  0.62651075  0.62430988  0.62589389  1
  Fe  Fe45  1  0.25015590  0.49696414  0.49910183  1
  Fe  Fe46  1  0.74936131  0.75059187  0.50111493  1
  Fe  Fe47  1  0.74758371  0.75045253  -0.00166042  1
  Fe  Fe48  1  -0.00297484  0.49927851  0.50052664  1
  Fe  Fe49  1  0.49844194  -0.00049656  0.25081406  1
  Fe  Fe50  1  0.00326423  -0.00166318  -0.00145672  1
  Fe  Fe51  1  0.87584125  0.87555811  0.37681877  1
  Fe  Fe52  1  0.12547531  0.62177060  0.37210980  1
  Fe  Fe53  1  0.62717662  0.12365539  0.37452045  1
  Fe  Fe54  1  -0.00130123  0.50013933  0.74859405  1
  Fe  Fe55  1  0.12426089  0.87534372  0.62536896  1
  Fe  Fe56  1  0.50088701  0.25024456  0.75317076  1
  Fe  Fe57  1  0.12356140  0.62425670  0.62407922  1
  Fe  Fe58  1  0.74751906  0.25174417  0.75241472  1
  Fe  Fe59  1  -0.00010004  0.00027527  0.75170667  1
  Fe  Fe60  1  0.12612942  0.62558404  0.12724171  1
  Fe  Fe61  1  0.25346530  0.75366190  0.24910854  1
  Fe  Fe62  1  -0.00135062  0.24644519  0.25399348  1
  Fe  Fe63  1  0.37445916  0.62359450  0.37483285  1
  Fe  Fe64  1  0.37396822  0.62389336  0.62397372  1
  Fe  Fe65  1  0.24769348  -0.00316374  0.00042152  1
  Fe  Fe66  1  0.62542531  0.37452280  0.37516885  1
  Fe  Fe67  1  0.12383545  0.37742993  0.13021966  1
  Fe  Fe68  1  -0.00021357  0.75012992  0.75034366  1
  Fe  Fe69  1  0.24853886  0.25233824  0.49628550  1
  Fe  Fe70  1  0.49997891  0.24882707  0.50018848  1
  Fe  Fe71  1  0.87472908  0.62701876  0.87453045  1
  Fe  Fe72  1  0.12518226  0.62487456  0.87580437  1
  Fe  Fe73  1  0.62673615  0.62397988  0.87409704  1
  Fe  Fe74  1  0.75190883  0.49874677  0.50124096  1
  Fe  Fe75  1  0.75082051  0.75271970  0.74864460  1
  Fe  Fe76  1  0.49786086  0.75002890  0.75039570  1
  Fe  Fe77  1  0.50036746  0.49814197  0.75007448  1
  Fe  Fe78  1  0.00121161  0.24888989  0.00067422  1
  Fe  Fe79  1  0.87387184  0.62547417  0.37506905  1
  Fe  Fe80  1  0.00001268  0.24984970  0.49506328  1
  Fe  Fe81  1  0.00000007  0.00244492  0.49907766  1
  Fe  Fe82  1  0.75103490  0.25106325  0.49921080  1
  Fe  Fe83  1  0.62081226  0.87037051  0.12522918  1
  Fe  Fe84  1  0.75163044  -0.00224435  0.74969458  1
  Fe  Fe85  1  0.87332406  0.12484432  0.12505633  1
  Fe  Fe86  1  0.24927338  0.24959759  0.75257331  1
  Fe  Fe87  1  0.24828326  0.75395819  0.00150678  1
  Fe  Fe88  1  0.74907379  -0.00058730  0.50212160  1
  Fe  Fe89  1  0.50223164  0.50249368  0.00108199  1
  Co  Co90  1  0.62614156  0.12251232  0.87366077  1
  Co  Co91  1  0.75137109  0.50263781  0.00011910  1
  Co  Co92  1  0.24884336  0.49913160  0.74939170  1
  Co  Co93  1  0.25395989  0.49995862  0.24843694  1
  Co  Co94  1  0.50173035  0.74786389  -0.00436981  1
  Co  Co95  1  0.12247209  0.87712397  0.12968873  1
  Co  Co96  1  0.12529195  0.87306036  0.87297411  1
  Co  Co97  1  0.75205218  0.75445575  0.25036673  1
  Co  Co98  1  0.87537662  0.62787193  0.62428873  1
  Co  Co99  1  0.00193340  0.24903435  0.75301563  1
  Co  Co100  1  0.37356506  0.12578349  0.87891881  1
  Co  Co101  1  0.74979117  0.24779966  -0.00170491  1
  Co  Co102  1  0.87613582  0.37152929  0.62561778  1
  Co  Co103  1  0.62613085  0.62884710  0.12666477  1
  Co  Co104  1  0.50056064  0.74551011  0.50126375  1
  Co  Co105  1  0.00308850  0.74977717  0.49719970  1
  Co  Co106  1  0.49956602  0.00408223  0.50045823  1
  Co  Co107  1  -0.00339444  0.50333816  0.24713604  1
  Co  Co108  1  0.87076879  0.12325002  0.37602699  1
  Co  Co109  1  0.37807390  0.37519863  0.37339647  1
  Co  Co110  1  0.74905645  0.24846421  0.24990211  1
  Co  Co111  1  0.37976249  0.87474616  0.12096713  1
  Co  Co112  1  0.37351370  0.87403203  0.87568208  1
  Co  Co113  1  0.12269932  0.38000846  0.37169067  1
  Co  Co114  1  0.74744260  0.49956355  0.25057948  1
  Co  Co115  1  0.87485198  0.37610704  0.37158651  1
  Co  Co116  1  0.37694779  0.87387991  0.62265306  1
  Co  Co117  1  0.12728862  0.12063019  0.37272633  1
  Co  Co118  1  0.37409564  0.12845378  0.62474109  1
  Co  Co119  1  0.87620861  0.87374107  0.87711504  1
  Co  Co120  1  0.62452948  0.87523649  0.87260932  1
  Co  Co121  1  0.25745753  -0.00318556  0.24976487  1
  Co  Co122  1  0.49677485  0.75025526  0.25173005  1
  Co  Co123  1  0.12572713  0.12385844  0.87547532  1
  Co  Co124  1  0.62589796  0.37742423  0.87825972  1
  Co  Co125  1  0.62416116  0.37498843  0.62325565  1
  Co  Co126  1  0.00164556  0.74832153  0.00160744  1
  Co  Co127  1  -0.00581126  0.00126424  0.25090377  1
