# generated using pymatgen
data_Fe45Co19
_symmetry_space_group_name_H-M   'P 1'
_cell_length_a   11.41649849
_cell_length_b   11.41381992
_cell_length_c   11.41581625
_cell_angle_alpha   90.00319666
_cell_angle_beta   90.00074198
_cell_angle_gamma   89.99640146
_symmetry_Int_Tables_number   1
_chemical_formula_structural   Fe45Co19
_chemical_formula_sum   'Fe90 Co38'
_cell_volume   1487.54772419
_cell_formula_units_Z   2
loop_
 _symmetry_equiv_pos_site_id
 _symmetry_equiv_pos_as_xyz
  1  'x, y, z'
loop_
 _atom_site_type_symbol
 _atom_site_label
 _atom_site_symmetry_multiplicity
 _atom_site_fract_x
 _atom_site_fract_y
 _atom_site_fract_z
 _atom_site_occupancy
  Fe  Fe0  1  0.37126494  0.87215834  0.12506373  1
  Fe  Fe1  1  -0.00131297  0.74954183  0.75054901  1
  Fe  Fe2  1  0.24981204  0.25177498  0.74928298  1
  Fe  Fe3  1  0.12554272  0.37348023  0.12446581  1
  Fe  Fe4  1  0.24781211  0.49857272  0.74812015  1
  Fe  Fe5  1  0.37502233  0.87795203  0.87284833  1
  Fe  Fe6  1  0.12256366  0.12771373  0.12777215  1
  Fe  Fe7  1  0.00071648  -0.00005798  0.25078267  1
  Fe  Fe8  1  0.49765599  0.75005827  0.00109402  1
  Fe  Fe9  1  0.87445691  0.87360263  0.62445760  1
  Fe  Fe10  1  0.75091840  0.24973850  0.25180723  1
  Fe  Fe11  1  0.50269190  0.49988138  0.74962388  1
  Fe  Fe12  1  0.87615965  0.12478102  0.62420254  1
  Fe  Fe13  1  0.87484103  0.12494762  0.87526384  1
  Fe  Fe14  1  0.00124580  0.00029756  0.49913698  1
  Fe  Fe15  1  0.74899139  0.50264406  0.24973186  1
  Fe  Fe16  1  0.87560699  0.37951240  0.37639355  1
  Fe  Fe17  1  0.62294698  0.12708085  0.87440046  1
  Fe  Fe18  1  0.25310172  0.74950238  0.74921487  1
  Fe  Fe19  1  0.74935321  0.00101216  0.00219756  1
  Fe  Fe20  1  0.74966993  0.24961707  0.74744075  1
  Fe  Fe21  1  0.49925321  0.00019187  0.00143200  1
  Fe  Fe22  1  0.87381708  0.87667223  0.87501194  1
  Fe  Fe23  1  0.25332698  0.50221954  0.25044318  1
  Fe  Fe24  1  0.49842567  0.49899469  0.24804704  1
  Fe  Fe25  1  0.37767737  0.12386692  0.87359241  1
  Fe  Fe26  1  0.87499905  0.37926079  0.62262935  1
  Fe  Fe27  1  0.12343688  0.12555682  0.62601912  1
  Fe  Fe28  1  0.00034957  0.25119681  0.49724361  1
  Fe  Fe29  1  0.74924088  0.74721656  0.75074483  1
  Fe  Fe30  1  -0.00239970  0.74337593  0.50080279  1
  Fe  Fe31  1  0.25275461  0.25118177  0.25126475  1
  Fe  Fe32  1  0.12823424  0.87102294  0.12573355  1
  Fe  Fe33  1  0.00055925  0.74989611  -0.00099462  1
  Fe  Fe34  1  0.37540190  0.37570463  0.87615482  1
  Fe  Fe35  1  0.87376559  0.37661056  0.87649266  1
  Fe  Fe36  1  0.74948075  0.24963937  0.49933336  1
  Fe  Fe37  1  0.38014639  0.62375438  0.37803712  1
  Fe  Fe38  1  0.87336947  0.62348655  0.87675173  1
  Fe  Fe39  1  0.12595767  0.62458834  0.87402516  1
  Fe  Fe40  1  0.37754308  0.12142350  0.62659170  1
  Fe  Fe41  1  0.50408986  0.49573982  0.00113532  1
  Fe  Fe42  1  0.00168406  0.49965192  0.00026900  1
  Fe  Fe43  1  0.87586369  0.12382350  0.37386613  1
  Fe  Fe44  1  0.00135784  0.50032959  0.25033523  1
  Fe  Fe45  1  0.49904512  -0.00251942  0.24936396  1
  Fe  Fe46  1  0.62469042  0.86769124  0.37548563  1
  Fe  Fe47  1  0.74636099  0.50234261  0.75273048  1
  Fe  Fe48  1  0.24966957  0.50022939  0.00072804  1
  Fe  Fe49  1  0.12722124  0.37786925  0.37767151  1
  Fe  Fe50  1  0.49783093  0.74904063  0.74695946  1
  Fe  Fe51  1  0.24901184  0.00064377  0.50085770  1
  Fe  Fe52  1  0.62600792  0.62680565  0.12362613  1
  Fe  Fe53  1  0.25292751  0.74593009  0.50139233  1
  Fe  Fe54  1  0.12528274  0.87349133  0.62543434  1
  Fe  Fe55  1  0.74706230  0.50708077  0.49781330  1
  Fe  Fe56  1  0.62576110  0.87266834  0.62375232  1
  Fe  Fe57  1  0.37597161  0.12411859  0.37366963  1
  Fe  Fe58  1  0.62128904  0.12833619  0.12712804  1
  Fe  Fe59  1  -0.00082226  0.74869363  0.25037259  1
  Fe  Fe60  1  0.87321292  0.62486346  0.12283120  1
  Fe  Fe61  1  0.12918551  0.62845612  0.12574210  1
  Fe  Fe62  1  0.74908073  -0.00028500  0.49989251  1
  Fe  Fe63  1  0.25152827  0.24944475  -0.00046953  1
  Fe  Fe64  1  0.87315901  0.87183201  0.37534940  1
  Fe  Fe65  1  0.12598181  0.87134064  0.37582670  1
  Fe  Fe66  1  0.49958914  0.25245211  0.49884343  1
  Fe  Fe67  1  0.87387407  0.87408520  0.12536456  1
  Fe  Fe68  1  0.37635497  0.87268175  0.37640634  1
  Fe  Fe69  1  0.37648978  0.62276929  0.87586100  1
  Fe  Fe70  1  -0.00081325  0.00136060  0.00179793  1
  Fe  Fe71  1  0.74950016  -0.00041824  0.24990627  1
  Fe  Fe72  1  0.12324567  0.12481420  0.87350356  1
  Fe  Fe73  1  0.25009572  0.00141816  0.00060627  1
  Fe  Fe74  1  0.87550165  0.37360345  0.12476703  1
  Fe  Fe75  1  0.74810032  0.25241158  0.00130016  1
  Fe  Fe76  1  0.24991063  -0.00072559  0.25051960  1
  Fe  Fe77  1  0.62287882  0.12503861  0.37489531  1
  Fe  Fe78  1  0.62593472  0.87213461  0.12568173  1
  Fe  Fe79  1  0.12488599  0.87661571  0.87407149  1
  Fe  Fe80  1  0.62485195  0.87311678  0.87558092  1
  Fe  Fe81  1  0.50005364  0.25179468  0.74788354  1
  Fe  Fe82  1  0.25119832  0.24858526  0.49966836  1
  Fe  Fe83  1  0.74782217  0.00139013  0.74817718  1
  Fe  Fe84  1  0.50101410  -0.00200474  0.50131006  1
  Fe  Fe85  1  0.00328935  0.49760377  0.74872558  1
  Fe  Fe86  1  0.00091402  0.25374532  0.75056886  1
  Fe  Fe87  1  0.62387087  0.37609966  0.37299038  1
  Fe  Fe88  1  0.37363812  0.37933633  0.62094099  1
  Fe  Fe89  1  0.62648786  0.37615066  0.62434646  1
  Co  Co90  1  0.87555007  0.62433853  0.37266808  1
  Co  Co91  1  0.37699453  0.12610591  0.12635686  1
  Co  Co92  1  0.37367799  0.62493835  0.12116211  1
  Co  Co93  1  0.49705872  0.74941003  0.24622992  1
  Co  Co94  1  0.62494750  0.37255005  0.12947360  1
  Co  Co95  1  0.12615548  0.12494159  0.37337598  1
  Co  Co96  1  0.62354393  0.62520905  0.62503813  1
  Co  Co97  1  0.50454136  0.49868104  0.49954385  1
  Co  Co98  1  0.24714941  0.50542532  0.49995960  1
  Co  Co99  1  0.00167555  0.50448307  0.50028893  1
  Co  Co100  1  0.75167640  0.74439427  0.50027703  1
  Co  Co101  1  0.12437110  0.62518124  0.37270588  1
  Co  Co102  1  0.62508673  0.37252558  0.87193397  1
  Co  Co103  1  0.12681616  0.37543936  0.87751746  1
  Co  Co104  1  0.49800445  0.74975754  0.50509096  1
  Co  Co105  1  0.74615637  0.49711098  0.00005459  1
  Co  Co106  1  0.62336793  0.62727056  0.87767236  1
  Co  Co107  1  0.75160495  0.75059488  -0.00034130  1
  Co  Co108  1  0.37449820  0.37397192  0.12342548  1
  Co  Co109  1  -0.00022840  0.25114699  -0.00220458  1
  Co  Co110  1  0.49620339  0.25303441  0.25328021  1
  Co  Co111  1  0.12527324  0.62615356  0.62779312  1
  Co  Co112  1  -0.00017066  0.25335629  0.25475737  1
  Co  Co113  1  0.24833620  0.00035683  0.74957838  1
  Co  Co114  1  0.37369609  0.87817899  0.62529874  1
  Co  Co115  1  0.75107626  0.74815574  0.24983706  1
  Co  Co116  1  0.37612517  0.61982597  0.62470583  1
  Co  Co117  1  -0.00082911  -0.00042581  0.74905438  1
  Co  Co118  1  0.25089462  0.75028764  -0.00533270  1
  Co  Co119  1  0.62339776  0.12590686  0.62275244  1
  Co  Co120  1  0.50005689  0.25296752  -0.00043320  1
  Co  Co121  1  0.50363028  -0.00147402  0.74894025  1
  Co  Co122  1  0.87599505  0.12822786  0.12686099  1
  Co  Co123  1  0.25447058  0.74680510  0.25431897  1
  Co  Co124  1  0.12576698  0.37483300  0.62002402  1
  Co  Co125  1  0.37308357  0.37801273  0.37808938  1
  Co  Co126  1  0.87446526  0.62188517  0.62895555  1
  Co  Co127  1  0.62033628  0.62908565  0.37260331  1
