# generated using pymatgen
data_Fe45Co19
_symmetry_space_group_name_H-M   'P 1'
_cell_length_a   11.41548441
_cell_length_b   11.41601497
_cell_length_c   11.41478036
_cell_angle_alpha   90.00845606
_cell_angle_beta   89.99991520
_cell_angle_gamma   89.99361485
_symmetry_Int_Tables_number   1
_chemical_formula_structural   Fe45Co19
_chemical_formula_sum   'Fe90 Co38'
_cell_volume   1487.56662763
_cell_formula_units_Z   2
loop_
 _symmetry_equiv_pos_site_id
 _symmetry_equiv_pos_as_xyz
  1  'x, y, z'
loop_
 _atom_site_type_symbol
 _atom_site_label
 _atom_site_symmetry_multiplicity
 _atom_site_fract_x
 _atom_site_fract_y
 _atom_site_fract_z
 _atom_site_occupancy
  Fe  Fe0  1  0.37319415  0.37708045  0.62407586  1
  Fe  Fe1  1  0.50092551  0.25140088  0.74635324  1
  Fe  Fe2  1  0.62425290  0.87346845  0.87668237  1
  Fe  Fe3  1  0.12313912  0.62961549  0.37708330  1
  Fe  Fe4  1  0.74733215  0.00071203  0.00045740  1
  Fe  Fe5  1  0.50218736  0.50104746  0.50342576  1
  Fe  Fe6  1  0.49617586  0.25261427  0.25124882  1
  Fe  Fe7  1  0.74674257  0.49955699  0.00153154  1
  Fe  Fe8  1  -0.00275371  0.75057320  0.74862782  1
  Fe  Fe9  1  0.50288250  0.74666682  0.74760961  1
  Fe  Fe10  1  0.87447863  0.62222660  0.12991888  1
  Fe  Fe11  1  0.62421780  0.12710320  0.87525699  1
  Fe  Fe12  1  0.50345515  -0.00083586  0.24914703  1
  Fe  Fe13  1  -0.00160848  0.50029101  0.74821484  1
  Fe  Fe14  1  0.50391383  0.00110546  0.74764295  1
  Fe  Fe15  1  0.50049751  -0.00152445  0.50104473  1
  Fe  Fe16  1  0.38114143  0.62088948  0.87469463  1
  Fe  Fe17  1  0.87140199  0.62584271  0.62334283  1
  Fe  Fe18  1  0.00019630  -0.00135281  0.00199561  1
  Fe  Fe19  1  0.12586558  0.87276658  0.87518439  1
  Fe  Fe20  1  0.62501827  0.37485850  0.87530107  1
  Fe  Fe21  1  0.24842397  0.50216640  0.74778874  1
  Fe  Fe22  1  0.62501608  0.87317833  0.37535279  1
  Fe  Fe23  1  0.12333538  0.37167721  0.37858373  1
  Fe  Fe24  1  0.12466942  0.62709722  0.12532456  1
  Fe  Fe25  1  -0.00041399  0.75330854  0.25150397  1
  Fe  Fe26  1  0.37658099  0.12361359  0.87341827  1
  Fe  Fe27  1  0.75548246  0.24734892  0.49973308  1
  Fe  Fe28  1  0.12849974  0.87382497  0.62285639  1
  Fe  Fe29  1  0.37499031  0.12398024  0.12639290  1
  Fe  Fe30  1  0.62356291  0.37390347  0.37521630  1
  Fe  Fe31  1  0.87742371  0.37651918  0.37324975  1
  Fe  Fe32  1  0.86880187  0.87539668  0.62546498  1
  Fe  Fe33  1  0.75315809  0.24944415  0.00012243  1
  Fe  Fe34  1  0.37417574  0.12277344  0.62445598  1
  Fe  Fe35  1  0.62871585  0.37441767  0.62228445  1
  Fe  Fe36  1  0.62261521  0.12776692  0.37710178  1
  Fe  Fe37  1  0.74746908  0.50239770  0.75134315  1
  Fe  Fe38  1  0.62992054  0.87280317  0.62470882  1
  Fe  Fe39  1  0.24933865  0.50403467  0.50029181  1
  Fe  Fe40  1  0.37880343  0.62526318  0.37552077  1
  Fe  Fe41  1  0.87096344  0.87807847  0.13084120  1
  Fe  Fe42  1  0.87332525  0.87708054  0.87377354  1
  Fe  Fe43  1  0.24908126  0.24775389  0.74745799  1
  Fe  Fe44  1  -0.00270962  -0.00027235  0.49802155  1
  Fe  Fe45  1  0.25070241  0.00018078  -0.00289594  1
  Fe  Fe46  1  0.37630270  0.62327565  0.12377657  1
  Fe  Fe47  1  0.12527995  0.37283231  0.62216989  1
  Fe  Fe48  1  0.00015509  0.50033389  0.50034012  1
  Fe  Fe49  1  0.49783379  0.25303675  0.00157169  1
  Fe  Fe50  1  0.25149369  0.74755762  0.74692283  1
  Fe  Fe51  1  0.24930331  0.50031494  -0.00093837  1
  Fe  Fe52  1  0.37580488  0.87732895  0.12425763  1
  Fe  Fe53  1  0.87492986  0.62397972  0.87575394  1
  Fe  Fe54  1  0.37727045  0.87629803  0.87213883  1
  Fe  Fe55  1  0.12217254  0.12573085  0.87367683  1
  Fe  Fe56  1  0.74851596  0.50491038  0.49341252  1
  Fe  Fe57  1  0.50312744  0.49654389  0.24529320  1
  Fe  Fe58  1  0.74878015  0.74585520  0.25536727  1
  Fe  Fe59  1  0.75000545  0.00246031  0.49724932  1
  Fe  Fe60  1  0.12570318  0.12539080  0.12699219  1
  Fe  Fe61  1  -0.00339072  0.25090839  0.74400919  1
  Fe  Fe62  1  0.24877687  -0.00213763  0.25409602  1
  Fe  Fe63  1  0.49542235  0.25083337  0.50005803  1
  Fe  Fe64  1  0.87588954  0.12120875  0.13031596  1
  Fe  Fe65  1  0.25090643  0.24935401  -0.00184477  1
  Fe  Fe66  1  0.25321490  -0.00247553  0.49777592  1
  Fe  Fe67  1  0.24837026  0.50060578  0.25239206  1
  Fe  Fe68  1  0.00270354  -0.00171356  0.74760761  1
  Fe  Fe69  1  0.12244053  0.37419406  0.87358298  1
  Fe  Fe70  1  -0.00422934  0.75294656  0.49948479  1
  Fe  Fe71  1  0.12701495  0.37378971  0.12558500  1
  Fe  Fe72  1  -0.00262977  0.25081176  0.00163833  1
  Fe  Fe73  1  0.75186795  0.24916118  0.74728826  1
  Fe  Fe74  1  0.37650641  0.37759596  0.87398694  1
  Fe  Fe75  1  0.75130855  0.24924370  0.25220360  1
  Fe  Fe76  1  0.74918090  0.74862792  -0.00055706  1
  Fe  Fe77  1  0.62391469  0.12771482  0.12452814  1
  Fe  Fe78  1  0.25343243  0.74958857  -0.00182653  1
  Fe  Fe79  1  0.49979849  0.74969642  0.50382462  1
  Fe  Fe80  1  0.87355774  0.37828242  0.12904585  1
  Fe  Fe81  1  -0.00266444  0.75117205  0.00186828  1
  Fe  Fe82  1  0.50058563  0.75164898  0.24641375  1
  Fe  Fe83  1  0.87579032  0.12313280  0.87176567  1
  Fe  Fe84  1  0.12643433  0.87428206  0.12467003  1
  Fe  Fe85  1  0.12300876  0.62652369  0.87431456  1
  Fe  Fe86  1  0.25153588  0.75146565  0.25298196  1
  Fe  Fe87  1  0.12241265  0.12783791  0.37839588  1
  Fe  Fe88  1  0.25333555  0.25129759  0.25552115  1
  Fe  Fe89  1  0.00070278  0.49923680  0.00119614  1
  Co  Co90  1  0.74474567  0.00073573  0.75106122  1
  Co  Co91  1  0.50146861  -0.00017263  0.00074130  1
  Co  Co92  1  0.00501836  0.49883349  0.25091607  1
  Co  Co93  1  0.61672005  0.62606275  0.37384496  1
  Co  Co94  1  0.24819801  0.00133812  0.75028552  1
  Co  Co95  1  0.62805111  0.87275963  0.12506062  1
  Co  Co96  1  0.00483543  -0.00219936  0.25280508  1
  Co  Co97  1  0.87092381  0.87810301  0.37174865  1
  Co  Co98  1  0.37045601  0.37489939  0.12483264  1
  Co  Co99  1  0.62892673  0.37092035  0.12684487  1
  Co  Co100  1  0.12610270  0.12462629  0.61980742  1
  Co  Co101  1  0.37893285  0.87276295  0.37478739  1
  Co  Co102  1  0.74305222  0.00308636  0.25266079  1
  Co  Co103  1  0.12171661  0.62771170  0.62379346  1
  Co  Co104  1  0.37626198  0.38162514  0.37670311  1
  Co  Co105  1  0.62106739  0.62317929  0.87797081  1
  Co  Co106  1  0.49905160  0.75085684  0.00100559  1
  Co  Co107  1  0.75053563  0.74699891  0.49395247  1
  Co  Co108  1  0.74922898  0.74837615  0.75369196  1
  Co  Co109  1  0.25438968  0.74845075  0.50056588  1
  Co  Co110  1  0.87742716  0.12357706  0.37106320  1
  Co  Co111  1  -0.00019688  0.25116356  0.24896144  1
  Co  Co112  1  0.87426147  0.37556811  0.87450579  1
  Co  Co113  1  0.37446308  0.87597801  0.62678394  1
  Co  Co114  1  0.25552829  0.24941775  0.49804746  1
  Co  Co115  1  0.50303833  0.49584818  0.00524730  1
  Co  Co116  1  0.87074310  0.38065948  0.62304999  1
  Co  Co117  1  0.37766020  0.12072197  0.37449817  1
  Co  Co118  1  0.63006858  0.62589991  0.62397805  1
  Co  Co119  1  0.12594989  0.87225675  0.37886234  1
  Co  Co120  1  0.50406917  0.49850300  0.74524794  1
  Co  Co121  1  -0.00668696  0.24912804  0.50407716  1
  Co  Co122  1  0.74586155  0.50237326  0.25492673  1
  Co  Co123  1  0.62540648  0.12742200  0.62170871  1
  Co  Co124  1  0.88049657  0.62390551  0.37347682  1
  Co  Co125  1  0.62583184  0.62705108  0.12472456  1
  Co  Co126  1  0.87350249  0.11952602  0.62798254  1
  Co  Co127  1  0.37642698  0.62351853  0.62471860  1
