# generated using pymatgen
data_Fe45Co19
_symmetry_space_group_name_H-M   'P 1'
_cell_length_a   11.41560365
_cell_length_b   11.41471362
_cell_length_c   11.41539919
_cell_angle_alpha   90.00220196
_cell_angle_beta   90.00851565
_cell_angle_gamma   89.99087593
_symmetry_Int_Tables_number   1
_chemical_formula_structural   Fe45Co19
_chemical_formula_sum   'Fe90 Co38'
_cell_volume   1487.49321813
_cell_formula_units_Z   2
loop_
 _symmetry_equiv_pos_site_id
 _symmetry_equiv_pos_as_xyz
  1  'x, y, z'
loop_
 _atom_site_type_symbol
 _atom_site_label
 _atom_site_symmetry_multiplicity
 _atom_site_fract_x
 _atom_site_fract_y
 _atom_site_fract_z
 _atom_site_occupancy
  Fe  Fe0  1  0.49970357  0.75009295  -0.00075810  1
  Fe  Fe1  1  0.12430628  0.37445902  0.37355835  1
  Fe  Fe2  1  0.24853965  0.49801553  0.00012514  1
  Fe  Fe3  1  0.12549937  0.12159404  0.12902505  1
  Fe  Fe4  1  0.62469860  0.12500622  0.62802196  1
  Fe  Fe5  1  0.74803578  0.75024606  0.00053079  1
  Fe  Fe6  1  0.75121889  0.74837066  0.74984634  1
  Fe  Fe7  1  -0.00075231  0.74994981  0.24910489  1
  Fe  Fe8  1  0.49630269  0.00142761  0.24951250  1
  Fe  Fe9  1  0.37626970  0.87359137  0.62644920  1
  Fe  Fe10  1  0.50052332  0.49532691  0.75293314  1
  Fe  Fe11  1  0.87489062  0.87461958  0.12279551  1
  Fe  Fe12  1  0.24796989  0.25079227  0.00171171  1
  Fe  Fe13  1  0.00134823  0.75133414  0.50051883  1
  Fe  Fe14  1  0.87661661  0.62366759  0.12415954  1
  Fe  Fe15  1  0.87609050  0.37708514  0.12570517  1
  Fe  Fe16  1  0.25336145  0.24841021  0.25007390  1
  Fe  Fe17  1  0.00008608  0.24650283  0.50090267  1
  Fe  Fe18  1  0.74997674  0.49990595  0.25077983  1
  Fe  Fe19  1  0.12489101  0.62129017  0.12510477  1
  Fe  Fe20  1  0.87489310  0.37378498  0.87445787  1
  Fe  Fe21  1  0.24743834  0.24862663  0.50026388  1
  Fe  Fe22  1  0.37494654  0.37424454  0.62531070  1
  Fe  Fe23  1  0.87403091  0.62702529  0.37549454  1
  Fe  Fe24  1  0.24930771  0.50007174  0.74876866  1
  Fe  Fe25  1  0.75091067  -0.00004502  0.24897025  1
  Fe  Fe26  1  0.37679259  0.12742716  0.87755279  1
  Fe  Fe27  1  0.12667976  0.87775856  0.87134474  1
  Fe  Fe28  1  0.50030881  0.50069928  0.49832825  1
  Fe  Fe29  1  0.00192202  0.25058584  0.00092740  1
  Fe  Fe30  1  0.74908774  0.24959409  0.49983019  1
  Fe  Fe31  1  -0.00047314  0.50106697  0.75056967  1
  Fe  Fe32  1  0.12493125  0.62414662  0.62512003  1
  Fe  Fe33  1  -0.00351227  0.24916585  0.25186610  1
  Fe  Fe34  1  0.00336447  0.74994585  -0.00056534  1
  Fe  Fe35  1  0.12515853  0.12318108  0.87256136  1
  Fe  Fe36  1  0.62559610  0.62415037  0.87376002  1
  Fe  Fe37  1  0.75266558  0.00139907  0.75534427  1
  Fe  Fe38  1  0.12586106  0.88017520  0.62890082  1
  Fe  Fe39  1  0.62405098  0.87412666  0.62941691  1
  Fe  Fe40  1  0.37583671  0.12546894  0.62355553  1
  Fe  Fe41  1  0.12817097  0.87890360  0.12757369  1
  Fe  Fe42  1  0.49653007  0.74599089  0.24861822  1
  Fe  Fe43  1  0.37895820  0.37994192  0.12603026  1
  Fe  Fe44  1  0.62267231  0.62172398  0.12396620  1
  Fe  Fe45  1  0.87565114  0.12372161  0.12335936  1
  Fe  Fe46  1  0.00171904  0.74915240  0.75060180  1
  Fe  Fe47  1  0.74855241  0.00018111  -0.00393840  1
  Fe  Fe48  1  0.37582261  0.87215725  0.37505503  1
  Fe  Fe49  1  0.12338217  0.37759330  0.12813524  1
  Fe  Fe50  1  0.62368108  0.12570903  0.37317691  1
  Fe  Fe51  1  0.62303482  0.62478695  0.62694780  1
  Fe  Fe52  1  0.50244358  0.25542692  -0.00107914  1
  Fe  Fe53  1  0.00002093  -0.00013215  -0.00249832  1
  Fe  Fe54  1  0.75011122  0.50034723  0.50191499  1
  Fe  Fe55  1  0.62609410  0.62813665  0.37558626  1
  Fe  Fe56  1  0.50204878  0.25048515  0.50189829  1
  Fe  Fe57  1  0.12575460  0.87793384  0.37175320  1
  Fe  Fe58  1  0.62350187  0.37376102  0.37247727  1
  Fe  Fe59  1  0.74827776  -0.00024944  0.49966956  1
  Fe  Fe60  1  0.37710684  0.37428302  0.37346034  1
  Fe  Fe61  1  0.87587164  0.62543548  0.87643256  1
  Fe  Fe62  1  0.24992241  0.49871428  0.49978678  1
  Fe  Fe63  1  0.74927507  0.49767808  -0.00082514  1
  Fe  Fe64  1  0.62310456  0.12504784  0.12320412  1
  Fe  Fe65  1  0.25291712  0.74763652  0.24750492  1
  Fe  Fe66  1  0.87550470  0.87551056  0.62662476  1
  Fe  Fe67  1  0.74857672  0.25162672  0.00169206  1
  Fe  Fe68  1  0.37321650  0.62392055  0.87570337  1
  Fe  Fe69  1  0.74777517  0.25032477  0.74926867  1
  Fe  Fe70  1  0.00091323  0.24754966  0.74666320  1
  Fe  Fe71  1  0.87367073  0.87461467  0.37407905  1
  Fe  Fe72  1  0.25086829  0.00170021  0.49740352  1
  Fe  Fe73  1  0.24942885  0.75143136  0.50292635  1
  Fe  Fe74  1  -0.00079409  0.50001487  0.49898322  1
  Fe  Fe75  1  0.12732273  0.62423815  0.37408744  1
  Fe  Fe76  1  0.25015266  0.24867829  0.74804218  1
  Fe  Fe77  1  0.74894512  0.75094896  0.50276760  1
  Fe  Fe78  1  0.62291770  0.87459721  0.12519248  1
  Fe  Fe79  1  0.50165835  -0.00183590  0.49970700  1
  Fe  Fe80  1  0.37569242  0.12263577  0.12099522  1
  Fe  Fe81  1  0.75016514  0.25037232  0.24906894  1
  Fe  Fe82  1  0.49969492  0.00085450  0.75342798  1
  Fe  Fe83  1  0.87440293  0.37537994  0.62429645  1
  Fe  Fe84  1  0.37664057  0.62665824  0.62474321  1
  Fe  Fe85  1  0.62423796  0.87232153  0.37212240  1
  Fe  Fe86  1  0.37434077  0.87496203  0.87660815  1
  Fe  Fe87  1  0.12576494  0.37539793  0.87323202  1
  Fe  Fe88  1  -0.00113158  0.00364028  0.49982027  1
  Fe  Fe89  1  0.24919122  0.74991937  -0.00021323  1
  Co  Co90  1  0.87511922  0.87085087  0.87657645  1
  Co  Co91  1  0.50227425  -0.00224589  -0.00191050  1
  Co  Co92  1  0.87131344  0.12535051  0.62488471  1
  Co  Co93  1  0.24956577  0.74949214  0.74920383  1
  Co  Co94  1  0.37720016  0.12753098  0.37873976  1
  Co  Co95  1  0.12699481  0.12093774  0.62615709  1
  Co  Co96  1  0.49799487  0.24744011  0.24706544  1
  Co  Co97  1  0.50207280  0.75062104  0.50095590  1
  Co  Co98  1  0.12679464  0.62301320  0.87565396  1
  Co  Co99  1  0.75074777  0.50087852  0.74888392  1
  Co  Co100  1  -0.00514439  0.00217963  0.75143802  1
  Co  Co101  1  0.62212572  0.37793545  0.12789597  1
  Co  Co102  1  0.62503010  0.37584272  0.62460509  1
  Co  Co103  1  0.25230131  0.49994094  0.25045291  1
  Co  Co104  1  0.37186137  0.62691705  0.37907489  1
  Co  Co105  1  0.50159997  0.49729679  -0.00570685  1
  Co  Co106  1  0.62294448  0.12811539  0.87583063  1
  Co  Co107  1  0.49937863  0.25256259  0.74981859  1
  Co  Co108  1  0.49941990  0.50491101  0.25433294  1
  Co  Co109  1  0.00015031  0.49806774  -0.00159822  1
  Co  Co110  1  -0.00155066  0.50092123  0.25234678  1
  Co  Co111  1  0.25636733  0.00275729  0.25241311  1
  Co  Co112  1  0.12426330  0.37591865  0.62475250  1
  Co  Co113  1  0.12438529  0.12485222  0.37175499  1
  Co  Co114  1  0.25575703  0.00213392  0.75116965  1
  Co  Co115  1  0.87711522  0.62572159  0.62427029  1
  Co  Co116  1  0.75083393  0.74942835  0.24733314  1
  Co  Co117  1  0.62854868  0.37355757  0.87392777  1
  Co  Co118  1  0.37402412  0.87586078  0.12271739  1
  Co  Co119  1  0.87436113  0.37446417  0.37705933  1
  Co  Co120  1  0.24807689  0.00108179  -0.00159106  1
  Co  Co121  1  0.49868103  0.75020706  0.75241522  1
  Co  Co122  1  0.37063627  0.37389987  0.87490092  1
  Co  Co123  1  0.37578236  0.62106535  0.12006345  1
  Co  Co124  1  0.87275270  0.12431236  0.37543438  1
  Co  Co125  1  0.62601649  0.87312896  0.87399906  1
  Co  Co126  1  -0.00398288  -0.00078857  0.24995840  1
  Co  Co127  1  0.87503126  0.12972266  0.87678616  1
