# generated using pymatgen
data_Fe45Co19
_symmetry_space_group_name_H-M   'P 1'
_cell_length_a   11.41696628
_cell_length_b   11.41544196
_cell_length_c   11.41542666
_cell_angle_alpha   89.99692079
_cell_angle_beta   90.00239833
_cell_angle_gamma   89.99788611
_symmetry_Int_Tables_number   1
_chemical_formula_structural   Fe45Co19
_chemical_formula_sum   'Fe90 Co38'
_cell_volume   1487.76930933
_cell_formula_units_Z   2
loop_
 _symmetry_equiv_pos_site_id
 _symmetry_equiv_pos_as_xyz
  1  'x, y, z'
loop_
 _atom_site_type_symbol
 _atom_site_label
 _atom_site_symmetry_multiplicity
 _atom_site_fract_x
 _atom_site_fract_y
 _atom_site_fract_z
 _atom_site_occupancy
  Fe  Fe0  1  0.75131924  0.25056468  -0.00188838  1
  Fe  Fe1  1  0.12573621  0.37397015  0.12335365  1
  Fe  Fe2  1  0.87636153  0.12565394  0.62591415  1
  Fe  Fe3  1  0.49906270  0.24791709  -0.00035683  1
  Fe  Fe4  1  0.37535800  0.87714719  0.62634614  1
  Fe  Fe5  1  0.12334261  0.37702693  0.87416294  1
  Fe  Fe6  1  0.12327023  0.12211933  0.87302974  1
  Fe  Fe7  1  0.37611334  0.11856190  0.87259228  1
  Fe  Fe8  1  0.24918919  0.50045350  -0.00020282  1
  Fe  Fe9  1  0.74893089  -0.00072999  0.74806291  1
  Fe  Fe10  1  0.25044577  0.75240111  -0.00044205  1
  Fe  Fe11  1  0.00037886  -0.00251112  0.50284271  1
  Fe  Fe12  1  0.37499151  0.37361572  0.62350909  1
  Fe  Fe13  1  0.62334567  0.62498094  0.13178727  1
  Fe  Fe14  1  0.24905539  0.24622492  0.50129960  1
  Fe  Fe15  1  0.87141604  0.62168743  0.37487726  1
  Fe  Fe16  1  0.12630708  0.87651488  0.87482051  1
  Fe  Fe17  1  0.75158730  0.25019286  0.25202931  1
  Fe  Fe18  1  0.74993761  0.74932916  0.75097542  1
  Fe  Fe19  1  0.50146129  0.74879876  0.49852914  1
  Fe  Fe20  1  0.25297776  0.74866133  0.49923408  1
  Fe  Fe21  1  0.87513692  0.62590795  0.12548970  1
  Fe  Fe22  1  0.62576622  0.12448321  0.87457428  1
  Fe  Fe23  1  0.24824701  0.24771163  0.74823067  1
  Fe  Fe24  1  0.37329916  0.87820775  0.37597851  1
  Fe  Fe25  1  0.00058733  -0.00350691  0.74703485  1
  Fe  Fe26  1  -0.00060654  0.49817974  0.25093207  1
  Fe  Fe27  1  0.00108740  0.74919204  -0.00171286  1
  Fe  Fe28  1  0.74894541  0.74822626  -0.00022544  1
  Fe  Fe29  1  0.37772716  0.62448265  0.37175715  1
  Fe  Fe30  1  -0.00079883  0.74821803  0.50110893  1
  Fe  Fe31  1  0.62605969  0.87472053  0.37415238  1
  Fe  Fe32  1  0.87490751  0.87410012  0.87444960  1
  Fe  Fe33  1  0.25127150  0.75205484  0.75129416  1
  Fe  Fe34  1  0.62631851  0.87349768  0.12589725  1
  Fe  Fe35  1  0.00133475  0.74950146  0.74771208  1
  Fe  Fe36  1  0.50021266  0.00052783  0.25020470  1
  Fe  Fe37  1  0.24536875  0.00330902  0.25080538  1
  Fe  Fe38  1  0.24763756  0.24792807  0.25145482  1
  Fe  Fe39  1  0.50150815  0.24646903  0.49732600  1
  Fe  Fe40  1  0.37627353  0.62418064  0.12712104  1
  Fe  Fe41  1  0.87653052  0.12611812  0.37695397  1
  Fe  Fe42  1  0.00023265  0.25394145  0.50437329  1
  Fe  Fe43  1  0.25151793  0.49833687  0.25051719  1
  Fe  Fe44  1  0.49919560  0.24984765  0.75129919  1
  Fe  Fe45  1  0.62473847  0.37440675  0.12466409  1
  Fe  Fe46  1  0.12503246  0.87541249  0.37795550  1
  Fe  Fe47  1  0.37475852  0.87773721  0.12378904  1
  Fe  Fe48  1  0.62284756  0.87619372  0.87476737  1
  Fe  Fe49  1  0.87486529  0.87402121  0.37763309  1
  Fe  Fe50  1  0.74962030  0.00227092  0.50078711  1
  Fe  Fe51  1  0.49878918  0.49891671  0.00125804  1
  Fe  Fe52  1  0.50417184  0.50234697  0.50146092  1
  Fe  Fe53  1  0.62645284  0.87232877  0.62509097  1
  Fe  Fe54  1  -0.00077888  0.75131363  0.25205319  1
  Fe  Fe55  1  0.87807997  0.37899018  0.87295008  1
  Fe  Fe56  1  0.62494102  0.12817662  0.62553543  1
  Fe  Fe57  1  0.62755942  0.37561530  0.37695533  1
  Fe  Fe58  1  0.00178396  0.24903077  0.25142319  1
  Fe  Fe59  1  0.62153531  0.62298711  0.87061736  1
  Fe  Fe60  1  0.87296954  0.62147574  0.62569127  1
  Fe  Fe61  1  0.12648150  0.62444049  0.37550425  1
  Fe  Fe62  1  0.87202558  0.37734620  0.37999688  1
  Fe  Fe63  1  0.12026201  0.87939016  0.12403427  1
  Fe  Fe64  1  0.50106639  0.00297907  0.50049252  1
  Fe  Fe65  1  0.24984711  0.75190839  0.24947594  1
  Fe  Fe66  1  0.12683305  0.37695475  0.37894258  1
  Fe  Fe67  1  0.75269790  0.00016146  0.00126066  1
  Fe  Fe68  1  0.37763641  0.62496426  0.62707112  1
  Fe  Fe69  1  0.12724211  0.62407219  0.62333691  1
  Fe  Fe70  1  0.24998064  0.50014092  0.74980884  1
  Fe  Fe71  1  -0.00043194  0.24801819  -0.00215436  1
  Fe  Fe72  1  0.62756863  0.12619914  0.12622523  1
  Fe  Fe73  1  0.49921553  0.25099734  0.25134982  1
  Fe  Fe74  1  0.74969994  0.50056643  0.00073385  1
  Fe  Fe75  1  0.75541584  -0.00131965  0.24885411  1
  Fe  Fe76  1  0.49915257  0.75160269  -0.00023589  1
  Fe  Fe77  1  0.37435731  0.37496338  0.87631292  1
  Fe  Fe78  1  0.12437195  0.62419666  0.12500038  1
  Fe  Fe79  1  0.37403735  0.37457693  0.37695465  1
  Fe  Fe80  1  0.37632554  0.62565082  0.87425033  1
  Fe  Fe81  1  0.74692575  0.74548792  0.49896803  1
  Fe  Fe82  1  0.87480936  0.12544980  0.87174724  1
  Fe  Fe83  1  0.24908075  0.24635162  -0.00143975  1
  Fe  Fe84  1  0.87733439  0.62152717  0.87381707  1
  Fe  Fe85  1  0.87608609  0.37380034  0.12390059  1
  Fe  Fe86  1  0.37398997  0.12576412  0.12601702  1
  Fe  Fe87  1  0.24874529  0.00423554  0.50402148  1
  Fe  Fe88  1  0.62378082  0.37619836  0.87414691  1
  Fe  Fe89  1  0.75225405  0.25411642  0.74788871  1
  Co  Co90  1  0.12847883  0.37724774  0.62382489  1
  Co  Co91  1  0.62702277  0.12376671  0.37231747  1
  Co  Co92  1  0.00034294  0.25285742  0.74823460  1
  Co  Co93  1  0.87571440  0.12800868  0.12564299  1
  Co  Co94  1  0.00372337  0.50047909  0.74640063  1
  Co  Co95  1  0.24800922  0.00051401  0.74613289  1
  Co  Co96  1  0.00060076  0.49996286  0.00184720  1
  Co  Co97  1  0.50201453  0.00128522  0.00201546  1
  Co  Co98  1  0.87366220  0.37962464  0.62398956  1
  Co  Co99  1  0.75278206  0.75260374  0.25060252  1
  Co  Co100  1  0.49776471  0.75443509  0.75117373  1
  Co  Co101  1  0.00116504  0.50070513  0.49986482  1
  Co  Co102  1  0.87162478  0.87245499  0.62438911  1
  Co  Co103  1  0.12101309  0.12601371  0.62523315  1
  Co  Co104  1  0.12527517  0.62523601  0.87525044  1
  Co  Co105  1  0.87796349  0.87229094  0.12220867  1
  Co  Co106  1  0.75148031  0.49716901  0.24853927  1
  Co  Co107  1  0.74348553  0.50300366  0.50300013  1
  Co  Co108  1  -0.00212493  0.00053631  0.25208604  1
  Co  Co109  1  0.74789905  0.49725312  0.74932068  1
  Co  Co110  1  0.37257611  0.37238302  0.12304113  1
  Co  Co111  1  0.49849239  0.49419843  0.25054710  1
  Co  Co112  1  0.62390137  0.37083677  0.62440107  1
  Co  Co113  1  0.12213609  0.12389446  0.12315130  1
  Co  Co114  1  0.37581280  0.87976863  0.87426462  1
  Co  Co115  1  0.75091073  0.24830032  0.50146357  1
  Co  Co116  1  0.25314336  0.50246406  0.49972229  1
  Co  Co117  1  0.49840065  0.49592532  0.74808375  1
  Co  Co118  1  0.50358072  -0.00022492  0.74705327  1
  Co  Co119  1  0.25001652  0.00053717  0.00023654  1
  Co  Co120  1  -0.00459066  0.00218182  -0.00253061  1
  Co  Co121  1  0.62429309  0.62524819  0.36766543  1
  Co  Co122  1  0.62338107  0.62771941  0.63163866  1
  Co  Co123  1  0.12688773  0.87138218  0.62244319  1
  Co  Co124  1  0.12182686  0.12465384  0.37939315  1
  Co  Co125  1  0.37741966  0.12624225  0.62609238  1
  Co  Co126  1  0.49709250  0.75480812  0.25108632  1
  Co  Co127  1  0.37431422  0.12405125  0.37405326  1
