# generated using pymatgen
data_Fe45Co19
_symmetry_space_group_name_H-M   'P 1'
_cell_length_a   11.41631257
_cell_length_b   11.41553988
_cell_length_c   11.41475856
_cell_angle_alpha   90.00296303
_cell_angle_beta   89.99855227
_cell_angle_gamma   90.00818228
_symmetry_Int_Tables_number   1
_chemical_formula_structural   Fe45Co19
_chemical_formula_sum   'Fe90 Co38'
_cell_volume   1487.60980125
_cell_formula_units_Z   2
loop_
 _symmetry_equiv_pos_site_id
 _symmetry_equiv_pos_as_xyz
  1  'x, y, z'
loop_
 _atom_site_type_symbol
 _atom_site_label
 _atom_site_symmetry_multiplicity
 _atom_site_fract_x
 _atom_site_fract_y
 _atom_site_fract_z
 _atom_site_occupancy
  Fe  Fe0  1  0.75092265  0.75095248  0.24922111  1
  Fe  Fe1  1  0.62481074  0.11948342  0.87700913  1
  Fe  Fe2  1  0.12574843  0.87541194  0.62327380  1
  Fe  Fe3  1  0.37373891  0.12214819  0.37460993  1
  Fe  Fe4  1  0.12447712  0.12338324  0.37443377  1
  Fe  Fe5  1  0.25029424  0.24942131  0.75184433  1
  Fe  Fe6  1  -0.00018241  0.50008212  0.24975967  1
  Fe  Fe7  1  0.74994088  0.50224753  0.75031205  1
  Fe  Fe8  1  0.62719066  0.37352134  0.12539931  1
  Fe  Fe9  1  0.50120217  0.24938988  0.75110000  1
  Fe  Fe10  1  0.62466349  0.87624883  0.87383777  1
  Fe  Fe11  1  0.37642616  0.62634665  0.87418722  1
  Fe  Fe12  1  0.37525773  0.37488880  0.62442134  1
  Fe  Fe13  1  -0.00216241  0.00173348  0.24930288  1
  Fe  Fe14  1  0.50446265  0.24828590  0.00140776  1
  Fe  Fe15  1  0.62538232  0.12309173  0.62469131  1
  Fe  Fe16  1  0.00018076  0.74900106  0.74758185  1
  Fe  Fe17  1  0.87564417  0.62436859  0.37512763  1
  Fe  Fe18  1  0.37461092  0.87779717  0.62062766  1
  Fe  Fe19  1  0.87339586  0.12486770  0.62517642  1
  Fe  Fe20  1  0.62742338  0.87818942  0.12374972  1
  Fe  Fe21  1  0.25094436  0.50102558  0.25293113  1
  Fe  Fe22  1  0.62217828  0.37752172  0.62380224  1
  Fe  Fe23  1  0.50018851  0.24855111  0.49836428  1
  Fe  Fe24  1  0.49869536  0.74958057  0.74716257  1
  Fe  Fe25  1  0.12562451  0.37422414  0.37487800  1
  Fe  Fe26  1  -0.00181516  0.74929762  0.00158613  1
  Fe  Fe27  1  0.62318899  0.87335152  0.37656458  1
  Fe  Fe28  1  0.75017527  0.50027403  0.49931342  1
  Fe  Fe29  1  0.25000066  0.24921846  0.49955975  1
  Fe  Fe30  1  0.87713640  0.87533769  0.37585790  1
  Fe  Fe31  1  0.37350843  0.87247633  0.12967795  1
  Fe  Fe32  1  0.12511561  0.12331843  0.87671129  1
  Fe  Fe33  1  -0.00186048  0.49969944  -0.00323115  1
  Fe  Fe34  1  0.87502202  0.87281430  0.87278547  1
  Fe  Fe35  1  0.24900060  0.75012346  0.00085017  1
  Fe  Fe36  1  0.50290795  0.24910341  0.25017356  1
  Fe  Fe37  1  -0.00398876  0.24940064  0.25138514  1
  Fe  Fe38  1  0.49410345  0.50299334  0.49835412  1
  Fe  Fe39  1  0.87295978  0.12536006  0.87317103  1
  Fe  Fe40  1  0.49975922  0.50084123  0.00099934  1
  Fe  Fe41  1  0.00154281  0.49983180  0.50171046  1
  Fe  Fe42  1  0.50149434  0.00000878  0.24920266  1
  Fe  Fe43  1  0.75140530  0.74889068  0.50205166  1
  Fe  Fe44  1  0.75192627  0.75011494  0.00181292  1
  Fe  Fe45  1  0.37581296  0.87625935  0.87643787  1
  Fe  Fe46  1  0.62975814  0.12567454  0.37296101  1
  Fe  Fe47  1  0.12356733  0.87611022  0.12578920  1
  Fe  Fe48  1  0.62361207  0.62610119  0.87359949  1
  Fe  Fe49  1  0.49690038  0.74833453  0.50107896  1
  Fe  Fe50  1  0.00193180  0.74986211  0.49935472  1
  Fe  Fe51  1  0.24997121  0.49856359  0.75176505  1
  Fe  Fe52  1  0.75119321  0.74889292  0.74543833  1
  Fe  Fe53  1  0.87594125  0.37643149  0.62733334  1
  Fe  Fe54  1  0.87278759  0.37487189  0.12420387  1
  Fe  Fe55  1  -0.00062092  -0.00087852  0.74943225  1
  Fe  Fe56  1  -0.00352533  0.00004870  0.00046070  1
  Fe  Fe57  1  0.25036587  0.00065232  0.00392411  1
  Fe  Fe58  1  0.50131123  0.75061755  0.00229612  1
  Fe  Fe59  1  0.75142423  0.50013284  -0.00296931  1
  Fe  Fe60  1  0.24985414  -0.00045334  0.75031386  1
  Fe  Fe61  1  0.00124962  0.74809204  0.25021641  1
  Fe  Fe62  1  0.62644374  0.62409891  0.12595525  1
  Fe  Fe63  1  0.75070638  -0.00143965  0.50008653  1
  Fe  Fe64  1  0.24988305  0.75271930  0.75074590  1
  Fe  Fe65  1  0.37517360  0.37277534  0.12623664  1
  Fe  Fe66  1  0.12439031  0.62622590  0.87518518  1
  Fe  Fe67  1  -0.00022490  0.00162108  0.50123995  1
  Fe  Fe68  1  -0.00182439  0.24912789  0.49869993  1
  Fe  Fe69  1  0.62407339  0.87713323  0.62498034  1
  Fe  Fe70  1  0.37691084  0.12273934  0.87741892  1
  Fe  Fe71  1  0.12565931  0.12500858  0.62561880  1
  Fe  Fe72  1  0.24897670  0.24683378  0.24826962  1
  Fe  Fe73  1  0.74704330  0.25081973  0.75200205  1
  Fe  Fe74  1  0.75206392  0.25329099  0.49694142  1
  Fe  Fe75  1  0.00199688  0.25213912  0.75162282  1
  Fe  Fe76  1  0.86745637  0.12506559  0.12759376  1
  Fe  Fe77  1  0.49897268  0.49967437  0.25147096  1
  Fe  Fe78  1  0.37506376  0.62860792  0.12932300  1
  Fe  Fe79  1  0.62356268  0.62560070  0.37502156  1
  Fe  Fe80  1  0.12491674  0.62433923  0.12527517  1
  Fe  Fe81  1  -0.00216114  0.25048641  -0.00083104  1
  Fe  Fe82  1  0.75026250  0.49771659  0.25294597  1
  Fe  Fe83  1  0.12961793  0.62500553  0.62206053  1
  Fe  Fe84  1  0.37709704  0.37415288  0.87644543  1
  Fe  Fe85  1  0.25150799  0.50057465  0.00032841  1
  Fe  Fe86  1  0.37577116  0.12218184  0.62351380  1
  Fe  Fe87  1  0.12480710  0.37393608  0.12436671  1
  Fe  Fe88  1  0.24905418  0.24816349  0.00157380  1
  Fe  Fe89  1  0.12700223  0.37530530  0.62461239  1
  Co  Co90  1  0.87412042  0.62325757  0.12605264  1
  Co  Co91  1  0.25404971  0.49986700  0.49551633  1
  Co  Co92  1  0.63092541  0.12407474  0.12728725  1
  Co  Co93  1  0.24972383  0.00210476  0.24732981  1
  Co  Co94  1  0.36944937  0.62614316  0.62585000  1
  Co  Co95  1  0.87247545  0.12231923  0.37550539  1
  Co  Co96  1  0.75075808  -0.00107137  0.74890469  1
  Co  Co97  1  0.24361214  0.75000113  0.25465725  1
  Co  Co98  1  0.37484023  0.37080643  0.37355988  1
  Co  Co99  1  0.62366008  0.62344412  0.62376763  1
  Co  Co100  1  0.49800190  0.50136631  0.74910086  1
  Co  Co101  1  0.87655277  0.87475546  0.12659992  1
  Co  Co102  1  0.62350331  0.37785802  0.87466641  1
  Co  Co103  1  0.37650422  0.87561614  0.37245313  1
  Co  Co104  1  0.49958884  -0.00189872  0.00360735  1
  Co  Co105  1  0.50246537  0.00155940  0.49762176  1
  Co  Co106  1  0.87669408  0.62344057  0.62368142  1
  Co  Co107  1  0.87834584  0.37819777  0.37676358  1
  Co  Co108  1  0.12355926  0.87577972  0.87721786  1
  Co  Co109  1  0.87416504  0.37465983  0.87197675  1
  Co  Co110  1  0.75287520  -0.00213515  -0.00156042  1
  Co  Co111  1  0.12609656  0.37410195  0.87744908  1
  Co  Co112  1  0.37681972  0.63134646  0.37053588  1
  Co  Co113  1  0.74972639  -0.00549298  0.25248351  1
  Co  Co114  1  0.75195894  0.25552062  0.25456591  1
  Co  Co115  1  0.87601657  0.87615079  0.62360069  1
  Co  Co116  1  0.62132895  0.37629644  0.37769180  1
  Co  Co117  1  0.74818164  0.24979169  -0.00279032  1
  Co  Co118  1  0.49934283  -0.00034158  0.74906767  1
  Co  Co119  1  0.12296997  0.88022640  0.37295741  1
  Co  Co120  1  0.24944744  0.75218015  0.49380329  1
  Co  Co121  1  0.87524911  0.62743918  0.87338986  1
  Co  Co122  1  0.24803351  -0.00059177  0.49912425  1
  Co  Co123  1  0.50488978  0.75170809  0.24767613  1
  Co  Co124  1  0.00305367  0.50064478  0.75064369  1
  Co  Co125  1  0.37836366  0.12650007  0.12528935  1
  Co  Co126  1  0.12099868  0.12522935  0.12406901  1
  Co  Co127  1  0.12327175  0.62170666  0.37679425  1
