# generated using pymatgen
data_Fe45Co19
_symmetry_space_group_name_H-M   'P 1'
_cell_length_a   11.41471315
_cell_length_b   11.41546785
_cell_length_c   11.41498776
_cell_angle_alpha   90.00406245
_cell_angle_beta   89.99955767
_cell_angle_gamma   90.00493314
_symmetry_Int_Tables_number   1
_chemical_formula_structural   Fe45Co19
_chemical_formula_sum   'Fe90 Co38'
_cell_volume   1487.42187856
_cell_formula_units_Z   2
loop_
 _symmetry_equiv_pos_site_id
 _symmetry_equiv_pos_as_xyz
  1  'x, y, z'
loop_
 _atom_site_type_symbol
 _atom_site_label
 _atom_site_symmetry_multiplicity
 _atom_site_fract_x
 _atom_site_fract_y
 _atom_site_fract_z
 _atom_site_occupancy
  Fe  Fe0  1  0.49754769  0.75175098  0.74608132  1
  Fe  Fe1  1  0.37217196  0.12483736  0.12734095  1
  Fe  Fe2  1  0.49745958  -0.00119046  0.74945603  1
  Fe  Fe3  1  0.37372345  0.37492007  0.87591208  1
  Fe  Fe4  1  0.62696178  0.62470560  0.62612592  1
  Fe  Fe5  1  0.25064331  0.25069759  0.74722066  1
  Fe  Fe6  1  0.87567048  0.87596137  0.62313569  1
  Fe  Fe7  1  0.75004042  0.00341750  -0.00186487  1
  Fe  Fe8  1  0.74900030  0.74898258  0.49829261  1
  Fe  Fe9  1  0.62557183  0.12551754  0.12730839  1
  Fe  Fe10  1  0.74922960  0.49987981  -0.00167582  1
  Fe  Fe11  1  0.49994413  0.24565415  0.50039558  1
  Fe  Fe12  1  0.37099563  0.62668848  0.62395795  1
  Fe  Fe13  1  0.87896314  0.62587805  0.37476132  1
  Fe  Fe14  1  0.88052473  0.87480702  0.37574899  1
  Fe  Fe15  1  0.87560790  0.37449005  0.12218997  1
  Fe  Fe16  1  0.87689743  0.62425197  0.87389072  1
  Fe  Fe17  1  0.87442155  0.37373077  0.62431142  1
  Fe  Fe18  1  0.49686399  0.25232715  0.25175894  1
  Fe  Fe19  1  0.75364361  0.75135057  0.25013312  1
  Fe  Fe20  1  0.49784847  0.74856155  0.00325256  1
  Fe  Fe21  1  0.62256833  0.87341853  0.37634548  1
  Fe  Fe22  1  0.00103522  0.24934759  0.24539542  1
  Fe  Fe23  1  0.12848773  0.37647893  0.12329491  1
  Fe  Fe24  1  0.62278033  0.37499477  0.12464262  1
  Fe  Fe25  1  0.37326167  0.37401986  0.62105554  1
  Fe  Fe26  1  0.24641988  0.50294602  0.49920948  1
  Fe  Fe27  1  0.37347298  0.62739649  0.37725122  1
  Fe  Fe28  1  0.75167803  0.49720216  0.25330212  1
  Fe  Fe29  1  0.25215249  0.25441875  0.25208674  1
  Fe  Fe30  1  0.25023836  0.00036342  -0.00143770  1
  Fe  Fe31  1  0.24933378  0.75280208  0.74905005  1
  Fe  Fe32  1  0.62271227  0.37490807  0.37724116  1
  Fe  Fe33  1  0.87806899  0.12764695  0.87024322  1
  Fe  Fe34  1  0.75112237  0.74811865  0.00194003  1
  Fe  Fe35  1  0.25051266  -0.00228851  0.25519888  1
  Fe  Fe36  1  0.36827402  0.87813702  0.61720542  1
  Fe  Fe37  1  0.12492766  0.37388669  0.87395217  1
  Fe  Fe38  1  0.75058147  0.24926439  0.49907314  1
  Fe  Fe39  1  0.87929740  0.37256912  0.87539050  1
  Fe  Fe40  1  0.50004393  0.24792576  -0.00025089  1
  Fe  Fe41  1  -0.00065450  0.00209305  0.24652894  1
  Fe  Fe42  1  0.00323996  0.24628929  0.50591171  1
  Fe  Fe43  1  0.12325974  0.12514873  0.86979929  1
  Fe  Fe44  1  0.24890389  0.75032978  -0.00025128  1
  Fe  Fe45  1  0.36916629  0.62326164  0.12561471  1
  Fe  Fe46  1  0.37578163  0.12615739  0.87318862  1
  Fe  Fe47  1  0.49619500  0.50205322  -0.00096869  1
  Fe  Fe48  1  0.49814400  0.00100425  0.00142953  1
  Fe  Fe49  1  0.12264536  0.87730763  0.87441340  1
  Fe  Fe50  1  0.87617543  0.87571393  0.87795797  1
  Fe  Fe51  1  0.49580862  0.49985609  0.74947925  1
  Fe  Fe52  1  0.00480704  0.00343367  0.50292996  1
  Fe  Fe53  1  0.75077039  0.25197493  0.25244227  1
  Fe  Fe54  1  0.00348207  0.50183074  0.00158937  1
  Fe  Fe55  1  0.87662579  0.62557622  0.62556244  1
  Fe  Fe56  1  0.24842171  0.24894323  0.00027635  1
  Fe  Fe57  1  0.49771113  -0.00192780  0.25122451  1
  Fe  Fe58  1  0.00260713  0.49705892  0.74738920  1
  Fe  Fe59  1  0.87743041  0.12678420  0.37547878  1
  Fe  Fe60  1  0.00161256  0.75351995  0.74817816  1
  Fe  Fe61  1  0.75016516  0.00192510  0.49926076  1
  Fe  Fe62  1  0.24768168  0.24227966  0.50046844  1
  Fe  Fe63  1  0.12759153  0.62359418  0.87175062  1
  Fe  Fe64  1  0.00067225  0.74666319  0.00470001  1
  Fe  Fe65  1  0.62596510  0.87606154  0.12426979  1
  Fe  Fe66  1  0.62253551  0.37345421  0.87275659  1
  Fe  Fe67  1  0.49879789  0.00311097  0.49790853  1
  Fe  Fe68  1  0.50110128  0.50358204  0.49935936  1
  Fe  Fe69  1  0.00769753  0.75023262  0.50183650  1
  Fe  Fe70  1  0.49780847  0.75127084  0.25041438  1
  Fe  Fe71  1  0.62384752  0.87490806  0.87590875  1
  Fe  Fe72  1  0.62623049  0.12555090  0.63027828  1
  Fe  Fe73  1  0.75102437  0.50039810  0.49724563  1
  Fe  Fe74  1  0.62280677  0.62696809  0.87252560  1
  Fe  Fe75  1  0.49487566  0.49712472  0.25264261  1
  Fe  Fe76  1  0.00067514  0.00534310  0.00330780  1
  Fe  Fe77  1  0.37660718  0.87289534  0.87699022  1
  Fe  Fe78  1  0.00156048  0.50015516  0.50211227  1
  Fe  Fe79  1  0.75208601  -0.00095118  0.25182544  1
  Fe  Fe80  1  0.62448812  0.37462172  0.62560041  1
  Fe  Fe81  1  0.12477942  0.87591957  0.12551384  1
  Fe  Fe82  1  0.74911830  0.24893028  -0.00272863  1
  Fe  Fe83  1  0.12393125  0.37385930  0.37766885  1
  Fe  Fe84  1  0.24683798  0.75239521  0.25498876  1
  Fe  Fe85  1  0.00107306  0.50063834  0.24810555  1
  Fe  Fe86  1  0.75094993  0.49848840  0.75071496  1
  Fe  Fe87  1  0.75135426  0.75272012  0.74980334  1
  Fe  Fe88  1  0.62524236  0.87623050  0.62375887  1
  Fe  Fe89  1  0.62540501  0.62239642  0.12832163  1
  Co  Co90  1  0.12905939  0.37515003  0.62236871  1
  Co  Co91  1  0.24636859  0.00536864  0.49238201  1
  Co  Co92  1  0.12303082  0.62209870  0.37207088  1
  Co  Co93  1  0.50166197  0.74815323  0.50201575  1
  Co  Co94  1  0.88060496  0.37263193  0.37635114  1
  Co  Co95  1  0.12551890  0.62450588  0.62908768  1
  Co  Co96  1  0.13155992  0.12401279  0.12755859  1
  Co  Co97  1  0.37554092  0.87305354  0.38164410  1
  Co  Co98  1  0.87297363  0.62185079  0.12542412  1
  Co  Co99  1  0.62483863  0.62554195  0.37221065  1
  Co  Co100  1  0.24184451  0.74922590  0.49776966  1
  Co  Co101  1  0.12860649  0.11865152  0.63214258  1
  Co  Co102  1  0.13074205  0.88137970  0.62578145  1
  Co  Co103  1  0.37270998  0.62718697  0.87377151  1
  Co  Co104  1  0.37272763  0.12195966  0.62592954  1
  Co  Co105  1  0.00303984  0.24683750  0.00320357  1
  Co  Co106  1  0.00242456  0.25183362  0.74387899  1
  Co  Co107  1  0.24966467  0.49970512  -0.00237503  1
  Co  Co108  1  0.37444691  0.37410134  0.12057942  1
  Co  Co109  1  0.62251860  0.12401286  0.87049851  1
  Co  Co110  1  0.37414712  0.37340196  0.38372484  1
  Co  Co111  1  -0.00306319  -0.00291183  0.74779618  1
  Co  Co112  1  0.25185482  0.49761308  0.74911403  1
  Co  Co113  1  0.37133053  0.87534109  0.12532915  1
  Co  Co114  1  0.13117498  0.62401198  0.12726361  1
  Co  Co115  1  0.49630766  0.25167695  0.74839385  1
  Co  Co116  1  0.37518158  0.12566723  0.37256261  1
  Co  Co117  1  0.75178219  -0.00238657  0.75073566  1
  Co  Co118  1  0.12046413  0.87674762  0.37410640  1
  Co  Co119  1  0.75090052  0.25185131  0.75103381  1
  Co  Co120  1  0.12197894  0.12762165  0.37044345  1
  Co  Co121  1  0.25389644  -0.00226382  0.75576598  1
  Co  Co122  1  0.62518417  0.12526720  0.37325562  1
  Co  Co123  1  0.87124898  0.12728853  0.12593131  1
  Co  Co124  1  0.87591596  0.87706113  0.12255435  1
  Co  Co125  1  0.00019481  0.74901097  0.24557588  1
  Co  Co126  1  0.25256119  0.49478190  0.25400486  1
  Co  Co127  1  0.87331221  0.12500597  0.62670794  1
