# generated using pymatgen
data_Fe45Co19
_symmetry_space_group_name_H-M   'P 1'
_cell_length_a   11.41577484
_cell_length_b   11.41492244
_cell_length_c   11.41462462
_cell_angle_alpha   89.99655895
_cell_angle_beta   90.01284064
_cell_angle_gamma   89.99682339
_symmetry_Int_Tables_number   1
_chemical_formula_structural   Fe45Co19
_chemical_formula_sum   'Fe90 Co38'
_cell_volume   1487.44179786
_cell_formula_units_Z   2
loop_
 _symmetry_equiv_pos_site_id
 _symmetry_equiv_pos_as_xyz
  1  'x, y, z'
loop_
 _atom_site_type_symbol
 _atom_site_label
 _atom_site_symmetry_multiplicity
 _atom_site_fract_x
 _atom_site_fract_y
 _atom_site_fract_z
 _atom_site_occupancy
  Fe  Fe0  1  0.62361215  0.62613998  0.62563249  1
  Fe  Fe1  1  0.75124020  0.24745241  0.49709765  1
  Fe  Fe2  1  0.00130259  0.00031449  0.50231500  1
  Fe  Fe3  1  0.74895738  0.75033083  0.49831878  1
  Fe  Fe4  1  0.00249154  0.75151769  0.75176917  1
  Fe  Fe5  1  0.12920868  0.37026064  0.12991632  1
  Fe  Fe6  1  0.25004623  0.00062950  0.75137895  1
  Fe  Fe7  1  0.12632998  0.62499165  0.62441628  1
  Fe  Fe8  1  0.38016916  0.12521847  0.37243836  1
  Fe  Fe9  1  0.37472414  0.87274979  0.62692660  1
  Fe  Fe10  1  0.87738944  0.87764683  0.87530947  1
  Fe  Fe11  1  0.87641763  0.62331382  0.37436477  1
  Fe  Fe12  1  0.37706850  0.12337133  0.87478225  1
  Fe  Fe13  1  0.87419017  0.12576557  0.62701396  1
  Fe  Fe14  1  0.50006895  -0.00076591  0.00367045  1
  Fe  Fe15  1  0.49963248  0.25050268  0.74904917  1
  Fe  Fe16  1  0.00204358  0.75095230  0.24996339  1
  Fe  Fe17  1  0.62387994  0.12612628  0.87526808  1
  Fe  Fe18  1  0.25208686  0.75052089  0.49557856  1
  Fe  Fe19  1  0.36957532  0.37376094  0.12907124  1
  Fe  Fe20  1  0.87760704  0.12585553  0.87205478  1
  Fe  Fe21  1  0.49923715  0.75146808  0.49973402  1
  Fe  Fe22  1  0.62581101  0.12624278  0.62477459  1
  Fe  Fe23  1  0.37143102  0.62383230  0.12482829  1
  Fe  Fe24  1  0.25186345  0.50064928  0.49628048  1
  Fe  Fe25  1  0.74705361  0.49810643  0.24970668  1
  Fe  Fe26  1  0.00275335  -0.00081282  0.24593376  1
  Fe  Fe27  1  0.62429525  0.12848184  0.12619882  1
  Fe  Fe28  1  0.37080309  0.87624033  0.12480414  1
  Fe  Fe29  1  0.62526295  0.37536036  0.87631851  1
  Fe  Fe30  1  0.87572477  0.37577960  0.37476220  1
  Fe  Fe31  1  0.75033781  0.74825538  0.00004274  1
  Fe  Fe32  1  0.37452294  0.12593179  0.62605692  1
  Fe  Fe33  1  0.62266700  0.87428833  0.87570032  1
  Fe  Fe34  1  0.87553898  0.62563652  0.62518645  1
  Fe  Fe35  1  0.74922784  0.75008903  0.25045825  1
  Fe  Fe36  1  0.49628135  0.75131314  -0.00003920  1
  Fe  Fe37  1  0.12567781  0.12689597  0.62659193  1
  Fe  Fe38  1  0.12832292  0.87306420  0.62620520  1
  Fe  Fe39  1  0.62145681  0.12788367  0.37311617  1
  Fe  Fe40  1  0.37219304  0.37670863  0.87315709  1
  Fe  Fe41  1  0.49662250  0.49866520  0.49893872  1
  Fe  Fe42  1  0.00108231  0.25007227  -0.00038454  1
  Fe  Fe43  1  0.12753221  0.37601519  0.87210825  1
  Fe  Fe44  1  0.00111897  0.49850092  0.74857328  1
  Fe  Fe45  1  0.75099917  0.50091494  0.50016213  1
  Fe  Fe46  1  0.12205292  0.12083045  0.87567353  1
  Fe  Fe47  1  0.87438701  0.87396051  0.12537862  1
  Fe  Fe48  1  0.49968265  0.75282531  0.24842326  1
  Fe  Fe49  1  0.62511385  0.37406195  0.62331172  1
  Fe  Fe50  1  -0.00033429  0.75012945  0.49986547  1
  Fe  Fe51  1  0.62224102  0.62424015  0.87575350  1
  Fe  Fe52  1  0.87557188  0.62370339  0.12470088  1
  Fe  Fe53  1  0.00318312  0.49852585  0.24949694  1
  Fe  Fe54  1  0.87574972  0.12776686  0.12734023  1
  Fe  Fe55  1  0.12811507  0.37434683  0.62461517  1
  Fe  Fe56  1  0.87298618  0.87603718  0.62265021  1
  Fe  Fe57  1  0.75121437  0.49911723  0.75170327  1
  Fe  Fe58  1  0.87662040  0.87768740  0.37563179  1
  Fe  Fe59  1  0.25292549  0.74595682  0.75847853  1
  Fe  Fe60  1  0.25172361  0.24840968  0.49654475  1
  Fe  Fe61  1  0.74915303  -0.00091406  0.74919896  1
  Fe  Fe62  1  0.62342956  0.87721676  0.37461731  1
  Fe  Fe63  1  0.75045382  0.24989482  -0.00188903  1
  Fe  Fe64  1  0.24776050  0.00135889  0.25043285  1
  Fe  Fe65  1  0.49884283  0.49687728  0.00376904  1
  Fe  Fe66  1  0.12320173  0.62364041  0.37656635  1
  Fe  Fe67  1  0.87165413  0.37539551  0.12354201  1
  Fe  Fe68  1  0.00251185  0.49731175  0.00143418  1
  Fe  Fe69  1  0.49626472  0.50192804  0.74754854  1
  Fe  Fe70  1  0.25012010  0.24763929  -0.00214184  1
  Fe  Fe71  1  0.12079126  0.12699315  0.37289223  1
  Fe  Fe72  1  0.25033611  0.00005496  0.49777969  1
  Fe  Fe73  1  0.87811468  0.62286821  0.87574324  1
  Fe  Fe74  1  0.74882156  0.75098019  0.75058524  1
  Fe  Fe75  1  0.74843237  0.00094485  0.25026810  1
  Fe  Fe76  1  0.75061289  0.00073197  0.00105622  1
  Fe  Fe77  1  0.37512873  0.12611096  0.12702392  1
  Fe  Fe78  1  0.50125586  -0.00096819  0.74815983  1
  Fe  Fe79  1  0.62272872  0.62358976  0.37475014  1
  Fe  Fe80  1  0.62455326  0.62446508  0.12410372  1
  Fe  Fe81  1  0.49967705  -0.00083255  0.50193701  1
  Fe  Fe82  1  -0.00015407  0.25094769  0.49927179  1
  Fe  Fe83  1  0.00304438  0.75261865  -0.00121686  1
  Fe  Fe84  1  0.50083415  0.49495388  0.25022838  1
  Fe  Fe85  1  0.12825632  0.62701369  0.12207526  1
  Fe  Fe86  1  0.37173577  0.37312281  0.62582804  1
  Fe  Fe87  1  0.24893672  0.75042471  0.25274571  1
  Fe  Fe88  1  0.49776577  0.25188264  0.00158618  1
  Fe  Fe89  1  0.87495363  0.37289469  0.62697728  1
  Co  Co90  1  0.37791673  0.62538174  0.37248110  1
  Co  Co91  1  0.75008062  0.50304929  -0.00195169  1
  Co  Co92  1  0.62927798  0.37346374  0.12137535  1
  Co  Co93  1  0.37370996  0.62776511  0.62191252  1
  Co  Co94  1  0.74843426  0.00283741  0.49807740  1
  Co  Co95  1  -0.00004791  0.49907656  0.50150301  1
  Co  Co96  1  0.25135820  0.50439019  0.74856133  1
  Co  Co97  1  0.24983237  0.24645988  0.75257832  1
  Co  Co98  1  0.12541598  0.12796067  0.12509989  1
  Co  Co99  1  0.37388708  0.37302229  0.37277711  1
  Co  Co100  1  0.62450152  0.37251782  0.37966594  1
  Co  Co101  1  0.87863075  0.12318645  0.37250130  1
  Co  Co102  1  0.00260952  0.25082490  0.75003211  1
  Co  Co103  1  0.12423116  0.62115058  0.87755489  1
  Co  Co104  1  0.87485355  0.37420597  0.87604020  1
  Co  Co105  1  0.37540264  0.61795479  0.88122926  1
  Co  Co106  1  0.24788167  0.49673189  0.00257627  1
  Co  Co107  1  0.12856960  0.87393912  0.12204490  1
  Co  Co108  1  0.12341069  0.87626657  0.37579454  1
  Co  Co109  1  0.37586325  0.87718219  0.37365904  1
  Co  Co110  1  0.62401471  0.87354001  0.62508547  1
  Co  Co111  1  0.25124991  0.75121179  -0.00628697  1
  Co  Co112  1  0.12579624  0.37376440  0.37481114  1
  Co  Co113  1  0.49709092  0.24994128  0.50244677  1
  Co  Co114  1  0.12414948  0.88027073  0.87602453  1
  Co  Co115  1  -0.00225094  0.25299531  0.24929369  1
  Co  Co116  1  -0.00007309  -0.00093269  0.74526524  1
  Co  Co117  1  0.62718098  0.87423248  0.12290779  1
  Co  Co118  1  -0.00177147  0.00072557  0.00475180  1
  Co  Co119  1  0.24828879  0.50263474  0.25318125  1
  Co  Co120  1  0.25061970  0.00259173  0.00089201  1
  Co  Co121  1  0.25073727  0.24521324  0.25403887  1
  Co  Co122  1  0.49582162  0.74723226  0.75246437  1
  Co  Co123  1  0.50123807  -0.00178446  0.24619872  1
  Co  Co124  1  0.50163488  0.25551470  0.24755657  1
  Co  Co125  1  0.74955667  0.25167371  0.25199040  1
  Co  Co126  1  0.74783244  0.25105561  0.75096923  1
  Co  Co127  1  0.37675451  0.87976847  0.87490413  1
