# generated using pymatgen
data_Fe45Co19
_symmetry_space_group_name_H-M   'P 1'
_cell_length_a   11.41454826
_cell_length_b   11.41379869
_cell_length_c   11.41405172
_cell_angle_alpha   90.01336215
_cell_angle_beta   90.00321222
_cell_angle_gamma   89.99530642
_symmetry_Int_Tables_number   1
_chemical_formula_structural   Fe45Co19
_chemical_formula_sum   'Fe90 Co38'
_cell_volume   1487.06091521
_cell_formula_units_Z   2
loop_
 _symmetry_equiv_pos_site_id
 _symmetry_equiv_pos_as_xyz
  1  'x, y, z'
loop_
 _atom_site_type_symbol
 _atom_site_label
 _atom_site_symmetry_multiplicity
 _atom_site_fract_x
 _atom_site_fract_y
 _atom_site_fract_z
 _atom_site_occupancy
  Fe  Fe0  1  0.37409633  0.62712469  0.12361418  1
  Fe  Fe1  1  0.24755158  0.24887582  -0.00027131  1
  Fe  Fe2  1  0.49822573  0.49940265  0.50143276  1
  Fe  Fe3  1  0.50433943  0.25264451  -0.00440588  1
  Fe  Fe4  1  0.37442130  0.37507644  0.37598693  1
  Fe  Fe5  1  0.12367726  0.62579728  0.12208459  1
  Fe  Fe6  1  0.49828853  -0.00023754  0.25059405  1
  Fe  Fe7  1  0.00047851  0.24838192  0.24970483  1
  Fe  Fe8  1  0.87582342  0.87518224  0.87348463  1
  Fe  Fe9  1  0.12465037  0.12302357  0.87608567  1
  Fe  Fe10  1  0.49691350  -0.00085709  0.49935784  1
  Fe  Fe11  1  0.12583051  0.37639751  0.12330968  1
  Fe  Fe12  1  0.87340260  0.37063907  0.87471457  1
  Fe  Fe13  1  0.00391016  0.75074535  0.75054869  1
  Fe  Fe14  1  -0.00200671  0.00073651  0.74876394  1
  Fe  Fe15  1  0.25049391  -0.00003353  0.25047583  1
  Fe  Fe16  1  0.24814058  0.25034007  0.50119289  1
  Fe  Fe17  1  0.87780184  0.62732436  0.87417807  1
  Fe  Fe18  1  0.37210610  0.87225347  0.12467177  1
  Fe  Fe19  1  0.62478105  0.12377953  0.37644747  1
  Fe  Fe20  1  0.62475579  0.62275486  0.12487323  1
  Fe  Fe21  1  0.62671271  0.37794427  0.12371722  1
  Fe  Fe22  1  0.87612135  0.87497172  0.12631729  1
  Fe  Fe23  1  0.24950497  0.00088450  0.74899744  1
  Fe  Fe24  1  0.62524611  0.87744943  0.62387563  1
  Fe  Fe25  1  0.75090872  -0.00049983  0.25283672  1
  Fe  Fe26  1  0.50119127  0.25057545  0.25093312  1
  Fe  Fe27  1  0.75063876  0.24791039  0.50092204  1
  Fe  Fe28  1  -0.00302334  0.50083014  0.50156269  1
  Fe  Fe29  1  0.87617995  0.87263350  0.62451763  1
  Fe  Fe30  1  0.87537718  0.62757176  0.37409205  1
  Fe  Fe31  1  0.24588917  0.74930005  -0.00652296  1
  Fe  Fe32  1  -0.00251700  0.00088098  0.00122155  1
  Fe  Fe33  1  0.75137036  0.74843308  0.00071901  1
  Fe  Fe34  1  0.62455732  0.62435195  0.37551092  1
  Fe  Fe35  1  0.12490198  0.62167605  0.62846447  1
  Fe  Fe36  1  -0.00041264  0.50057871  0.25004713  1
  Fe  Fe37  1  0.74850691  0.25041620  0.24937000  1
  Fe  Fe38  1  0.25072320  0.50159678  0.24848271  1
  Fe  Fe39  1  0.37363312  0.37451981  0.12306125  1
  Fe  Fe40  1  0.37445740  0.12897957  0.87220709  1
  Fe  Fe41  1  0.12514903  0.12186123  0.12490243  1
  Fe  Fe42  1  0.50038787  0.75029985  0.25082575  1
  Fe  Fe43  1  0.37277634  0.87311190  0.37457767  1
  Fe  Fe44  1  0.37355804  0.87249183  0.87034044  1
  Fe  Fe45  1  0.87304489  0.37455681  0.12550174  1
  Fe  Fe46  1  0.62476530  0.62319566  0.87372512  1
  Fe  Fe47  1  0.74458694  0.24318529  0.75198433  1
  Fe  Fe48  1  0.75163389  0.50032635  0.50075524  1
  Fe  Fe49  1  0.49552158  0.49529984  0.75239834  1
  Fe  Fe50  1  0.50075194  0.25022526  0.49929875  1
  Fe  Fe51  1  0.49876291  0.75047787  0.50140900  1
  Fe  Fe52  1  0.87499356  0.37384508  0.37480413  1
  Fe  Fe53  1  0.49547160  0.49923974  -0.00479129  1
  Fe  Fe54  1  0.75347371  0.50204807  0.00069288  1
  Fe  Fe55  1  0.75003160  0.74899841  0.50153150  1
  Fe  Fe56  1  0.75410444  0.00284384  -0.00135347  1
  Fe  Fe57  1  -0.00074798  0.49685266  0.74977592  1
  Fe  Fe58  1  0.75369707  0.00093684  0.50064235  1
  Fe  Fe59  1  0.12700316  0.87672074  0.12243624  1
  Fe  Fe60  1  0.12666372  0.62588104  0.37644975  1
  Fe  Fe61  1  0.62459490  0.37439646  0.62599758  1
  Fe  Fe62  1  0.37693750  0.12962329  0.62807246  1
  Fe  Fe63  1  0.25335546  0.49987474  0.50359437  1
  Fe  Fe64  1  -0.00151694  0.24834415  0.00134534  1
  Fe  Fe65  1  0.75311577  0.50106081  0.74837350  1
  Fe  Fe66  1  0.49939718  0.49971824  0.25188459  1
  Fe  Fe67  1  0.62746415  0.87797697  0.87540151  1
  Fe  Fe68  1  0.37529119  0.12674776  0.12430453  1
  Fe  Fe69  1  0.12490138  0.37677005  0.37691034  1
  Fe  Fe70  1  -0.00192042  0.49998580  0.00001622  1
  Fe  Fe71  1  0.62514320  0.87654549  0.12420015  1
  Fe  Fe72  1  0.87598198  0.37063070  0.62567489  1
  Fe  Fe73  1  0.74845490  0.75056907  0.74934243  1
  Fe  Fe74  1  -0.00364401  0.00017921  0.49592708  1
  Fe  Fe75  1  0.12216576  0.12479880  0.62238007  1
  Fe  Fe76  1  0.00343820  0.75356293  0.25115746  1
  Fe  Fe77  1  0.25053741  0.74952768  0.50299593  1
  Fe  Fe78  1  0.62385640  0.62361308  0.62707424  1
  Fe  Fe79  1  0.50154622  0.00013484  0.74922637  1
  Fe  Fe80  1  0.62505278  0.12344216  0.12207249  1
  Fe  Fe81  1  0.50126043  0.74993805  -0.00300025  1
  Fe  Fe82  1  0.12441538  0.87687081  0.62244112  1
  Fe  Fe83  1  0.25318774  0.00108418  0.50100424  1
  Fe  Fe84  1  0.12444640  0.12419813  0.37500730  1
  Fe  Fe85  1  0.74865412  0.74986558  0.24919020  1
  Fe  Fe86  1  0.49560581  -0.00179029  -0.00029350  1
  Fe  Fe87  1  0.00476790  0.25115550  0.74967509  1
  Fe  Fe88  1  0.24924938  0.25052296  0.25088254  1
  Fe  Fe89  1  0.37466367  0.62850027  0.63233475  1
  Co  Co90  1  0.62474399  0.37503573  0.37679424  1
  Co  Co91  1  0.36928967  0.36891404  0.87522941  1
  Co  Co92  1  0.87769411  0.12792799  0.62617949  1
  Co  Co93  1  0.63011439  0.38006879  0.87444886  1
  Co  Co94  1  0.50621582  0.25151516  0.75438502  1
  Co  Co95  1  0.75069335  0.50052646  0.25177054  1
  Co  Co96  1  0.37471836  0.62553220  0.37524467  1
  Co  Co97  1  0.87528964  0.12642816  0.37300523  1
  Co  Co98  1  0.37316784  0.62910012  0.86997386  1
  Co  Co99  1  0.37626057  0.36898275  0.62645200  1
  Co  Co100  1  0.87402937  0.12420970  0.12770913  1
  Co  Co101  1  0.74857003  0.24819275  -0.00108372  1
  Co  Co102  1  0.24255829  0.75350709  0.75108991  1
  Co  Co103  1  0.62378022  0.11865361  0.87844797  1
  Co  Co104  1  0.00200006  -0.00200029  0.25173405  1
  Co  Co105  1  0.12641611  0.37694397  0.87928850  1
  Co  Co106  1  0.00150526  0.75156117  -0.00147863  1
  Co  Co107  1  0.25366638  0.00038444  -0.00242171  1
  Co  Co108  1  0.62419194  0.87512294  0.37651511  1
  Co  Co109  1  0.12395438  0.61944374  0.87257813  1
  Co  Co110  1  0.37435290  0.12639261  0.37466838  1
  Co  Co111  1  0.00209230  0.74804252  0.50121618  1
  Co  Co112  1  0.87749977  0.62697097  0.12712350  1
  Co  Co113  1  0.87725229  0.12651449  0.87284807  1
  Co  Co114  1  0.12300819  0.88089878  0.87512758  1
  Co  Co115  1  0.12826872  0.87524409  0.37911969  1
  Co  Co116  1  0.87654071  0.62715577  0.62689820  1
  Co  Co117  1  0.50576561  0.75254816  0.75049215  1
  Co  Co118  1  0.75129569  0.00179391  0.74759122  1
  Co  Co119  1  0.87538166  0.87162959  0.37540492  1
  Co  Co120  1  0.12350425  0.37769530  0.62158562  1
  Co  Co121  1  0.25227390  0.50281740  -0.00022172  1
  Co  Co122  1  0.37483195  0.87373396  0.62799002  1
  Co  Co123  1  0.25239307  0.49491483  0.74976429  1
  Co  Co124  1  0.62203147  0.12281040  0.62223672  1
  Co  Co125  1  0.00057467  0.25012319  0.49868886  1
  Co  Co126  1  0.24247423  0.25125110  0.74737061  1
  Co  Co127  1  0.24791610  0.74881049  0.24995635  1
