# generated using pymatgen
data_Fe45Co19
_symmetry_space_group_name_H-M   'P 1'
_cell_length_a   11.41352529
_cell_length_b   11.41312192
_cell_length_c   11.41567818
_cell_angle_alpha   89.99532411
_cell_angle_beta   90.00407297
_cell_angle_gamma   89.99402675
_symmetry_Int_Tables_number   1
_chemical_formula_structural   Fe45Co19
_chemical_formula_sum   'Fe90 Co38'
_cell_volume   1487.05137986
_cell_formula_units_Z   2
loop_
 _symmetry_equiv_pos_site_id
 _symmetry_equiv_pos_as_xyz
  1  'x, y, z'
loop_
 _atom_site_type_symbol
 _atom_site_label
 _atom_site_symmetry_multiplicity
 _atom_site_fract_x
 _atom_site_fract_y
 _atom_site_fract_z
 _atom_site_occupancy
  Fe  Fe0  1  0.25031166  0.49929346  0.24885994  1
  Fe  Fe1  1  0.75301003  0.24800967  0.24612371  1
  Fe  Fe2  1  0.87489059  0.87248874  0.37822689  1
  Fe  Fe3  1  0.87726007  0.62224021  0.62525186  1
  Fe  Fe4  1  0.50258257  0.24988227  0.00118711  1
  Fe  Fe5  1  0.74837739  -0.00138319  0.50051939  1
  Fe  Fe6  1  0.12460093  0.87344713  0.37518711  1
  Fe  Fe7  1  0.25172866  -0.00112961  0.75099136  1
  Fe  Fe8  1  0.62656397  0.12585690  0.37456000  1
  Fe  Fe9  1  0.12508381  0.12667411  0.62879719  1
  Fe  Fe10  1  0.37704759  0.87393119  0.37793181  1
  Fe  Fe11  1  0.74885287  0.25193684  0.50360072  1
  Fe  Fe12  1  0.37474371  0.12433275  0.87545087  1
  Fe  Fe13  1  0.62839703  0.37393497  0.87502719  1
  Fe  Fe14  1  0.87327382  0.86919676  0.87610438  1
  Fe  Fe15  1  0.74922990  0.75182714  0.24764039  1
  Fe  Fe16  1  0.12625737  0.62552976  0.87392894  1
  Fe  Fe17  1  0.12365288  0.12642741  0.12768684  1
  Fe  Fe18  1  -0.00040796  0.25044087  0.00105206  1
  Fe  Fe19  1  0.75070715  0.49971636  0.24889711  1
  Fe  Fe20  1  0.62577272  0.12290211  0.12500035  1
  Fe  Fe21  1  0.49914382  -0.00058305  0.25032101  1
  Fe  Fe22  1  0.49960721  0.25085062  0.24645994  1
  Fe  Fe23  1  0.62740114  0.12759171  0.87258507  1
  Fe  Fe24  1  0.12406506  0.87473696  0.62538910  1
  Fe  Fe25  1  0.49336779  0.74824939  0.75222299  1
  Fe  Fe26  1  -0.00090248  0.74966922  0.24988467  1
  Fe  Fe27  1  0.12545092  0.12665891  0.87288689  1
  Fe  Fe28  1  0.62536379  0.12561685  0.62814401  1
  Fe  Fe29  1  0.74759669  0.50462443  -0.00119392  1
  Fe  Fe30  1  0.62458630  0.86893160  0.87411828  1
  Fe  Fe31  1  0.12719914  0.12957343  0.37114914  1
  Fe  Fe32  1  0.87424400  0.12374454  0.62530891  1
  Fe  Fe33  1  0.37858085  0.62557172  0.37448070  1
  Fe  Fe34  1  0.24987268  0.75022189  0.00127065  1
  Fe  Fe35  1  0.24797822  0.00030785  0.00138612  1
  Fe  Fe36  1  0.12478685  0.62415220  0.62541504  1
  Fe  Fe37  1  0.24747917  0.50014151  0.00184114  1
  Fe  Fe38  1  -0.00072167  0.49970002  0.25047911  1
  Fe  Fe39  1  0.25236090  -0.00040539  0.24808060  1
  Fe  Fe40  1  0.25070967  0.49924624  0.75034380  1
  Fe  Fe41  1  0.61928956  0.62041237  0.62894508  1
  Fe  Fe42  1  0.87386448  0.37593540  0.12111434  1
  Fe  Fe43  1  0.62348981  0.87339640  0.37506624  1
  Fe  Fe44  1  0.00045534  0.24955656  0.49896240  1
  Fe  Fe45  1  -0.00422091  0.25295367  0.75103041  1
  Fe  Fe46  1  0.37840284  0.87387787  0.12077250  1
  Fe  Fe47  1  -0.00257937  0.00136602  0.25143837  1
  Fe  Fe48  1  0.37389636  0.37324815  0.37449016  1
  Fe  Fe49  1  0.62058293  0.87455462  0.62690224  1
  Fe  Fe50  1  0.87296108  0.12633963  0.87591048  1
  Fe  Fe51  1  0.00172564  0.00121895  0.49870719  1
  Fe  Fe52  1  0.75364512  0.49701136  0.75116106  1
  Fe  Fe53  1  0.74852525  -0.00179331  -0.00140096  1
  Fe  Fe54  1  0.24987716  0.24971641  0.00259598  1
  Fe  Fe55  1  0.12464655  0.37464787  0.87487705  1
  Fe  Fe56  1  0.75216139  0.00019768  0.25023615  1
  Fe  Fe57  1  0.50262780  -0.00043259  -0.00314869  1
  Fe  Fe58  1  0.12612897  0.87380975  0.87379847  1
  Fe  Fe59  1  0.00185637  -0.00207353  -0.00166969  1
  Fe  Fe60  1  0.37425745  0.37666262  0.87769967  1
  Fe  Fe61  1  0.62267287  0.62539761  0.37093380  1
  Fe  Fe62  1  0.87362967  0.37512933  0.37676995  1
  Fe  Fe63  1  0.37333732  0.12807617  0.37466069  1
  Fe  Fe64  1  0.12634011  0.37112560  0.37166696  1
  Fe  Fe65  1  0.50056211  0.00129267  0.50044301  1
  Fe  Fe66  1  0.74710092  0.50115014  0.49996592  1
  Fe  Fe67  1  0.00081115  0.50160274  0.49710418  1
  Fe  Fe68  1  0.62580166  0.37437662  0.37256996  1
  Fe  Fe69  1  0.25041035  0.49972298  0.49873236  1
  Fe  Fe70  1  0.49970309  0.25244785  0.75079866  1
  Fe  Fe71  1  0.12483306  0.62532271  0.12528070  1
  Fe  Fe72  1  0.12389497  0.37519717  0.62627206  1
  Fe  Fe73  1  0.25494004  0.74983550  0.74868302  1
  Fe  Fe74  1  0.25288061  0.74936915  0.50265466  1
  Fe  Fe75  1  -0.00069618  0.50301927  -0.00366757  1
  Fe  Fe76  1  0.12459483  0.62699635  0.37512092  1
  Fe  Fe77  1  0.25185509  0.75066745  0.24852295  1
  Fe  Fe78  1  0.37669159  0.37789758  0.62470623  1
  Fe  Fe79  1  0.37535401  0.12459883  0.62730786  1
  Fe  Fe80  1  0.87587779  0.87426348  0.12188533  1
  Fe  Fe81  1  -0.00080922  0.74859148  0.75085570  1
  Fe  Fe82  1  0.50064497  0.25208676  0.50139470  1
  Fe  Fe83  1  0.74769805  0.74710040  0.50252366  1
  Fe  Fe84  1  0.87707749  0.87533394  0.62433070  1
  Fe  Fe85  1  0.50483376  0.50649772  -0.00149148  1
  Fe  Fe86  1  0.74996082  -0.00212470  0.75117466  1
  Fe  Fe87  1  0.87468975  0.62687949  0.12320729  1
  Fe  Fe88  1  0.24924172  0.00172786  0.50090098  1
  Fe  Fe89  1  0.37711649  0.37843208  0.12277272  1
  Co  Co90  1  0.87523275  0.12236709  0.12052239  1
  Co  Co91  1  0.87167880  0.62948452  0.87516755  1
  Co  Co92  1  0.37665408  0.87775594  0.62383831  1
  Co  Co93  1  0.49880727  0.49785641  0.24990007  1
  Co  Co94  1  0.62403069  0.62396685  0.13067861  1
  Co  Co95  1  0.74823942  0.24874674  0.00238627  1
  Co  Co96  1  0.12253986  0.37540637  0.12498021  1
  Co  Co97  1  0.87283280  0.62570702  0.37418789  1
  Co  Co98  1  0.50077490  -0.00032120  0.75284201  1
  Co  Co99  1  0.62329066  0.37821886  0.62742371  1
  Co  Co100  1  -0.00144998  -0.00105316  0.75284575  1
  Co  Co101  1  0.62882594  0.62773394  0.86809519  1
  Co  Co102  1  0.25249506  0.25268561  0.75139167  1
  Co  Co103  1  0.50102520  0.74768928  0.50166267  1
  Co  Co104  1  0.75251909  0.25302210  0.74787365  1
  Co  Co105  1  -0.00572905  0.25092910  0.24878278  1
  Co  Co106  1  0.37770750  0.61955404  0.62476896  1
  Co  Co107  1  0.00275350  0.74934213  -0.00096970  1
  Co  Co108  1  0.49977835  0.75173870  0.24687678  1
  Co  Co109  1  0.37161978  0.62354441  0.87771063  1
  Co  Co110  1  0.37454781  0.62423279  0.12478611  1
  Co  Co111  1  0.49824324  0.49818479  0.75664088  1
  Co  Co112  1  0.25020644  0.25015405  0.50291727  1
  Co  Co113  1  0.25358643  0.25186676  0.24350214  1
  Co  Co114  1  0.87297333  0.12615310  0.37889208  1
  Co  Co115  1  0.62585418  0.37625728  0.12443520  1
  Co  Co116  1  0.87265812  0.37455350  0.87903981  1
  Co  Co117  1  0.50118043  0.49777080  0.49539119  1
  Co  Co118  1  0.62311385  0.87791515  0.12461382  1
  Co  Co119  1  0.75153300  0.75011327  0.74377796  1
  Co  Co120  1  0.12426472  0.87495732  0.12723549  1
  Co  Co121  1  0.74435751  0.74751386  0.00446155  1
  Co  Co122  1  -0.00124277  0.50012772  0.75437485  1
  Co  Co123  1  0.50336154  0.74426938  -0.00066001  1
  Co  Co124  1  0.37534955  0.87554620  0.87917058  1
  Co  Co125  1  0.37753605  0.12303599  0.12218550  1
  Co  Co126  1  0.87706622  0.37805266  0.62155756  1
  Co  Co127  1  -0.00096580  0.74814404  0.50054505  1
