# generated using pymatgen
data_Fe45Co19
_symmetry_space_group_name_H-M   'P 1'
_cell_length_a   11.41495759
_cell_length_b   11.41480600
_cell_length_c   11.41471356
_cell_angle_alpha   89.99379922
_cell_angle_beta   89.98941207
_cell_angle_gamma   89.99109944
_symmetry_Int_Tables_number   1
_chemical_formula_structural   Fe45Co19
_chemical_formula_sum   'Fe90 Co38'
_cell_volume   1487.33171920
_cell_formula_units_Z   2
loop_
 _symmetry_equiv_pos_site_id
 _symmetry_equiv_pos_as_xyz
  1  'x, y, z'
loop_
 _atom_site_type_symbol
 _atom_site_label
 _atom_site_symmetry_multiplicity
 _atom_site_fract_x
 _atom_site_fract_y
 _atom_site_fract_z
 _atom_site_occupancy
  Fe  Fe0  1  0.12297866  0.87626334  0.87348547  1
  Fe  Fe1  1  0.12191536  0.12600411  0.62465699  1
  Fe  Fe2  1  0.37517724  0.37456980  0.12448744  1
  Fe  Fe3  1  -0.00067914  0.24880415  0.25068402  1
  Fe  Fe4  1  0.87388202  0.12588002  0.37737330  1
  Fe  Fe5  1  0.87704742  0.87045281  0.62849628  1
  Fe  Fe6  1  0.62551893  0.37634799  0.87399247  1
  Fe  Fe7  1  0.50198166  0.74866054  -0.00318363  1
  Fe  Fe8  1  0.24748226  0.74959470  0.74901916  1
  Fe  Fe9  1  0.37144557  0.37661004  0.87514213  1
  Fe  Fe10  1  0.12517080  0.62281968  0.62428880  1
  Fe  Fe11  1  0.87568075  0.37280569  0.62302900  1
  Fe  Fe12  1  0.62602772  0.87493300  0.37701017  1
  Fe  Fe13  1  0.12329933  0.62461878  0.12663887  1
  Fe  Fe14  1  0.50243049  0.74965304  0.25123650  1
  Fe  Fe15  1  0.12462627  0.37513863  0.12195699  1
  Fe  Fe16  1  0.12205168  0.87628836  0.12747591  1
  Fe  Fe17  1  0.87645492  0.62716209  0.62731373  1
  Fe  Fe18  1  0.24855942  0.74947071  0.00057852  1
  Fe  Fe19  1  0.00098058  0.49854065  0.75094641  1
  Fe  Fe20  1  0.37438940  0.12907298  0.62448309  1
  Fe  Fe21  1  0.87412124  0.37762773  0.37448750  1
  Fe  Fe22  1  0.50283550  0.74894411  0.50309097  1
  Fe  Fe23  1  0.75117898  0.00286804  -0.00415263  1
  Fe  Fe24  1  0.50252766  0.49981801  0.25118976  1
  Fe  Fe25  1  0.12480164  0.12440689  0.12543947  1
  Fe  Fe26  1  0.75095889  0.49607608  0.00413602  1
  Fe  Fe27  1  0.24918968  0.49972437  0.25085389  1
  Fe  Fe28  1  0.25008926  0.00159985  -0.00122499  1
  Fe  Fe29  1  0.87543072  0.37365371  0.87601346  1
  Fe  Fe30  1  0.24796320  -0.00280019  0.50186819  1
  Fe  Fe31  1  0.62829089  0.37895122  0.37993777  1
  Fe  Fe32  1  0.12675365  0.62103388  0.87474996  1
  Fe  Fe33  1  0.62746543  0.12750822  0.12383575  1
  Fe  Fe34  1  0.12245645  0.62584984  0.37470052  1
  Fe  Fe35  1  0.62586531  0.62365532  0.12475701  1
  Fe  Fe36  1  0.37570806  0.62541480  0.12683319  1
  Fe  Fe37  1  0.87233513  0.62515367  0.87466052  1
  Fe  Fe38  1  0.87439897  0.62251694  0.37055809  1
  Fe  Fe39  1  0.75053182  0.74842024  0.50067295  1
  Fe  Fe40  1  0.62640023  0.87549973  0.12461812  1
  Fe  Fe41  1  0.49889811  0.50124396  -0.00128875  1
  Fe  Fe42  1  0.50085679  0.24950311  -0.00286848  1
  Fe  Fe43  1  0.24910116  0.75132709  0.25150778  1
  Fe  Fe44  1  0.37566584  0.62475358  0.37797417  1
  Fe  Fe45  1  -0.00298681  0.00244874  -0.00166512  1
  Fe  Fe46  1  0.62529536  0.87449090  0.87107722  1
  Fe  Fe47  1  0.50211042  0.25061463  0.25332029  1
  Fe  Fe48  1  0.75033465  0.74944693  -0.00230318  1
  Fe  Fe49  1  -0.00090813  0.24686122  -0.00156481  1
  Fe  Fe50  1  0.50139460  0.00124838  -0.00196428  1
  Fe  Fe51  1  0.49936024  0.50238987  0.74613491  1
  Fe  Fe52  1  0.87530871  0.87547806  0.12461256  1
  Fe  Fe53  1  0.37246686  0.62419722  0.87262173  1
  Fe  Fe54  1  0.74990677  0.25423487  0.24845541  1
  Fe  Fe55  1  0.37531714  0.37500562  0.37883631  1
  Fe  Fe56  1  0.50083007  0.00085388  0.74844261  1
  Fe  Fe57  1  0.50098985  0.00044763  0.50111627  1
  Fe  Fe58  1  0.50171478  0.25228300  0.74699950  1
  Fe  Fe59  1  0.62864813  0.12490823  0.62195893  1
  Fe  Fe60  1  0.37344747  0.12627183  0.87242745  1
  Fe  Fe61  1  0.37583653  0.87512608  0.37566835  1
  Fe  Fe62  1  0.37586454  0.12592216  0.12531308  1
  Fe  Fe63  1  0.50078921  0.50017423  0.50533517  1
  Fe  Fe64  1  -0.00143992  -0.00151003  0.50056475  1
  Fe  Fe65  1  -0.00175737  0.50037092  0.49961748  1
  Fe  Fe66  1  0.24649814  0.75220375  0.50035929  1
  Fe  Fe67  1  -0.00228329  0.00115174  0.75047820  1
  Fe  Fe68  1  0.24909603  -0.00052062  0.74841644  1
  Fe  Fe69  1  0.24996715  0.25091020  0.24997703  1
  Fe  Fe70  1  0.75189367  -0.00021196  0.25096025  1
  Fe  Fe71  1  0.62828292  0.12451207  0.37849808  1
  Fe  Fe72  1  0.24998112  -0.00134856  0.25134409  1
  Fe  Fe73  1  0.87845521  0.87286974  0.37371409  1
  Fe  Fe74  1  -0.00152599  0.74902869  -0.00127416  1
  Fe  Fe75  1  0.75062443  0.49990655  0.74711000  1
  Fe  Fe76  1  0.37643366  0.87240947  0.62658397  1
  Fe  Fe77  1  0.12459876  0.12353669  0.37660396  1
  Fe  Fe78  1  0.75250249  0.00070647  0.74903278  1
  Fe  Fe79  1  -0.00225037  0.50147435  0.00157279  1
  Fe  Fe80  1  0.37552285  0.87367087  0.87363612  1
  Fe  Fe81  1  0.00231779  0.25199213  0.75079189  1
  Fe  Fe82  1  0.37641176  0.87466424  0.12439003  1
  Fe  Fe83  1  0.50129290  0.00092276  0.25058252  1
  Fe  Fe84  1  0.12320086  0.37591012  0.37667436  1
  Fe  Fe85  1  0.74971049  0.74765146  0.25026882  1
  Fe  Fe86  1  0.75023932  0.24927247  0.74941192  1
  Fe  Fe87  1  0.37486918  0.12593456  0.37744679  1
  Fe  Fe88  1  0.24496322  0.25530622  0.75080771  1
  Fe  Fe89  1  0.24779189  0.25230479  0.50160778  1
  Co  Co90  1  -0.00053061  0.74844355  0.50061239  1
  Co  Co91  1  0.62102189  0.37418547  0.12291997  1
  Co  Co92  1  0.75326338  0.50261612  0.50402520  1
  Co  Co93  1  0.62817477  0.37513932  0.62449004  1
  Co  Co94  1  0.50157941  0.74571445  0.75042101  1
  Co  Co95  1  0.00124988  0.49862985  0.24883311  1
  Co  Co96  1  0.24826512  0.49650510  0.74790221  1
  Co  Co97  1  0.12090993  0.87446362  0.62733579  1
  Co  Co98  1  0.37338383  0.37425342  0.62395074  1
  Co  Co99  1  0.74838129  0.74896431  0.75101012  1
  Co  Co100  1  -0.00144732  0.74922702  0.24785581  1
  Co  Co101  1  0.74937046  0.25237400  -0.00123647  1
  Co  Co102  1  0.75420765  -0.00395015  0.50126969  1
  Co  Co103  1  0.87564310  0.87332132  0.87263097  1
  Co  Co104  1  0.87859226  0.37292663  0.12474627  1
  Co  Co105  1  0.12205295  0.37720614  0.62156258  1
  Co  Co106  1  0.50293244  0.25075112  0.50079450  1
  Co  Co107  1  0.75165238  0.25153966  0.50019470  1
  Co  Co108  1  0.87373299  0.62460632  0.12654609  1
  Co  Co109  1  -0.00286836  0.00321708  0.25082848  1
  Co  Co110  1  0.62639956  0.62200908  0.37683591  1
  Co  Co111  1  0.62608812  0.87481258  0.62633257  1
  Co  Co112  1  -0.00116367  0.25081726  0.49839861  1
  Co  Co113  1  0.62860487  0.62085732  0.87492980  1
  Co  Co114  1  0.12450685  0.12379195  0.87281286  1
  Co  Co115  1  0.87661242  0.12706141  0.62432165  1
  Co  Co116  1  0.87132288  0.12621811  0.12459462  1
  Co  Co117  1  0.12114434  0.87553818  0.37346610  1
  Co  Co118  1  0.37118571  0.62585970  0.62421963  1
  Co  Co119  1  0.24882504  0.49936785  0.49883768  1
  Co  Co120  1  0.87503292  0.12783401  0.87327335  1
  Co  Co121  1  0.62758363  0.62567337  0.62592633  1
  Co  Co122  1  0.00216045  0.74612543  0.75334081  1
  Co  Co123  1  0.74850414  0.49756797  0.24549894  1
  Co  Co124  1  0.62566305  0.12617841  0.87263875  1
  Co  Co125  1  0.25014116  0.24806429  -0.00104832  1
  Co  Co126  1  0.25164930  0.50184927  0.00293693  1
  Co  Co127  1  0.12480856  0.37827559  0.88052936  1
