# generated using pymatgen
data_Fe45Co19
_symmetry_space_group_name_H-M   'P 1'
_cell_length_a   11.41497478
_cell_length_b   11.41544306
_cell_length_c   11.41455106
_cell_angle_alpha   90.00430595
_cell_angle_beta   90.00894848
_cell_angle_gamma   89.99637917
_symmetry_Int_Tables_number   1
_chemical_formula_structural   Fe45Co19
_chemical_formula_sum   'Fe90 Co38'
_cell_volume   1487.39581844
_cell_formula_units_Z   2
loop_
 _symmetry_equiv_pos_site_id
 _symmetry_equiv_pos_as_xyz
  1  'x, y, z'
loop_
 _atom_site_type_symbol
 _atom_site_label
 _atom_site_symmetry_multiplicity
 _atom_site_fract_x
 _atom_site_fract_y
 _atom_site_fract_z
 _atom_site_occupancy
  Fe  Fe0  1  0.37636526  0.37603114  0.62636307  1
  Fe  Fe1  1  0.37809705  0.37542746  0.87704427  1
  Fe  Fe2  1  0.62454796  0.87456599  0.37640524  1
  Fe  Fe3  1  0.87612367  0.87439603  0.12332760  1
  Fe  Fe4  1  0.00325059  0.74824690  0.00031503  1
  Fe  Fe5  1  0.24676995  0.74922119  0.00171634  1
  Fe  Fe6  1  0.50255755  0.25107976  0.49748674  1
  Fe  Fe7  1  0.12654855  0.87696727  0.62669774  1
  Fe  Fe8  1  0.36927161  0.12580042  0.88044847  1
  Fe  Fe9  1  0.00168499  0.25061038  0.49987453  1
  Fe  Fe10  1  0.49862541  0.50288976  0.24951653  1
  Fe  Fe11  1  0.12844130  0.61974309  0.62569210  1
  Fe  Fe12  1  0.00063963  0.50007966  0.74949244  1
  Fe  Fe13  1  0.62552258  0.12299797  0.87733806  1
  Fe  Fe14  1  0.87438506  0.12689828  0.37390154  1
  Fe  Fe15  1  0.24966494  0.25228930  0.75080108  1
  Fe  Fe16  1  0.62633718  0.12279408  0.12363908  1
  Fe  Fe17  1  -0.00059482  0.74848144  0.50558419  1
  Fe  Fe18  1  0.75116808  0.74885910  0.25058430  1
  Fe  Fe19  1  0.49922001  0.50130138  -0.00025192  1
  Fe  Fe20  1  0.49981874  0.75070292  0.24980663  1
  Fe  Fe21  1  0.74669839  0.49836635  0.75130548  1
  Fe  Fe22  1  0.12758130  0.12558802  0.37481015  1
  Fe  Fe23  1  0.74891007  0.24998215  -0.00069265  1
  Fe  Fe24  1  0.87462851  0.37392520  0.37270537  1
  Fe  Fe25  1  0.75221332  0.74898017  0.50347655  1
  Fe  Fe26  1  0.50081616  0.49981084  0.49957843  1
  Fe  Fe27  1  0.12568449  0.62248236  0.37409914  1
  Fe  Fe28  1  0.25167279  0.25197865  0.24630609  1
  Fe  Fe29  1  0.00017147  0.00084628  0.49991810  1
  Fe  Fe30  1  0.12511239  0.37713747  0.37153153  1
  Fe  Fe31  1  0.74881251  0.75171969  -0.00227087  1
  Fe  Fe32  1  0.25083768  -0.00136829  0.24611882  1
  Fe  Fe33  1  0.12481580  0.87374290  0.37499722  1
  Fe  Fe34  1  0.00154940  0.24934057  0.75208618  1
  Fe  Fe35  1  0.87730140  0.87183212  0.87142104  1
  Fe  Fe36  1  0.12690541  0.12614747  0.62644483  1
  Fe  Fe37  1  0.00042048  0.24992232  0.24781043  1
  Fe  Fe38  1  0.62354522  0.87698734  0.87443562  1
  Fe  Fe39  1  0.37317874  0.62568943  0.37649166  1
  Fe  Fe40  1  0.62466399  0.62392435  0.62605734  1
  Fe  Fe41  1  0.12763037  0.12450349  0.12232243  1
  Fe  Fe42  1  0.87373603  0.37475416  0.62465796  1
  Fe  Fe43  1  0.87458486  0.37392614  0.87452804  1
  Fe  Fe44  1  -0.00274539  0.50222643  0.00100235  1
  Fe  Fe45  1  0.87393799  0.37512634  0.12583679  1
  Fe  Fe46  1  0.50001738  0.74885396  0.75071204  1
  Fe  Fe47  1  0.12535078  0.38063282  0.12673674  1
  Fe  Fe48  1  -0.00048669  0.74583895  0.24802412  1
  Fe  Fe49  1  0.37292529  0.62268601  0.62659667  1
  Fe  Fe50  1  0.37138466  0.87408346  0.87648335  1
  Fe  Fe51  1  0.62178296  0.12419896  0.62374576  1
  Fe  Fe52  1  0.74625126  0.25021490  0.49702597  1
  Fe  Fe53  1  0.75071154  0.50135423  -0.00130157  1
  Fe  Fe54  1  0.49846805  -0.00124531  0.24780639  1
  Fe  Fe55  1  0.74804793  0.50051762  0.49760490  1
  Fe  Fe56  1  0.49730924  -0.00117934  0.00265054  1
  Fe  Fe57  1  0.37565276  0.12405697  0.37572688  1
  Fe  Fe58  1  0.24848991  0.74818061  0.24750490  1
  Fe  Fe59  1  0.12484790  0.37753778  0.87561541  1
  Fe  Fe60  1  0.50087323  0.24820087  0.24823947  1
  Fe  Fe61  1  0.75052709  -0.00105784  0.24971450  1
  Fe  Fe62  1  0.37296910  0.87286059  0.62581776  1
  Fe  Fe63  1  0.37330463  0.87441766  0.37521634  1
  Fe  Fe64  1  0.87452485  0.12433903  0.12244105  1
  Fe  Fe65  1  0.50099608  0.75112831  -0.00002668  1
  Fe  Fe66  1  0.75138698  -0.00027997  0.75184450  1
  Fe  Fe67  1  0.25225641  0.00038018  0.50239891  1
  Fe  Fe68  1  0.75160469  0.50325038  0.25145157  1
  Fe  Fe69  1  0.49439194  0.00192281  0.74940134  1
  Fe  Fe70  1  0.00200022  0.24961304  -0.00115396  1
  Fe  Fe71  1  0.62332088  0.62483221  0.87361105  1
  Fe  Fe72  1  0.87719264  0.87306693  0.37655996  1
  Fe  Fe73  1  0.62413883  0.87648852  0.62605891  1
  Fe  Fe74  1  0.49855148  0.75038886  0.50120371  1
  Fe  Fe75  1  0.75002058  0.00025866  0.49935510  1
  Fe  Fe76  1  0.87463739  0.12557438  0.62568610  1
  Fe  Fe77  1  0.37563776  0.37583099  0.37339937  1
  Fe  Fe78  1  0.24945102  0.25298126  0.50045297  1
  Fe  Fe79  1  0.00087215  0.00164129  0.75237485  1
  Fe  Fe80  1  0.00243994  0.00053702  -0.00388811  1
  Fe  Fe81  1  0.24746811  0.74715779  0.75200883  1
  Fe  Fe82  1  0.00051420  0.00120232  0.25056698  1
  Fe  Fe83  1  0.62430952  0.37551381  0.12504679  1
  Fe  Fe84  1  0.74731006  0.25079976  0.75157923  1
  Fe  Fe85  1  0.87602212  0.62783243  0.87130513  1
  Fe  Fe86  1  0.25341406  0.50134995  0.00037670  1
  Fe  Fe87  1  0.50171855  0.25066753  0.75316726  1
  Fe  Fe88  1  0.00047712  0.49882060  0.50003099  1
  Fe  Fe89  1  0.62510518  0.62701865  0.12509351  1
  Co  Co90  1  0.12662587  0.87529553  0.87250315  1
  Co  Co91  1  0.12355989  0.62300478  0.87589654  1
  Co  Co92  1  0.37480145  0.87141092  0.12442576  1
  Co  Co93  1  0.87689159  0.62595654  0.37803437  1
  Co  Co94  1  0.37628137  0.13038544  0.62342288  1
  Co  Co95  1  0.50212661  0.24815103  -0.00055990  1
  Co  Co96  1  0.24866702  0.74946157  0.50078632  1
  Co  Co97  1  0.62366417  0.62737045  0.37583285  1
  Co  Co98  1  0.12586500  0.62022627  0.12537280  1
  Co  Co99  1  -0.00433963  0.50198963  0.24957906  1
  Co  Co100  1  0.87315488  0.62701927  0.12268307  1
  Co  Co101  1  0.62453167  0.37674265  0.37123584  1
  Co  Co102  1  0.25512595  0.50081788  0.24909985  1
  Co  Co103  1  0.37285405  0.12642841  0.12189785  1
  Co  Co104  1  0.25180407  0.49886451  0.75350515  1
  Co  Co105  1  0.37899394  0.37440112  0.12377403  1
  Co  Co106  1  0.12205629  0.87506700  0.12657105  1
  Co  Co107  1  0.74745802  0.75076071  0.74968893  1
  Co  Co108  1  0.00372356  0.74810708  0.74570568  1
  Co  Co109  1  0.62418031  0.37524521  0.62434150  1
  Co  Co110  1  0.25056140  0.49673726  0.49863377  1
  Co  Co111  1  0.74872107  0.24831699  0.24847710  1
  Co  Co112  1  0.87532586  0.87673679  0.62734197  1
  Co  Co113  1  0.37602002  0.62653917  0.87571841  1
  Co  Co114  1  0.24876454  -0.00477035  0.00379751  1
  Co  Co115  1  0.49701278  -0.00265887  0.50158067  1
  Co  Co116  1  0.75193295  -0.00286004  -0.00196486  1
  Co  Co117  1  0.62279019  0.12203968  0.37435083  1
  Co  Co118  1  0.50043656  0.49968570  0.75084913  1
  Co  Co119  1  0.87393957  0.12698409  0.87554981  1
  Co  Co120  1  0.62413350  0.37613653  0.87811334  1
  Co  Co121  1  0.12504715  0.37562142  0.62682094  1
  Co  Co122  1  0.13134597  0.12437612  0.87578865  1
  Co  Co123  1  0.87297709  0.62127073  0.62788018  1
  Co  Co124  1  0.62580709  0.87457792  0.12501540  1
  Co  Co125  1  0.37621375  0.62805297  0.12341325  1
  Co  Co126  1  0.24793311  0.25580197  0.00220767  1
  Co  Co127  1  0.25371291  0.00128079  0.74760214  1
