# generated using pymatgen
data_Fe45Co19
_symmetry_space_group_name_H-M   'P 1'
_cell_length_a   11.41354058
_cell_length_b   11.41543891
_cell_length_c   11.41502598
_cell_angle_alpha   89.99303102
_cell_angle_beta   90.01423925
_cell_angle_gamma   89.99291094
_symmetry_Int_Tables_number   1
_chemical_formula_structural   Fe45Co19
_chemical_formula_sum   'Fe90 Co38'
_cell_volume   1487.27023245
_cell_formula_units_Z   2
loop_
 _symmetry_equiv_pos_site_id
 _symmetry_equiv_pos_as_xyz
  1  'x, y, z'
loop_
 _atom_site_type_symbol
 _atom_site_label
 _atom_site_symmetry_multiplicity
 _atom_site_fract_x
 _atom_site_fract_y
 _atom_site_fract_z
 _atom_site_occupancy
  Fe  Fe0  1  0.37856816  0.12063982  0.12489137  1
  Fe  Fe1  1  0.87442299  0.62323061  0.62149676  1
  Fe  Fe2  1  0.74794079  0.00259246  0.00032439  1
  Fe  Fe3  1  0.50057497  0.49641541  -0.00251805  1
  Fe  Fe4  1  -0.00311405  0.25034514  -0.00161754  1
  Fe  Fe5  1  0.24710038  -0.00128692  0.74930562  1
  Fe  Fe6  1  0.00160092  0.00034396  0.00164988  1
  Fe  Fe7  1  0.75192153  0.75126389  0.24749021  1
  Fe  Fe8  1  0.87374858  0.62254700  0.12358673  1
  Fe  Fe9  1  0.87450479  0.12386902  0.12513128  1
  Fe  Fe10  1  0.50119481  0.49759882  0.25126803  1
  Fe  Fe11  1  0.24988318  0.50177257  0.75220518  1
  Fe  Fe12  1  0.74809289  0.49819449  0.25174109  1
  Fe  Fe13  1  0.25231660  0.24764522  0.24794567  1
  Fe  Fe14  1  0.24895412  0.75281294  0.00046011  1
  Fe  Fe15  1  0.24852145  0.24923998  0.74848037  1
  Fe  Fe16  1  0.00161559  -0.00172755  0.49947622  1
  Fe  Fe17  1  0.50087496  0.75022211  0.74704507  1
  Fe  Fe18  1  0.12281291  0.87667954  0.12745864  1
  Fe  Fe19  1  0.49849200  0.75322035  0.25054873  1
  Fe  Fe20  1  0.75017473  0.75011895  0.00157275  1
  Fe  Fe21  1  0.62646955  0.12769965  0.37415117  1
  Fe  Fe22  1  0.00046843  0.75027941  0.00204340  1
  Fe  Fe23  1  0.00220008  -0.00183715  0.74759340  1
  Fe  Fe24  1  0.12580590  0.12880565  0.37617043  1
  Fe  Fe25  1  0.37753201  0.87974571  0.12431737  1
  Fe  Fe26  1  0.25185617  0.75008173  0.25012620  1
  Fe  Fe27  1  0.75126961  0.00119618  0.74803106  1
  Fe  Fe28  1  0.50339564  0.50021116  0.49858451  1
  Fe  Fe29  1  0.49934543  0.00076049  0.49711978  1
  Fe  Fe30  1  0.12573165  0.62511688  0.12479932  1
  Fe  Fe31  1  0.37428179  0.37244800  0.37489828  1
  Fe  Fe32  1  0.37277223  0.12437692  0.87568129  1
  Fe  Fe33  1  0.12283136  0.62350636  0.62287392  1
  Fe  Fe34  1  0.12231971  0.62650400  0.37574799  1
  Fe  Fe35  1  0.87561153  0.87655212  0.87644046  1
  Fe  Fe36  1  0.50455707  0.74884230  0.50204023  1
  Fe  Fe37  1  0.87530615  0.87335205  0.37504137  1
  Fe  Fe38  1  0.74631891  0.50060152  0.49688746  1
  Fe  Fe39  1  0.25054936  0.24989584  0.00144740  1
  Fe  Fe40  1  0.74971409  0.25083870  0.50162643  1
  Fe  Fe41  1  0.37416474  0.87445555  0.62226649  1
  Fe  Fe42  1  0.37564972  0.37548828  0.62776402  1
  Fe  Fe43  1  0.24687698  0.75011024  0.74991324  1
  Fe  Fe44  1  0.87488945  0.37460299  0.37568761  1
  Fe  Fe45  1  -0.00012556  0.50020153  0.25003390  1
  Fe  Fe46  1  0.37673298  0.62345893  0.12389676  1
  Fe  Fe47  1  0.75075234  0.49964776  0.75159487  1
  Fe  Fe48  1  0.62750435  0.12789517  0.87190707  1
  Fe  Fe49  1  -0.00321353  0.25047689  0.75132386  1
  Fe  Fe50  1  0.62422603  0.37462100  0.62805233  1
  Fe  Fe51  1  0.49914936  0.24940840  -0.00113514  1
  Fe  Fe52  1  0.12393265  0.12302991  0.87564414  1
  Fe  Fe53  1  0.75013447  0.74952206  0.74822876  1
  Fe  Fe54  1  0.25031024  0.49759765  -0.00027021  1
  Fe  Fe55  1  0.12222722  0.37718769  0.87347066  1
  Fe  Fe56  1  0.62587429  0.87491073  0.87284449  1
  Fe  Fe57  1  0.87638152  0.37778188  0.62492297  1
  Fe  Fe58  1  -0.00214706  0.24927268  0.24919089  1
  Fe  Fe59  1  0.62406586  0.62586941  0.87345471  1
  Fe  Fe60  1  0.87682403  0.62202440  0.87832435  1
  Fe  Fe61  1  0.50007394  0.75194240  -0.00038426  1
  Fe  Fe62  1  0.37371935  0.87638461  0.87550540  1
  Fe  Fe63  1  0.49922125  0.24906704  0.25006095  1
  Fe  Fe64  1  0.24660811  0.49629601  0.49856387  1
  Fe  Fe65  1  0.49894814  0.24934203  0.50154881  1
  Fe  Fe66  1  0.00527956  0.25516866  0.50188748  1
  Fe  Fe67  1  0.62752801  0.87442080  0.37691896  1
  Fe  Fe68  1  0.87632480  0.12687894  0.37732351  1
  Fe  Fe69  1  0.62382835  0.87859479  0.12467777  1
  Fe  Fe70  1  0.62775247  0.37057575  0.12493059  1
  Fe  Fe71  1  0.87699256  0.12459366  0.62357073  1
  Fe  Fe72  1  0.12448183  0.87137651  0.37538930  1
  Fe  Fe73  1  0.62691551  0.37063725  0.87192031  1
  Fe  Fe74  1  0.37177907  0.12563687  0.62308572  1
  Fe  Fe75  1  0.25007049  0.00132578  0.25163743  1
  Fe  Fe76  1  0.87209972  0.37636858  0.12217552  1
  Fe  Fe77  1  0.37480987  0.62541335  0.87655029  1
  Fe  Fe78  1  0.62331109  0.62463374  0.12639035  1
  Fe  Fe79  1  0.49884289  0.00114346  0.75018634  1
  Fe  Fe80  1  0.12535070  0.37339317  0.12723450  1
  Fe  Fe81  1  0.24879567  0.00020521  0.49856391  1
  Fe  Fe82  1  0.25110781  0.50059845  0.25067528  1
  Fe  Fe83  1  0.00135127  0.74982262  0.74925204  1
  Fe  Fe84  1  0.75106897  0.00185277  0.25046856  1
  Fe  Fe85  1  0.37606414  0.62329441  0.62452377  1
  Fe  Fe86  1  0.37654881  0.62645206  0.37610083  1
  Fe  Fe87  1  0.87244682  0.87459720  0.62197683  1
  Fe  Fe88  1  0.62649724  0.12433805  0.62580035  1
  Fe  Fe89  1  0.87522595  0.62644941  0.37616476  1
  Co  Co90  1  0.00294771  0.49909381  0.00325355  1
  Co  Co91  1  0.12675205  0.87416618  0.62247595  1
  Co  Co92  1  0.12412296  0.12526735  0.62422485  1
  Co  Co93  1  0.12329140  0.87603116  0.87594542  1
  Co  Co94  1  0.74490680  0.50022164  -0.00119169  1
  Co  Co95  1  0.12426879  0.62479039  0.87728815  1
  Co  Co96  1  0.75644077  0.24999072  0.74905065  1
  Co  Co97  1  0.49938716  0.49983462  0.75344880  1
  Co  Co98  1  -0.00155047  0.74878836  0.24788824  1
  Co  Co99  1  0.12624658  0.37257164  0.36882952  1
  Co  Co100  1  0.87646947  0.11987487  0.87400463  1
  Co  Co101  1  0.87601324  0.87871780  0.12420055  1
  Co  Co102  1  0.62600706  0.87901602  0.62459841  1
  Co  Co103  1  0.75289446  0.24888355  0.25037266  1
  Co  Co104  1  -0.00110827  0.75108299  0.50176686  1
  Co  Co105  1  0.75153233  0.00227108  0.49867254  1
  Co  Co106  1  0.24911324  0.74649925  0.50118915  1
  Co  Co107  1  0.24837697  -0.00003050  0.00230083  1
  Co  Co108  1  0.75356318  0.24734529  -0.00249940  1
  Co  Co109  1  -0.00186429  0.50357724  0.74977465  1
  Co  Co110  1  0.50041183  -0.00060684  0.25588425  1
  Co  Co111  1  0.50267771  0.00186062  -0.00461490  1
  Co  Co112  1  0.87570952  0.38014506  0.87692866  1
  Co  Co113  1  0.62458756  0.37036375  0.37451989  1
  Co  Co114  1  0.12331990  0.12637955  0.12493453  1
  Co  Co115  1  0.12372124  0.37717584  0.63116636  1
  Co  Co116  1  0.24767621  0.25508665  0.50299370  1
  Co  Co117  1  0.37330996  0.87214062  0.37838150  1
  Co  Co118  1  0.37306719  0.12844712  0.37608385  1
  Co  Co119  1  0.37347867  0.37300415  0.87212093  1
  Co  Co120  1  0.62604216  0.62176714  0.62766021  1
  Co  Co121  1  0.49757816  0.24711951  0.74875722  1
  Co  Co122  1  0.00075225  0.00205765  0.25278727  1
  Co  Co123  1  0.74746004  0.74795530  0.50158734  1
  Co  Co124  1  0.62496101  0.62777838  0.37088975  1
  Co  Co125  1  0.62379061  0.12615275  0.12712334  1
  Co  Co126  1  0.00270395  0.49700250  0.49739637  1
  Co  Co127  1  0.37514743  0.37509472  0.12642575  1
