# generated using pymatgen
data_Fe45Co19
_symmetry_space_group_name_H-M   'P 1'
_cell_length_a   11.41573250
_cell_length_b   11.41459147
_cell_length_c   11.41485277
_cell_angle_alpha   89.99716314
_cell_angle_beta   90.00235727
_cell_angle_gamma   89.98797018
_symmetry_Int_Tables_number   1
_chemical_formula_structural   Fe45Co19
_chemical_formula_sum   'Fe90 Co38'
_cell_volume   1487.42288672
_cell_formula_units_Z   2
loop_
 _symmetry_equiv_pos_site_id
 _symmetry_equiv_pos_as_xyz
  1  'x, y, z'
loop_
 _atom_site_type_symbol
 _atom_site_label
 _atom_site_symmetry_multiplicity
 _atom_site_fract_x
 _atom_site_fract_y
 _atom_site_fract_z
 _atom_site_occupancy
  Fe  Fe0  1  0.00155063  0.24889366  0.74885147  1
  Fe  Fe1  1  0.87200110  0.12661194  0.87670586  1
  Fe  Fe2  1  0.25286354  0.25102249  0.00186434  1
  Fe  Fe3  1  0.12871770  0.62641932  0.62648189  1
  Fe  Fe4  1  0.24997823  -0.00004993  0.49857925  1
  Fe  Fe5  1  -0.00166245  -0.00010915  0.75109273  1
  Fe  Fe6  1  0.74828694  -0.00141546  0.49459131  1
  Fe  Fe7  1  0.00170984  0.00309648  0.49939674  1
  Fe  Fe8  1  0.62435931  0.87352465  0.62281173  1
  Fe  Fe9  1  0.62252718  0.37819375  0.12515010  1
  Fe  Fe10  1  0.49934118  0.50365796  0.49667200  1
  Fe  Fe11  1  0.62625545  0.62927916  0.37167513  1
  Fe  Fe12  1  0.49835982  0.74752305  0.49877825  1
  Fe  Fe13  1  -0.00034669  0.25247935  0.24702275  1
  Fe  Fe14  1  0.87255481  0.62795409  0.87683577  1
  Fe  Fe15  1  0.49887281  0.74969917  0.74862038  1
  Fe  Fe16  1  0.12253174  0.87478471  0.12268725  1
  Fe  Fe17  1  0.37261745  0.12377884  0.62749979  1
  Fe  Fe18  1  0.24947743  -0.00347539  0.24868691  1
  Fe  Fe19  1  0.87282578  0.12181954  0.12654922  1
  Fe  Fe20  1  0.62270898  0.37476951  0.62282064  1
  Fe  Fe21  1  0.74819104  0.49967974  0.49904178  1
  Fe  Fe22  1  0.25239904  -0.00215963  -0.00151773  1
  Fe  Fe23  1  0.25235808  0.50289632  0.49893301  1
  Fe  Fe24  1  0.74838518  0.25057808  0.24837296  1
  Fe  Fe25  1  0.12505240  0.87205574  0.87702423  1
  Fe  Fe26  1  0.12441430  0.37695130  0.37345950  1
  Fe  Fe27  1  0.37491895  0.37477894  0.87494367  1
  Fe  Fe28  1  0.12782134  0.12622195  0.87495026  1
  Fe  Fe29  1  0.87586033  0.37410623  0.62262588  1
  Fe  Fe30  1  0.74998913  0.49915018  0.74951751  1
  Fe  Fe31  1  0.87460330  0.87104705  0.87965985  1
  Fe  Fe32  1  0.12604532  0.62521617  0.37155567  1
  Fe  Fe33  1  0.25437981  0.25370946  0.24951204  1
  Fe  Fe34  1  0.24909709  0.24843037  0.50033000  1
  Fe  Fe35  1  0.25361098  -0.00338391  0.75412581  1
  Fe  Fe36  1  0.37545781  0.12320857  0.12646591  1
  Fe  Fe37  1  0.50279709  0.74242471  0.00471472  1
  Fe  Fe38  1  0.75049256  0.49761110  0.25225896  1
  Fe  Fe39  1  0.12599154  0.37508447  0.87602055  1
  Fe  Fe40  1  -0.00066666  0.75000763  0.75043346  1
  Fe  Fe41  1  0.62604295  0.62585485  0.62591207  1
  Fe  Fe42  1  0.37979363  0.37987608  0.12597347  1
  Fe  Fe43  1  0.87516161  0.62602979  0.37473379  1
  Fe  Fe44  1  0.49927390  0.00246506  -0.00311195  1
  Fe  Fe45  1  0.25138272  0.50048800  0.00209000  1
  Fe  Fe46  1  0.62637579  0.12414111  0.62392595  1
  Fe  Fe47  1  0.49776950  0.24589323  0.49736276  1
  Fe  Fe48  1  0.74849640  0.25024228  0.74976051  1
  Fe  Fe49  1  0.62467599  0.37519114  0.87681529  1
  Fe  Fe50  1  0.62151280  0.37158365  0.37523436  1
  Fe  Fe51  1  0.12641062  0.12531459  0.37190565  1
  Fe  Fe52  1  0.37609551  0.87408835  0.37398996  1
  Fe  Fe53  1  0.87255481  0.62585811  0.62430398  1
  Fe  Fe54  1  0.12643144  0.87458950  0.62510183  1
  Fe  Fe55  1  0.37692056  0.87331999  0.12381237  1
  Fe  Fe56  1  0.00062464  0.74883247  0.50044181  1
  Fe  Fe57  1  0.12365254  0.87404841  0.37554327  1
  Fe  Fe58  1  0.87405622  0.87374252  0.62162821  1
  Fe  Fe59  1  0.37433384  0.87306887  0.62392078  1
  Fe  Fe60  1  0.49973135  0.00233371  0.49798767  1
  Fe  Fe61  1  0.74615137  0.50260979  -0.00039086  1
  Fe  Fe62  1  0.87147245  0.62726890  0.12493852  1
  Fe  Fe63  1  0.12707170  0.12565158  0.12539214  1
  Fe  Fe64  1  0.50039535  0.24672030  0.75127093  1
  Fe  Fe65  1  0.50092772  0.24810916  -0.00031434  1
  Fe  Fe66  1  0.87443267  0.12641683  0.62259084  1
  Fe  Fe67  1  0.37252950  0.62725138  0.36882912  1
  Fe  Fe68  1  0.74853682  -0.00123863  0.00022480  1
  Fe  Fe69  1  0.49850580  0.50088838  0.75110276  1
  Fe  Fe70  1  0.87459747  0.12489532  0.37306331  1
  Fe  Fe71  1  -0.00101461  0.75181999  0.24807477  1
  Fe  Fe72  1  0.62490711  0.12386694  0.12658455  1
  Fe  Fe73  1  0.75103257  0.75764061  0.25058268  1
  Fe  Fe74  1  0.00056044  0.00179608  0.00024325  1
  Fe  Fe75  1  0.62354202  0.87605280  0.12597800  1
  Fe  Fe76  1  -0.00090725  0.25072257  0.00338439  1
  Fe  Fe77  1  0.12738277  0.62550276  0.87491090  1
  Fe  Fe78  1  0.50133340  0.00139242  0.25340470  1
  Fe  Fe79  1  0.74944862  -0.00202006  0.75024016  1
  Fe  Fe80  1  0.87731958  0.37450141  0.37613795  1
  Fe  Fe81  1  -0.00040376  0.50037899  0.00414058  1
  Fe  Fe82  1  0.62254631  0.87392791  0.87388898  1
  Fe  Fe83  1  0.87400522  0.37414635  0.87811604  1
  Fe  Fe84  1  0.12824023  0.62400386  0.12797616  1
  Fe  Fe85  1  0.37331015  0.62687647  0.87500861  1
  Fe  Fe86  1  0.37530378  0.37627333  0.62403705  1
  Fe  Fe87  1  0.12565875  0.37616847  0.62510631  1
  Fe  Fe88  1  -0.00040923  0.50070911  0.75072912  1
  Fe  Fe89  1  0.00047274  0.50139287  0.49967924  1
  Co  Co90  1  0.62595301  0.12345762  0.87504714  1
  Co  Co91  1  0.12588903  0.37563513  0.12542691  1
  Co  Co92  1  0.24940213  0.75485870  0.24785646  1
  Co  Co93  1  0.25116276  0.74965038  0.00298471  1
  Co  Co94  1  0.37646597  0.37503387  0.37784742  1
  Co  Co95  1  0.75002637  0.25148790  0.49894203  1
  Co  Co96  1  0.37221292  0.12298831  0.37229237  1
  Co  Co97  1  0.25169353  0.49603017  0.25053958  1
  Co  Co98  1  0.87662290  0.87624470  0.12163916  1
  Co  Co99  1  0.62779201  0.62232107  0.13231811  1
  Co  Co100  1  0.74363156  0.75031777  0.00213697  1
  Co  Co101  1  0.75019329  0.75047689  0.49807216  1
  Co  Co102  1  0.37415079  0.12583541  0.87467282  1
  Co  Co103  1  0.87147206  0.37689190  0.12318924  1
  Co  Co104  1  0.37439452  0.62506743  0.62640706  1
  Co  Co105  1  0.24937114  0.25107134  0.74885974  1
  Co  Co106  1  0.62555855  0.12701678  0.37380792  1
  Co  Co107  1  0.74818204  -0.00431386  0.25269913  1
  Co  Co108  1  0.25097884  0.74926663  0.49800751  1
  Co  Co109  1  0.49985303  0.75024604  0.24740990  1
  Co  Co110  1  0.38006137  0.87014822  0.87887030  1
  Co  Co111  1  0.00298309  0.24843100  0.49988354  1
  Co  Co112  1  0.62041495  0.87277281  0.37645528  1
  Co  Co113  1  0.50123848  0.50571640  -0.00120018  1
  Co  Co114  1  0.12681162  0.12107926  0.62790825  1
  Co  Co115  1  -0.00199672  0.50018216  0.24703012  1
  Co  Co116  1  0.00213756  0.74723341  0.00198195  1
  Co  Co117  1  0.49910924  0.00028982  0.74962932  1
  Co  Co118  1  0.49806901  0.24927865  0.24928248  1
  Co  Co119  1  0.25139120  0.75215261  0.75115946  1
  Co  Co120  1  0.25133271  0.49956357  0.74973428  1
  Co  Co121  1  0.00155576  -0.00063601  0.24854453  1
  Co  Co122  1  0.50005809  0.50042668  0.25384747  1
  Co  Co123  1  0.74714986  0.24925098  0.00265990  1
  Co  Co124  1  0.75096884  0.75231730  0.74942090  1
  Co  Co125  1  0.37339123  0.62275166  0.12954577  1
  Co  Co126  1  0.62619822  0.62636235  0.87015069  1
  Co  Co127  1  0.87914315  0.87633515  0.37687555  1
