# generated using pymatgen
data_Fe45Co19
_symmetry_space_group_name_H-M   'P 1'
_cell_length_a   11.41520525
_cell_length_b   11.41579132
_cell_length_c   11.41562094
_cell_angle_alpha   89.99771010
_cell_angle_beta   89.99177798
_cell_angle_gamma   90.00838655
_symmetry_Int_Tables_number   1
_chemical_formula_structural   Fe45Co19
_chemical_formula_sum   'Fe90 Co38'
_cell_volume   1487.61064017
_cell_formula_units_Z   2
loop_
 _symmetry_equiv_pos_site_id
 _symmetry_equiv_pos_as_xyz
  1  'x, y, z'
loop_
 _atom_site_type_symbol
 _atom_site_label
 _atom_site_symmetry_multiplicity
 _atom_site_fract_x
 _atom_site_fract_y
 _atom_site_fract_z
 _atom_site_occupancy
  Fe  Fe0  1  0.25065734  -0.00076341  0.00145905  1
  Fe  Fe1  1  0.12711197  0.62332825  0.37325575  1
  Fe  Fe2  1  0.37738097  0.12587285  0.62027408  1
  Fe  Fe3  1  0.62484170  0.12450613  0.62712036  1
  Fe  Fe4  1  0.25091747  0.75236071  0.24956061  1
  Fe  Fe5  1  0.00209352  0.24760827  -0.00150152  1
  Fe  Fe6  1  -0.00092639  0.24921451  0.25215542  1
  Fe  Fe7  1  -0.00177082  -0.00070428  0.25085019  1
  Fe  Fe8  1  0.87397102  0.62464798  0.37686728  1
  Fe  Fe9  1  0.87087124  0.12315843  0.37410008  1
  Fe  Fe10  1  0.37263922  0.87789065  0.37961652  1
  Fe  Fe11  1  0.75243997  0.50211972  0.50752591  1
  Fe  Fe12  1  -0.00141458  0.00242769  0.74943145  1
  Fe  Fe13  1  0.74766114  0.74923739  0.50412493  1
  Fe  Fe14  1  0.25252247  0.49775380  0.24869013  1
  Fe  Fe15  1  0.87198517  0.12677757  0.12635348  1
  Fe  Fe16  1  0.75263148  0.25431793  0.75079499  1
  Fe  Fe17  1  0.50020390  0.75081697  0.75177142  1
  Fe  Fe18  1  0.62856871  0.12173431  0.37204209  1
  Fe  Fe19  1  0.74714026  0.24897230  0.50014065  1
  Fe  Fe20  1  0.37234882  0.62495440  0.37667896  1
  Fe  Fe21  1  0.37111662  0.62612571  0.87257662  1
  Fe  Fe22  1  0.50155964  0.74866357  0.49958760  1
  Fe  Fe23  1  0.49893471  0.50067851  0.50116040  1
  Fe  Fe24  1  -0.00250165  0.74878925  0.75512032  1
  Fe  Fe25  1  0.24935162  0.25163628  -0.00023387  1
  Fe  Fe26  1  0.49721524  0.49921039  0.75051911  1
  Fe  Fe27  1  0.87239503  0.12598753  0.87578690  1
  Fe  Fe28  1  0.24776206  0.74980600  -0.00223780  1
  Fe  Fe29  1  0.11905853  0.37512092  0.62846269  1
  Fe  Fe30  1  0.87442787  0.37217034  0.12289742  1
  Fe  Fe31  1  0.87677366  0.87162113  0.12211265  1
  Fe  Fe32  1  0.38084742  0.37710084  0.12239455  1
  Fe  Fe33  1  0.62154829  0.62075142  0.12693255  1
  Fe  Fe34  1  0.37507668  0.12585348  0.12643510  1
  Fe  Fe35  1  0.75191946  0.49952154  0.24803282  1
  Fe  Fe36  1  0.49944803  0.25012899  0.75051740  1
  Fe  Fe37  1  0.00022376  0.00122129  -0.00153839  1
  Fe  Fe38  1  0.24934606  0.25071679  0.50195388  1
  Fe  Fe39  1  0.25220195  -0.00331068  0.74302536  1
  Fe  Fe40  1  0.25162221  0.25239346  0.74867651  1
  Fe  Fe41  1  0.62663345  0.62329617  0.37600499  1
  Fe  Fe42  1  0.62551991  0.87697570  0.87541631  1
  Fe  Fe43  1  0.74345773  0.25001811  -0.00076739  1
  Fe  Fe44  1  0.62681145  0.37879986  0.37598760  1
  Fe  Fe45  1  0.37770207  0.87391783  0.12104283  1
  Fe  Fe46  1  0.37687000  0.37500753  0.87601582  1
  Fe  Fe47  1  0.87769900  0.62930779  0.12019748  1
  Fe  Fe48  1  0.62197745  0.87596164  0.62406607  1
  Fe  Fe49  1  0.75011434  0.74957323  0.24813637  1
  Fe  Fe50  1  0.50563850  0.24654744  -0.00185630  1
  Fe  Fe51  1  0.37509749  0.37308865  0.37758436  1
  Fe  Fe52  1  0.12336203  0.37435162  0.12585508  1
  Fe  Fe53  1  0.37698607  0.62394795  0.12476850  1
  Fe  Fe54  1  0.50235407  0.74681298  -0.00377236  1
  Fe  Fe55  1  0.62384683  0.37658923  0.62687164  1
  Fe  Fe56  1  0.00275091  0.24589403  0.49779132  1
  Fe  Fe57  1  0.87545143  0.37616314  0.37846832  1
  Fe  Fe58  1  0.13199563  0.12222806  0.37260052  1
  Fe  Fe59  1  0.63240626  0.62268712  0.86777228  1
  Fe  Fe60  1  0.12221452  0.87382394  0.12592860  1
  Fe  Fe61  1  0.87931868  0.87424256  0.62220575  1
  Fe  Fe62  1  0.24799391  0.75215141  0.50528933  1
  Fe  Fe63  1  0.50205289  0.25125636  0.25282252  1
  Fe  Fe64  1  0.74888233  0.49808022  -0.00171260  1
  Fe  Fe65  1  0.49978360  0.74890427  0.25302013  1
  Fe  Fe66  1  0.37367569  0.12321238  0.87520614  1
  Fe  Fe67  1  0.87113605  0.87254562  0.87811769  1
  Fe  Fe68  1  0.62784391  0.87618486  0.37558197  1
  Fe  Fe69  1  0.49779083  -0.00080087  0.75123906  1
  Fe  Fe70  1  0.12368071  0.62033421  0.87211598  1
  Fe  Fe71  1  0.12462145  0.37630301  0.37395518  1
  Fe  Fe72  1  0.49753638  0.00029009  0.25217386  1
  Fe  Fe73  1  0.12745926  0.87751978  0.87215469  1
  Fe  Fe74  1  0.24964229  0.49911181  -0.00046324  1
  Fe  Fe75  1  0.12175721  0.62312325  0.62944450  1
  Fe  Fe76  1  -0.00180589  0.50114497  0.24939882  1
  Fe  Fe77  1  0.24933374  0.49777931  0.50430242  1
  Fe  Fe78  1  0.87395388  0.87598674  0.37778496  1
  Fe  Fe79  1  0.75156200  -0.00201148  0.74745482  1
  Fe  Fe80  1  0.12044099  0.37654041  0.87212327  1
  Fe  Fe81  1  0.12684655  0.12537337  0.12720730  1
  Fe  Fe82  1  0.12583219  0.87787828  0.37636802  1
  Fe  Fe83  1  0.74660970  0.00223402  0.00204446  1
  Fe  Fe84  1  0.87557412  0.12686534  0.62429775  1
  Fe  Fe85  1  0.62201207  0.87663146  0.12472695  1
  Fe  Fe86  1  0.12317154  0.62682625  0.12642209  1
  Fe  Fe87  1  0.37465876  0.62620527  0.62641558  1
  Fe  Fe88  1  0.00200243  0.74744517  0.49692010  1
  Fe  Fe89  1  0.12777805  0.12434082  0.87182223  1
  Co  Co90  1  -0.00122989  0.74999688  0.25375454  1
  Co  Co91  1  0.37969861  0.87289087  0.62354048  1
  Co  Co92  1  0.62283462  0.62322561  0.62862782  1
  Co  Co93  1  0.37415372  0.87534884  0.87649745  1
  Co  Co94  1  0.50181767  0.00444906  -0.00100934  1
  Co  Co95  1  0.62646459  0.12451860  0.13084740  1
  Co  Co96  1  -0.00069020  0.50023660  0.00046675  1
  Co  Co97  1  0.25197713  0.49629910  0.74903645  1
  Co  Co98  1  0.50192298  0.00223743  0.49726430  1
  Co  Co99  1  0.25248490  0.25382890  0.24832964  1
  Co  Co100  1  -0.01094129  0.50011692  0.75089918  1
  Co  Co101  1  0.75260884  -0.00478676  0.24711625  1
  Co  Co102  1  0.24805149  -0.00148128  0.50716375  1
  Co  Co103  1  0.00159768  0.00511231  0.49984743  1
  Co  Co104  1  0.12532095  0.12768510  0.62784315  1
  Co  Co105  1  0.50396322  0.24861992  0.49715178  1
  Co  Co106  1  0.87928117  0.36897214  0.61890628  1
  Co  Co107  1  0.50167127  0.50403465  -0.00743026  1
  Co  Co108  1  0.11822451  0.87283090  0.62562209  1
  Co  Co109  1  0.00481342  0.75094426  -0.00585824  1
  Co  Co110  1  0.37809587  0.37348959  0.62387424  1
  Co  Co111  1  0.74280319  0.74961062  0.00310494  1
  Co  Co112  1  0.75086521  0.75287780  0.74491448  1
  Co  Co113  1  0.37077225  0.12464087  0.37657148  1
  Co  Co114  1  -0.00239220  0.24812513  0.75226752  1
  Co  Co115  1  0.62142946  0.37866731  0.12480667  1
  Co  Co116  1  0.49783976  0.49995843  0.25542327  1
  Co  Co117  1  0.62497876  0.37697648  0.87074474  1
  Co  Co118  1  0.74856473  0.25536287  0.25141814  1
  Co  Co119  1  0.87664563  0.37210069  0.87970542  1
  Co  Co120  1  0.87807992  0.63046017  0.62353105  1
  Co  Co121  1  0.75993846  0.49702003  0.74615982  1
  Co  Co122  1  0.62657239  0.12360202  0.86969240  1
  Co  Co123  1  0.00104660  0.50202216  0.50077026  1
  Co  Co124  1  0.74957487  0.00037883  0.50433446  1
  Co  Co125  1  0.25218110  -0.00298137  0.24676797  1
  Co  Co126  1  0.24867474  0.75242102  0.74794015  1
  Co  Co127  1  0.87006768  0.62907748  0.87931059  1
