# generated using pymatgen
data_Fe45Co19
_symmetry_space_group_name_H-M   'P 1'
_cell_length_a   11.41501562
_cell_length_b   11.41650161
_cell_length_c   11.41587602
_cell_angle_alpha   89.99974167
_cell_angle_beta   89.99286237
_cell_angle_gamma   89.99039752
_symmetry_Int_Tables_number   1
_chemical_formula_structural   Fe45Co19
_chemical_formula_sum   'Fe90 Co38'
_cell_volume   1487.71172646
_cell_formula_units_Z   2
loop_
 _symmetry_equiv_pos_site_id
 _symmetry_equiv_pos_as_xyz
  1  'x, y, z'
loop_
 _atom_site_type_symbol
 _atom_site_label
 _atom_site_symmetry_multiplicity
 _atom_site_fract_x
 _atom_site_fract_y
 _atom_site_fract_z
 _atom_site_occupancy
  Fe  Fe0  1  0.74929266  0.75019534  0.24790766  1
  Fe  Fe1  1  0.74913424  0.50020829  0.75252906  1
  Fe  Fe2  1  0.62331114  0.62529262  0.12448991  1
  Fe  Fe3  1  0.62355468  0.62335107  0.62531063  1
  Fe  Fe4  1  0.75190604  -0.00050624  0.75022046  1
  Fe  Fe5  1  0.00010969  0.24783489  0.75184134  1
  Fe  Fe6  1  0.37482606  0.12717565  0.37476569  1
  Fe  Fe7  1  0.62335956  0.62889018  0.37452881  1
  Fe  Fe8  1  0.37466903  0.37596936  0.62414310  1
  Fe  Fe9  1  -0.00084198  0.24956503  0.00062573  1
  Fe  Fe10  1  0.12366109  0.12380869  0.62251219  1
  Fe  Fe11  1  -0.00043323  0.75083221  0.50362849  1
  Fe  Fe12  1  0.49913825  0.75301817  0.00227090  1
  Fe  Fe13  1  0.37388312  0.37267129  0.37426762  1
  Fe  Fe14  1  0.12665708  0.11974301  0.12624098  1
  Fe  Fe15  1  0.12758989  0.37397408  0.87545177  1
  Fe  Fe16  1  0.75133656  0.75145949  0.00196683  1
  Fe  Fe17  1  0.49961093  0.24978266  0.50055297  1
  Fe  Fe18  1  0.74718856  -0.00154255  0.25308891  1
  Fe  Fe19  1  0.87203765  0.37431858  0.37036481  1
  Fe  Fe20  1  0.24678096  0.75162181  0.24807770  1
  Fe  Fe21  1  0.24785341  0.50033552  0.25122218  1
  Fe  Fe22  1  0.00108224  0.75104689  0.74651567  1
  Fe  Fe23  1  0.49912609  -0.00122936  -0.00089574  1
  Fe  Fe24  1  0.25039917  0.24875378  0.00276056  1
  Fe  Fe25  1  0.37287519  0.62721060  0.37523265  1
  Fe  Fe26  1  0.62617286  0.87464098  0.87632986  1
  Fe  Fe27  1  0.12653388  0.62179391  0.62158757  1
  Fe  Fe28  1  0.25350030  0.50149707  0.75208922  1
  Fe  Fe29  1  0.62892677  0.87481320  0.62087831  1
  Fe  Fe30  1  0.37381909  0.62386588  0.12462878  1
  Fe  Fe31  1  0.62449764  0.37644724  0.62440183  1
  Fe  Fe32  1  0.87498939  0.62342967  0.62570695  1
  Fe  Fe33  1  0.87753371  0.62572494  0.37366427  1
  Fe  Fe34  1  0.00002650  0.25029567  0.24712532  1
  Fe  Fe35  1  -0.00128470  0.25212356  0.50022608  1
  Fe  Fe36  1  0.37299070  0.87846048  0.12771804  1
  Fe  Fe37  1  0.50026828  0.50061644  0.25182835  1
  Fe  Fe38  1  0.87594758  0.12348847  0.62529713  1
  Fe  Fe39  1  0.49742828  0.49789914  -0.00359315  1
  Fe  Fe40  1  0.62347483  0.62660394  0.87589637  1
  Fe  Fe41  1  0.24735854  0.24799776  0.25067554  1
  Fe  Fe42  1  0.00224174  0.74964931  0.00272931  1
  Fe  Fe43  1  0.37425135  0.37554706  0.12629735  1
  Fe  Fe44  1  0.87764621  0.87519845  0.87331124  1
  Fe  Fe45  1  0.87677323  0.87800269  0.12423005  1
  Fe  Fe46  1  0.25084260  0.24817049  0.74554376  1
  Fe  Fe47  1  0.00268079  0.75068132  0.24683227  1
  Fe  Fe48  1  0.87283604  0.87207852  0.37724894  1
  Fe  Fe49  1  0.24692088  0.00020059  0.75179327  1
  Fe  Fe50  1  0.62696745  0.12516277  0.62187991  1
  Fe  Fe51  1  0.00342460  0.00144633  -0.00649439  1
  Fe  Fe52  1  0.49667779  0.49960277  0.75482233  1
  Fe  Fe53  1  0.12528950  0.37705056  0.62329428  1
  Fe  Fe54  1  0.00129996  0.50089946  0.75194342  1
  Fe  Fe55  1  0.25180087  0.74994701  0.74450746  1
  Fe  Fe56  1  0.49689142  0.75026568  0.50291958  1
  Fe  Fe57  1  0.37401429  0.12659077  0.87466139  1
  Fe  Fe58  1  0.87422076  0.37540712  0.87681469  1
  Fe  Fe59  1  0.12472622  0.62653868  0.37712550  1
  Fe  Fe60  1  0.75092840  0.25089530  0.00313247  1
  Fe  Fe61  1  -0.00102243  -0.00244148  0.49924814  1
  Fe  Fe62  1  0.12375200  0.37928449  0.12331784  1
  Fe  Fe63  1  0.75022281  0.75058333  0.74842733  1
  Fe  Fe64  1  0.62736890  0.12542224  0.87619883  1
  Fe  Fe65  1  0.49838083  0.49942478  0.49683808  1
  Fe  Fe66  1  0.37459213  0.87246293  0.37509436  1
  Fe  Fe67  1  0.50086141  -0.00011169  0.74897331  1
  Fe  Fe68  1  0.62767712  0.37828198  0.12679936  1
  Fe  Fe69  1  0.37394531  0.87374382  0.87302070  1
  Fe  Fe70  1  0.50350913  0.24973035  0.25015332  1
  Fe  Fe71  1  0.49901206  0.75135959  0.74691818  1
  Fe  Fe72  1  0.75109285  0.50055936  0.49746788  1
  Fe  Fe73  1  0.75053022  0.25012013  0.74908502  1
  Fe  Fe74  1  0.87301605  0.12802432  0.37490534  1
  Fe  Fe75  1  0.12746449  0.62666679  0.87674816  1
  Fe  Fe76  1  0.87705567  0.61878541  0.12549787  1
  Fe  Fe77  1  0.87441924  0.12213320  0.12442942  1
  Fe  Fe78  1  0.24814819  -0.00009098  0.49613137  1
  Fe  Fe79  1  0.37377390  0.12215727  0.12720948  1
  Fe  Fe80  1  0.62543934  0.12127837  0.12496084  1
  Fe  Fe81  1  0.50150278  -0.00002680  0.49862929  1
  Fe  Fe82  1  0.50066375  0.25081177  0.00028501  1
  Fe  Fe83  1  0.24783900  0.75253489  0.00360019  1
  Fe  Fe84  1  0.50272833  -0.00196535  0.25329388  1
  Fe  Fe85  1  0.00159431  -0.00066698  0.25405355  1
  Fe  Fe86  1  0.49965637  0.24880045  0.74916725  1
  Fe  Fe87  1  0.87542684  0.37703518  0.62611521  1
  Fe  Fe88  1  0.12477269  0.37388268  0.37736931  1
  Fe  Fe89  1  0.87507877  0.62570229  0.87516981  1
  Co  Co90  1  0.00069316  0.50042221  -0.00376533  1
  Co  Co91  1  0.62606543  0.37303509  0.87418763  1
  Co  Co92  1  0.12484021  0.87032243  0.87359144  1
  Co  Co93  1  0.37276490  0.36955239  0.87457511  1
  Co  Co94  1  0.25155485  0.49915645  0.49822253  1
  Co  Co95  1  0.87460492  0.37967596  0.12622621  1
  Co  Co96  1  -0.00254502  0.49899202  0.49845233  1
  Co  Co97  1  0.62610304  0.12833319  0.37678596  1
  Co  Co98  1  0.12393037  0.88132655  0.12587519  1
  Co  Co99  1  0.62476352  0.87541629  0.12639872  1
  Co  Co100  1  0.74963967  -0.00260660  -0.00063057  1
  Co  Co101  1  0.62672767  0.37282465  0.37487270  1
  Co  Co102  1  0.25256854  0.49956629  -0.00210235  1
  Co  Co103  1  0.12221352  0.12735874  0.37641581  1
  Co  Co104  1  0.37364992  0.87920999  0.62440155  1
  Co  Co105  1  0.00284106  0.49898716  0.25268316  1
  Co  Co106  1  0.37510941  0.63039759  0.87674021  1
  Co  Co107  1  0.75084367  0.00081616  0.49728144  1
  Co  Co108  1  0.37627066  0.62233841  0.62438138  1
  Co  Co109  1  0.87436562  0.87630012  0.62553666  1
  Co  Co110  1  0.25023730  0.24931197  0.50069510  1
  Co  Co111  1  0.12479892  0.87765905  0.62471344  1
  Co  Co112  1  0.49828930  0.75090995  0.24844294  1
  Co  Co113  1  0.74898928  0.24758260  0.24613320  1
  Co  Co114  1  0.12448717  0.62098252  0.12417244  1
  Co  Co115  1  0.00175867  0.00180553  0.75282645  1
  Co  Co116  1  0.37397791  0.12189715  0.62383175  1
  Co  Co117  1  0.25109809  0.75073105  0.50323053  1
  Co  Co118  1  0.74913387  0.50124168  -0.00198732  1
  Co  Co119  1  0.75170788  0.25185449  0.50170062  1
  Co  Co120  1  0.87210081  0.12564513  0.87545255  1
  Co  Co121  1  0.12835599  0.12926757  0.87478076  1
  Co  Co122  1  0.24887807  -0.00004819  0.25604986  1
  Co  Co123  1  0.74788087  0.50370667  0.25284704  1
  Co  Co124  1  0.25065199  -0.00083979  -0.00350087  1
  Co  Co125  1  0.62571680  0.86953109  0.37742545  1
  Co  Co126  1  0.75210379  0.74589115  0.50143931  1
  Co  Co127  1  0.12360023  0.87114866  0.37583446  1
