# generated using pymatgen
data_Fe45Co19
_symmetry_space_group_name_H-M   'P 1'
_cell_length_a   11.41560820
_cell_length_b   11.41600289
_cell_length_c   11.41567617
_cell_angle_alpha   90.00206416
_cell_angle_beta   90.01099914
_cell_angle_gamma   89.99866811
_symmetry_Int_Tables_number   1
_chemical_formula_structural   Fe45Co19
_chemical_formula_sum   'Fe90 Co38'
_cell_volume   1487.69792447
_cell_formula_units_Z   2
loop_
 _symmetry_equiv_pos_site_id
 _symmetry_equiv_pos_as_xyz
  1  'x, y, z'
loop_
 _atom_site_type_symbol
 _atom_site_label
 _atom_site_symmetry_multiplicity
 _atom_site_fract_x
 _atom_site_fract_y
 _atom_site_fract_z
 _atom_site_occupancy
  Fe  Fe0  1  0.75054815  0.49666325  0.50112222  1
  Fe  Fe1  1  0.74955607  0.75291163  -0.00242839  1
  Fe  Fe2  1  0.87602348  0.37438655  0.12394332  1
  Fe  Fe3  1  0.12491004  0.12505745  0.12530536  1
  Fe  Fe4  1  0.12366847  0.12470816  0.62611432  1
  Fe  Fe5  1  0.87115675  0.12186065  0.86709162  1
  Fe  Fe6  1  0.74839567  0.49521582  0.74752543  1
  Fe  Fe7  1  -0.00089249  0.74645138  0.75303575  1
  Fe  Fe8  1  0.37688569  0.37618521  0.62226189  1
  Fe  Fe9  1  0.50238341  0.75312581  0.25093900  1
  Fe  Fe10  1  -0.00054919  0.00035179  -0.00228287  1
  Fe  Fe11  1  0.25198669  0.24933665  0.25042585  1
  Fe  Fe12  1  0.00083795  0.50443291  -0.00199925  1
  Fe  Fe13  1  0.24913836  0.75228542  0.24900099  1
  Fe  Fe14  1  0.62375558  0.87438592  0.62370245  1
  Fe  Fe15  1  0.62453346  0.62373578  0.62329618  1
  Fe  Fe16  1  0.75070672  0.49847375  0.25141471  1
  Fe  Fe17  1  0.62550613  0.62706882  0.37782495  1
  Fe  Fe18  1  0.62638993  0.62466640  0.12613170  1
  Fe  Fe19  1  0.25115531  -0.00188333  0.24897015  1
  Fe  Fe20  1  0.37497777  0.62612161  0.12674356  1
  Fe  Fe21  1  0.50135024  0.74971028  0.00216247  1
  Fe  Fe22  1  0.12304470  0.37364953  0.12470827  1
  Fe  Fe23  1  -0.00155638  0.24702569  -0.00209438  1
  Fe  Fe24  1  0.87382802  0.62626016  0.37515127  1
  Fe  Fe25  1  -0.00130270  0.50019234  0.25076229  1
  Fe  Fe26  1  -0.00163475  0.75209617  0.24708529  1
  Fe  Fe27  1  0.12519518  0.87316237  0.62608286  1
  Fe  Fe28  1  0.24930709  0.25173235  0.74881500  1
  Fe  Fe29  1  0.63020944  0.12968388  0.62690717  1
  Fe  Fe30  1  0.62409895  0.37337212  0.37619234  1
  Fe  Fe31  1  0.37593928  0.37471780  0.87670617  1
  Fe  Fe32  1  0.37656215  0.87572767  0.37902257  1
  Fe  Fe33  1  0.75225981  -0.00010363  0.49996433  1
  Fe  Fe34  1  0.37585982  0.62597002  0.37863926  1
  Fe  Fe35  1  0.50077348  0.49954314  0.74885680  1
  Fe  Fe36  1  0.87356435  0.62575037  0.12520849  1
  Fe  Fe37  1  0.74993395  0.25093442  -0.00413019  1
  Fe  Fe38  1  0.25122009  -0.00041366  0.00084008  1
  Fe  Fe39  1  0.50003078  0.49962951  0.25158794  1
  Fe  Fe40  1  0.24917406  0.49948832  0.75037164  1
  Fe  Fe41  1  0.74868188  0.50062732  -0.00016536  1
  Fe  Fe42  1  0.37579726  0.12556447  0.12550316  1
  Fe  Fe43  1  0.50117311  0.00142276  0.50182094  1
  Fe  Fe44  1  0.74979926  0.75546131  0.25077068  1
  Fe  Fe45  1  0.49493720  0.74885474  0.74427329  1
  Fe  Fe46  1  0.37695968  0.37406937  0.12535454  1
  Fe  Fe47  1  0.12211254  0.37257072  0.37557281  1
  Fe  Fe48  1  0.62533522  0.62501411  0.87329791  1
  Fe  Fe49  1  0.87689802  0.12600234  0.37726666  1
  Fe  Fe50  1  0.12363279  0.12559252  0.37379177  1
  Fe  Fe51  1  0.37451553  0.12625776  0.87384475  1
  Fe  Fe52  1  0.24912439  -0.00154542  0.75068139  1
  Fe  Fe53  1  0.87522846  0.62161944  0.62572609  1
  Fe  Fe54  1  0.24795380  0.50008702  0.49864965  1
  Fe  Fe55  1  0.87856722  0.37319716  0.37835507  1
  Fe  Fe56  1  0.62553971  0.12441786  0.37387348  1
  Fe  Fe57  1  0.24999560  0.24902173  0.49980845  1
  Fe  Fe58  1  0.87724544  0.37785565  0.87226978  1
  Fe  Fe59  1  0.87809684  0.87918956  0.62775713  1
  Fe  Fe60  1  0.75087571  0.75213037  0.74985744  1
  Fe  Fe61  1  0.12500782  0.87269037  0.87529484  1
  Fe  Fe62  1  0.24881517  0.75032496  0.00295408  1
  Fe  Fe63  1  -0.00076018  0.74923269  0.50107492  1
  Fe  Fe64  1  0.37327714  0.62490192  0.87442725  1
  Fe  Fe65  1  0.75093137  0.24938168  0.25064386  1
  Fe  Fe66  1  0.87190096  0.12288994  0.12395464  1
  Fe  Fe67  1  -0.00122027  0.74810321  -0.00054241  1
  Fe  Fe68  1  0.50169673  -0.00075689  -0.00117605  1
  Fe  Fe69  1  0.24792497  0.00005779  0.50006710  1
  Fe  Fe70  1  0.50040845  -0.00153541  0.24941931  1
  Fe  Fe71  1  0.50271819  0.25090908  0.75199604  1
  Fe  Fe72  1  0.12427627  0.62695084  0.37392964  1
  Fe  Fe73  1  0.62429117  0.37495528  0.12444638  1
  Fe  Fe74  1  0.12773574  0.12718843  0.87455904  1
  Fe  Fe75  1  0.12377805  0.37388024  0.87528378  1
  Fe  Fe76  1  0.74761399  -0.00528483  -0.00630690  1
  Fe  Fe77  1  0.49798194  0.24871242  0.49717721  1
  Fe  Fe78  1  0.11871774  0.37607562  0.62519347  1
  Fe  Fe79  1  0.12253350  0.87463250  0.37554742  1
  Fe  Fe80  1  0.37628329  0.87483572  0.87397954  1
  Fe  Fe81  1  0.12730914  0.62597165  0.62651992  1
  Fe  Fe82  1  0.37411519  0.12468078  0.62579886  1
  Fe  Fe83  1  0.24980108  0.50049290  0.00165390  1
  Fe  Fe84  1  -0.00343603  -0.00104591  0.24934740  1
  Fe  Fe85  1  0.25011992  0.49992507  0.25048008  1
  Fe  Fe86  1  0.75089643  0.75252923  0.50116539  1
  Fe  Fe87  1  0.50147255  0.24909419  -0.00068399  1
  Fe  Fe88  1  0.62753677  0.12287801  0.12540484  1
  Fe  Fe89  1  0.50260035  0.00104075  0.74969558  1
  Co  Co90  1  0.00107479  0.50447645  0.75195229  1
  Co  Co91  1  0.49915412  0.50307534  0.00117872  1
  Co  Co92  1  0.87361510  0.87641249  0.12260764  1
  Co  Co93  1  -0.00193716  0.24850404  0.24823658  1
  Co  Co94  1  0.25438407  0.75146420  0.74744955  1
  Co  Co95  1  -0.00054554  0.24698331  0.75046816  1
  Co  Co96  1  0.37261403  0.61986855  0.62189980  1
  Co  Co97  1  0.37467949  0.12282232  0.37554652  1
  Co  Co98  1  0.87167681  0.12252948  0.63018412  1
  Co  Co99  1  0.00032204  0.50413769  0.49876674  1
  Co  Co100  1  0.50070521  0.24942862  0.25053414  1
  Co  Co101  1  0.75280635  -0.00095457  0.25443468  1
  Co  Co102  1  0.62227733  0.37140686  0.62151778  1
  Co  Co103  1  0.00049979  0.00102423  0.50113033  1
  Co  Co104  1  0.62793754  0.87799597  0.12565010  1
  Co  Co105  1  0.88019962  0.37532826  0.62492530  1
  Co  Co106  1  0.50201629  0.50080822  0.49863722  1
  Co  Co107  1  0.00481932  0.00123958  0.75082518  1
  Co  Co108  1  0.37404541  0.88034920  0.62306640  1
  Co  Co109  1  0.49854286  0.74992255  0.50371133  1
  Co  Co110  1  0.61979004  0.87007771  0.87190930  1
  Co  Co111  1  0.75293382  0.25053645  0.49947454  1
  Co  Co112  1  0.62751103  0.12623180  0.87357889  1
  Co  Co113  1  0.75038507  0.25653846  0.75076781  1
  Co  Co114  1  0.25088255  0.75077489  0.50100215  1
  Co  Co115  1  0.12403224  0.62411137  0.12654612  1
  Co  Co116  1  0.62436501  0.87587438  0.37781561  1
  Co  Co117  1  0.87021814  0.62360519  0.87395338  1
  Co  Co118  1  0.87667141  0.87381190  0.37713805  1
  Co  Co119  1  0.12971655  0.62711142  0.87419889  1
  Co  Co120  1  0.62340022  0.37732525  0.87754857  1
  Co  Co121  1  0.25041231  0.24985726  0.00132187  1
  Co  Co122  1  0.12285282  0.87699395  0.12386863  1
  Co  Co123  1  0.37547334  0.87429390  0.12458212  1
  Co  Co124  1  0.74484052  -0.00490658  0.75048599  1
  Co  Co125  1  0.37433993  0.37490194  0.37666744  1
  Co  Co126  1  -0.00023113  0.24573204  0.50371289  1
  Co  Co127  1  0.87779002  0.87551242  0.87211181  1
