# generated using pymatgen
data_Fe45Co19
_symmetry_space_group_name_H-M   'P 1'
_cell_length_a   11.41469558
_cell_length_b   11.41586103
_cell_length_c   11.41466078
_cell_angle_alpha   90.00091372
_cell_angle_beta   90.00475364
_cell_angle_gamma   90.00591443
_symmetry_Int_Tables_number   1
_chemical_formula_structural   Fe45Co19
_chemical_formula_sum   'Fe90 Co38'
_cell_volume   1487.42820625
_cell_formula_units_Z   2
loop_
 _symmetry_equiv_pos_site_id
 _symmetry_equiv_pos_as_xyz
  1  'x, y, z'
loop_
 _atom_site_type_symbol
 _atom_site_label
 _atom_site_symmetry_multiplicity
 _atom_site_fract_x
 _atom_site_fract_y
 _atom_site_fract_z
 _atom_site_occupancy
  Fe  Fe0  1  0.62161778  0.12591337  0.87740180  1
  Fe  Fe1  1  0.00071555  -0.00012457  0.75163786  1
  Fe  Fe2  1  0.49638265  0.75008335  0.25164208  1
  Fe  Fe3  1  0.87336463  0.37447754  0.87502021  1
  Fe  Fe4  1  0.74671340  0.50034082  0.50126436  1
  Fe  Fe5  1  0.25291574  0.74750927  0.74999049  1
  Fe  Fe6  1  0.87334152  0.87495727  0.12476538  1
  Fe  Fe7  1  0.87600653  0.62509934  0.87617500  1
  Fe  Fe8  1  0.00165768  0.49935899  -0.00049943  1
  Fe  Fe9  1  0.49824830  0.25155665  0.75030375  1
  Fe  Fe10  1  0.25398200  0.74389538  0.25154482  1
  Fe  Fe11  1  0.12540634  0.62448206  0.12669413  1
  Fe  Fe12  1  0.00186016  0.50083066  0.49896576  1
  Fe  Fe13  1  0.24999383  0.00161038  -0.00321964  1
  Fe  Fe14  1  0.74865819  0.00378752  0.00427116  1
  Fe  Fe15  1  0.24801265  0.74910232  -0.00172379  1
  Fe  Fe16  1  0.37052729  0.37758862  0.37610213  1
  Fe  Fe17  1  0.87581256  0.12365871  0.37315902  1
  Fe  Fe18  1  0.49778891  -0.00101022  0.00113333  1
  Fe  Fe19  1  0.87634773  0.12499870  0.62386310  1
  Fe  Fe20  1  0.37868410  0.12747146  0.12601877  1
  Fe  Fe21  1  0.24969093  0.24669207  0.74983560  1
  Fe  Fe22  1  0.62465989  0.87613520  0.12719689  1
  Fe  Fe23  1  0.25003532  0.24802639  -0.00120399  1
  Fe  Fe24  1  0.37647480  0.62337303  0.87519748  1
  Fe  Fe25  1  0.62446261  0.87573428  0.87549979  1
  Fe  Fe26  1  0.87422344  0.62300256  0.12398192  1
  Fe  Fe27  1  0.24814305  0.24768047  0.49784230  1
  Fe  Fe28  1  0.62233068  0.12463313  0.36859380  1
  Fe  Fe29  1  0.00161902  0.50078118  0.25261972  1
  Fe  Fe30  1  0.12762037  0.37652727  0.12835975  1
  Fe  Fe31  1  0.12258436  0.62722544  0.62606988  1
  Fe  Fe32  1  0.24725049  0.50430770  0.49930732  1
  Fe  Fe33  1  0.62669509  0.37344923  0.87475820  1
  Fe  Fe34  1  0.12739200  0.37636363  0.87210563  1
  Fe  Fe35  1  0.87741897  0.62833349  0.37635845  1
  Fe  Fe36  1  0.38314331  0.62457199  0.62058880  1
  Fe  Fe37  1  0.00033042  0.49941132  0.74998722  1
  Fe  Fe38  1  0.12406224  0.12425301  0.62544903  1
  Fe  Fe39  1  0.49720922  -0.00152216  0.75118588  1
  Fe  Fe40  1  0.00441864  -0.00353030  0.00001599  1
  Fe  Fe41  1  0.37268763  0.37621874  0.12606463  1
  Fe  Fe42  1  0.24968672  0.24821251  0.25305270  1
  Fe  Fe43  1  0.62958724  0.37304587  0.37237519  1
  Fe  Fe44  1  0.74887497  0.74909003  0.00062798  1
  Fe  Fe45  1  0.74645622  0.50117247  0.74793028  1
  Fe  Fe46  1  0.50119850  0.25284856  0.49735393  1
  Fe  Fe47  1  0.24923561  0.50133802  0.00088901  1
  Fe  Fe48  1  0.87478797  0.87447313  0.87569245  1
  Fe  Fe49  1  0.62168674  0.62543995  0.37746932  1
  Fe  Fe50  1  0.74964680  0.00110141  0.49828203  1
  Fe  Fe51  1  0.12631834  0.86862902  0.37356829  1
  Fe  Fe52  1  0.74891274  0.75165199  0.50045969  1
  Fe  Fe53  1  0.62361217  0.62551179  0.87410929  1
  Fe  Fe54  1  0.00393184  0.75197891  0.00090842  1
  Fe  Fe55  1  0.37309922  0.37669311  0.87334295  1
  Fe  Fe56  1  0.74911876  0.24688533  0.00637418  1
  Fe  Fe57  1  0.00217330  0.25238167  0.00042824  1
  Fe  Fe58  1  0.75142507  0.74869198  0.24971250  1
  Fe  Fe59  1  0.12566377  0.87316969  0.62864143  1
  Fe  Fe60  1  0.00105361  0.25027966  0.49847705  1
  Fe  Fe61  1  0.12555229  0.37482929  0.62464544  1
  Fe  Fe62  1  0.49865193  -0.00299002  0.49620187  1
  Fe  Fe63  1  0.74865647  0.74974243  0.74945584  1
  Fe  Fe64  1  0.87452992  0.87516906  0.62518797  1
  Fe  Fe65  1  0.00086293  0.25172288  0.25087453  1
  Fe  Fe66  1  0.74967126  0.00170573  0.75104762  1
  Fe  Fe67  1  0.37507476  0.87420602  0.62417929  1
  Fe  Fe68  1  0.00128557  -0.00418824  0.49806530  1
  Fe  Fe69  1  0.37582850  0.12420287  0.62251511  1
  Fe  Fe70  1  0.75090097  0.24698514  0.74846877  1
  Fe  Fe71  1  0.87260142  0.37418586  0.37504008  1
  Fe  Fe72  1  0.25321817  0.00230740  0.25340869  1
  Fe  Fe73  1  0.87248732  0.37831211  0.12633319  1
  Fe  Fe74  1  0.49692283  0.50053301  0.25150990  1
  Fe  Fe75  1  0.87779607  0.12634421  0.87727439  1
  Fe  Fe76  1  0.49931917  0.75101602  -0.00023089  1
  Fe  Fe77  1  0.87293001  0.37296762  0.62343767  1
  Fe  Fe78  1  0.12408297  0.12357558  0.12663604  1
  Fe  Fe79  1  0.62712987  0.37702450  0.12719507  1
  Fe  Fe80  1  0.37455580  0.37696579  0.62437468  1
  Fe  Fe81  1  0.62408132  0.62363604  0.12565427  1
  Fe  Fe82  1  0.00018503  -0.00492304  0.25046480  1
  Fe  Fe83  1  0.37259101  0.87353828  0.12441500  1
  Fe  Fe84  1  0.62698876  0.87734583  0.37073949  1
  Fe  Fe85  1  0.62406407  0.87456210  0.62609101  1
  Fe  Fe86  1  0.50064218  0.49795581  -0.00028786  1
  Fe  Fe87  1  0.62266579  0.12553300  0.62382466  1
  Fe  Fe88  1  0.24914691  -0.00081627  0.49820972  1
  Fe  Fe89  1  0.87419191  0.62589873  0.62446194  1
  Co  Co90  1  0.37020672  0.87228219  0.37606572  1
  Co  Co91  1  0.25126232  0.50486267  0.25188188  1
  Co  Co92  1  0.49757286  0.25567798  0.25142390  1
  Co  Co93  1  0.74906488  0.24618457  0.49820142  1
  Co  Co94  1  0.37769361  0.12603566  0.87529109  1
  Co  Co95  1  0.75239645  0.00282108  0.24602217  1
  Co  Co96  1  0.62036077  0.62807467  0.62247849  1
  Co  Co97  1  0.12735057  0.87421656  0.87102206  1
  Co  Co98  1  0.50139488  0.75661578  0.49660370  1
  Co  Co99  1  0.12278900  0.62930847  0.37360873  1
  Co  Co100  1  0.00063331  0.25178126  0.74908167  1
  Co  Co101  1  0.49378442  -0.00436936  0.25092271  1
  Co  Co102  1  0.49900163  0.75107699  0.75155437  1
  Co  Co103  1  0.37613584  0.62432172  0.12170384  1
  Co  Co104  1  0.12253843  0.12399117  0.37457505  1
  Co  Co105  1  0.25104363  0.50414648  0.74618435  1
  Co  Co106  1  0.74862898  0.50091143  -0.00131719  1
  Co  Co107  1  0.49961965  0.25408945  0.00105246  1
  Co  Co108  1  0.24964523  0.74786752  0.50269910  1
  Co  Co109  1  0.75063252  0.50399421  0.25283067  1
  Co  Co110  1  0.12476511  0.62426128  0.87459264  1
  Co  Co111  1  -0.00174234  0.74922752  0.75084567  1
  Co  Co112  1  0.37342155  0.87420408  0.87570398  1
  Co  Co113  1  0.62724366  0.37107822  0.62575133  1
  Co  Co114  1  0.50423989  0.49345721  0.49966119  1
  Co  Co115  1  -0.00004662  0.75168932  0.50247855  1
  Co  Co116  1  0.50257267  0.49810313  0.74919177  1
  Co  Co117  1  0.61712740  0.12436397  0.12876742  1
  Co  Co118  1  0.25231993  0.00216764  0.75038995  1
  Co  Co119  1  0.12343744  0.12542414  0.87411562  1
  Co  Co120  1  0.88283353  0.12334298  0.12484272  1
  Co  Co121  1  -0.00200300  0.75064000  0.24569944  1
  Co  Co122  1  0.37790784  0.12654654  0.37688397  1
  Co  Co123  1  0.12751930  0.37646444  0.37527542  1
  Co  Co124  1  0.37849363  0.62318463  0.38176755  1
  Co  Co125  1  0.87375757  0.87356093  0.37474303  1
  Co  Co126  1  0.13100810  0.87528686  0.12857998  1
  Co  Co127  1  0.75181377  0.24590853  0.24561044  1
