# generated using pymatgen
data_Fe45Co19
_symmetry_space_group_name_H-M   'P 1'
_cell_length_a   11.41612958
_cell_length_b   11.41675990
_cell_length_c   11.41621761
_cell_angle_alpha   90.00182549
_cell_angle_beta   89.99560349
_cell_angle_gamma   90.00865464
_symmetry_Int_Tables_number   1
_chemical_formula_structural   Fe45Co19
_chemical_formula_sum   'Fe90 Co38'
_cell_volume   1487.93510128
_cell_formula_units_Z   2
loop_
 _symmetry_equiv_pos_site_id
 _symmetry_equiv_pos_as_xyz
  1  'x, y, z'
loop_
 _atom_site_type_symbol
 _atom_site_label
 _atom_site_symmetry_multiplicity
 _atom_site_fract_x
 _atom_site_fract_y
 _atom_site_fract_z
 _atom_site_occupancy
  Fe  Fe0  1  0.25197194  0.75088402  0.50100821  1
  Fe  Fe1  1  0.00161937  0.49817986  0.50140078  1
  Fe  Fe2  1  0.87417606  0.37324562  0.37634186  1
  Fe  Fe3  1  -0.00112876  0.25126580  0.50448670  1
  Fe  Fe4  1  0.75034258  0.75050589  0.00044918  1
  Fe  Fe5  1  0.24986062  0.25078747  -0.00289040  1
  Fe  Fe6  1  0.75281638  0.24735246  -0.00149848  1
  Fe  Fe7  1  0.25239560  0.49801411  0.74923170  1
  Fe  Fe8  1  0.87399301  0.62607949  0.37433675  1
  Fe  Fe9  1  0.87684031  0.62358666  0.12355679  1
  Fe  Fe10  1  0.25110039  0.75000469  0.24983695  1
  Fe  Fe11  1  0.62391807  0.62528214  0.87505480  1
  Fe  Fe12  1  0.62665918  0.87336056  0.37379539  1
  Fe  Fe13  1  0.75116442  0.24757969  0.50164592  1
  Fe  Fe14  1  0.12396847  0.12719307  0.37711497  1
  Fe  Fe15  1  0.12506936  0.87592684  0.12569324  1
  Fe  Fe16  1  0.12403431  0.37293075  0.87095884  1
  Fe  Fe17  1  0.87440016  0.37693452  0.12286731  1
  Fe  Fe18  1  0.12416359  0.62526028  0.87413584  1
  Fe  Fe19  1  0.49973748  0.49640083  0.00055139  1
  Fe  Fe20  1  0.24934219  0.25038762  0.25042234  1
  Fe  Fe21  1  0.37891819  0.87625503  0.62598922  1
  Fe  Fe22  1  0.62508188  0.37117041  0.87473024  1
  Fe  Fe23  1  0.24972353  0.00167832  0.25200914  1
  Fe  Fe24  1  0.12565486  0.87460102  0.37539210  1
  Fe  Fe25  1  -0.00226687  -0.00133679  0.50006043  1
  Fe  Fe26  1  0.37535718  0.87703593  0.12395513  1
  Fe  Fe27  1  -0.00099582  0.75419203  0.75086340  1
  Fe  Fe28  1  -0.00071845  0.75160673  0.50121806  1
  Fe  Fe29  1  0.37485265  0.62145106  0.12568052  1
  Fe  Fe30  1  0.12417761  0.62494062  0.12392628  1
  Fe  Fe31  1  0.37595651  0.62422707  0.37416787  1
  Fe  Fe32  1  0.87639529  0.62474516  0.87625077  1
  Fe  Fe33  1  0.74797268  0.49900664  0.24896975  1
  Fe  Fe34  1  0.75611551  0.24757855  0.75161756  1
  Fe  Fe35  1  0.25116262  0.75076224  -0.00287980  1
  Fe  Fe36  1  0.12641484  0.87526198  0.62629436  1
  Fe  Fe37  1  0.49807112  0.75005938  -0.00284827  1
  Fe  Fe38  1  0.49886056  0.24857974  0.50169927  1
  Fe  Fe39  1  0.62539449  0.37278693  0.62700533  1
  Fe  Fe40  1  0.74757178  0.50077250  0.50187753  1
  Fe  Fe41  1  -0.00103408  0.75200313  0.25065638  1
  Fe  Fe42  1  0.12542079  0.62580155  0.37603047  1
  Fe  Fe43  1  0.00262120  0.49852455  0.25124819  1
  Fe  Fe44  1  0.11944577  0.12419960  0.87069396  1
  Fe  Fe45  1  0.62568845  0.12356530  0.62743673  1
  Fe  Fe46  1  0.74987430  0.49966036  0.75035768  1
  Fe  Fe47  1  0.62584108  0.87628219  0.12533792  1
  Fe  Fe48  1  0.49907525  0.25045076  0.00083121  1
  Fe  Fe49  1  0.74907293  0.74959704  0.50130280  1
  Fe  Fe50  1  0.49440685  0.24524337  0.74988277  1
  Fe  Fe51  1  0.87457833  0.62479913  0.62537805  1
  Fe  Fe52  1  -0.00191649  0.24972404  -0.00195775  1
  Fe  Fe53  1  0.50035102  0.50086909  0.74934691  1
  Fe  Fe54  1  0.12501246  0.37459395  0.12522601  1
  Fe  Fe55  1  0.62730384  0.12642428  0.12619307  1
  Fe  Fe56  1  0.74890758  0.50012634  -0.00089138  1
  Fe  Fe57  1  0.62272357  0.87574455  0.62764594  1
  Fe  Fe58  1  -0.00112003  0.24984224  0.25009189  1
  Fe  Fe59  1  0.12360162  0.12689977  0.62862714  1
  Fe  Fe60  1  0.37750376  0.62573308  0.62419258  1
  Fe  Fe61  1  0.49868484  0.00122747  0.49750297  1
  Fe  Fe62  1  0.50032615  0.25262024  0.24688337  1
  Fe  Fe63  1  -0.00240793  0.49652119  0.74930156  1
  Fe  Fe64  1  0.62578281  0.12758603  0.37247712  1
  Fe  Fe65  1  0.62515575  0.62642166  0.37376954  1
  Fe  Fe66  1  0.37354660  0.12534879  0.12426234  1
  Fe  Fe67  1  0.00026909  0.75404418  -0.00189669  1
  Fe  Fe68  1  0.62610418  0.37305680  0.37427808  1
  Fe  Fe69  1  0.74956461  0.00261989  -0.00324429  1
  Fe  Fe70  1  0.75201827  0.00141501  0.49903654  1
  Fe  Fe71  1  0.50266467  0.50026385  0.50129369  1
  Fe  Fe72  1  0.37480946  0.37546935  0.37397224  1
  Fe  Fe73  1  0.62350304  0.62439965  0.12478162  1
  Fe  Fe74  1  0.24762599  -0.00003393  -0.00183951  1
  Fe  Fe75  1  0.25380419  0.75065977  0.75240588  1
  Fe  Fe76  1  0.24868727  0.49843828  -0.00109497  1
  Fe  Fe77  1  0.49944066  0.00118447  0.25129284  1
  Fe  Fe78  1  0.87364247  0.87815850  0.12772417  1
  Fe  Fe79  1  0.50139574  0.00326295  -0.00250591  1
  Fe  Fe80  1  0.12315459  0.12403279  0.12442193  1
  Fe  Fe81  1  0.25199669  0.00058907  0.49828464  1
  Fe  Fe82  1  0.25264875  0.00204765  0.75158762  1
  Fe  Fe83  1  0.49966549  0.75057871  0.25017711  1
  Fe  Fe84  1  0.87554904  0.12137784  0.12743144  1
  Fe  Fe85  1  0.74961270  0.75045924  0.75034397  1
  Fe  Fe86  1  0.12460444  0.62518344  0.62657469  1
  Fe  Fe87  1  0.24833356  0.49803418  0.50081433  1
  Fe  Fe88  1  0.25132806  0.25163246  0.50345243  1
  Fe  Fe89  1  0.62374604  0.87697787  0.87269250  1
  Co  Co90  1  0.37505832  0.62207857  0.87630767  1
  Co  Co91  1  0.37342529  0.12452955  0.87910384  1
  Co  Co92  1  0.37451312  0.87470650  0.37438305  1
  Co  Co93  1  0.37133643  0.37567251  0.12553503  1
  Co  Co94  1  0.00194590  0.00040819  0.25301773  1
  Co  Co95  1  0.74855164  0.00168052  0.25294742  1
  Co  Co96  1  0.12476132  0.37233586  0.37662931  1
  Co  Co97  1  0.49871594  0.00485721  0.75184005  1
  Co  Co98  1  0.37705511  0.87779265  0.87547686  1
  Co  Co99  1  0.87586170  0.12666618  0.37514691  1
  Co  Co100  1  0.12619554  0.37349616  0.62835083  1
  Co  Co101  1  0.87389711  0.37705603  0.87821431  1
  Co  Co102  1  0.62603330  0.12787153  0.87272584  1
  Co  Co103  1  0.50093183  0.75027104  0.49950398  1
  Co  Co104  1  0.87663199  0.12355656  0.62595403  1
  Co  Co105  1  0.87136254  0.37653905  0.62245776  1
  Co  Co106  1  -0.00565783  0.25392184  0.74888779  1
  Co  Co107  1  0.74962410  0.74874982  0.24661204  1
  Co  Co108  1  0.87224782  0.87387975  0.62368046  1
  Co  Co109  1  0.75087485  0.00078377  0.74986182  1
  Co  Co110  1  0.37366310  0.12273534  0.62217766  1
  Co  Co111  1  0.37698489  0.37531937  0.62461948  1
  Co  Co112  1  0.87274803  0.87733098  0.87578183  1
  Co  Co113  1  0.37647463  0.37423593  0.87434563  1
  Co  Co114  1  -0.00234287  -0.00542942  0.74666917  1
  Co  Co115  1  0.12620135  0.87665421  0.87355136  1
  Co  Co116  1  0.24610518  0.49967154  0.25116708  1
  Co  Co117  1  0.88048213  0.12030310  0.87315065  1
  Co  Co118  1  0.62522426  0.62653633  0.62607965  1
  Co  Co119  1  0.00071834  -0.00249414  0.00105674  1
  Co  Co120  1  0.87315106  0.87394977  0.37424861  1
  Co  Co121  1  0.75173385  0.25057515  0.24834382  1
  Co  Co122  1  0.00347985  0.49842260  -0.00129694  1
  Co  Co123  1  0.62846172  0.37336814  0.12180372  1
  Co  Co124  1  0.25383056  0.24801239  0.75005799  1
  Co  Co125  1  0.37499334  0.12812665  0.37385538  1
  Co  Co126  1  0.50297910  0.49732501  0.24945732  1
  Co  Co127  1  0.49898512  0.74830518  0.75200333  1
