# generated using pymatgen
data_Fe45Co19
_symmetry_space_group_name_H-M   'P 1'
_cell_length_a   11.41373790
_cell_length_b   11.41389841
_cell_length_c   11.41460830
_cell_angle_alpha   90.01702943
_cell_angle_beta   89.99206793
_cell_angle_gamma   89.99029833
_symmetry_Int_Tables_number   1
_chemical_formula_structural   Fe45Co19
_chemical_formula_sum   'Fe90 Co38'
_cell_volume   1487.04078880
_cell_formula_units_Z   2
loop_
 _symmetry_equiv_pos_site_id
 _symmetry_equiv_pos_as_xyz
  1  'x, y, z'
loop_
 _atom_site_type_symbol
 _atom_site_label
 _atom_site_symmetry_multiplicity
 _atom_site_fract_x
 _atom_site_fract_y
 _atom_site_fract_z
 _atom_site_occupancy
  Fe  Fe0  1  0.25156993  0.25400008  0.74817662  1
  Fe  Fe1  1  0.25227625  0.75036138  0.50089866  1
  Fe  Fe2  1  0.37707009  0.37436630  0.37842765  1
  Fe  Fe3  1  0.74656969  0.25170558  0.50125082  1
  Fe  Fe4  1  0.62210823  0.38058240  0.12350825  1
  Fe  Fe5  1  0.49802134  -0.00075719  0.75241749  1
  Fe  Fe6  1  0.87503379  0.87330311  0.37598073  1
  Fe  Fe7  1  0.00113525  -0.00054352  0.25173017  1
  Fe  Fe8  1  0.25250060  0.74946346  0.24752084  1
  Fe  Fe9  1  0.87587675  0.87439116  0.12277280  1
  Fe  Fe10  1  0.75102077  0.49980506  0.50143313  1
  Fe  Fe11  1  0.49810950  0.74583740  0.24625901  1
  Fe  Fe12  1  0.87114406  0.63028522  0.62880155  1
  Fe  Fe13  1  0.62118029  0.87616981  0.62235473  1
  Fe  Fe14  1  0.00320583  0.74450568  -0.00379701  1
  Fe  Fe15  1  0.49858693  0.50453652  0.50113052  1
  Fe  Fe16  1  -0.00125373  0.50337316  -0.00414876  1
  Fe  Fe17  1  0.87598604  0.62569245  0.37429262  1
  Fe  Fe18  1  0.37703112  0.87309126  0.11901430  1
  Fe  Fe19  1  0.74910457  -0.00168879  0.75058973  1
  Fe  Fe20  1  0.25103366  0.50035009  -0.00117021  1
  Fe  Fe21  1  0.37306241  0.62806040  0.87747213  1
  Fe  Fe22  1  0.00128925  -0.00234634  0.74966518  1
  Fe  Fe23  1  0.87285286  0.12583701  0.87374224  1
  Fe  Fe24  1  0.75001116  0.49870131  0.25129719  1
  Fe  Fe25  1  0.37306808  0.12643428  0.12521063  1
  Fe  Fe26  1  0.87792918  0.37366070  0.12595135  1
  Fe  Fe27  1  0.49263953  0.00428589  0.49668835  1
  Fe  Fe28  1  0.62530613  0.12195742  0.12341413  1
  Fe  Fe29  1  0.00336954  0.25016051  0.49944976  1
  Fe  Fe30  1  0.74728360  0.75075495  0.24786322  1
  Fe  Fe31  1  0.87569146  0.12555278  0.12542724  1
  Fe  Fe32  1  0.74729493  0.25243320  0.25071372  1
  Fe  Fe33  1  0.50129063  0.25308797  0.25088971  1
  Fe  Fe34  1  0.12670298  0.87199379  0.87429099  1
  Fe  Fe35  1  0.00135292  0.50225590  0.50259797  1
  Fe  Fe36  1  0.62226899  0.87726359  0.88041081  1
  Fe  Fe37  1  0.87372618  0.87099599  0.87477696  1
  Fe  Fe38  1  0.24997904  0.49961819  0.50240095  1
  Fe  Fe39  1  0.25075874  -0.00382216  0.75079807  1
  Fe  Fe40  1  0.87486640  0.12670087  0.37423943  1
  Fe  Fe41  1  0.24660241  0.25549364  0.24831227  1
  Fe  Fe42  1  0.00270915  0.24986814  -0.00122743  1
  Fe  Fe43  1  0.74618928  0.74991976  0.49962328  1
  Fe  Fe44  1  0.25237047  0.24991493  0.50408849  1
  Fe  Fe45  1  0.74466955  0.74959810  0.00344276  1
  Fe  Fe46  1  0.13020974  0.12369603  0.37398917  1
  Fe  Fe47  1  0.25658792  0.49733200  0.74880871  1
  Fe  Fe48  1  0.12706016  0.62483472  0.37442945  1
  Fe  Fe49  1  0.00179556  0.24969690  0.75044724  1
  Fe  Fe50  1  0.24762809  0.25015668  -0.00076492  1
  Fe  Fe51  1  0.00193515  0.75035952  0.25042508  1
  Fe  Fe52  1  0.12588840  0.12312232  0.12531928  1
  Fe  Fe53  1  0.87423874  0.62510227  0.12472736  1
  Fe  Fe54  1  0.62247080  0.12398051  0.62640581  1
  Fe  Fe55  1  0.37691294  0.37699380  0.12108415  1
  Fe  Fe56  1  0.12902489  0.62740158  0.63049044  1
  Fe  Fe57  1  0.12601257  0.37689995  0.87337100  1
  Fe  Fe58  1  0.61961004  0.87393696  0.37443807  1
  Fe  Fe59  1  0.00163594  0.00117334  -0.00333669  1
  Fe  Fe60  1  0.00252768  0.74947950  0.50156362  1
  Fe  Fe61  1  0.00291252  0.49760522  0.25128055  1
  Fe  Fe62  1  0.12917695  0.87629206  0.37648041  1
  Fe  Fe63  1  0.12677037  0.62238160  0.12501301  1
  Fe  Fe64  1  0.62434901  0.37871373  0.87348729  1
  Fe  Fe65  1  0.62285743  0.62420636  0.37367417  1
  Fe  Fe66  1  -0.00274113  0.50480614  0.75147500  1
  Fe  Fe67  1  0.37720298  0.87192246  0.88048924  1
  Fe  Fe68  1  0.62907120  0.62009743  0.87320447  1
  Fe  Fe69  1  0.74963049  -0.00255916  0.24933649  1
  Fe  Fe70  1  0.50037747  0.24942792  -0.00149990  1
  Fe  Fe71  1  0.00180264  -0.00092125  0.50122820  1
  Fe  Fe72  1  0.62581704  0.12389555  0.87508502  1
  Fe  Fe73  1  0.62061967  0.37773585  0.62639741  1
  Fe  Fe74  1  0.87735886  0.37369573  0.37500303  1
  Fe  Fe75  1  0.87313176  0.37452693  0.87360501  1
  Fe  Fe76  1  0.87673259  0.37326154  0.62585105  1
  Fe  Fe77  1  0.37243877  0.12615094  0.87398052  1
  Fe  Fe78  1  0.87382801  0.12553805  0.62607522  1
  Fe  Fe79  1  0.12534709  0.87562906  0.12311516  1
  Fe  Fe80  1  0.62365731  0.12532771  0.37468494  1
  Fe  Fe81  1  0.87477883  0.87192267  0.62677790  1
  Fe  Fe82  1  0.37622647  0.87360493  0.62358878  1
  Fe  Fe83  1  0.50147334  0.74639031  0.74898147  1
  Fe  Fe84  1  0.49870483  0.25209747  0.75046043  1
  Fe  Fe85  1  0.74939191  -0.00055571  0.49960800  1
  Fe  Fe86  1  0.74839647  0.25152728  -0.00018738  1
  Fe  Fe87  1  0.12777913  0.12274899  0.62699943  1
  Fe  Fe88  1  0.25269663  0.49886596  0.25048181  1
  Fe  Fe89  1  0.49533933  0.00050181  0.24992348  1
  Co  Co90  1  0.37570480  0.87080165  0.37553732  1
  Co  Co91  1  0.86698687  0.62862622  0.87423962  1
  Co  Co92  1  0.37421188  0.62519198  0.37674964  1
  Co  Co93  1  0.62572176  0.62225043  0.62678504  1
  Co  Co94  1  0.49441216  0.50291483  0.75218902  1
  Co  Co95  1  0.49604993  0.00522288  0.00000670  1
  Co  Co96  1  0.25574759  0.00139601  0.50037758  1
  Co  Co97  1  0.00163917  0.74769648  0.75268563  1
  Co  Co98  1  0.50535818  0.74315251  0.00097162  1
  Co  Co99  1  0.24727624  0.74929654  0.00164366  1
  Co  Co100  1  0.13145356  0.62304382  0.87066350  1
  Co  Co101  1  0.62170092  0.37787161  0.37769891  1
  Co  Co102  1  0.74209235  0.75448520  0.75018800  1
  Co  Co103  1  0.37321971  0.62650662  0.62462683  1
  Co  Co104  1  0.74724966  0.25115794  0.74844748  1
  Co  Co105  1  0.75254638  0.49781368  0.00154732  1
  Co  Co106  1  0.25355654  -0.00396375  0.24787710  1
  Co  Co107  1  0.37138957  0.13060632  0.36967578  1
  Co  Co108  1  0.12811885  0.12594479  0.87156907  1
  Co  Co109  1  0.75128296  -0.00049348  -0.00061680  1
  Co  Co110  1  0.00487437  0.25032685  0.25083963  1
  Co  Co111  1  0.37479304  0.37304483  0.87792851  1
  Co  Co112  1  0.37439064  0.62264433  0.12179492  1
  Co  Co113  1  0.12357146  0.37690221  0.62833083  1
  Co  Co114  1  0.62434320  0.61791212  0.12705452  1
  Co  Co115  1  0.49822704  0.50242825  -0.00419860  1
  Co  Co116  1  0.12612442  0.37600154  0.37857932  1
  Co  Co117  1  0.12719022  0.87347616  0.62444643  1
  Co  Co118  1  0.25029769  0.00004887  -0.00150979  1
  Co  Co119  1  0.25443137  0.75344307  0.75045047  1
  Co  Co120  1  0.49516962  0.50054032  0.25119575  1
  Co  Co121  1  0.62017275  0.87858169  0.12378693  1
  Co  Co122  1  0.37551486  0.12466297  0.63081594  1
  Co  Co123  1  0.49916028  0.24615219  0.50046373  1
  Co  Co124  1  0.75301136  0.49753978  0.74674259  1
  Co  Co125  1  0.49970014  0.74683331  0.50236693  1
  Co  Co126  1  0.12416602  0.37852866  0.12065865  1
  Co  Co127  1  0.37988004  0.37519557  0.62240929  1
