# generated using pymatgen
data_Fe45Co19
_symmetry_space_group_name_H-M   'P 1'
_cell_length_a   11.41576920
_cell_length_b   11.41544327
_cell_length_c   11.41428222
_cell_angle_alpha   89.99902914
_cell_angle_beta   89.98795157
_cell_angle_gamma   89.99213741
_symmetry_Int_Tables_number   1
_chemical_formula_structural   Fe45Co19
_chemical_formula_sum   'Fe90 Co38'
_cell_volume   1487.46430536
_cell_formula_units_Z   2
loop_
 _symmetry_equiv_pos_site_id
 _symmetry_equiv_pos_as_xyz
  1  'x, y, z'
loop_
 _atom_site_type_symbol
 _atom_site_label
 _atom_site_symmetry_multiplicity
 _atom_site_fract_x
 _atom_site_fract_y
 _atom_site_fract_z
 _atom_site_occupancy
  Fe  Fe0  1  0.12456507  0.62482294  0.62463356  1
  Fe  Fe1  1  0.24736338  0.00181310  0.24953434  1
  Fe  Fe2  1  0.87431458  0.37512202  0.37506089  1
  Fe  Fe3  1  0.49813095  0.24649918  0.74782562  1
  Fe  Fe4  1  0.37477435  0.12369343  0.12408483  1
  Fe  Fe5  1  0.74780266  0.00071102  0.75055061  1
  Fe  Fe6  1  0.74890421  -0.00044830  0.50046696  1
  Fe  Fe7  1  0.00118634  0.00148288  0.50098702  1
  Fe  Fe8  1  0.12655287  0.37463790  0.37494081  1
  Fe  Fe9  1  0.74739369  0.24989584  0.50178557  1
  Fe  Fe10  1  0.12850456  0.87636437  0.62766975  1
  Fe  Fe11  1  0.37475194  0.12422508  0.37500284  1
  Fe  Fe12  1  0.62414955  0.37744685  0.37115923  1
  Fe  Fe13  1  0.12624320  0.12690413  0.87644015  1
  Fe  Fe14  1  0.25110751  0.50120590  0.25035632  1
  Fe  Fe15  1  0.25039810  0.74979358  0.24832300  1
  Fe  Fe16  1  0.87248746  0.37373900  0.12494867  1
  Fe  Fe17  1  0.87360214  0.87625255  0.37419730  1
  Fe  Fe18  1  0.62398664  0.12566627  0.12235287  1
  Fe  Fe19  1  0.37574532  0.37738513  0.37517647  1
  Fe  Fe20  1  0.12588996  0.62568145  0.12268711  1
  Fe  Fe21  1  0.87481779  0.12462476  0.12467404  1
  Fe  Fe22  1  0.75247621  0.75263133  -0.00413032  1
  Fe  Fe23  1  0.00286340  0.00147302  0.24851540  1
  Fe  Fe24  1  0.37467512  0.62578036  0.87647635  1
  Fe  Fe25  1  0.12477587  0.62619092  0.87714212  1
  Fe  Fe26  1  0.00168435  -0.00167079  0.00040253  1
  Fe  Fe27  1  0.62711206  0.62503055  0.87338333  1
  Fe  Fe28  1  0.25037824  0.24850887  0.50001960  1
  Fe  Fe29  1  0.25343201  0.75137882  0.50224873  1
  Fe  Fe30  1  0.62520521  0.12321191  0.37557900  1
  Fe  Fe31  1  0.12564110  0.87461168  0.37502354  1
  Fe  Fe32  1  0.87346204  0.37507101  0.62561965  1
  Fe  Fe33  1  0.87538390  0.12491220  0.87420761  1
  Fe  Fe34  1  -0.00062799  0.75121066  0.50061881  1
  Fe  Fe35  1  -0.00030660  0.24776029  0.74820007  1
  Fe  Fe36  1  0.37517392  0.87744424  0.63215176  1
  Fe  Fe37  1  0.00015758  0.74986301  0.24843471  1
  Fe  Fe38  1  0.12578237  0.62566474  0.37694257  1
  Fe  Fe39  1  -0.00153880  0.49976171  -0.00101283  1
  Fe  Fe40  1  0.49632413  -0.00193608  -0.00318795  1
  Fe  Fe41  1  0.74879747  0.24801749  0.24850941  1
  Fe  Fe42  1  0.12528299  0.37449486  0.87429373  1
  Fe  Fe43  1  0.00007303  0.50006262  0.49961424  1
  Fe  Fe44  1  0.49922719  0.25122166  0.24755261  1
  Fe  Fe45  1  0.75012776  0.49666547  -0.00178237  1
  Fe  Fe46  1  0.87235636  0.62461109  0.62750737  1
  Fe  Fe47  1  0.37838918  0.62438654  0.37560391  1
  Fe  Fe48  1  0.25203066  0.24700118  0.74911413  1
  Fe  Fe49  1  0.50263527  0.75061843  0.24518356  1
  Fe  Fe50  1  0.87471258  0.87583366  0.12448320  1
  Fe  Fe51  1  0.50431868  -0.00194862  0.24828766  1
  Fe  Fe52  1  0.12678662  0.37524890  0.12510048  1
  Fe  Fe53  1  0.12641388  0.37597503  0.62567712  1
  Fe  Fe54  1  0.62228138  0.12738183  0.87680991  1
  Fe  Fe55  1  -0.00303823  0.74980791  0.75292030  1
  Fe  Fe56  1  0.62293434  0.62514982  0.37298391  1
  Fe  Fe57  1  0.62095399  0.87553151  0.62781758  1
  Fe  Fe58  1  0.62334652  0.62306332  0.62909749  1
  Fe  Fe59  1  0.37839240  0.62239949  0.62490357  1
  Fe  Fe60  1  0.37430532  0.37743159  0.12479315  1
  Fe  Fe61  1  0.62331783  0.37203819  0.87542677  1
  Fe  Fe62  1  0.62240471  0.87463238  0.87380451  1
  Fe  Fe63  1  0.00200589  0.00197507  0.74969173  1
  Fe  Fe64  1  0.49874868  0.75065284  0.00152208  1
  Fe  Fe65  1  0.74704461  0.75403334  0.24998697  1
  Fe  Fe66  1  0.50148204  0.50041805  0.00241312  1
  Fe  Fe67  1  0.00124519  0.24747056  0.50195603  1
  Fe  Fe68  1  0.25149684  0.25047871  0.00144441  1
  Fe  Fe69  1  0.25195361  0.75245010  0.00149786  1
  Fe  Fe70  1  0.87423031  0.12376214  0.37487861  1
  Fe  Fe71  1  0.74636420  0.49922697  0.50101759  1
  Fe  Fe72  1  -0.00103417  0.25070169  -0.00009475  1
  Fe  Fe73  1  -0.00135803  0.50103224  0.24974185  1
  Fe  Fe74  1  0.74653384  0.75093268  0.50164489  1
  Fe  Fe75  1  0.37724006  0.87416685  0.37226603  1
  Fe  Fe76  1  0.00285810  0.24800504  0.24962243  1
  Fe  Fe77  1  0.74960361  0.24947347  0.74985896  1
  Fe  Fe78  1  0.25208267  -0.00187122  -0.00237136  1
  Fe  Fe79  1  0.49870664  -0.00123600  0.50083175  1
  Fe  Fe80  1  0.50151638  0.24982361  0.50083969  1
  Fe  Fe81  1  0.37725989  0.37727893  0.62351163  1
  Fe  Fe82  1  0.87421783  0.87587509  0.62705876  1
  Fe  Fe83  1  0.25149790  0.50100089  0.75143261  1
  Fe  Fe84  1  0.12618338  0.87275831  0.87424294  1
  Fe  Fe85  1  0.87300463  0.62577262  0.37563414  1
  Fe  Fe86  1  0.37641002  0.37400241  0.87619211  1
  Fe  Fe87  1  0.87244600  0.62628640  0.12333919  1
  Fe  Fe88  1  -0.00213755  0.50001928  0.75188388  1
  Fe  Fe89  1  0.75024051  0.00111398  -0.00065295  1
  Co  Co90  1  0.62373681  0.12383286  0.62433950  1
  Co  Co91  1  0.25058727  0.74542674  0.74889037  1
  Co  Co92  1  0.50335415  0.49941033  0.49945643  1
  Co  Co93  1  0.74945311  0.49662822  0.75128810  1
  Co  Co94  1  0.12700602  0.12566451  0.12174056  1
  Co  Co95  1  0.37399288  0.12242729  0.62309969  1
  Co  Co96  1  0.37587733  0.12869806  0.87773576  1
  Co  Co97  1  0.49868701  0.75131591  0.50256376  1
  Co  Co98  1  0.87553055  0.37296348  0.87409050  1
  Co  Co99  1  0.12559311  0.87385451  0.12443642  1
  Co  Co100  1  0.62376033  0.87518103  0.37688145  1
  Co  Co101  1  0.49857410  0.00387621  0.75379083  1
  Co  Co102  1  0.50031711  0.74756845  0.75121011  1
  Co  Co103  1  0.49874402  0.25191978  0.00414576  1
  Co  Co104  1  0.62538043  0.87539626  0.11996190  1
  Co  Co105  1  0.75069187  0.24907758  -0.00075670  1
  Co  Co106  1  -0.00260455  0.75092664  -0.00158785  1
  Co  Co107  1  0.62714319  0.37483083  0.12540557  1
  Co  Co108  1  0.37355070  0.62501441  0.12353234  1
  Co  Co109  1  0.87264619  0.62344679  0.87396206  1
  Co  Co110  1  0.75104225  0.50022356  0.25006855  1
  Co  Co111  1  0.62890918  0.62588162  0.12340413  1
  Co  Co112  1  0.12651166  0.12516726  0.37743364  1
  Co  Co113  1  0.25019710  0.49880758  -0.00215480  1
  Co  Co114  1  0.12916078  0.12278655  0.62411289  1
  Co  Co115  1  0.74977360  0.75312046  0.75085261  1
  Co  Co116  1  0.62236561  0.37482079  0.62816068  1
  Co  Co117  1  0.25165572  0.00420413  0.75569348  1
  Co  Co118  1  0.24998458  0.50135349  0.50027968  1
  Co  Co119  1  0.37535470  0.87649550  0.12725218  1
  Co  Co120  1  0.74721733  -0.00054505  0.24823751  1
  Co  Co121  1  0.25142048  0.24918629  0.24920435  1
  Co  Co122  1  0.87285284  0.12452363  0.62534088  1
  Co  Co123  1  0.49864097  0.49982165  0.75386066  1
  Co  Co124  1  0.25208344  -0.00360807  0.49830171  1
  Co  Co125  1  0.37451915  0.87122466  0.87019441  1
  Co  Co126  1  0.49999642  0.50070222  0.24548228  1
  Co  Co127  1  0.87567314  0.87872791  0.87350354  1
