# generated using pymatgen
data_Fe45Co19
_symmetry_space_group_name_H-M   'P 1'
_cell_length_a   11.41557493
_cell_length_b   11.41514818
_cell_length_c   11.41506979
_cell_angle_alpha   89.99855054
_cell_angle_beta   90.01271159
_cell_angle_gamma   90.00298986
_symmetry_Int_Tables_number   1
_chemical_formula_structural   Fe45Co19
_chemical_formula_sum   'Fe90 Co38'
_cell_volume   1487.50317771
_cell_formula_units_Z   2
loop_
 _symmetry_equiv_pos_site_id
 _symmetry_equiv_pos_as_xyz
  1  'x, y, z'
loop_
 _atom_site_type_symbol
 _atom_site_label
 _atom_site_symmetry_multiplicity
 _atom_site_fract_x
 _atom_site_fract_y
 _atom_site_fract_z
 _atom_site_occupancy
  Fe  Fe0  1  0.12062617  0.62447148  0.37378341  1
  Fe  Fe1  1  0.12528676  0.37564144  0.12253162  1
  Fe  Fe2  1  0.74912929  0.00043052  0.25037370  1
  Fe  Fe3  1  0.62702720  0.37339238  0.37867016  1
  Fe  Fe4  1  0.62776212  0.12568235  0.12275201  1
  Fe  Fe5  1  -0.00301615  0.00011617  -0.00448274  1
  Fe  Fe6  1  0.24718181  0.25421936  0.74958742  1
  Fe  Fe7  1  0.49978700  -0.00123987  -0.00185973  1
  Fe  Fe8  1  0.49968046  0.25095294  0.00186471  1
  Fe  Fe9  1  0.24674396  -0.00139140  0.75194166  1
  Fe  Fe10  1  0.87229862  0.37813403  0.62691444  1
  Fe  Fe11  1  0.49713237  0.75028492  0.50130017  1
  Fe  Fe12  1  0.87685861  0.12200949  0.63049597  1
  Fe  Fe13  1  0.25276730  0.24803780  0.50083871  1
  Fe  Fe14  1  0.75506937  0.74675185  -0.00311747  1
  Fe  Fe15  1  0.75196456  0.00072510  0.50188711  1
  Fe  Fe16  1  0.74809049  0.50401155  0.50059793  1
  Fe  Fe17  1  0.00051734  0.25109462  0.24963155  1
  Fe  Fe18  1  0.62794911  0.87070405  0.62688955  1
  Fe  Fe19  1  0.37251322  0.87468072  0.87456776  1
  Fe  Fe20  1  0.00034948  0.49970738  0.50060639  1
  Fe  Fe21  1  0.25131639  0.24894286  0.00050004  1
  Fe  Fe22  1  0.12746817  0.62214115  0.62724561  1
  Fe  Fe23  1  0.87372598  0.87729786  0.63110163  1
  Fe  Fe24  1  0.87458352  0.12551475  0.12563483  1
  Fe  Fe25  1  0.37517951  0.62715837  0.37310040  1
  Fe  Fe26  1  0.87904753  0.62545973  0.13000709  1
  Fe  Fe27  1  0.50102150  -0.00092911  0.25096489  1
  Fe  Fe28  1  -0.00099986  0.74997065  0.50186737  1
  Fe  Fe29  1  0.74969926  0.50373750  0.25319861  1
  Fe  Fe30  1  0.62556241  0.12678134  0.37749208  1
  Fe  Fe31  1  0.24975442  0.74672857  -0.00032645  1
  Fe  Fe32  1  0.37669618  0.37658813  0.87571396  1
  Fe  Fe33  1  0.12561013  0.37410124  0.37808600  1
  Fe  Fe34  1  0.12603030  0.87557398  0.62376068  1
  Fe  Fe35  1  0.24811363  0.50184551  0.24909559  1
  Fe  Fe36  1  0.87192687  0.37611294  0.12574721  1
  Fe  Fe37  1  -0.00259137  0.25003088  0.50194916  1
  Fe  Fe38  1  0.37757543  0.62366961  0.87280684  1
  Fe  Fe39  1  0.50301507  0.25091472  0.24858154  1
  Fe  Fe40  1  0.37377309  0.37451685  0.37386487  1
  Fe  Fe41  1  0.12542625  0.87708361  0.12045647  1
  Fe  Fe42  1  0.49701734  -0.00065292  0.50017086  1
  Fe  Fe43  1  0.62470564  0.12814404  0.87519935  1
  Fe  Fe44  1  0.37117666  0.87400588  0.62502236  1
  Fe  Fe45  1  0.75277005  0.74643311  0.49918912  1
  Fe  Fe46  1  0.00449505  0.25514006  0.74964759  1
  Fe  Fe47  1  0.24856070  0.00301036  0.25089764  1
  Fe  Fe48  1  0.62840967  0.37549128  0.12233141  1
  Fe  Fe49  1  0.00104571  0.75155242  0.75148990  1
  Fe  Fe50  1  0.37296609  0.87502488  0.12577554  1
  Fe  Fe51  1  0.62634809  0.87268079  0.37615305  1
  Fe  Fe52  1  0.49641721  0.24921939  0.50151015  1
  Fe  Fe53  1  0.50611208  0.49953430  0.74925958  1
  Fe  Fe54  1  -0.00177733  0.74998974  -0.00244356  1
  Fe  Fe55  1  0.87551557  0.12495218  0.37458167  1
  Fe  Fe56  1  0.37586585  0.12385233  0.12577709  1
  Fe  Fe57  1  -0.00084198  0.49964408  0.00128596  1
  Fe  Fe58  1  0.12404883  0.12365690  0.62266136  1
  Fe  Fe59  1  0.87431058  0.87222995  0.37339889  1
  Fe  Fe60  1  0.00156506  -0.00044521  0.25075354  1
  Fe  Fe61  1  0.62779582  0.87011479  0.87311835  1
  Fe  Fe62  1  0.24647437  0.24665875  0.24895433  1
  Fe  Fe63  1  0.37462296  0.37671934  0.12489901  1
  Fe  Fe64  1  0.37473196  0.12515958  0.87235402  1
  Fe  Fe65  1  0.87408899  0.87380055  0.12596381  1
  Fe  Fe66  1  0.62390817  0.62572672  0.12341185  1
  Fe  Fe67  1  0.50156090  -0.00261214  0.74954694  1
  Fe  Fe68  1  0.49777795  0.75019060  0.00019808  1
  Fe  Fe69  1  0.25342971  0.00260230  0.49740699  1
  Fe  Fe70  1  0.75230249  0.00186158  -0.00490707  1
  Fe  Fe71  1  0.24628194  0.74915155  0.24917133  1
  Fe  Fe72  1  -0.00316428  0.25068810  -0.00089264  1
  Fe  Fe73  1  0.25165970  0.50261217  0.00068124  1
  Fe  Fe74  1  0.50171101  0.75094331  0.24899862  1
  Fe  Fe75  1  0.74845574  0.50322129  -0.00522803  1
  Fe  Fe76  1  0.37175931  0.62396996  0.62742354  1
  Fe  Fe77  1  0.87493921  0.62116667  0.63029774  1
  Fe  Fe78  1  0.12499248  0.87654545  0.37852510  1
  Fe  Fe79  1  0.50095179  0.50003310  0.24901691  1
  Fe  Fe80  1  0.62428389  0.12594800  0.62389099  1
  Fe  Fe81  1  0.87289676  0.37569179  0.37623061  1
  Fe  Fe82  1  0.50006504  0.25196048  0.74800693  1
  Fe  Fe83  1  0.50046894  0.50177615  0.50103026  1
  Fe  Fe84  1  0.12486640  0.12579901  0.87724954  1
  Fe  Fe85  1  0.87414115  0.37760393  0.87212114  1
  Fe  Fe86  1  0.62836730  0.87370279  0.12335486  1
  Fe  Fe87  1  0.74805053  0.25179649  0.74959622  1
  Fe  Fe88  1  0.12294315  0.62238507  0.87372144  1
  Fe  Fe89  1  0.37301534  0.37786143  0.62508347  1
  Co  Co90  1  0.37663287  0.62613452  0.12654050  1
  Co  Co91  1  0.49579705  0.75198412  0.74803647  1
  Co  Co92  1  0.75426676  0.24737936  0.50235883  1
  Co  Co93  1  0.74936851  0.74642385  0.25040228  1
  Co  Co94  1  0.24856253  0.74722736  0.49958951  1
  Co  Co95  1  0.50115224  0.50054134  0.00032410  1
  Co  Co96  1  -0.00431655  -0.00191689  0.50053680  1
  Co  Co97  1  0.87668879  0.12661615  0.86895097  1
  Co  Co98  1  0.24802115  0.49645973  0.75222602  1
  Co  Co99  1  0.74533533  0.00188925  0.75173958  1
  Co  Co100  1  0.62193433  0.62683858  0.37663338  1
  Co  Co101  1  0.12515455  0.37693095  0.88130711  1
  Co  Co102  1  0.12614176  0.87373421  0.87894503  1
  Co  Co103  1  0.87365262  0.87651221  0.87052297  1
  Co  Co104  1  0.37668614  0.12659156  0.37183725  1
  Co  Co105  1  0.62533230  0.63002663  0.62649857  1
  Co  Co106  1  0.25270882  0.00171443  -0.00081293  1
  Co  Co107  1  0.62605937  0.37359117  0.62090235  1
  Co  Co108  1  0.12054624  0.62425171  0.12495763  1
  Co  Co109  1  0.24843362  0.74974904  0.75150610  1
  Co  Co110  1  0.74994389  0.24975260  0.25046222  1
  Co  Co111  1  0.75424919  0.74536823  0.75271397  1
  Co  Co112  1  0.00532624  0.49462881  0.74834515  1
  Co  Co113  1  0.37379733  0.12354846  0.62936897  1
  Co  Co114  1  0.25041629  0.50256843  0.49721491  1
  Co  Co115  1  0.62415649  0.37258185  0.87740653  1
  Co  Co116  1  0.12220277  0.12369401  0.12113430  1
  Co  Co117  1  0.12281762  0.12508993  0.37920771  1
  Co  Co118  1  0.37374522  0.87275975  0.37335389  1
  Co  Co119  1  0.00538298  -0.00223739  0.75314158  1
  Co  Co120  1  0.62154254  0.63044179  0.87386733  1
  Co  Co121  1  0.87971176  0.61962210  0.87015294  1
  Co  Co122  1  0.00302956  0.75475861  0.24968586  1
  Co  Co123  1  0.00095290  0.49447092  0.25046990  1
  Co  Co124  1  0.12817899  0.37622654  0.61898726  1
  Co  Co125  1  0.88046340  0.62578960  0.37279968  1
  Co  Co126  1  0.75354036  0.24960270  -0.00177586  1
  Co  Co127  1  0.74264093  0.50045343  0.75195125  1
