# generated using pymatgen
data_Fe45Co19
_symmetry_space_group_name_H-M   'P 1'
_cell_length_a   11.41512020
_cell_length_b   11.41474654
_cell_length_c   11.41570061
_cell_angle_alpha   90.00088290
_cell_angle_beta   90.00794255
_cell_angle_gamma   89.98510749
_symmetry_Int_Tables_number   1
_chemical_formula_structural   Fe45Co19
_chemical_formula_sum   'Fe90 Co38'
_cell_volume   1487.47375839
_cell_formula_units_Z   2
loop_
 _symmetry_equiv_pos_site_id
 _symmetry_equiv_pos_as_xyz
  1  'x, y, z'
loop_
 _atom_site_type_symbol
 _atom_site_label
 _atom_site_symmetry_multiplicity
 _atom_site_fract_x
 _atom_site_fract_y
 _atom_site_fract_z
 _atom_site_occupancy
  Fe  Fe0  1  0.50092622  0.24779728  0.75089330  1
  Fe  Fe1  1  0.12365597  0.87361936  0.12246228  1
  Fe  Fe2  1  0.62408030  0.37231380  0.62419305  1
  Fe  Fe3  1  0.25058453  0.49884435  0.00046985  1
  Fe  Fe4  1  0.12793644  0.12757044  0.12034045  1
  Fe  Fe5  1  0.62276205  0.87488136  0.87793671  1
  Fe  Fe6  1  0.37643092  0.37777589  0.87127239  1
  Fe  Fe7  1  0.62342018  0.62698855  0.87559320  1
  Fe  Fe8  1  0.87408500  0.87395036  0.37289321  1
  Fe  Fe9  1  0.74830606  0.49962224  0.24917073  1
  Fe  Fe10  1  -0.00068153  0.49927710  0.50224098  1
  Fe  Fe11  1  0.24946974  -0.00006844  0.50072405  1
  Fe  Fe12  1  0.37552208  0.62535607  0.12522132  1
  Fe  Fe13  1  0.87374223  0.62664381  0.12761071  1
  Fe  Fe14  1  0.62397095  0.87212167  0.62562376  1
  Fe  Fe15  1  0.12670493  0.62451583  0.87390129  1
  Fe  Fe16  1  0.87391276  0.87580871  0.62678657  1
  Fe  Fe17  1  0.12543769  0.62546059  0.12491244  1
  Fe  Fe18  1  -0.00086271  0.75040561  0.50001952  1
  Fe  Fe19  1  0.87383732  0.62745475  0.37409332  1
  Fe  Fe20  1  0.00042129  0.74999417  0.75037208  1
  Fe  Fe21  1  0.25022915  0.49850732  0.25169491  1
  Fe  Fe22  1  0.62567230  0.12281046  0.87698226  1
  Fe  Fe23  1  0.25200517  0.50052038  0.74462876  1
  Fe  Fe24  1  0.62326135  0.37296644  0.37703326  1
  Fe  Fe25  1  0.25084490  0.25086731  0.25063298  1
  Fe  Fe26  1  0.36972174  0.12525896  0.62981898  1
  Fe  Fe27  1  0.62528911  0.87678187  0.37644498  1
  Fe  Fe28  1  0.87308884  0.12469201  0.12553163  1
  Fe  Fe29  1  0.49713313  0.24753232  0.50119172  1
  Fe  Fe30  1  0.87502687  0.62532839  0.62703448  1
  Fe  Fe31  1  0.74633577  -0.00076409  0.75092284  1
  Fe  Fe32  1  -0.00037625  0.00094015  0.50122598  1
  Fe  Fe33  1  0.37643320  0.12278905  0.37204876  1
  Fe  Fe34  1  0.75337657  0.24952505  -0.00184281  1
  Fe  Fe35  1  0.74784287  0.00160644  0.24994075  1
  Fe  Fe36  1  0.49587423  0.24632730  0.00076774  1
  Fe  Fe37  1  0.62526311  0.37437366  0.12335291  1
  Fe  Fe38  1  0.87297531  0.12591163  0.62733831  1
  Fe  Fe39  1  0.25190719  0.75000718  0.74944771  1
  Fe  Fe40  1  0.25034796  -0.00176897  -0.00130935  1
  Fe  Fe41  1  0.87743553  0.37669525  0.87490784  1
  Fe  Fe42  1  -0.00110204  0.74743973  -0.00135452  1
  Fe  Fe43  1  0.37612659  0.87502635  0.12530755  1
  Fe  Fe44  1  0.49554718  0.49826214  0.50257548  1
  Fe  Fe45  1  0.50057414  0.24708373  0.24713407  1
  Fe  Fe46  1  -0.00040327  0.00322485  -0.00318551  1
  Fe  Fe47  1  0.74950558  0.00340269  0.49970938  1
  Fe  Fe48  1  0.12387145  0.12573673  0.37682350  1
  Fe  Fe49  1  0.62634080  0.62515320  0.37738633  1
  Fe  Fe50  1  0.62285648  0.37518629  0.87648033  1
  Fe  Fe51  1  0.37767830  0.87745971  0.87379244  1
  Fe  Fe52  1  0.12811967  0.37194436  0.62183913  1
  Fe  Fe53  1  0.12697271  0.37523465  0.37776926  1
  Fe  Fe54  1  0.62492463  0.87394133  0.11937056  1
  Fe  Fe55  1  0.12377231  0.87480280  0.37558480  1
  Fe  Fe56  1  0.12242365  0.37341820  0.12133249  1
  Fe  Fe57  1  0.24701459  -0.00059165  0.24981891  1
  Fe  Fe58  1  0.25256535  0.74960132  -0.00207409  1
  Fe  Fe59  1  0.62253004  0.62878584  0.62511429  1
  Fe  Fe60  1  0.87489310  0.87546645  0.87423161  1
  Fe  Fe61  1  0.87476354  0.62360684  0.87215286  1
  Fe  Fe62  1  0.50271090  0.74909304  0.25017952  1
  Fe  Fe63  1  0.00004005  0.49945175  0.24898493  1
  Fe  Fe64  1  0.37674990  0.87333030  0.62533360  1
  Fe  Fe65  1  0.00311744  0.49816790  0.74805055  1
  Fe  Fe66  1  0.87503362  0.87312334  0.12559378  1
  Fe  Fe67  1  -0.00117301  0.25045263  0.24860373  1
  Fe  Fe68  1  0.00311817  0.24786071  0.75195557  1
  Fe  Fe69  1  0.75130345  0.49864140  0.50295966  1
  Fe  Fe70  1  0.74920669  0.24877730  0.25254299  1
  Fe  Fe71  1  0.24866786  0.75139340  0.25149382  1
  Fe  Fe72  1  0.37317845  0.62671150  0.37880199  1
  Fe  Fe73  1  0.50288430  0.00250518  0.24486798  1
  Fe  Fe74  1  0.74952212  0.25197392  0.75109908  1
  Fe  Fe75  1  0.12438109  0.87466454  0.62620058  1
  Fe  Fe76  1  -0.00287369  0.24913122  0.50122102  1
  Fe  Fe77  1  0.00540285  0.00388046  0.75270681  1
  Fe  Fe78  1  0.87420041  0.37486980  0.37553636  1
  Fe  Fe79  1  0.50073459  0.50154554  0.25117377  1
  Fe  Fe80  1  0.37626984  0.87636484  0.37479977  1
  Fe  Fe81  1  0.37102522  0.12260446  0.87205073  1
  Fe  Fe82  1  0.00136075  0.00060903  0.24895491  1
  Fe  Fe83  1  0.12381177  0.37422034  0.87904127  1
  Fe  Fe84  1  0.74711500  0.49884238  0.74930720  1
  Fe  Fe85  1  0.12645382  0.62449796  0.37842478  1
  Fe  Fe86  1  0.50077177  0.00275262  0.50429626  1
  Fe  Fe87  1  0.37675579  0.37625421  0.12681999  1
  Fe  Fe88  1  0.49936580  0.50159396  -0.00029721  1
  Fe  Fe89  1  0.75127951  0.50097048  0.00024034  1
  Co  Co90  1  0.49758297  0.00414127  0.00098784  1
  Co  Co91  1  -0.00420762  0.24637192  -0.00202962  1
  Co  Co92  1  -0.00114021  0.50274517  0.00135863  1
  Co  Co93  1  0.87230312  0.12391907  0.87024439  1
  Co  Co94  1  0.12782020  0.12633475  0.62361664  1
  Co  Co95  1  0.37657286  0.37410711  0.37329008  1
  Co  Co96  1  0.50188156  0.75227025  0.49687962  1
  Co  Co97  1  0.87670866  0.12395616  0.37464374  1
  Co  Co98  1  0.75257064  -0.00086638  -0.00132526  1
  Co  Co99  1  0.49710219  0.74826916  -0.00131992  1
  Co  Co100  1  0.13055250  0.12686016  0.87876422  1
  Co  Co101  1  0.12402496  0.87243553  0.87562717  1
  Co  Co102  1  0.37574731  0.37090674  0.62829438  1
  Co  Co103  1  0.37007409  0.12312887  0.12649798  1
  Co  Co104  1  0.75110345  0.75049700  0.50076540  1
  Co  Co105  1  0.75205392  0.74902139  -0.00103640  1
  Co  Co106  1  0.50101627  0.50099266  0.74711771  1
  Co  Co107  1  0.12485137  0.62621120  0.62416590  1
  Co  Co108  1  0.00265673  0.74996052  0.25111728  1
  Co  Co109  1  0.25589170  0.25410292  -0.00071237  1
  Co  Co110  1  0.75186809  0.24926585  0.49834540  1
  Co  Co111  1  0.37406545  0.62101303  0.87360922  1
  Co  Co112  1  0.50237538  0.00108581  0.74833775  1
  Co  Co113  1  0.87379930  0.37520103  0.12417239  1
  Co  Co114  1  0.37773304  0.62975577  0.62243444  1
  Co  Co115  1  0.62831278  0.12798631  0.62598962  1
  Co  Co116  1  0.62416011  0.62421952  0.12239267  1
  Co  Co117  1  0.25436237  0.49822575  0.50338775  1
  Co  Co118  1  0.49867298  0.74972302  0.75372969  1
  Co  Co119  1  0.74891825  0.75088650  0.75077999  1
  Co  Co120  1  0.24717590  0.25330073  0.75267600  1
  Co  Co121  1  0.24850353  0.75308029  0.50047039  1
  Co  Co122  1  0.62876307  0.12626345  0.12072781  1
  Co  Co123  1  0.87476529  0.37356656  0.62780852  1
  Co  Co124  1  0.74544943  0.75074270  0.24958475  1
  Co  Co125  1  0.25437416  0.24876883  0.49659999  1
  Co  Co126  1  0.24653837  -0.00339106  0.75043557  1
  Co  Co127  1  0.62225615  0.12522908  0.37629211  1
