# generated using pymatgen
data_Fe45Co19
_symmetry_space_group_name_H-M   'P 1'
_cell_length_a   11.41459899
_cell_length_b   11.41498474
_cell_length_c   11.41491909
_cell_angle_alpha   89.99971141
_cell_angle_beta   89.99605702
_cell_angle_gamma   89.99689439
_symmetry_Int_Tables_number   1
_chemical_formula_structural   Fe45Co19
_chemical_formula_sum   'Fe90 Co38'
_cell_volume   1487.33510925
_cell_formula_units_Z   2
loop_
 _symmetry_equiv_pos_site_id
 _symmetry_equiv_pos_as_xyz
  1  'x, y, z'
loop_
 _atom_site_type_symbol
 _atom_site_label
 _atom_site_symmetry_multiplicity
 _atom_site_fract_x
 _atom_site_fract_y
 _atom_site_fract_z
 _atom_site_occupancy
  Fe  Fe0  1  0.25058512  0.49840849  0.24986047  1
  Fe  Fe1  1  0.00100319  0.25415201  -0.00325684  1
  Fe  Fe2  1  0.74630714  0.74755406  0.75017548  1
  Fe  Fe3  1  0.12554196  0.87418763  0.87508289  1
  Fe  Fe4  1  0.25237143  0.00128609  0.24876714  1
  Fe  Fe5  1  0.37710156  0.87128924  0.62443160  1
  Fe  Fe6  1  0.24828017  0.25039378  0.75349035  1
  Fe  Fe7  1  0.37565981  0.87527101  0.87536393  1
  Fe  Fe8  1  0.12701035  0.37413502  0.12572905  1
  Fe  Fe9  1  0.74863682  0.74954803  -0.00216216  1
  Fe  Fe10  1  0.62581182  0.12727345  0.62289352  1
  Fe  Fe11  1  0.74786231  0.00146522  0.75037624  1
  Fe  Fe12  1  0.37682638  0.37187111  0.12631780  1
  Fe  Fe13  1  0.37674522  0.62537412  0.12488570  1
  Fe  Fe14  1  0.87166310  0.62522812  0.12642710  1
  Fe  Fe15  1  0.62003874  0.88014471  0.37757529  1
  Fe  Fe16  1  0.75142691  -0.00112372  -0.00253090  1
  Fe  Fe17  1  -0.00135596  0.49953019  0.24859053  1
  Fe  Fe18  1  0.62461338  0.87390483  0.12424362  1
  Fe  Fe19  1  -0.00131885  0.25036123  0.50241162  1
  Fe  Fe20  1  0.00044693  0.24984241  0.24913545  1
  Fe  Fe21  1  -0.00124015  0.49846144  -0.00060909  1
  Fe  Fe22  1  0.50211387  0.25188544  0.50173787  1
  Fe  Fe23  1  0.87318717  0.62748282  0.62403383  1
  Fe  Fe24  1  -0.00195074  0.75257467  0.49920031  1
  Fe  Fe25  1  0.25486045  0.50021195  0.74679467  1
  Fe  Fe26  1  0.12482084  0.87751477  0.37625838  1
  Fe  Fe27  1  0.49772265  0.00248254  0.00445620  1
  Fe  Fe28  1  0.37505122  0.61999260  0.37994998  1
  Fe  Fe29  1  0.12471663  0.62179447  0.37676692  1
  Fe  Fe30  1  0.37727888  0.37621410  0.37497725  1
  Fe  Fe31  1  0.12402172  0.12418320  0.37763655  1
  Fe  Fe32  1  0.74704120  0.00174780  0.25028212  1
  Fe  Fe33  1  0.87633543  0.87392802  0.87179170  1
  Fe  Fe34  1  0.25209531  0.74925548  0.25250302  1
  Fe  Fe35  1  0.62680519  0.37630527  0.37665957  1
  Fe  Fe36  1  0.87598210  0.12315853  0.37637062  1
  Fe  Fe37  1  0.87347257  0.62395073  0.87419432  1
  Fe  Fe38  1  0.62208173  0.12316000  0.87684351  1
  Fe  Fe39  1  0.87101257  0.37507846  0.12561455  1
  Fe  Fe40  1  0.50259108  0.49762485  0.00113993  1
  Fe  Fe41  1  -0.00019987  0.74997054  0.25087606  1
  Fe  Fe42  1  -0.00269292  0.49752975  0.74973489  1
  Fe  Fe43  1  -0.00266717  0.49738926  0.50300596  1
  Fe  Fe44  1  0.74785986  0.24806607  0.25238694  1
  Fe  Fe45  1  0.74513209  0.25310068  -0.00451618  1
  Fe  Fe46  1  0.50266637  0.25167164  0.75022408  1
  Fe  Fe47  1  0.12611440  0.62495032  0.12525288  1
  Fe  Fe48  1  0.87309233  0.37590454  0.37411998  1
  Fe  Fe49  1  0.12858266  0.12717853  0.12319400  1
  Fe  Fe50  1  0.25288118  0.00105163  0.50251905  1
  Fe  Fe51  1  0.86766687  0.37046994  0.63060711  1
  Fe  Fe52  1  0.49956146  0.74779195  -0.00260888  1
  Fe  Fe53  1  0.25168822  0.25120034  0.49694819  1
  Fe  Fe54  1  0.12614455  0.62247113  0.87351509  1
  Fe  Fe55  1  0.00014289  -0.00040742  0.00008277  1
  Fe  Fe56  1  0.37938247  0.12212744  0.37432363  1
  Fe  Fe57  1  0.00034585  0.74865292  -0.00105927  1
  Fe  Fe58  1  0.12415274  0.37644505  0.37540966  1
  Fe  Fe59  1  0.74538269  0.49928632  0.00004361  1
  Fe  Fe60  1  0.12502788  0.87458149  0.62501270  1
  Fe  Fe61  1  0.49933696  0.74942916  0.25426492  1
  Fe  Fe62  1  0.25336964  0.74740278  0.75188845  1
  Fe  Fe63  1  0.12517366  0.62487405  0.62431888  1
  Fe  Fe64  1  0.75051696  -0.00020364  0.50085707  1
  Fe  Fe65  1  0.49964875  0.00011678  0.74722228  1
  Fe  Fe66  1  0.25292892  0.49969089  -0.00000058  1
  Fe  Fe67  1  0.87311422  0.62393703  0.37606715  1
  Fe  Fe68  1  0.87763367  0.12754981  0.87362831  1
  Fe  Fe69  1  0.62188269  0.87132832  0.62391081  1
  Fe  Fe70  1  0.62264326  0.87511478  0.87428652  1
  Fe  Fe71  1  0.50321370  0.24557728  0.24732954  1
  Fe  Fe72  1  0.74706344  0.74965128  0.25356230  1
  Fe  Fe73  1  0.87230534  0.12672729  0.12283236  1
  Fe  Fe74  1  0.50358482  0.50110104  0.24956468  1
  Fe  Fe75  1  0.87544622  0.87501740  0.62695393  1
  Fe  Fe76  1  0.87348308  0.87429665  0.12694198  1
  Fe  Fe77  1  0.12748325  0.87377897  0.12323624  1
  Fe  Fe78  1  0.37383656  0.87336232  0.12461644  1
  Fe  Fe79  1  0.24999644  0.00164987  0.75005666  1
  Fe  Fe80  1  0.12744835  0.37319625  0.62568085  1
  Fe  Fe81  1  0.25188677  0.25193877  -0.00394714  1
  Fe  Fe82  1  0.87435102  0.12705730  0.62708001  1
  Fe  Fe83  1  0.00301507  0.00258000  0.74853564  1
  Fe  Fe84  1  0.00057414  0.00149110  0.24829847  1
  Fe  Fe85  1  0.37434469  0.12895820  0.62607310  1
  Fe  Fe86  1  0.25191650  0.74967364  0.49795506  1
  Fe  Fe87  1  0.37711451  0.12573258  0.87555549  1
  Fe  Fe88  1  0.62591038  0.62210462  0.38184227  1
  Fe  Fe89  1  0.50129614  0.50139413  0.74196978  1
  Co  Co90  1  0.00063842  0.74815191  0.75028971  1
  Co  Co91  1  0.50026001  0.00221767  0.24325080  1
  Co  Co92  1  0.37771264  0.62102960  0.87500914  1
  Co  Co93  1  0.74791774  0.50100531  0.24995728  1
  Co  Co94  1  0.62402905  0.62733885  0.12515454  1
  Co  Co95  1  0.50218642  0.25109051  0.00033209  1
  Co  Co96  1  0.37908337  0.37637873  0.87281398  1
  Co  Co97  1  0.25113866  0.00094278  -0.00162295  1
  Co  Co98  1  0.37741463  0.88042610  0.37526655  1
  Co  Co99  1  0.63104760  0.37139375  0.62678924  1
  Co  Co100  1  0.12367263  0.12507979  0.87570943  1
  Co  Co101  1  0.00263529  0.25227175  0.75068662  1
  Co  Co102  1  0.37710825  0.62822231  0.62063326  1
  Co  Co103  1  0.49809025  0.00158451  0.50673129  1
  Co  Co104  1  0.37175601  0.12899454  0.12425700  1
  Co  Co105  1  0.74760152  0.50553348  0.74732788  1
  Co  Co106  1  0.12681929  0.37967936  0.87331874  1
  Co  Co107  1  0.74991375  0.24860103  0.49673274  1
  Co  Co108  1  0.75092897  0.49823001  0.50379749  1
  Co  Co109  1  0.87076485  0.37596584  0.87230650  1
  Co  Co110  1  0.62544811  0.37380453  0.12791817  1
  Co  Co111  1  0.12658308  0.12715090  0.62341807  1
  Co  Co112  1  0.74564792  0.24519172  0.75554307  1
  Co  Co113  1  0.62324614  0.37882570  0.86989053  1
  Co  Co114  1  0.62138761  0.12163655  0.37805775  1
  Co  Co115  1  0.87518604  0.87774531  0.37247476  1
  Co  Co116  1  0.25080959  0.49770236  0.50231578  1
  Co  Co117  1  0.49912388  0.74787867  0.75187825  1
  Co  Co118  1  0.50082003  0.49435640  0.50624819  1
  Co  Co119  1  0.62249109  0.62315084  0.87434345  1
  Co  Co120  1  0.25083764  0.74728504  -0.00245361  1
  Co  Co121  1  0.62914226  0.12484861  0.12151089  1
  Co  Co122  1  0.62343984  0.62990460  0.61884967  1
  Co  Co123  1  -0.00187141  -0.00049597  0.50266080  1
  Co  Co124  1  0.25062373  0.25020065  0.25442887  1
  Co  Co125  1  0.49729501  0.75036608  0.49548689  1
  Co  Co126  1  0.37319134  0.37096810  0.62569512  1
  Co  Co127  1  0.75183786  0.75427718  0.49892819  1
