# generated using pymatgen
data_Fe45Co19
_symmetry_space_group_name_H-M   'P 1'
_cell_length_a   11.41511987
_cell_length_b   11.41577526
_cell_length_c   11.41598596
_cell_angle_alpha   89.99529448
_cell_angle_beta   89.98864863
_cell_angle_gamma   90.00017330
_symmetry_Int_Tables_number   1
_chemical_formula_structural   Fe45Co19
_chemical_formula_sum   'Fe90 Co38'
_cell_volume   1487.64498551
_cell_formula_units_Z   2
loop_
 _symmetry_equiv_pos_site_id
 _symmetry_equiv_pos_as_xyz
  1  'x, y, z'
loop_
 _atom_site_type_symbol
 _atom_site_label
 _atom_site_symmetry_multiplicity
 _atom_site_fract_x
 _atom_site_fract_y
 _atom_site_fract_z
 _atom_site_occupancy
  Fe  Fe0  1  0.87519406  0.87290195  0.12655652  1
  Fe  Fe1  1  0.62337911  0.12538630  0.12354758  1
  Fe  Fe2  1  0.62378094  0.12484832  0.87852392  1
  Fe  Fe3  1  0.62447036  0.37413339  0.12451033  1
  Fe  Fe4  1  0.74907588  -0.00044956  0.24903600  1
  Fe  Fe5  1  0.62622104  0.87508342  0.37551377  1
  Fe  Fe6  1  0.87635740  0.12478106  0.87438635  1
  Fe  Fe7  1  0.12691030  0.37167516  0.37324640  1
  Fe  Fe8  1  0.25152933  -0.00108673  0.50051391  1
  Fe  Fe9  1  0.00257145  0.25207534  0.00170314  1
  Fe  Fe10  1  0.62303909  0.12432855  0.62441629  1
  Fe  Fe11  1  0.87516010  0.62653615  0.12451129  1
  Fe  Fe12  1  0.50031578  0.50159862  0.75232416  1
  Fe  Fe13  1  0.37298244  0.62173564  0.12254312  1
  Fe  Fe14  1  0.75085706  0.25005267  0.50065250  1
  Fe  Fe15  1  0.12579830  0.62607586  0.37708221  1
  Fe  Fe16  1  0.37375883  0.12781463  0.87335641  1
  Fe  Fe17  1  0.12751584  0.37468388  0.87251597  1
  Fe  Fe18  1  0.12499816  0.62320422  0.12320989  1
  Fe  Fe19  1  0.37504108  0.62638185  0.62475269  1
  Fe  Fe20  1  0.12474824  0.87426605  0.37238654  1
  Fe  Fe21  1  0.62335709  0.87080801  0.87807049  1
  Fe  Fe22  1  0.49842866  0.49862010  0.24882050  1
  Fe  Fe23  1  0.50081404  0.75151325  0.24581715  1
  Fe  Fe24  1  -0.00144866  0.75115490  0.50075308  1
  Fe  Fe25  1  0.87590809  0.62447397  0.62395748  1
  Fe  Fe26  1  0.49840308  0.49815893  0.50030235  1
  Fe  Fe27  1  0.00118524  0.49862612  0.49939402  1
  Fe  Fe28  1  0.24900773  0.74863924  0.24780733  1
  Fe  Fe29  1  0.49452161  0.25563452  -0.00157363  1
  Fe  Fe30  1  0.12575117  0.12490954  0.87646924  1
  Fe  Fe31  1  0.87176327  0.62400826  0.37437608  1
  Fe  Fe32  1  0.62449326  0.62546365  0.62590042  1
  Fe  Fe33  1  0.49979910  -0.00090031  0.75166847  1
  Fe  Fe34  1  0.87536648  0.37589017  0.12512106  1
  Fe  Fe35  1  0.87458575  0.12180301  0.62743097  1
  Fe  Fe36  1  0.49865487  -0.00037919  0.50039855  1
  Fe  Fe37  1  0.37576291  0.12582531  0.37755379  1
  Fe  Fe38  1  0.37461525  0.87461337  0.62660821  1
  Fe  Fe39  1  0.87629607  0.37529742  0.62626757  1
  Fe  Fe40  1  0.24834122  0.74663841  0.75160994  1
  Fe  Fe41  1  0.00335704  0.49660030  0.00027391  1
  Fe  Fe42  1  0.87625674  0.12632762  0.37461664  1
  Fe  Fe43  1  0.25024192  0.00171390  0.24994841  1
  Fe  Fe44  1  0.25102439  0.50009738  0.50077929  1
  Fe  Fe45  1  0.37579938  0.62556936  0.37481186  1
  Fe  Fe46  1  0.00164248  0.49956275  0.25057132  1
  Fe  Fe47  1  0.62467082  0.37641419  0.87524141  1
  Fe  Fe48  1  0.62377949  0.37370363  0.62556038  1
  Fe  Fe49  1  0.75115809  -0.00175134  -0.00121253  1
  Fe  Fe50  1  0.00437208  0.75300592  -0.00114115  1
  Fe  Fe51  1  0.87308336  0.87289428  0.37401573  1
  Fe  Fe52  1  0.87373045  0.37604644  0.37390042  1
  Fe  Fe53  1  0.00068777  0.00020900  0.24918622  1
  Fe  Fe54  1  0.37117975  0.87294657  0.87762566  1
  Fe  Fe55  1  0.74807888  0.24805821  0.75173657  1
  Fe  Fe56  1  0.62629973  0.37647075  0.37518881  1
  Fe  Fe57  1  0.12625686  0.12771577  0.12548316  1
  Fe  Fe58  1  0.74967511  0.50076182  -0.00124259  1
  Fe  Fe59  1  0.87726904  0.87679126  0.87160706  1
  Fe  Fe60  1  -0.00224361  -0.00215158  0.50133334  1
  Fe  Fe61  1  0.37696514  0.62490363  0.87857748  1
  Fe  Fe62  1  0.37556525  0.87390559  0.37237786  1
  Fe  Fe63  1  0.75118169  0.25086737  -0.00053099  1
  Fe  Fe64  1  0.49664424  -0.00327444  0.00099076  1
  Fe  Fe65  1  0.25061301  0.24909918  0.50428500  1
  Fe  Fe66  1  0.37448888  0.12552832  0.12397368  1
  Fe  Fe67  1  0.37603046  0.37136974  0.62913687  1
  Fe  Fe68  1  0.62454349  0.12589733  0.37456620  1
  Fe  Fe69  1  0.87690304  0.62408542  0.87579573  1
  Fe  Fe70  1  0.87522417  0.12478196  0.12334111  1
  Fe  Fe71  1  0.62696333  0.62736485  0.12111951  1
  Fe  Fe72  1  0.00293453  0.50136818  0.74922470  1
  Fe  Fe73  1  0.49942983  -0.00184076  0.24762212  1
  Fe  Fe74  1  0.62706158  0.87533095  0.62459462  1
  Fe  Fe75  1  0.00305969  0.74952225  0.74995700  1
  Fe  Fe76  1  0.25046832  0.75144685  0.50013364  1
  Fe  Fe77  1  0.87652629  0.37411982  0.87360719  1
  Fe  Fe78  1  0.24802372  0.50290630  0.74974547  1
  Fe  Fe79  1  0.00420947  0.24786593  0.74656932  1
  Fe  Fe80  1  0.74989140  0.50109465  0.75098197  1
  Fe  Fe81  1  0.49555212  0.25300379  0.25116870  1
  Fe  Fe82  1  0.62641668  0.62311497  0.37555864  1
  Fe  Fe83  1  0.74999738  0.74978468  0.75067216  1
  Fe  Fe84  1  0.50025586  0.75019642  0.50083615  1
  Fe  Fe85  1  0.12303466  0.12738546  0.37651571  1
  Fe  Fe86  1  0.12505529  0.87517661  0.62664635  1
  Fe  Fe87  1  0.75159683  0.25012383  0.24819926  1
  Fe  Fe88  1  0.00348789  -0.00239276  -0.00033747  1
  Fe  Fe89  1  0.24928552  0.00343899  0.74836120  1
  Co  Co90  1  0.50035333  0.49799910  -0.00020840  1
  Co  Co91  1  0.24606676  0.24655751  0.74709968  1
  Co  Co92  1  0.74850127  0.74958240  0.25084753  1
  Co  Co93  1  0.24927052  0.50296965  0.25266404  1
  Co  Co94  1  0.12345845  0.62350304  0.87688646  1
  Co  Co95  1  0.49849444  0.75094314  0.74977931  1
  Co  Co96  1  0.36935888  0.37886108  0.12654718  1
  Co  Co97  1  0.12358470  0.12134235  0.62039496  1
  Co  Co98  1  0.87356439  0.87669905  0.62808216  1
  Co  Co99  1  0.12481520  0.62596008  0.62208846  1
  Co  Co100  1  0.12530819  0.37788066  0.62473565  1
  Co  Co101  1  -0.00160854  0.25073161  0.24832942  1
  Co  Co102  1  0.12861540  0.87656591  0.87314181  1
  Co  Co103  1  0.24723087  0.74848418  0.00057887  1
  Co  Co104  1  0.62712112  0.87541543  0.12237657  1
  Co  Co105  1  0.75121639  0.00112610  0.49884814  1
  Co  Co106  1  0.37247324  0.37585090  0.86958577  1
  Co  Co107  1  0.25353142  0.24721349  0.25036986  1
  Co  Co108  1  0.37907568  0.12634497  0.62585767  1
  Co  Co109  1  0.74967796  0.49915013  0.50301664  1
  Co  Co110  1  0.00083264  0.74783565  0.25023044  1
  Co  Co111  1  0.00331151  0.00156122  0.75020996  1
  Co  Co112  1  0.12952538  0.37408053  0.12928533  1
  Co  Co113  1  0.75369116  0.75077509  -0.00299975  1
  Co  Co114  1  0.74624402  0.00020282  0.75362293  1
  Co  Co115  1  0.24867611  0.49727720  -0.00296408  1
  Co  Co116  1  -0.00143034  0.25086763  0.50188835  1
  Co  Co117  1  0.24912799  0.00239917  0.00075350  1
  Co  Co118  1  0.50292992  0.24872565  0.75372192  1
  Co  Co119  1  0.49663841  0.75067587  0.00373124  1
  Co  Co120  1  0.37172035  0.37580209  0.37569334  1
  Co  Co121  1  0.75007571  0.74865360  0.50091123  1
  Co  Co122  1  0.74952815  0.50049050  0.24639276  1
  Co  Co123  1  0.49956323  0.25163846  0.49779126  1
  Co  Co124  1  0.25173013  0.25282063  -0.00100423  1
  Co  Co125  1  0.62334213  0.62731874  0.87616796  1
  Co  Co126  1  0.12710910  0.87619020  0.12701019  1
  Co  Co127  1  0.37023415  0.87551748  0.12451994  1
