# generated using pymatgen
data_Fe45Co19
_symmetry_space_group_name_H-M   'P 1'
_cell_length_a   11.41591698
_cell_length_b   11.41593028
_cell_length_c   11.41471824
_cell_angle_alpha   89.99955370
_cell_angle_beta   90.01103057
_cell_angle_gamma   89.99630097
_symmetry_Int_Tables_number   1
_chemical_formula_structural   Fe45Co19
_chemical_formula_sum   'Fe90 Co38'
_cell_volume   1487.60385932
_cell_formula_units_Z   2
loop_
 _symmetry_equiv_pos_site_id
 _symmetry_equiv_pos_as_xyz
  1  'x, y, z'
loop_
 _atom_site_type_symbol
 _atom_site_label
 _atom_site_symmetry_multiplicity
 _atom_site_fract_x
 _atom_site_fract_y
 _atom_site_fract_z
 _atom_site_occupancy
  Fe  Fe0  1  0.87535597  0.87709818  0.37418966  1
  Fe  Fe1  1  0.75187925  0.49941351  0.49981248  1
  Fe  Fe2  1  0.37319997  0.87420460  0.62539482  1
  Fe  Fe3  1  0.12529210  0.62330298  0.62157463  1
  Fe  Fe4  1  0.49877376  0.25009753  0.49797746  1
  Fe  Fe5  1  0.87499173  0.62646997  0.87642250  1
  Fe  Fe6  1  -0.00017235  0.00017957  0.74870386  1
  Fe  Fe7  1  0.50238359  0.74759536  0.74940917  1
  Fe  Fe8  1  0.75284420  0.74830570  0.49948432  1
  Fe  Fe9  1  0.75268570  0.00220878  0.50033553  1
  Fe  Fe10  1  0.62397741  0.12585646  0.62591338  1
  Fe  Fe11  1  0.50007284  -0.00077413  0.49921123  1
  Fe  Fe12  1  0.49828638  0.75243819  0.49745676  1
  Fe  Fe13  1  0.74819823  0.25092154  0.24742652  1
  Fe  Fe14  1  0.12205622  0.37568465  0.37610561  1
  Fe  Fe15  1  0.50228402  0.49795525  -0.00231411  1
  Fe  Fe16  1  0.37579648  0.37444966  0.12385489  1
  Fe  Fe17  1  0.49836933  0.75136590  0.24987354  1
  Fe  Fe18  1  0.24969475  0.50062547  0.75067519  1
  Fe  Fe19  1  0.62566731  0.62449450  0.12525099  1
  Fe  Fe20  1  0.50065566  0.00021725  0.75096719  1
  Fe  Fe21  1  0.25073643  0.24871735  0.25249217  1
  Fe  Fe22  1  0.74991765  -0.00043567  0.74848842  1
  Fe  Fe23  1  -0.00260311  0.00526858  0.49896793  1
  Fe  Fe24  1  0.24886343  0.24991154  0.75497000  1
  Fe  Fe25  1  0.24941508  -0.00043213  0.75025014  1
  Fe  Fe26  1  0.25312341  0.25160398  0.49709518  1
  Fe  Fe27  1  0.12530114  0.12708671  0.62398637  1
  Fe  Fe28  1  -0.00127694  0.74778724  0.49912166  1
  Fe  Fe29  1  0.87517136  0.87364281  0.87523593  1
  Fe  Fe30  1  0.12584314  0.12693731  0.12362731  1
  Fe  Fe31  1  0.87786985  0.37459533  0.37140882  1
  Fe  Fe32  1  0.12397307  0.87482935  0.62193164  1
  Fe  Fe33  1  0.50082511  0.00083668  -0.00069038  1
  Fe  Fe34  1  0.87521185  0.12429006  0.12716341  1
  Fe  Fe35  1  0.50074854  0.25068773  0.25016598  1
  Fe  Fe36  1  0.62410353  0.62500681  0.37630386  1
  Fe  Fe37  1  0.25164268  0.25006514  -0.00464358  1
  Fe  Fe38  1  0.12564946  0.62787588  0.12521919  1
  Fe  Fe39  1  -0.00168751  0.25080558  -0.00022567  1
  Fe  Fe40  1  0.37581289  0.12453786  0.12490309  1
  Fe  Fe41  1  0.37600374  0.37534859  0.62883641  1
  Fe  Fe42  1  0.87439642  0.37724907  0.12729349  1
  Fe  Fe43  1  0.74952693  0.24929020  0.75126233  1
  Fe  Fe44  1  0.00154955  -0.00202484  0.00118866  1
  Fe  Fe45  1  0.37516056  0.12588230  0.62548850  1
  Fe  Fe46  1  0.24930311  0.00252104  0.49647240  1
  Fe  Fe47  1  0.87544639  0.37524133  0.62674913  1
  Fe  Fe48  1  0.37353568  0.62201158  0.37482530  1
  Fe  Fe49  1  0.75010938  0.75013288  0.00200118  1
  Fe  Fe50  1  0.00000309  0.75022757  0.74821175  1
  Fe  Fe51  1  0.74555090  0.50287013  0.74906366  1
  Fe  Fe52  1  0.74949434  0.00129499  0.00253507  1
  Fe  Fe53  1  0.87504094  0.12415755  0.87538740  1
  Fe  Fe54  1  -0.00072583  0.50161476  0.00285700  1
  Fe  Fe55  1  0.24885265  0.74977263  0.49673259  1
  Fe  Fe56  1  0.62541249  0.87390331  0.87595879  1
  Fe  Fe57  1  0.12640005  0.37358932  0.12316524  1
  Fe  Fe58  1  0.50196045  0.49853480  0.24942629  1
  Fe  Fe59  1  0.37472071  0.87211146  0.87577474  1
  Fe  Fe60  1  0.12830837  0.87224518  0.12914417  1
  Fe  Fe61  1  0.00164727  0.74709243  0.25097387  1
  Fe  Fe62  1  0.62471101  0.37622941  0.37455476  1
  Fe  Fe63  1  0.62333648  0.37546367  0.62657287  1
  Fe  Fe64  1  0.74945247  0.49981887  0.00208821  1
  Fe  Fe65  1  0.62675676  0.12315472  0.37305800  1
  Fe  Fe66  1  0.62643255  0.87304125  0.62201468  1
  Fe  Fe67  1  0.50122471  -0.00115675  0.25033878  1
  Fe  Fe68  1  0.24941451  -0.00212056  0.00068286  1
  Fe  Fe69  1  0.24826752  0.49982537  0.25072068  1
  Fe  Fe70  1  0.74958574  0.75010840  0.25064229  1
  Fe  Fe71  1  0.87668716  0.87343852  0.12651039  1
  Fe  Fe72  1  0.00255255  0.00291974  0.25182415  1
  Fe  Fe73  1  0.24912758  0.50085262  -0.00086995  1
  Fe  Fe74  1  0.49937983  0.24978739  0.75663738  1
  Fe  Fe75  1  0.87407728  0.37604924  0.87546355  1
  Fe  Fe76  1  0.00094551  0.50028606  0.74952765  1
  Fe  Fe77  1  0.87715316  0.62005433  0.37106044  1
  Fe  Fe78  1  0.37504976  0.62586020  0.12385832  1
  Fe  Fe79  1  0.00170432  0.24962891  0.75149386  1
  Fe  Fe80  1  0.37103681  0.87774397  0.37083876  1
  Fe  Fe81  1  0.74881296  0.74813448  0.74749393  1
  Fe  Fe82  1  0.12467558  0.37497249  0.62344220  1
  Fe  Fe83  1  0.75204641  0.24941607  0.50019512  1
  Fe  Fe84  1  0.37517487  0.62459543  0.62448070  1
  Fe  Fe85  1  0.12414627  0.62679072  0.87643907  1
  Fe  Fe86  1  0.37594877  0.62668855  0.87598260  1
  Fe  Fe87  1  0.49793447  0.49773073  0.50088526  1
  Fe  Fe88  1  0.62390233  0.87518290  0.12617364  1
  Fe  Fe89  1  0.12541229  0.87294297  0.87497819  1
  Co  Co90  1  0.00350450  0.49974360  0.24604643  1
  Co  Co91  1  0.62290245  0.12566121  0.12498787  1
  Co  Co92  1  0.87340979  0.12727963  0.37022213  1
  Co  Co93  1  0.62616655  0.62582027  0.87836041  1
  Co  Co94  1  0.12363655  0.87555126  0.37485627  1
  Co  Co95  1  0.87505192  0.62380580  0.62685941  1
  Co  Co96  1  -0.00397348  0.24920643  0.50171459  1
  Co  Co97  1  0.87550581  0.87465402  0.62380616  1
  Co  Co98  1  0.25057475  0.75116385  0.00091117  1
  Co  Co99  1  0.37570591  0.37667812  0.37171609  1
  Co  Co100  1  0.74744218  0.49900302  0.24992119  1
  Co  Co101  1  0.50257068  0.50265684  0.75114312  1
  Co  Co102  1  -0.00314399  0.49843265  0.50141524  1
  Co  Co103  1  0.75194347  0.24907862  0.00355612  1
  Co  Co104  1  0.62747723  0.37360876  0.87630696  1
  Co  Co105  1  0.24665971  0.00396989  0.25100993  1
  Co  Co106  1  0.25123799  0.74732797  0.25169041  1
  Co  Co107  1  0.37426794  0.37861983  0.87510104  1
  Co  Co108  1  0.00062201  0.75035149  0.00146484  1
  Co  Co109  1  0.62334083  0.37418645  0.12278046  1
  Co  Co110  1  0.24891044  0.74914071  0.74892496  1
  Co  Co111  1  0.12467328  0.62094794  0.37704457  1
  Co  Co112  1  0.12292151  0.12971395  0.37625521  1
  Co  Co113  1  0.87359624  0.62542935  0.12632623  1
  Co  Co114  1  0.62378311  0.62535970  0.61918799  1
  Co  Co115  1  0.87458490  0.12628688  0.62863221  1
  Co  Co116  1  0.62777929  0.12577302  0.87621064  1
  Co  Co117  1  0.12349908  0.12353757  0.87651318  1
  Co  Co118  1  0.25235548  0.49653422  0.50011303  1
  Co  Co119  1  0.74993519  -0.00133375  0.24791046  1
  Co  Co120  1  0.12352630  0.37680693  0.87732047  1
  Co  Co121  1  0.37359703  0.87687848  0.12633232  1
  Co  Co122  1  0.37320364  0.12183224  0.87564282  1
  Co  Co123  1  0.00124288  0.25049639  0.24691806  1
  Co  Co124  1  0.49876534  0.24973652  -0.00333025  1
  Co  Co125  1  0.37723245  0.12368386  0.37391761  1
  Co  Co126  1  0.50053737  0.75079534  0.00232537  1
  Co  Co127  1  0.62737320  0.87534595  0.37595189  1
