# generated using pymatgen
data_Fe45Co19
_symmetry_space_group_name_H-M   'P 1'
_cell_length_a   11.41487277
_cell_length_b   11.41429212
_cell_length_c   11.41571606
_cell_angle_alpha   89.99497553
_cell_angle_beta   89.99673441
_cell_angle_gamma   89.99785219
_symmetry_Int_Tables_number   1
_chemical_formula_structural   Fe45Co19
_chemical_formula_sum   'Fe90 Co38'
_cell_volume   1487.38437039
_cell_formula_units_Z   2
loop_
 _symmetry_equiv_pos_site_id
 _symmetry_equiv_pos_as_xyz
  1  'x, y, z'
loop_
 _atom_site_type_symbol
 _atom_site_label
 _atom_site_symmetry_multiplicity
 _atom_site_fract_x
 _atom_site_fract_y
 _atom_site_fract_z
 _atom_site_occupancy
  Fe  Fe0  1  0.37491856  0.62747165  0.37585748  1
  Fe  Fe1  1  0.62334023  0.12315919  0.87717698  1
  Fe  Fe2  1  0.49749318  0.24809846  0.75174312  1
  Fe  Fe3  1  0.49989922  -0.00036606  0.50032015  1
  Fe  Fe4  1  0.62312842  0.62723633  0.37696077  1
  Fe  Fe5  1  0.12349418  0.12040867  0.37225590  1
  Fe  Fe6  1  0.00492815  0.75082848  0.00207165  1
  Fe  Fe7  1  0.87587348  0.12524598  0.87460978  1
  Fe  Fe8  1  0.87648665  0.62480975  0.12470626  1
  Fe  Fe9  1  0.37411076  0.37167839  0.62338501  1
  Fe  Fe10  1  0.62358495  0.87365269  0.37503827  1
  Fe  Fe11  1  0.50292935  -0.00427275  0.00331041  1
  Fe  Fe12  1  0.87893489  0.62543285  0.37810644  1
  Fe  Fe13  1  0.25029258  0.49935764  0.74961597  1
  Fe  Fe14  1  0.75207458  0.50215446  0.74772929  1
  Fe  Fe15  1  -0.00227245  0.24548067  0.49881340  1
  Fe  Fe16  1  0.12567050  0.11932362  0.62707308  1
  Fe  Fe17  1  0.75053761  -0.00052040  0.24923583  1
  Fe  Fe18  1  0.37483469  0.87350102  0.37318158  1
  Fe  Fe19  1  0.00267193  0.00294231  0.00323710  1
  Fe  Fe20  1  0.75061025  -0.00035644  0.75088489  1
  Fe  Fe21  1  0.87509764  0.37246962  0.62455767  1
  Fe  Fe22  1  0.37436123  0.87646979  0.62356176  1
  Fe  Fe23  1  0.36962093  0.87117156  0.12691999  1
  Fe  Fe24  1  0.24704513  0.00297635  0.00129631  1
  Fe  Fe25  1  0.24854069  0.75297161  0.49846921  1
  Fe  Fe26  1  0.87678824  0.87701493  0.37415004  1
  Fe  Fe27  1  0.62553159  0.12534911  0.12521412  1
  Fe  Fe28  1  0.00467187  0.74982044  0.24779370  1
  Fe  Fe29  1  0.37451595  0.37449238  0.12449225  1
  Fe  Fe30  1  0.24827716  0.49787680  0.49810045  1
  Fe  Fe31  1  0.37791363  0.12456548  0.37751788  1
  Fe  Fe32  1  0.37129219  0.62750371  0.12520064  1
  Fe  Fe33  1  0.87436657  0.87558724  0.87679360  1
  Fe  Fe34  1  0.49784643  -0.00013440  0.74847221  1
  Fe  Fe35  1  -0.00037113  0.24711588  0.74935527  1
  Fe  Fe36  1  0.49882985  0.50053130  0.25058960  1
  Fe  Fe37  1  0.50052168  0.25167103  0.25082798  1
  Fe  Fe38  1  0.25085230  0.75107513  0.75062224  1
  Fe  Fe39  1  -0.00283582  0.24956828  0.25251459  1
  Fe  Fe40  1  0.62569368  0.37473802  0.12508458  1
  Fe  Fe41  1  0.87477550  0.62769710  0.87437799  1
  Fe  Fe42  1  0.87402423  0.87483563  0.12386145  1
  Fe  Fe43  1  0.62511016  0.12459874  0.37381833  1
  Fe  Fe44  1  0.00308213  0.50005035  0.25332389  1
  Fe  Fe45  1  0.37522642  0.87593166  0.87618971  1
  Fe  Fe46  1  0.62559779  0.37488463  0.37539483  1
  Fe  Fe47  1  0.74864548  0.74995583  0.50372205  1
  Fe  Fe48  1  0.37489446  0.62666006  0.87473947  1
  Fe  Fe49  1  0.24942692  0.49853296  -0.00202349  1
  Fe  Fe50  1  0.75115139  0.00094869  0.50020317  1
  Fe  Fe51  1  0.74981710  0.50062938  -0.00116770  1
  Fe  Fe52  1  0.75157622  0.24806713  0.49808401  1
  Fe  Fe53  1  0.87329775  0.12630111  0.12565363  1
  Fe  Fe54  1  0.75226998  0.50168406  0.50231846  1
  Fe  Fe55  1  0.24701361  0.50034244  0.25362303  1
  Fe  Fe56  1  0.00005115  0.49795911  -0.00077252  1
  Fe  Fe57  1  0.87457842  0.37526093  0.12673379  1
  Fe  Fe58  1  0.12517975  0.37186185  0.12553243  1
  Fe  Fe59  1  0.12471485  0.62528713  0.62247718  1
  Fe  Fe60  1  0.37669300  0.12664852  0.12238681  1
  Fe  Fe61  1  0.25069677  0.24605468  0.49827860  1
  Fe  Fe62  1  0.87502772  0.37362157  0.87325522  1
  Fe  Fe63  1  0.49842905  0.50008550  0.50152566  1
  Fe  Fe64  1  0.50180539  0.75216288  0.00132071  1
  Fe  Fe65  1  0.62386742  0.37547318  0.87360246  1
  Fe  Fe66  1  0.62441738  0.62906538  0.87008393  1
  Fe  Fe67  1  0.62486907  0.62638197  0.12611270  1
  Fe  Fe68  1  0.00216285  0.75446414  0.50100819  1
  Fe  Fe69  1  0.49965845  0.50010238  -0.00031717  1
  Fe  Fe70  1  0.12545375  0.87926174  0.87381486  1
  Fe  Fe71  1  0.12469084  0.62434107  0.87506256  1
  Fe  Fe72  1  0.62471116  0.37336239  0.62568259  1
  Fe  Fe73  1  0.74946547  0.25065463  -0.00096923  1
  Fe  Fe74  1  -0.00020754  0.75131008  0.74958047  1
  Fe  Fe75  1  0.12527643  0.88123438  0.37052459  1
  Fe  Fe76  1  0.75018102  0.50120178  0.25161168  1
  Fe  Fe77  1  0.12461576  0.37224067  0.87377971  1
  Fe  Fe78  1  0.12646786  0.88018926  0.62746089  1
  Fe  Fe79  1  0.62479244  0.12550820  0.62498641  1
  Fe  Fe80  1  0.74714888  0.75182662  -0.00056838  1
  Fe  Fe81  1  0.25418146  0.24448871  0.75265530  1
  Fe  Fe82  1  0.49654660  0.50140292  0.74774993  1
  Fe  Fe83  1  0.87499241  0.87739358  0.62522558  1
  Fe  Fe84  1  0.49876094  -0.00219331  0.24849671  1
  Fe  Fe85  1  0.25015542  0.24799228  -0.00344721  1
  Fe  Fe86  1  -0.00008100  0.50062557  0.74771770  1
  Fe  Fe87  1  0.74961158  0.74936965  0.25058172  1
  Fe  Fe88  1  0.12573814  0.37217907  0.62392104  1
  Fe  Fe89  1  0.25264223  0.24846173  0.25273567  1
  Co  Co90  1  0.87375991  0.12427293  0.62663259  1
  Co  Co91  1  -0.00136852  -0.00024793  0.24470455  1
  Co  Co92  1  0.24660488  0.75060271  -0.00284156  1
  Co  Co93  1  0.62415886  0.62570374  0.62713474  1
  Co  Co94  1  0.37613944  0.12517615  0.62158064  1
  Co  Co95  1  -0.00310417  -0.00074434  0.75051998  1
  Co  Co96  1  0.49648593  0.75151608  0.74671848  1
  Co  Co97  1  0.25110443  -0.00006004  0.49841042  1
  Co  Co98  1  0.12936239  0.87698530  0.12815985  1
  Co  Co99  1  0.74961327  0.00053482  -0.00011607  1
  Co  Co100  1  0.50000519  0.75004048  0.50297556  1
  Co  Co101  1  0.87863405  0.62698711  0.62346725  1
  Co  Co102  1  0.12661715  0.62219334  0.12235979  1
  Co  Co103  1  0.87415130  0.37606271  0.37576885  1
  Co  Co104  1  0.75186551  0.75205985  0.74707229  1
  Co  Co105  1  0.12534989  0.12936539  0.12800101  1
  Co  Co106  1  0.37078983  0.62526050  0.62258810  1
  Co  Co107  1  0.62810776  0.87503059  0.12820466  1
  Co  Co108  1  0.74863960  0.24862699  0.75159236  1
  Co  Co109  1  0.25476117  0.00224855  0.75079746  1
  Co  Co110  1  0.37843931  0.12090663  0.87990918  1
  Co  Co111  1  0.62485572  0.87692192  0.62554593  1
  Co  Co112  1  0.62457664  0.87485578  0.87141509  1
  Co  Co113  1  -0.00016734  0.49614224  0.50113026  1
  Co  Co114  1  -0.00119740  0.00115601  0.50100589  1
  Co  Co115  1  0.12433714  0.37104327  0.37614851  1
  Co  Co116  1  -0.00126800  0.24887565  -0.00106413  1
  Co  Co117  1  0.50133149  0.25268286  -0.00101366  1
  Co  Co118  1  0.25406561  0.00395114  0.24883618  1
  Co  Co119  1  0.87507882  0.12123943  0.37276063  1
  Co  Co120  1  0.12236303  0.62496912  0.38053922  1
  Co  Co121  1  0.24464531  0.74647221  0.25260652  1
  Co  Co122  1  0.74943755  0.25022624  0.25127861  1
  Co  Co123  1  0.37553268  0.37437912  0.37618564  1
  Co  Co124  1  0.37527817  0.37543027  0.87472539  1
  Co  Co125  1  0.50050619  0.75057275  0.24848960  1
  Co  Co126  1  0.12373051  0.12340308  0.87189208  1
  Co  Co127  1  0.50147092  0.25065654  0.49908123  1
