# generated using pymatgen
data_Fe45Co19
_symmetry_space_group_name_H-M   'P 1'
_cell_length_a   11.41518317
_cell_length_b   11.41573190
_cell_length_c   11.41595348
_cell_angle_alpha   89.99496203
_cell_angle_beta   89.99214782
_cell_angle_gamma   89.98995496
_symmetry_Int_Tables_number   1
_chemical_formula_structural   Fe45Co19
_chemical_formula_sum   'Fe90 Co38'
_cell_volume   1487.64334490
_cell_formula_units_Z   2
loop_
 _symmetry_equiv_pos_site_id
 _symmetry_equiv_pos_as_xyz
  1  'x, y, z'
loop_
 _atom_site_type_symbol
 _atom_site_label
 _atom_site_symmetry_multiplicity
 _atom_site_fract_x
 _atom_site_fract_y
 _atom_site_fract_z
 _atom_site_occupancy
  Fe  Fe0  1  0.49911054  0.75347842  0.24855952  1
  Fe  Fe1  1  0.63174840  0.87500876  0.12178387  1
  Fe  Fe2  1  0.37771547  0.12493705  0.87428305  1
  Fe  Fe3  1  0.87522005  0.37336931  0.37400322  1
  Fe  Fe4  1  0.87496878  0.12445594  0.87222219  1
  Fe  Fe5  1  0.62844369  0.62526600  0.12717670  1
  Fe  Fe6  1  0.37633141  0.12541031  0.62525297  1
  Fe  Fe7  1  -0.00030014  0.50035849  0.50065583  1
  Fe  Fe8  1  0.12699615  0.87444828  0.12315173  1
  Fe  Fe9  1  0.74995622  0.24755301  0.00046115  1
  Fe  Fe10  1  0.87573540  0.12495369  0.62441937  1
  Fe  Fe11  1  0.24958029  0.24782472  0.00050420  1
  Fe  Fe12  1  0.87506562  0.62776250  0.37368992  1
  Fe  Fe13  1  0.50122455  -0.00201283  0.00005479  1
  Fe  Fe14  1  0.87245708  0.11962094  0.13089640  1
  Fe  Fe15  1  0.37792052  0.63027494  0.87237098  1
  Fe  Fe16  1  0.87487171  0.62421383  0.63076459  1
  Fe  Fe17  1  0.62437832  0.62582553  0.37304256  1
  Fe  Fe18  1  0.24994640  0.50148788  0.25090375  1
  Fe  Fe19  1  0.62775249  0.12273993  0.12692215  1
  Fe  Fe20  1  0.37285307  0.63037914  0.12603548  1
  Fe  Fe21  1  0.37423386  0.37496492  0.12290706  1
  Fe  Fe22  1  0.12266236  0.87364159  0.87552269  1
  Fe  Fe23  1  0.50319901  0.24942843  0.74654492  1
  Fe  Fe24  1  0.62470547  0.12637378  0.37552914  1
  Fe  Fe25  1  0.62585739  0.37546986  0.87621348  1
  Fe  Fe26  1  0.50246443  0.50066332  0.74896738  1
  Fe  Fe27  1  0.24997359  0.50422950  -0.00169643  1
  Fe  Fe28  1  0.87138777  0.87310989  0.62281223  1
  Fe  Fe29  1  0.62645002  0.62774676  0.87436714  1
  Fe  Fe30  1  0.87407937  0.37743593  0.87360592  1
  Fe  Fe31  1  0.74726607  0.25036920  0.74714914  1
  Fe  Fe32  1  0.00151236  0.24704122  0.24917753  1
  Fe  Fe33  1  0.37491033  0.12219583  0.12483223  1
  Fe  Fe34  1  0.74956427  0.24931691  0.50062359  1
  Fe  Fe35  1  0.12418002  0.62636121  0.37433327  1
  Fe  Fe36  1  0.12257097  0.12322862  0.87591665  1
  Fe  Fe37  1  0.12457868  0.37586738  0.12388926  1
  Fe  Fe38  1  0.12397610  0.37462714  0.87770794  1
  Fe  Fe39  1  0.24815898  0.24679648  0.24967016  1
  Fe  Fe40  1  0.75071886  0.50105576  0.49885371  1
  Fe  Fe41  1  0.37625465  0.12236025  0.37488413  1
  Fe  Fe42  1  0.87107535  0.62800539  0.12613584  1
  Fe  Fe43  1  0.50066727  0.50311390  0.00072467  1
  Fe  Fe44  1  0.12406693  0.87562292  0.37919815  1
  Fe  Fe45  1  0.37983923  0.87028126  0.87518656  1
  Fe  Fe46  1  0.25423995  0.74713830  0.49739921  1
  Fe  Fe47  1  0.75288437  0.00096806  0.49686670  1
  Fe  Fe48  1  -0.00206810  0.75476322  0.24818265  1
  Fe  Fe49  1  0.62513499  0.37524737  0.37574920  1
  Fe  Fe50  1  0.37530492  0.37627141  0.62427900  1
  Fe  Fe51  1  0.37660837  0.37479146  0.87531266  1
  Fe  Fe52  1  -0.00151153  0.75024884  0.50234405  1
  Fe  Fe53  1  -0.00200265  0.24770888  0.00221822  1
  Fe  Fe54  1  0.62571032  0.12033467  0.87058728  1
  Fe  Fe55  1  0.49742400  0.74792942  0.50179939  1
  Fe  Fe56  1  0.62587146  0.62482986  0.62558713  1
  Fe  Fe57  1  0.49774204  0.50198614  0.49993104  1
  Fe  Fe58  1  0.62443935  0.87278559  0.37888786  1
  Fe  Fe59  1  0.00127501  0.25135555  0.74920243  1
  Fe  Fe60  1  0.24877247  0.24850579  0.75070381  1
  Fe  Fe61  1  0.75029190  0.74850452  0.50028977  1
  Fe  Fe62  1  0.12556099  0.62648449  0.62599723  1
  Fe  Fe63  1  0.25170624  -0.00150145  -0.00240560  1
  Fe  Fe64  1  0.12443707  0.37622708  0.37545582  1
  Fe  Fe65  1  0.37550975  0.87219602  0.62546457  1
  Fe  Fe66  1  0.25190554  -0.00178596  0.75069797  1
  Fe  Fe67  1  0.49941552  0.00068241  0.50270933  1
  Fe  Fe68  1  0.50160010  -0.00377591  0.24906404  1
  Fe  Fe69  1  0.87246855  0.87181252  0.87709478  1
  Fe  Fe70  1  0.87430869  0.37746661  0.62694556  1
  Fe  Fe71  1  0.24938086  0.24805692  0.49924195  1
  Fe  Fe72  1  0.12628169  0.37626548  0.62315863  1
  Fe  Fe73  1  0.12647067  0.62889461  0.12655083  1
  Fe  Fe74  1  0.49998930  0.25037654  0.24996002  1
  Fe  Fe75  1  0.12241901  0.12213215  0.62387110  1
  Fe  Fe76  1  0.12698109  0.87516976  0.62320907  1
  Fe  Fe77  1  0.11949738  0.62985057  0.87307906  1
  Fe  Fe78  1  0.37400957  0.37574912  0.37616914  1
  Fe  Fe79  1  0.87250083  0.37571027  0.12594377  1
  Fe  Fe80  1  -0.00226589  -0.00381308  0.74775482  1
  Fe  Fe81  1  0.50223814  0.24811662  0.00069777  1
  Fe  Fe82  1  0.12006308  0.12091933  0.37895862  1
  Fe  Fe83  1  -0.00202365  0.50125672  0.24990975  1
  Fe  Fe84  1  -0.00313611  0.50368962  -0.00079343  1
  Fe  Fe85  1  0.24911288  -0.00231003  0.25168944  1
  Fe  Fe86  1  0.50000187  0.49967220  0.24911269  1
  Fe  Fe87  1  -0.00311174  -0.00162366  0.00266137  1
  Fe  Fe88  1  0.24889652  0.50192788  0.75097102  1
  Fe  Fe89  1  0.62763947  0.37649297  0.12459961  1
  Co  Co90  1  0.75140251  0.50248729  -0.00137558  1
  Co  Co91  1  0.24880973  0.75161216  0.75092676  1
  Co  Co92  1  0.62659631  0.12057359  0.62520952  1
  Co  Co93  1  0.50665161  0.75266951  0.74742098  1
  Co  Co94  1  0.75071406  0.50016786  0.25247734  1
  Co  Co95  1  -0.00027102  0.25212383  0.50122789  1
  Co  Co96  1  0.37779526  0.87693457  0.37670685  1
  Co  Co97  1  0.86889939  0.87679786  0.12516809  1
  Co  Co98  1  0.25086668  0.75436659  0.25504983  1
  Co  Co99  1  -0.00263789  0.75020302  0.00321351  1
  Co  Co100  1  0.50403519  0.75068829  0.00256300  1
  Co  Co101  1  0.00040994  -0.00476916  0.25044118  1
  Co  Co102  1  0.74902648  0.75248052  0.25241676  1
  Co  Co103  1  0.75085587  0.00255792  -0.00280041  1
  Co  Co104  1  -0.00479666  -0.00315585  0.50185363  1
  Co  Co105  1  0.75024222  0.74705752  -0.00269896  1
  Co  Co106  1  0.37689431  0.62533684  0.37106973  1
  Co  Co107  1  0.74887575  0.24983572  0.25052478  1
  Co  Co108  1  -0.00126676  0.75486305  0.74732406  1
  Co  Co109  1  0.25050430  0.50387552  0.49932301  1
  Co  Co110  1  0.37239191  0.87359019  0.12304606  1
  Co  Co111  1  0.62438084  0.37757591  0.62183637  1
  Co  Co112  1  0.25273171  0.00031177  0.50185473  1
  Co  Co113  1  0.37540198  0.62574151  0.62918266  1
  Co  Co114  1  0.87787488  0.12588725  0.37369714  1
  Co  Co115  1  0.62550576  0.87721196  0.87579340  1
  Co  Co116  1  0.87615107  0.62684964  0.86907655  1
  Co  Co117  1  0.24879683  0.74936981  -0.00364420  1
  Co  Co118  1  0.00327666  0.49871681  0.74971845  1
  Co  Co119  1  0.87548274  0.87265285  0.37560864  1
  Co  Co120  1  0.50016407  0.24888040  0.50034131  1
  Co  Co121  1  0.74668685  0.50021459  0.75097809  1
  Co  Co122  1  0.12496411  0.12101928  0.12297149  1
  Co  Co123  1  0.62691324  0.87720357  0.62158743  1
  Co  Co124  1  0.74739056  0.75308186  0.75031091  1
  Co  Co125  1  0.74829642  -0.00337531  0.25742582  1
  Co  Co126  1  0.75279648  -0.00320778  0.74911677  1
  Co  Co127  1  0.49888290  -0.00280315  0.74773629  1
