# generated using pymatgen
data_Fe45Co19
_symmetry_space_group_name_H-M   'P 1'
_cell_length_a   11.41535738
_cell_length_b   11.41448609
_cell_length_c   11.41544529
_cell_angle_alpha   90.00194617
_cell_angle_beta   89.99899139
_cell_angle_gamma   89.99953721
_symmetry_Int_Tables_number   1
_chemical_formula_structural   Fe45Co19
_chemical_formula_sum   'Fe90 Co38'
_cell_volume   1487.43751953
_cell_formula_units_Z   2
loop_
 _symmetry_equiv_pos_site_id
 _symmetry_equiv_pos_as_xyz
  1  'x, y, z'
loop_
 _atom_site_type_symbol
 _atom_site_label
 _atom_site_symmetry_multiplicity
 _atom_site_fract_x
 _atom_site_fract_y
 _atom_site_fract_z
 _atom_site_occupancy
  Fe  Fe0  1  0.75016084  -0.00189465  0.00204431  1
  Fe  Fe1  1  0.25668292  0.74420087  0.24886933  1
  Fe  Fe2  1  0.37630109  0.37345613  0.62283780  1
  Fe  Fe3  1  0.00041807  0.74977286  -0.00027023  1
  Fe  Fe4  1  0.62311254  0.37536498  0.86865141  1
  Fe  Fe5  1  0.62594792  0.12816694  0.62510785  1
  Fe  Fe6  1  0.74632778  -0.00113476  0.49908400  1
  Fe  Fe7  1  0.50105873  0.49733012  -0.00197886  1
  Fe  Fe8  1  0.37839058  0.62524295  0.87547273  1
  Fe  Fe9  1  0.49911798  0.75496817  0.75059236  1
  Fe  Fe10  1  0.49752665  0.50390889  0.25306116  1
  Fe  Fe11  1  0.24801043  0.50234958  0.49994133  1
  Fe  Fe12  1  0.25290628  0.50207433  0.74835895  1
  Fe  Fe13  1  0.37351836  0.37693249  0.37572530  1
  Fe  Fe14  1  0.62597319  0.37509393  0.37508549  1
  Fe  Fe15  1  0.12424502  0.37454304  0.62570570  1
  Fe  Fe16  1  -0.00443524  0.24896386  0.74668553  1
  Fe  Fe17  1  0.25265382  0.00152475  0.25106239  1
  Fe  Fe18  1  0.12620997  0.37422294  0.37355470  1
  Fe  Fe19  1  0.62559532  0.37634528  0.12700046  1
  Fe  Fe20  1  0.87498149  0.62476614  0.12274626  1
  Fe  Fe21  1  0.37763737  0.62981105  0.61958034  1
  Fe  Fe22  1  0.24768831  0.50314670  -0.00018475  1
  Fe  Fe23  1  0.37560174  0.37486544  0.87374304  1
  Fe  Fe24  1  0.62725362  0.37229091  0.62786624  1
  Fe  Fe25  1  0.00364246  0.50139156  -0.00081977  1
  Fe  Fe26  1  0.87091795  0.87434997  0.62535573  1
  Fe  Fe27  1  0.87402147  0.87293764  0.87613669  1
  Fe  Fe28  1  0.50372526  -0.00533597  0.50230057  1
  Fe  Fe29  1  0.12365561  0.62632239  0.62705691  1
  Fe  Fe30  1  -0.00202198  0.25075288  0.25067481  1
  Fe  Fe31  1  0.74496861  0.74980294  0.49844667  1
  Fe  Fe32  1  0.25227681  0.00057182  0.74952259  1
  Fe  Fe33  1  -0.00093606  -0.00109213  0.74953748  1
  Fe  Fe34  1  0.62447820  0.12520880  0.37492121  1
  Fe  Fe35  1  0.12655095  0.12647350  0.12774449  1
  Fe  Fe36  1  0.12706292  0.87203106  0.12685699  1
  Fe  Fe37  1  0.00129769  -0.00050817  0.50136003  1
  Fe  Fe38  1  0.49921007  -0.00269319  0.24984695  1
  Fe  Fe39  1  -0.00301301  0.74982621  0.25078975  1
  Fe  Fe40  1  -0.00189014  0.24739258  0.50300142  1
  Fe  Fe41  1  0.24876400  0.24744418  0.49904489  1
  Fe  Fe42  1  0.12592030  0.87564836  0.62684074  1
  Fe  Fe43  1  0.87448740  0.62251890  0.62259965  1
  Fe  Fe44  1  0.74828586  0.00290767  0.75324052  1
  Fe  Fe45  1  0.24826489  -0.00090159  0.49903767  1
  Fe  Fe46  1  0.25304545  0.74792312  0.00152887  1
  Fe  Fe47  1  0.87246804  0.62286917  0.37816832  1
  Fe  Fe48  1  0.12549685  0.62560291  0.37346999  1
  Fe  Fe49  1  0.12664162  0.87225464  0.87364940  1
  Fe  Fe50  1  0.25024815  0.00006998  0.00064835  1
  Fe  Fe51  1  0.87431370  0.37669584  0.87461198  1
  Fe  Fe52  1  0.00064976  0.75132630  0.50059294  1
  Fe  Fe53  1  0.75098962  0.74566900  0.75541624  1
  Fe  Fe54  1  0.87149701  0.87701421  0.37417649  1
  Fe  Fe55  1  0.37759429  0.12521119  0.37669433  1
  Fe  Fe56  1  0.75011522  0.50176662  0.25063497  1
  Fe  Fe57  1  0.74599869  0.25093693  -0.00303678  1
  Fe  Fe58  1  0.12755417  0.37590055  0.12846374  1
  Fe  Fe59  1  0.49874761  -0.00613919  -0.00090685  1
  Fe  Fe60  1  -0.00037942  0.50040983  0.25027926  1
  Fe  Fe61  1  0.50387016  0.50048551  0.50105553  1
  Fe  Fe62  1  0.37339448  0.37751692  0.12688403  1
  Fe  Fe63  1  0.25228745  0.24926885  0.00206035  1
  Fe  Fe64  1  0.87376716  0.12230680  0.37508621  1
  Fe  Fe65  1  0.37662032  0.12421028  0.62265032  1
  Fe  Fe66  1  0.49811765  0.25050985  0.24901692  1
  Fe  Fe67  1  0.74727575  0.50402032  -0.00464823  1
  Fe  Fe68  1  0.87270623  0.37676289  0.12288229  1
  Fe  Fe69  1  0.62543793  0.87164117  0.12631099  1
  Fe  Fe70  1  0.00089320  0.25091135  0.00054362  1
  Fe  Fe71  1  0.50035553  -0.00220119  0.74936929  1
  Fe  Fe72  1  0.37909849  0.12549997  0.87784404  1
  Fe  Fe73  1  0.12638442  0.37433264  0.87257911  1
  Fe  Fe74  1  0.75011785  0.24922518  0.25119453  1
  Fe  Fe75  1  0.87381511  0.12639494  0.12433467  1
  Fe  Fe76  1  0.62172498  0.12550183  0.12275331  1
  Fe  Fe77  1  0.87477776  0.12491177  0.87652185  1
  Fe  Fe78  1  0.87397456  0.37840351  0.37987699  1
  Fe  Fe79  1  -0.00119153  -0.00133836  0.24783227  1
  Fe  Fe80  1  0.74991346  0.74961978  0.24958215  1
  Fe  Fe81  1  0.62484746  0.62488795  0.62952212  1
  Fe  Fe82  1  0.25300853  0.24844262  0.74892293  1
  Fe  Fe83  1  0.37753885  0.86925805  0.37968970  1
  Fe  Fe84  1  0.00109887  -0.00205299  0.00171994  1
  Fe  Fe85  1  0.12458258  0.12634887  0.87307078  1
  Fe  Fe86  1  -0.00104613  0.50161429  0.75039418  1
  Fe  Fe87  1  0.62107148  0.62693084  0.12304271  1
  Fe  Fe88  1  0.12596837  0.87362339  0.37265253  1
  Fe  Fe89  1  0.25191393  0.75024308  0.74822618  1
  Co  Co90  1  0.62516581  0.87483193  0.37013374  1
  Co  Co91  1  0.74901865  0.00087280  0.24626684  1
  Co  Co92  1  0.24397096  0.75011592  0.50132563  1
  Co  Co93  1  0.74870674  0.74676760  -0.00238656  1
  Co  Co94  1  0.75238130  0.24910461  0.75092541  1
  Co  Co95  1  0.37350124  0.87535819  0.12706768  1
  Co  Co96  1  0.00453480  0.50233532  0.49969499  1
  Co  Co97  1  0.61743150  0.62558393  0.87431876  1
  Co  Co98  1  0.37774953  0.62803602  0.38351346  1
  Co  Co99  1  0.87164952  0.12088153  0.62428155  1
  Co  Co100  1  0.74319330  0.50081754  0.50112258  1
  Co  Co101  1  0.37433118  0.87349381  0.62117093  1
  Co  Co102  1  0.50091571  0.25194709  0.49912486  1
  Co  Co103  1  0.87376769  0.38043931  0.62265283  1
  Co  Co104  1  0.12341171  0.12516054  0.37396821  1
  Co  Co105  1  0.50055987  0.25545289  0.00077191  1
  Co  Co106  1  0.75213697  0.25022276  0.49957803  1
  Co  Co107  1  0.12316258  0.62605867  0.12667100  1
  Co  Co108  1  0.62117449  0.12383307  0.87765567  1
  Co  Co109  1  0.87889414  0.62476764  0.87700912  1
  Co  Co110  1  0.49789526  0.75541203  -0.00157625  1
  Co  Co111  1  0.12631390  0.12393226  0.62647218  1
  Co  Co112  1  0.37842187  0.12367597  0.12312279  1
  Co  Co113  1  0.25219312  0.50580620  0.25147708  1
  Co  Co114  1  0.49639526  0.49929668  0.74632882  1
  Co  Co115  1  0.75127744  0.50235859  0.75253724  1
  Co  Co116  1  0.62422557  0.62570675  0.37226948  1
  Co  Co117  1  0.49667114  0.74785441  0.25001886  1
  Co  Co118  1  0.62775481  0.87425163  0.87501597  1
  Co  Co119  1  0.87409091  0.87222891  0.12430889  1
  Co  Co120  1  0.37218651  0.87508860  0.87345670  1
  Co  Co121  1  0.38087572  0.62191489  0.12023021  1
  Co  Co122  1  0.50967739  0.75248031  0.50152954  1
  Co  Co123  1  -0.00207744  0.75070834  0.74786123  1
  Co  Co124  1  0.12611975  0.62731418  0.87232123  1
  Co  Co125  1  0.49879776  0.24790172  0.74988587  1
  Co  Co126  1  0.25389929  0.24746189  0.25052498  1
  Co  Co127  1  0.62976439  0.87437191  0.63014724  1
