# generated using pymatgen
data_Fe45Co19
_symmetry_space_group_name_H-M   'P 1'
_cell_length_a   11.41502204
_cell_length_b   11.41477220
_cell_length_c   11.41493404
_cell_angle_alpha   90.00168257
_cell_angle_beta   89.99822975
_cell_angle_gamma   89.99313128
_symmetry_Int_Tables_number   1
_chemical_formula_structural   Fe45Co19
_chemical_formula_sum   'Fe90 Co38'
_cell_volume   1487.36448021
_cell_formula_units_Z   2
loop_
 _symmetry_equiv_pos_site_id
 _symmetry_equiv_pos_as_xyz
  1  'x, y, z'
loop_
 _atom_site_type_symbol
 _atom_site_label
 _atom_site_symmetry_multiplicity
 _atom_site_fract_x
 _atom_site_fract_y
 _atom_site_fract_z
 _atom_site_occupancy
  Fe  Fe0  1  -0.00061751  0.49951447  0.74971552  1
  Fe  Fe1  1  0.50230578  0.74927599  0.50153781  1
  Fe  Fe2  1  0.00060289  0.25139093  -0.00117450  1
  Fe  Fe3  1  0.74853745  -0.00045848  0.00194377  1
  Fe  Fe4  1  0.37577728  0.37164538  0.37463059  1
  Fe  Fe5  1  0.87275258  0.37426362  0.37615193  1
  Fe  Fe6  1  0.37585684  0.37420897  0.12595088  1
  Fe  Fe7  1  0.25170413  0.50109960  0.25087998  1
  Fe  Fe8  1  0.12491663  0.62470748  0.62254964  1
  Fe  Fe9  1  0.49971284  0.00171237  0.25221775  1
  Fe  Fe10  1  0.50245861  0.74953925  0.24903196  1
  Fe  Fe11  1  0.37482701  0.12584656  0.62064542  1
  Fe  Fe12  1  0.62262612  0.62569545  0.87084817  1
  Fe  Fe13  1  0.00085263  0.75151287  -0.00046080  1
  Fe  Fe14  1  0.87589622  0.87524356  0.62612591  1
  Fe  Fe15  1  0.74906678  0.74716506  0.74661801  1
  Fe  Fe16  1  0.74938195  0.24796061  0.74832174  1
  Fe  Fe17  1  0.12464465  0.62276011  0.12758241  1
  Fe  Fe18  1  0.49901614  0.49830602  -0.00278538  1
  Fe  Fe19  1  0.12146065  0.12497190  0.62239778  1
  Fe  Fe20  1  0.37393305  0.62766262  0.37433843  1
  Fe  Fe21  1  0.25078278  0.74799191  0.74883550  1
  Fe  Fe22  1  0.12542723  0.37566985  0.12588353  1
  Fe  Fe23  1  0.75020874  0.74787243  0.50098079  1
  Fe  Fe24  1  0.12962807  0.37551669  0.87250606  1
  Fe  Fe25  1  0.37429394  0.87216656  0.87602630  1
  Fe  Fe26  1  0.87618467  0.12391969  0.87454228  1
  Fe  Fe27  1  0.62342004  0.62402639  0.12441195  1
  Fe  Fe28  1  0.00250424  0.74930983  0.25207650  1
  Fe  Fe29  1  0.25065324  0.49879802  0.50023345  1
  Fe  Fe30  1  0.12662946  0.12285304  0.12440131  1
  Fe  Fe31  1  0.87450968  0.12761037  0.12395283  1
  Fe  Fe32  1  0.25081014  0.24979650  -0.00069203  1
  Fe  Fe33  1  0.49697228  0.50103441  0.50181142  1
  Fe  Fe34  1  0.12676393  0.37266415  0.62809841  1
  Fe  Fe35  1  0.49795689  -0.00149457  0.74965656  1
  Fe  Fe36  1  0.87327531  0.87728155  0.37173441  1
  Fe  Fe37  1  0.12447361  0.12299861  0.87612237  1
  Fe  Fe38  1  0.12455107  0.37712962  0.37369230  1
  Fe  Fe39  1  0.62804689  0.87707795  0.37316855  1
  Fe  Fe40  1  0.62399936  0.12477629  0.87432590  1
  Fe  Fe41  1  0.87612677  0.37048150  0.62417443  1
  Fe  Fe42  1  0.00149010  0.24916051  0.25187758  1
  Fe  Fe43  1  0.24988343  0.24909121  0.25244170  1
  Fe  Fe44  1  0.75024565  0.00289491  0.74703034  1
  Fe  Fe45  1  0.74445920  0.25112438  0.25212109  1
  Fe  Fe46  1  0.87705822  0.62379924  0.37498927  1
  Fe  Fe47  1  0.00046053  -0.00258277  -0.00044641  1
  Fe  Fe48  1  0.50090277  -0.00291714  0.00097205  1
  Fe  Fe49  1  0.00031438  0.75201139  0.49723192  1
  Fe  Fe50  1  -0.00056911  0.49792705  -0.00004921  1
  Fe  Fe51  1  0.37500797  0.87383885  0.62284112  1
  Fe  Fe52  1  0.25006962  0.00163887  0.74929329  1
  Fe  Fe53  1  0.87347429  0.87539806  0.87415165  1
  Fe  Fe54  1  0.25321313  -0.00180081  0.25437624  1
  Fe  Fe55  1  0.25198795  0.74789886  0.00340796  1
  Fe  Fe56  1  0.87585020  0.62508953  0.12485274  1
  Fe  Fe57  1  0.87293497  0.37318868  0.12467914  1
  Fe  Fe58  1  0.25342246  0.50139639  -0.00110057  1
  Fe  Fe59  1  0.75091549  0.00464560  0.50312971  1
  Fe  Fe60  1  0.62546999  0.62304489  0.37695660  1
  Fe  Fe61  1  0.37552459  0.12643515  0.12620947  1
  Fe  Fe62  1  0.24732193  0.75333076  0.49404249  1
  Fe  Fe63  1  0.75139985  0.50206413  0.50454210  1
  Fe  Fe64  1  0.62460653  0.37641733  0.62629054  1
  Fe  Fe65  1  0.62407752  0.87323932  0.87353160  1
  Fe  Fe66  1  0.37132056  0.37164073  0.62642473  1
  Fe  Fe67  1  0.12567177  0.62460815  0.87490804  1
  Fe  Fe68  1  0.37533376  0.87392938  0.12639801  1
  Fe  Fe69  1  0.74704276  0.75070975  0.00192257  1
  Fe  Fe70  1  0.74717721  0.49921697  -0.00151204  1
  Fe  Fe71  1  0.00112187  0.75173615  0.75133680  1
  Fe  Fe72  1  0.49396164  0.50276911  0.74895564  1
  Fe  Fe73  1  0.50315073  0.25006820  0.49726256  1
  Fe  Fe74  1  0.62500111  0.87608445  0.62459982  1
  Fe  Fe75  1  0.50133685  0.49772850  0.25110062  1
  Fe  Fe76  1  0.12601413  0.87713582  0.12665968  1
  Fe  Fe77  1  0.62424579  0.12616266  0.12521820  1
  Fe  Fe78  1  0.50183470  0.25381333  -0.00105087  1
  Fe  Fe79  1  0.00000261  0.49796907  0.50026217  1
  Fe  Fe80  1  0.49929795  0.00013055  0.49787105  1
  Fe  Fe81  1  0.87353750  0.12642490  0.37704010  1
  Fe  Fe82  1  0.12409239  0.87762105  0.62371274  1
  Fe  Fe83  1  0.49804847  0.24965195  0.75108324  1
  Fe  Fe84  1  0.87465554  0.62516219  0.87409419  1
  Fe  Fe85  1  0.37548305  0.12480481  0.87734991  1
  Fe  Fe86  1  0.87155713  0.37476142  0.87440063  1
  Fe  Fe87  1  0.12585750  0.12040206  0.37872851  1
  Fe  Fe88  1  0.87351602  0.87469621  0.12830418  1
  Fe  Fe89  1  0.74972338  0.50064213  0.24996779  1
  Co  Co90  1  0.37861295  0.87188927  0.37481106  1
  Co  Co91  1  0.37695821  0.62367211  0.12760295  1
  Co  Co92  1  0.25001142  0.24406094  0.75012648  1
  Co  Co93  1  0.75293444  0.50163197  0.74614436  1
  Co  Co94  1  0.25287696  -0.00216136  0.49939129  1
  Co  Co95  1  0.12165014  0.88096942  0.37455292  1
  Co  Co96  1  0.37190240  0.37355286  0.87322692  1
  Co  Co97  1  0.50305047  0.25114184  0.25184421  1
  Co  Co98  1  0.25299239  0.50355631  0.74869950  1
  Co  Co99  1  0.00070981  0.25100461  0.75382273  1
  Co  Co100  1  0.62634386  0.37861478  0.37923623  1
  Co  Co101  1  0.74901441  0.74657732  0.25026440  1
  Co  Co102  1  0.62063346  0.12464407  0.62594373  1
  Co  Co103  1  0.74737063  0.24951374  -0.00259822  1
  Co  Co104  1  0.12934283  0.87367483  0.87601905  1
  Co  Co105  1  -0.00138944  0.00304587  0.24901425  1
  Co  Co106  1  0.88030482  0.62712475  0.62481583  1
  Co  Co107  1  0.37663910  0.62896626  0.87563268  1
  Co  Co108  1  0.62556903  0.37523727  0.12450864  1
  Co  Co109  1  0.24743526  0.25139311  0.49890479  1
  Co  Co110  1  0.24758789  0.75089563  0.25190570  1
  Co  Co111  1  -0.00231426  0.49823611  0.24920321  1
  Co  Co112  1  0.12463856  0.62125082  0.37521603  1
  Co  Co113  1  0.74641131  0.24746096  0.50308968  1
  Co  Co114  1  0.75042222  0.00376182  0.24823302  1
  Co  Co115  1  0.88078423  0.12803209  0.62553683  1
  Co  Co116  1  0.00175708  -0.00217646  0.75136872  1
  Co  Co117  1  0.49897010  0.75066226  0.74581268  1
  Co  Co118  1  0.37506841  0.12823209  0.37697658  1
  Co  Co119  1  -0.00464202  -0.00080608  0.50080271  1
  Co  Co120  1  0.62604505  0.87648327  0.12878804  1
  Co  Co121  1  0.37172172  0.62875143  0.62029316  1
  Co  Co122  1  0.62328391  0.62316441  0.62606402  1
  Co  Co123  1  0.50131903  0.75115780  0.00291770  1
  Co  Co124  1  0.00258108  0.25158165  0.49614241  1
  Co  Co125  1  0.62498540  0.12336698  0.37522220  1
  Co  Co126  1  0.25153969  -0.00043200  -0.00055493  1
  Co  Co127  1  0.62544031  0.37655820  0.86959790  1
