# generated using pymatgen
data_Fe45Co19
_symmetry_space_group_name_H-M   'P 1'
_cell_length_a   11.41587565
_cell_length_b   11.41592178
_cell_length_c   11.41582894
_cell_angle_alpha   89.99950132
_cell_angle_beta   90.00517479
_cell_angle_gamma   89.99624222
_symmetry_Int_Tables_number   1
_chemical_formula_structural   Fe45Co19
_chemical_formula_sum   'Fe90 Co38'
_cell_volume   1487.74213723
_cell_formula_units_Z   2
loop_
 _symmetry_equiv_pos_site_id
 _symmetry_equiv_pos_as_xyz
  1  'x, y, z'
loop_
 _atom_site_type_symbol
 _atom_site_label
 _atom_site_symmetry_multiplicity
 _atom_site_fract_x
 _atom_site_fract_y
 _atom_site_fract_z
 _atom_site_occupancy
  Fe  Fe0  1  0.62441741  0.87501964  0.62212672  1
  Fe  Fe1  1  0.50033494  0.75166231  0.74952238  1
  Fe  Fe2  1  0.75021627  -0.00092681  0.00146050  1
  Fe  Fe3  1  0.25583561  0.00089969  -0.00002615  1
  Fe  Fe4  1  0.62107097  0.87740520  0.87691492  1
  Fe  Fe5  1  0.12588437  0.87518792  0.12461603  1
  Fe  Fe6  1  0.24990995  0.25069240  0.25286913  1
  Fe  Fe7  1  0.74975708  0.00078840  0.25255755  1
  Fe  Fe8  1  0.50039497  0.74914899  0.00239328  1
  Fe  Fe9  1  0.25211735  0.00094865  0.25067577  1
  Fe  Fe10  1  0.87436620  0.12478006  0.87392811  1
  Fe  Fe11  1  0.37705860  0.37312865  0.12531245  1
  Fe  Fe12  1  0.25010164  0.24997210  0.75029780  1
  Fe  Fe13  1  0.37614868  0.37605853  0.62352362  1
  Fe  Fe14  1  0.74902322  0.74778429  0.25148993  1
  Fe  Fe15  1  0.75027032  0.50216088  0.00356683  1
  Fe  Fe16  1  0.75063087  0.50149748  0.49959405  1
  Fe  Fe17  1  0.49966958  0.50179168  0.00256092  1
  Fe  Fe18  1  0.74895486  -0.00272296  0.74997969  1
  Fe  Fe19  1  0.25159821  0.25046551  0.49946115  1
  Fe  Fe20  1  0.62237035  0.12577181  0.12419025  1
  Fe  Fe21  1  0.62284259  0.62348476  0.37529147  1
  Fe  Fe22  1  0.12846252  0.62999510  0.62458796  1
  Fe  Fe23  1  -0.00163341  0.50288209  0.74666395  1
  Fe  Fe24  1  0.62910393  0.62664380  0.62672045  1
  Fe  Fe25  1  0.12351372  0.37663797  0.37588978  1
  Fe  Fe26  1  0.62694391  0.12275022  0.62202061  1
  Fe  Fe27  1  0.62572763  0.87387057  0.12681416  1
  Fe  Fe28  1  0.50217855  0.50229895  0.24689777  1
  Fe  Fe29  1  0.87775624  0.87333214  0.87497601  1
  Fe  Fe30  1  0.37392180  0.12304542  0.62479198  1
  Fe  Fe31  1  -0.00091029  -0.00056061  0.74777282  1
  Fe  Fe32  1  0.12343996  0.37663135  0.87491750  1
  Fe  Fe33  1  0.25371030  -0.00699485  0.75098470  1
  Fe  Fe34  1  0.12635488  0.62408610  0.12470639  1
  Fe  Fe35  1  0.12683459  0.12547046  0.12437499  1
  Fe  Fe36  1  0.75385383  -0.00175856  0.49615528  1
  Fe  Fe37  1  0.37448443  0.62649911  0.87463050  1
  Fe  Fe38  1  0.24681851  0.75109010  -0.00488021  1
  Fe  Fe39  1  0.75000112  0.24877876  0.49531805  1
  Fe  Fe40  1  0.87546965  0.87186057  0.62568946  1
  Fe  Fe41  1  0.49746015  -0.00089721  0.49807293  1
  Fe  Fe42  1  0.12615346  0.12258652  0.87458605  1
  Fe  Fe43  1  0.00198247  0.75086927  0.49879042  1
  Fe  Fe44  1  -0.00262955  -0.00102662  0.49863013  1
  Fe  Fe45  1  0.50324636  0.25011500  0.25521115  1
  Fe  Fe46  1  0.25159585  0.49984764  -0.00015728  1
  Fe  Fe47  1  -0.00043088  0.24940813  0.00148852  1
  Fe  Fe48  1  0.87387029  0.12780308  0.12895004  1
  Fe  Fe49  1  0.49941209  0.74805654  0.25019796  1
  Fe  Fe50  1  0.38001464  0.37845814  0.37881154  1
  Fe  Fe51  1  0.12482503  0.12374325  0.37607664  1
  Fe  Fe52  1  0.87472244  0.37571261  0.87412607  1
  Fe  Fe53  1  0.62516243  0.37500633  0.62200810  1
  Fe  Fe54  1  0.37056831  0.63077704  0.62486510  1
  Fe  Fe55  1  -0.00168913  0.00016308  0.00280955  1
  Fe  Fe56  1  0.87423082  0.62729460  0.87173183  1
  Fe  Fe57  1  0.25365155  0.24823399  -0.00209522  1
  Fe  Fe58  1  0.87459841  0.37446588  0.36938160  1
  Fe  Fe59  1  0.37672291  0.37534968  0.87343831  1
  Fe  Fe60  1  0.00071853  0.24832564  0.74827188  1
  Fe  Fe61  1  0.25067092  0.50251109  0.49885073  1
  Fe  Fe62  1  0.49888665  -0.00039741  0.25013946  1
  Fe  Fe63  1  -0.00133706  0.50091197  0.50131820  1
  Fe  Fe64  1  0.12553241  0.37494776  0.12414861  1
  Fe  Fe65  1  0.62063123  0.12187634  0.87663788  1
  Fe  Fe66  1  0.74992721  0.75042298  0.49771768  1
  Fe  Fe67  1  0.50091827  0.50191622  0.74707769  1
  Fe  Fe68  1  0.12546522  0.37552080  0.62472184  1
  Fe  Fe69  1  0.74879384  0.24947951  0.00126586  1
  Fe  Fe70  1  0.37330707  0.87120229  0.12595351  1
  Fe  Fe71  1  -0.00070178  0.00043670  0.25049184  1
  Fe  Fe72  1  -0.00069185  0.24827030  0.50006571  1
  Fe  Fe73  1  0.75048042  0.75046310  -0.00029611  1
  Fe  Fe74  1  0.12647644  0.12185382  0.62430249  1
  Fe  Fe75  1  0.50065569  0.24865588  0.74770434  1
  Fe  Fe76  1  0.24918849  0.74735576  0.25570098  1
  Fe  Fe77  1  0.87724101  0.62390621  0.37301700  1
  Fe  Fe78  1  0.00247198  0.74904799  0.24927722  1
  Fe  Fe79  1  0.49853194  0.74940511  0.49779488  1
  Fe  Fe80  1  0.25148916  -0.00569656  0.49769563  1
  Fe  Fe81  1  0.87458714  0.87223760  0.12652770  1
  Fe  Fe82  1  0.24982187  0.50097403  0.74988755  1
  Fe  Fe83  1  0.62718847  0.62466548  0.87399979  1
  Fe  Fe84  1  0.74810687  0.24940381  0.75068074  1
  Fe  Fe85  1  0.25044814  0.50056302  0.25150394  1
  Fe  Fe86  1  0.62441346  0.37688457  0.87648033  1
  Fe  Fe87  1  0.87239554  0.37411649  0.13052471  1
  Fe  Fe88  1  -0.00232046  0.50256900  0.00293048  1
  Fe  Fe89  1  0.87311849  0.37367566  0.62525088  1
  Co  Co90  1  0.87274675  0.12498612  0.62515682  1
  Co  Co91  1  0.62470769  0.37407373  0.12340113  1
  Co  Co92  1  0.74984485  0.49886585  0.74807029  1
  Co  Co93  1  0.12404052  0.62149546  0.87445999  1
  Co  Co94  1  0.00450957  0.24989689  0.24950305  1
  Co  Co95  1  0.62426411  0.12129008  0.37796263  1
  Co  Co96  1  0.12520945  0.87343082  0.62364212  1
  Co  Co97  1  0.12138472  0.87968614  0.87700572  1
  Co  Co98  1  0.24832833  0.75522780  0.75560938  1
  Co  Co99  1  0.37735615  0.62233388  0.37568600  1
  Co  Co100  1  0.74775016  0.75476455  0.75104520  1
  Co  Co101  1  0.74577865  0.50150833  0.25004438  1
  Co  Co102  1  0.62625237  0.62723472  0.12405062  1
  Co  Co103  1  0.00217202  0.50023548  0.24836961  1
  Co  Co104  1  0.24982380  0.75228269  0.49327333  1
  Co  Co105  1  0.37697242  0.12915326  0.12887235  1
  Co  Co106  1  0.37420903  0.12438213  0.37579378  1
  Co  Co107  1  0.37499475  0.87080482  0.62232154  1
  Co  Co108  1  0.37835059  0.12280964  0.87175774  1
  Co  Co109  1  0.49878906  0.24704115  0.50085501  1
  Co  Co110  1  0.62422015  0.87444030  0.37423454  1
  Co  Co111  1  0.62184162  0.37911479  0.37910508  1
  Co  Co112  1  0.49615551  -0.00060872  0.00621328  1
  Co  Co113  1  0.12340759  0.87709038  0.37307025  1
  Co  Co114  1  0.87442750  0.62691950  0.12800096  1
  Co  Co115  1  0.00143333  0.74856042  0.00098612  1
  Co  Co116  1  0.00391514  0.74957118  0.75066729  1
  Co  Co117  1  0.37171505  0.62681035  0.12407620  1
  Co  Co118  1  0.87555621  0.87213340  0.37266931  1
  Co  Co119  1  0.38037430  0.87452622  0.87729476  1
  Co  Co120  1  0.12320879  0.62351416  0.37595626  1
  Co  Co121  1  0.49794982  0.24974742  -0.00194833  1
  Co  Co122  1  0.87605382  0.12729559  0.37185654  1
  Co  Co123  1  0.49986565  -0.00185306  0.74561410  1
  Co  Co124  1  0.50058511  0.50514884  0.50627373  1
  Co  Co125  1  0.87299903  0.62913244  0.62574831  1
  Co  Co126  1  0.74309867  0.24951913  0.25255591  1
  Co  Co127  1  0.37681888  0.87440415  0.37283955  1
