# generated using pymatgen
data_Fe45Co19
_symmetry_space_group_name_H-M   'P 1'
_cell_length_a   11.41529796
_cell_length_b   11.41494422
_cell_length_c   11.41505195
_cell_angle_alpha   90.00067792
_cell_angle_beta   90.01151525
_cell_angle_gamma   90.00391607
_symmetry_Int_Tables_number   1
_chemical_formula_structural   Fe45Co19
_chemical_formula_sum   'Fe90 Co38'
_cell_volume   1487.43819080
_cell_formula_units_Z   2
loop_
 _symmetry_equiv_pos_site_id
 _symmetry_equiv_pos_as_xyz
  1  'x, y, z'
loop_
 _atom_site_type_symbol
 _atom_site_label
 _atom_site_symmetry_multiplicity
 _atom_site_fract_x
 _atom_site_fract_y
 _atom_site_fract_z
 _atom_site_occupancy
  Fe  Fe0  1  -0.00242083  0.24956107  0.74710595  1
  Fe  Fe1  1  0.37513439  0.87630223  0.87260241  1
  Fe  Fe2  1  0.87342309  0.12338700  0.62379164  1
  Fe  Fe3  1  0.12467766  0.12309512  0.62207121  1
  Fe  Fe4  1  0.24925430  0.24880078  -0.00024155  1
  Fe  Fe5  1  0.37481269  0.37296793  0.12507754  1
  Fe  Fe6  1  0.25012218  0.50276064  0.24976889  1
  Fe  Fe7  1  0.74829049  0.00007419  0.75029504  1
  Fe  Fe8  1  0.50113074  0.75240724  0.50340329  1
  Fe  Fe9  1  0.12552188  0.87582954  0.37696021  1
  Fe  Fe10  1  0.25025858  0.50119406  -0.00118582  1
  Fe  Fe11  1  0.37444291  0.87615344  0.12826806  1
  Fe  Fe12  1  0.25077104  0.50116747  0.75009033  1
  Fe  Fe13  1  0.25041748  0.74791646  0.25093262  1
  Fe  Fe14  1  0.25302813  0.75215211  0.50171907  1
  Fe  Fe15  1  0.37982909  0.12077531  0.62207079  1
  Fe  Fe16  1  0.12664181  0.37355384  0.62424793  1
  Fe  Fe17  1  0.24963398  0.75220741  0.74775109  1
  Fe  Fe18  1  0.74982985  0.24972118  0.50129458  1
  Fe  Fe19  1  0.49858962  0.50069772  0.50307949  1
  Fe  Fe20  1  0.87326414  0.62744455  0.62543332  1
  Fe  Fe21  1  -0.00041956  0.75483908  0.74760688  1
  Fe  Fe22  1  0.25011089  0.75176747  -0.00021014  1
  Fe  Fe23  1  0.62173969  0.12499895  0.62522789  1
  Fe  Fe24  1  0.62245548  0.62609836  0.37657027  1
  Fe  Fe25  1  0.62273728  0.12394949  0.87503379  1
  Fe  Fe26  1  0.87509889  0.37453956  0.37591270  1
  Fe  Fe27  1  0.74420845  -0.00215372  0.49582166  1
  Fe  Fe28  1  -0.00131995  -0.00230125  0.24895300  1
  Fe  Fe29  1  0.74957602  0.24868609  -0.00160304  1
  Fe  Fe30  1  0.37505666  0.37485538  0.37503972  1
  Fe  Fe31  1  0.62503339  0.37529465  0.12351735  1
  Fe  Fe32  1  0.12432201  0.12357264  0.12467025  1
  Fe  Fe33  1  0.00219851  0.75063435  0.25001568  1
  Fe  Fe34  1  0.87743149  0.12249173  0.87699328  1
  Fe  Fe35  1  0.37842605  0.62671023  0.87449754  1
  Fe  Fe36  1  0.75066349  0.24860136  0.25003538  1
  Fe  Fe37  1  0.12515678  0.62786764  0.62383244  1
  Fe  Fe38  1  0.87627851  0.62821162  0.12179680  1
  Fe  Fe39  1  0.62627340  0.12251963  0.12673877  1
  Fe  Fe40  1  0.12259834  0.12336287  0.87585926  1
  Fe  Fe41  1  0.87622141  0.12305382  0.12326650  1
  Fe  Fe42  1  0.74775873  0.74922979  0.75443211  1
  Fe  Fe43  1  0.37693472  0.12472513  0.87515694  1
  Fe  Fe44  1  0.75199248  -0.00393061  0.00098698  1
  Fe  Fe45  1  0.37607826  0.62552116  0.12304709  1
  Fe  Fe46  1  0.00032995  0.50168986  0.24916472  1
  Fe  Fe47  1  0.12484689  0.37285307  0.87406982  1
  Fe  Fe48  1  0.74916468  0.50286265  0.24948232  1
  Fe  Fe49  1  0.62476604  0.37396925  0.37480358  1
  Fe  Fe50  1  0.75047381  0.50343771  0.75280671  1
  Fe  Fe51  1  -0.00065984  -0.00359872  0.50112663  1
  Fe  Fe52  1  0.50004103  0.50285574  0.24978316  1
  Fe  Fe53  1  0.50049240  0.24872204  0.24865762  1
  Fe  Fe54  1  0.00039017  0.24910674  0.25012791  1
  Fe  Fe55  1  0.12674636  0.37331074  0.12585991  1
  Fe  Fe56  1  0.37918650  0.87494418  0.37441441  1
  Fe  Fe57  1  -0.00168122  0.50047077  0.50190734  1
  Fe  Fe58  1  0.12292486  0.62749990  0.87595401  1
  Fe  Fe59  1  0.62527892  0.87509563  0.12776981  1
  Fe  Fe60  1  0.75034245  0.50342902  -0.00290232  1
  Fe  Fe61  1  0.74777761  0.75194545  0.50022799  1
  Fe  Fe62  1  0.24997231  -0.00060434  0.74712525  1
  Fe  Fe63  1  0.62262820  0.62691152  0.11953422  1
  Fe  Fe64  1  0.37674378  0.37259087  0.87589936  1
  Fe  Fe65  1  0.87464854  0.37316576  0.87379010  1
  Fe  Fe66  1  0.50287091  0.75317792  0.74946432  1
  Fe  Fe67  1  0.00029804  -0.00414082  0.74848345  1
  Fe  Fe68  1  0.12538716  0.62574391  0.37711911  1
  Fe  Fe69  1  0.24816336  -0.00175747  -0.00114453  1
  Fe  Fe70  1  0.12506280  0.37302208  0.37572012  1
  Fe  Fe71  1  0.37437728  0.12470384  0.12506180  1
  Fe  Fe72  1  0.75067184  0.50084649  0.50018584  1
  Fe  Fe73  1  -0.00070260  0.50021149  0.74843930  1
  Fe  Fe74  1  0.49867107  0.49897514  0.74803217  1
  Fe  Fe75  1  0.25264602  0.24753147  0.74846576  1
  Fe  Fe76  1  0.25033999  0.00271865  0.25432069  1
  Fe  Fe77  1  0.74855361  0.74822489  0.24913933  1
  Fe  Fe78  1  0.38037708  0.12421632  0.37747771  1
  Fe  Fe79  1  0.87488615  0.12534455  0.37636188  1
  Fe  Fe80  1  0.25027439  0.24649610  0.49828238  1
  Fe  Fe81  1  0.00044293  0.49911282  -0.00012387  1
  Fe  Fe82  1  0.62665445  0.37353995  0.62705094  1
  Fe  Fe83  1  0.87496337  0.62601081  0.37530811  1
  Fe  Fe84  1  0.25228758  0.50235097  0.50179325  1
  Fe  Fe85  1  0.49918055  -0.00218782  0.00069692  1
  Fe  Fe86  1  0.87298907  0.87374536  0.37427033  1
  Fe  Fe87  1  0.00136776  0.75810908  0.00046309  1
  Fe  Fe88  1  0.62323099  0.37357081  0.87488785  1
  Fe  Fe89  1  0.87340551  0.37476000  0.12406527  1
  Co  Co90  1  0.62544484  0.87804232  0.87565731  1
  Co  Co91  1  0.62438923  0.12847003  0.37384151  1
  Co  Co92  1  0.87166935  0.87308614  0.12675721  1
  Co  Co93  1  0.87340692  0.87661422  0.87314221  1
  Co  Co94  1  0.62690995  0.87670979  0.62803767  1
  Co  Co95  1  0.12665673  0.87545367  0.62206211  1
  Co  Co96  1  0.62308200  0.87134201  0.36943217  1
  Co  Co97  1  0.37582715  0.62699777  0.62718080  1
  Co  Co98  1  0.61939475  0.62460626  0.87731075  1
  Co  Co99  1  0.25014500  0.24632940  0.25275474  1
  Co  Co100  1  0.50077506  -0.00086019  0.75140708  1
  Co  Co101  1  0.50107499  0.00159968  0.25122481  1
  Co  Co102  1  0.62591700  0.62508187  0.62566560  1
  Co  Co103  1  0.87942717  0.62806147  0.87632924  1
  Co  Co104  1  0.49879492  0.75574994  -0.00028567  1
  Co  Co105  1  0.75082367  0.00017893  0.25300244  1
  Co  Co106  1  0.37720155  0.87854492  0.62530330  1
  Co  Co107  1  0.74814409  0.75121817  -0.00337280  1
  Co  Co108  1  0.12727774  0.87628963  0.87266887  1
  Co  Co109  1  0.49811064  0.49858685  0.00034389  1
  Co  Co110  1  0.00104118  -0.00592256  0.00123148  1
  Co  Co111  1  -0.00133409  0.25028739  0.50284243  1
  Co  Co112  1  0.87170332  0.37570211  0.62621659  1
  Co  Co113  1  0.75048024  0.24677485  0.75098804  1
  Co  Co114  1  0.00009796  0.25053180  -0.00011557  1
  Co  Co115  1  0.50124559  0.24749899  0.00109336  1
  Co  Co116  1  -0.00222506  0.75144303  0.50046655  1
  Co  Co117  1  0.49908191  0.74688812  0.24770881  1
  Co  Co118  1  0.50638801  -0.00429834  0.49714048  1
  Co  Co119  1  0.12473637  0.62639053  0.12294485  1
  Co  Co120  1  0.37245217  0.37378382  0.62359937  1
  Co  Co121  1  0.50074277  0.25185484  0.50107151  1
  Co  Co122  1  0.25156070  -0.00044881  0.49848837  1
  Co  Co123  1  0.49826920  0.24968917  0.74947621  1
  Co  Co124  1  0.12973020  0.87702037  0.12825088  1
  Co  Co125  1  0.12100359  0.12343700  0.37661344  1
  Co  Co126  1  0.37671399  0.62576543  0.37710199  1
  Co  Co127  1  0.86976183  0.87520025  0.62525902  1
