# generated using pymatgen
data_Fe45Co19
_symmetry_space_group_name_H-M   'P 1'
_cell_length_a   11.41490347
_cell_length_b   11.41344414
_cell_length_c   11.41510815
_cell_angle_alpha   90.00311615
_cell_angle_beta   90.00644337
_cell_angle_gamma   90.00086235
_symmetry_Int_Tables_number   1
_chemical_formula_structural   Fe45Co19
_chemical_formula_sum   'Fe90 Co38'
_cell_volume   1487.19866911
_cell_formula_units_Z   2
loop_
 _symmetry_equiv_pos_site_id
 _symmetry_equiv_pos_as_xyz
  1  'x, y, z'
loop_
 _atom_site_type_symbol
 _atom_site_label
 _atom_site_symmetry_multiplicity
 _atom_site_fract_x
 _atom_site_fract_y
 _atom_site_fract_z
 _atom_site_occupancy
  Fe  Fe0  1  0.87351450  0.37293162  0.12248886  1
  Fe  Fe1  1  0.75089634  0.49926389  0.49768293  1
  Fe  Fe2  1  0.50131693  0.75507171  0.00515857  1
  Fe  Fe3  1  0.24675252  0.75602692  0.24880696  1
  Fe  Fe4  1  0.12685188  0.62378061  0.62613709  1
  Fe  Fe5  1  0.37570392  0.62641123  0.12776187  1
  Fe  Fe6  1  0.25018602  0.49807264  0.49751824  1
  Fe  Fe7  1  0.25191002  0.75067328  0.50012100  1
  Fe  Fe8  1  0.87287063  0.87268244  0.87381632  1
  Fe  Fe9  1  -0.00017520  0.24891180  0.50217742  1
  Fe  Fe10  1  0.75193750  0.50219242  0.00171386  1
  Fe  Fe11  1  0.24948024  0.24525889  0.25049709  1
  Fe  Fe12  1  0.12818786  0.37609529  0.12656831  1
  Fe  Fe13  1  0.37722883  0.87579009  0.62695399  1
  Fe  Fe14  1  0.24875428  0.24537085  0.00146261  1
  Fe  Fe15  1  0.62615946  0.37305695  0.37376202  1
  Fe  Fe16  1  0.62563584  0.62407375  0.37350414  1
  Fe  Fe17  1  0.37428397  0.12953177  0.62238644  1
  Fe  Fe18  1  0.75017212  0.24837385  0.24804133  1
  Fe  Fe19  1  0.74625984  0.74938422  0.74934327  1
  Fe  Fe20  1  0.12682736  0.87804323  0.87733995  1
  Fe  Fe21  1  0.12722504  0.37222395  0.87520933  1
  Fe  Fe22  1  0.00008289  0.49992143  0.49996371  1
  Fe  Fe23  1  0.87488475  0.37193674  0.37422274  1
  Fe  Fe24  1  0.37874712  0.12617724  0.87596158  1
  Fe  Fe25  1  -0.00044671  0.75200501  0.00016477  1
  Fe  Fe26  1  -0.00203340  0.50066659  0.24863736  1
  Fe  Fe27  1  0.62477930  0.87874949  0.62637016  1
  Fe  Fe28  1  -0.00124954  0.49673480  0.75148564  1
  Fe  Fe29  1  0.62242990  0.87707093  0.87356431  1
  Fe  Fe30  1  0.00271431  0.75556100  0.24802968  1
  Fe  Fe31  1  0.12531119  0.62492729  0.12551783  1
  Fe  Fe32  1  0.37712859  0.87765030  0.37073084  1
  Fe  Fe33  1  -0.00127780  0.24616965  0.24586653  1
  Fe  Fe34  1  0.12127646  0.12145723  0.37382253  1
  Fe  Fe35  1  0.75092129  0.00413705  0.25121982  1
  Fe  Fe36  1  0.87213812  0.87674761  0.62550334  1
  Fe  Fe37  1  0.25192019  0.00250477  0.49708655  1
  Fe  Fe38  1  0.50104312  0.24956445  0.00432643  1
  Fe  Fe39  1  0.62292980  0.62554515  0.87698943  1
  Fe  Fe40  1  0.37728596  0.62320431  0.62697594  1
  Fe  Fe41  1  0.00029669  0.49732008  -0.00034939  1
  Fe  Fe42  1  0.37531519  0.62740167  0.37250920  1
  Fe  Fe43  1  0.25086154  0.75202248  0.75053761  1
  Fe  Fe44  1  0.37235344  0.37387911  0.12506403  1
  Fe  Fe45  1  0.62265284  0.12986330  0.37655048  1
  Fe  Fe46  1  0.25509879  0.49691640  0.75263098  1
  Fe  Fe47  1  -0.00391276  0.00012046  0.49999703  1
  Fe  Fe48  1  0.87205740  0.87659137  0.12388377  1
  Fe  Fe49  1  0.74972910  0.24719476  0.75170673  1
  Fe  Fe50  1  0.87885986  0.13102335  0.87767939  1
  Fe  Fe51  1  0.62519894  0.37347517  0.87683567  1
  Fe  Fe52  1  0.75100900  0.00231342  -0.00346146  1
  Fe  Fe53  1  0.74923277  0.50014429  0.75199221  1
  Fe  Fe54  1  0.25346132  0.75362468  0.00134758  1
  Fe  Fe55  1  0.62594395  0.12286825  0.12308475  1
  Fe  Fe56  1  0.62612261  0.37718678  0.12564915  1
  Fe  Fe57  1  0.74992857  0.00490670  0.49939687  1
  Fe  Fe58  1  0.87479960  0.62588189  0.87569674  1
  Fe  Fe59  1  0.49842107  -0.00271630  0.00102037  1
  Fe  Fe60  1  0.62312738  0.62336343  0.62425237  1
  Fe  Fe61  1  0.12172678  0.11633334  0.12308829  1
  Fe  Fe62  1  0.12132817  0.12408110  0.87522369  1
  Fe  Fe63  1  0.74983202  0.00535559  0.75202405  1
  Fe  Fe64  1  0.12558313  0.87724269  0.62366687  1
  Fe  Fe65  1  0.62604489  0.37289914  0.62421475  1
  Fe  Fe66  1  0.74625386  0.74674446  0.24410093  1
  Fe  Fe67  1  0.12535217  0.62594870  0.37398684  1
  Fe  Fe68  1  0.87401671  0.62539019  0.62550311  1
  Fe  Fe69  1  0.12529637  0.62514161  0.87468668  1
  Fe  Fe70  1  0.49901503  0.25157865  0.74874475  1
  Fe  Fe71  1  0.37554033  0.11919439  0.13032869  1
  Fe  Fe72  1  0.87291886  0.37278925  0.62504696  1
  Fe  Fe73  1  0.37910384  0.62739381  0.87360669  1
  Fe  Fe74  1  0.00143599  0.75222161  0.74947769  1
  Fe  Fe75  1  0.12353461  0.12478784  0.62822578  1
  Fe  Fe76  1  0.87214224  0.87374818  0.37486811  1
  Fe  Fe77  1  0.49777903  0.49834613  -0.00064316  1
  Fe  Fe78  1  0.49811359  0.49837793  0.25057921  1
  Fe  Fe79  1  0.12911235  0.37242880  0.62664803  1
  Fe  Fe80  1  0.49885624  0.49664604  0.50018480  1
  Fe  Fe81  1  0.62607516  0.87383568  0.37366481  1
  Fe  Fe82  1  0.25124932  0.50095569  -0.00066859  1
  Fe  Fe83  1  0.50130650  0.75106930  0.49930204  1
  Fe  Fe84  1  -0.00095143  0.74986711  0.50131851  1
  Fe  Fe85  1  0.50069556  0.00280584  0.49924023  1
  Fe  Fe86  1  0.87364544  0.62707524  0.37339875  1
  Fe  Fe87  1  0.12397072  0.37420878  0.37223974  1
  Fe  Fe88  1  0.37429387  0.36911524  0.37519114  1
  Fe  Fe89  1  0.25257377  0.00132836  0.75261314  1
  Co  Co90  1  0.74793232  0.74964410  0.50207573  1
  Co  Co91  1  0.50105763  0.25032281  0.24625715  1
  Co  Co92  1  0.37774073  0.12482253  0.37210300  1
  Co  Co93  1  0.37508079  0.87945194  0.13105197  1
  Co  Co94  1  0.24524293  -0.00222240  0.25303207  1
  Co  Co95  1  0.50038056  0.25076516  0.50090183  1
  Co  Co96  1  0.49814397  0.00423578  0.74735076  1
  Co  Co97  1  0.87584409  0.12509603  0.62607406  1
  Co  Co98  1  0.50590281  0.00105687  0.25200154  1
  Co  Co99  1  0.87532232  0.12450025  0.12207780  1
  Co  Co100  1  0.37842677  0.87434453  0.87238284  1
  Co  Co101  1  0.12584941  0.88051202  0.11861570  1
  Co  Co102  1  0.37129467  0.37180804  0.62266426  1
  Co  Co103  1  0.25190341  0.24726030  0.75391328  1
  Co  Co104  1  -0.00509956  -0.00205739  -0.00238789  1
  Co  Co105  1  -0.00218060  -0.00386337  0.25040404  1
  Co  Co106  1  0.00372162  0.25247111  0.00290591  1
  Co  Co107  1  0.62159298  0.62054363  0.12379347  1
  Co  Co108  1  0.74710175  0.74969876  0.00163686  1
  Co  Co109  1  0.87261118  0.37249180  0.87815571  1
  Co  Co110  1  0.24570480  0.24743550  0.49505329  1
  Co  Co111  1  -0.00167839  -0.00181559  0.75195307  1
  Co  Co112  1  0.12384520  0.87639525  0.38088392  1
  Co  Co113  1  0.25212156  0.49967035  0.25162101  1
  Co  Co114  1  0.75159509  0.24804547  0.49982880  1
  Co  Co115  1  0.50329683  0.75045916  0.74782525  1
  Co  Co116  1  0.87675724  0.12675017  0.37465051  1
  Co  Co117  1  0.87833817  0.62677358  0.12387257  1
  Co  Co118  1  0.62848667  0.88059855  0.12440463  1
  Co  Co119  1  0.62476403  0.12651304  0.62471576  1
  Co  Co120  1  -0.00123796  0.25280319  0.74973505  1
  Co  Co121  1  0.37487836  0.37083145  0.87919028  1
  Co  Co122  1  0.50429237  0.75149114  0.24718527  1
  Co  Co123  1  0.25549280  0.00071434  -0.00328887  1
  Co  Co124  1  0.49973289  0.49514874  0.75080541  1
  Co  Co125  1  0.75212546  0.50038746  0.24857200  1
  Co  Co126  1  0.74685893  0.24755616  0.00072613  1
  Co  Co127  1  0.61978835  0.12511517  0.87647840  1
