# generated using pymatgen
data_Fe45Co19
_symmetry_space_group_name_H-M   'P 1'
_cell_length_a   11.41575542
_cell_length_b   11.41528325
_cell_length_c   11.41386012
_cell_angle_alpha   89.98879867
_cell_angle_beta   90.00632859
_cell_angle_gamma   89.99969464
_symmetry_Int_Tables_number   1
_chemical_formula_structural   Fe45Co19
_chemical_formula_sum   'Fe90 Co38'
_cell_volume   1487.38666253
_cell_formula_units_Z   2
loop_
 _symmetry_equiv_pos_site_id
 _symmetry_equiv_pos_as_xyz
  1  'x, y, z'
loop_
 _atom_site_type_symbol
 _atom_site_label
 _atom_site_symmetry_multiplicity
 _atom_site_fract_x
 _atom_site_fract_y
 _atom_site_fract_z
 _atom_site_occupancy
  Fe  Fe0  1  0.37729339  0.87468215  0.37349323  1
  Fe  Fe1  1  0.49839780  0.24882342  0.24849038  1
  Fe  Fe2  1  0.24967211  0.25257102  0.74937020  1
  Fe  Fe3  1  0.37524066  0.87803305  0.62826101  1
  Fe  Fe4  1  0.75306559  0.50245684  0.75420048  1
  Fe  Fe5  1  0.50167564  0.49903361  0.50128789  1
  Fe  Fe6  1  0.49839420  0.50069275  0.75015577  1
  Fe  Fe7  1  0.25021967  0.75078270  0.25031651  1
  Fe  Fe8  1  0.87512686  0.37467237  0.87931541  1
  Fe  Fe9  1  0.12504455  0.37261821  0.37438999  1
  Fe  Fe10  1  0.12522831  0.62310452  0.87324574  1
  Fe  Fe11  1  0.62647201  0.37536216  0.37285547  1
  Fe  Fe12  1  0.37269704  0.62422385  0.87649176  1
  Fe  Fe13  1  0.87218670  0.62547620  0.37616819  1
  Fe  Fe14  1  0.49773667  0.50106187  0.24751979  1
  Fe  Fe15  1  0.12358164  0.12661847  0.62549639  1
  Fe  Fe16  1  0.62589045  0.37712831  0.87618870  1
  Fe  Fe17  1  0.12791715  0.62463106  0.37634128  1
  Fe  Fe18  1  0.25091462  0.00032611  0.24947681  1
  Fe  Fe19  1  0.50144351  0.24853263  0.50052605  1
  Fe  Fe20  1  0.62804440  0.62514985  0.62539688  1
  Fe  Fe21  1  0.87711258  0.87596048  0.87967404  1
  Fe  Fe22  1  0.12330384  0.87396132  0.62459978  1
  Fe  Fe23  1  0.62528968  0.12390096  0.12440265  1
  Fe  Fe24  1  0.75162214  0.24872031  0.75322465  1
  Fe  Fe25  1  0.87467079  0.37639042  0.37233847  1
  Fe  Fe26  1  0.74873024  0.75276392  0.24715550  1
  Fe  Fe27  1  0.87673134  0.87402507  0.37448127  1
  Fe  Fe28  1  0.12333372  0.87655038  0.12478475  1
  Fe  Fe29  1  0.50015191  0.74965703  -0.00068928  1
  Fe  Fe30  1  0.75251082  -0.00163599  0.50097965  1
  Fe  Fe31  1  0.37513157  0.37352410  0.37615197  1
  Fe  Fe32  1  0.62592226  0.37553863  0.62716490  1
  Fe  Fe33  1  0.00143271  0.49991492  0.00132562  1
  Fe  Fe34  1  0.37016660  0.12856778  0.12144178  1
  Fe  Fe35  1  0.87285421  0.62530663  0.12240717  1
  Fe  Fe36  1  0.37436349  0.62544933  0.62434235  1
  Fe  Fe37  1  0.00013373  0.00222125  0.24798332  1
  Fe  Fe38  1  0.62804321  0.62278936  0.37607053  1
  Fe  Fe39  1  -0.00311570  0.00045543  0.50088485  1
  Fe  Fe40  1  0.24958232  0.49549280  0.50491737  1
  Fe  Fe41  1  0.62393571  0.87609258  0.87696137  1
  Fe  Fe42  1  0.12520177  0.12730519  0.37307462  1
  Fe  Fe43  1  0.50154156  0.00106912  0.50114134  1
  Fe  Fe44  1  0.62703589  0.12363634  0.87660198  1
  Fe  Fe45  1  0.12645437  0.37110599  0.12675037  1
  Fe  Fe46  1  0.37282045  0.62487663  0.37604962  1
  Fe  Fe47  1  -0.00140966  0.24934836  0.75260027  1
  Fe  Fe48  1  0.37315304  0.37637448  0.87672134  1
  Fe  Fe49  1  0.62682961  0.62535663  0.12329304  1
  Fe  Fe50  1  0.24897617  -0.00004198  0.50123902  1
  Fe  Fe51  1  0.50091752  0.75093544  0.49974546  1
  Fe  Fe52  1  0.75299042  0.00125103  0.75195177  1
  Fe  Fe53  1  0.62662549  0.37660192  0.12392186  1
  Fe  Fe54  1  -0.00115727  0.49998450  0.24827512  1
  Fe  Fe55  1  0.12747379  0.62544467  0.12514643  1
  Fe  Fe56  1  0.12405458  0.87374702  0.37603444  1
  Fe  Fe57  1  0.00059962  0.74834379  0.25046482  1
  Fe  Fe58  1  -0.00148772  0.74937628  0.75000207  1
  Fe  Fe59  1  0.50031152  0.75006622  0.75063738  1
  Fe  Fe60  1  -0.00078313  0.50115527  0.50157917  1
  Fe  Fe61  1  0.49837702  0.50094484  0.00163793  1
  Fe  Fe62  1  -0.00175082  0.00024584  0.75073780  1
  Fe  Fe63  1  0.00308146  0.24842633  0.00128257  1
  Fe  Fe64  1  0.37477785  0.12345491  0.62930565  1
  Fe  Fe65  1  0.24968528  -0.00248151  -0.00383551  1
  Fe  Fe66  1  0.49790375  0.00117919  -0.00137734  1
  Fe  Fe67  1  0.62817187  0.12416745  0.37295119  1
  Fe  Fe68  1  0.37326607  0.12612567  0.37645358  1
  Fe  Fe69  1  0.62736338  0.87458199  0.62722334  1
  Fe  Fe70  1  0.62159395  0.87745799  0.37024807  1
  Fe  Fe71  1  0.12513039  0.37994277  0.87173949  1
  Fe  Fe72  1  0.75146956  0.25037286  0.49943834  1
  Fe  Fe73  1  0.87189643  0.62835291  0.62244587  1
  Fe  Fe74  1  0.50023472  0.24911615  -0.00168735  1
  Fe  Fe75  1  0.50028108  0.24900042  0.75211174  1
  Fe  Fe76  1  0.24927448  0.75228462  -0.00127989  1
  Fe  Fe77  1  0.24965994  0.75209769  0.75111493  1
  Fe  Fe78  1  0.87559830  0.37363837  0.62598166  1
  Fe  Fe79  1  0.37850881  0.87320958  0.12729168  1
  Fe  Fe80  1  0.12523103  0.62484510  0.62611112  1
  Fe  Fe81  1  0.87638104  0.12438655  0.12100121  1
  Fe  Fe82  1  -0.00255660  0.24844388  0.49780505  1
  Fe  Fe83  1  0.62754425  0.12545395  0.62609003  1
  Fe  Fe84  1  0.00164014  0.75037969  0.00128460  1
  Fe  Fe85  1  0.75108814  -0.00261009  0.24451598  1
  Fe  Fe86  1  0.75121736  0.74851490  0.75614943  1
  Fe  Fe87  1  0.12580939  0.12318617  0.87482246  1
  Fe  Fe88  1  0.75333094  0.25104751  0.24627055  1
  Fe  Fe89  1  0.25276959  0.49784019  0.24600496  1
  Co  Co90  1  0.12837947  0.12487490  0.12534101  1
  Co  Co91  1  0.37459330  0.37136106  0.12172216  1
  Co  Co92  1  0.25077603  0.75261019  0.50114743  1
  Co  Co93  1  0.50437698  0.00097912  0.75142696  1
  Co  Co94  1  0.24656548  0.25123750  -0.00529729  1
  Co  Co95  1  0.62171267  0.62450378  0.87570844  1
  Co  Co96  1  0.37334437  0.62796444  0.12318416  1
  Co  Co97  1  0.87249963  0.12312961  0.37274633  1
  Co  Co98  1  0.74756648  0.75412969  0.49696730  1
  Co  Co99  1  0.74828801  0.75226384  0.00017365  1
  Co  Co100  1  0.75005357  0.50235194  -0.00323238  1
  Co  Co101  1  0.12032938  0.37322356  0.62547641  1
  Co  Co102  1  0.87470329  0.87267866  0.62591791  1
  Co  Co103  1  0.49679095  0.00628858  0.24849137  1
  Co  Co104  1  0.74808740  0.24931333  0.00069084  1
  Co  Co105  1  0.75059361  0.49699689  0.50158083  1
  Co  Co106  1  0.75149393  0.49954723  0.24759315  1
  Co  Co107  1  0.00317878  0.00223136  -0.00031116  1
  Co  Co108  1  0.25143396  0.49824126  0.74704160  1
  Co  Co109  1  0.87933901  0.62644313  0.88000929  1
  Co  Co110  1  0.24567097  -0.00225022  0.75207001  1
  Co  Co111  1  0.12096832  0.87306683  0.87502312  1
  Co  Co112  1  -0.00289209  0.24876326  0.24774195  1
  Co  Co113  1  0.24991685  0.24994741  0.50278632  1
  Co  Co114  1  -0.00485682  0.50179415  0.74854216  1
  Co  Co115  1  0.87471264  0.12492708  0.87898140  1
  Co  Co116  1  0.87495033  0.12615254  0.62603916  1
  Co  Co117  1  0.25158013  0.25025532  0.25078901  1
  Co  Co118  1  0.61822151  0.87531847  0.12588015  1
  Co  Co119  1  0.87459359  0.37581657  0.12070046  1
  Co  Co120  1  0.37738689  0.87538155  0.87250960  1
  Co  Co121  1  0.74886691  -0.00277366  0.00255765  1
  Co  Co122  1  0.87942558  0.87382375  0.12260327  1
  Co  Co123  1  0.50120986  0.74402679  0.25206654  1
  Co  Co124  1  0.37853737  0.37236101  0.62512535  1
  Co  Co125  1  0.37347762  0.12418904  0.87194598  1
  Co  Co126  1  0.24818962  0.49941448  0.00236320  1
  Co  Co127  1  0.00065746  0.74824486  0.49923671  1
