# generated using pymatgen
data_Fe45Co19
_symmetry_space_group_name_H-M   'P 1'
_cell_length_a   11.41706154
_cell_length_b   11.41557743
_cell_length_c   11.41488930
_cell_angle_alpha   90.01189949
_cell_angle_beta   90.00448893
_cell_angle_gamma   90.00954569
_symmetry_Int_Tables_number   1
_chemical_formula_structural   Fe45Co19
_chemical_formula_sum   'Fe90 Co38'
_cell_volume   1487.72928999
_cell_formula_units_Z   2
loop_
 _symmetry_equiv_pos_site_id
 _symmetry_equiv_pos_as_xyz
  1  'x, y, z'
loop_
 _atom_site_type_symbol
 _atom_site_label
 _atom_site_symmetry_multiplicity
 _atom_site_fract_x
 _atom_site_fract_y
 _atom_site_fract_z
 _atom_site_occupancy
  Fe  Fe0  1  0.87678475  0.87347525  0.37340406  1
  Fe  Fe1  1  0.49805381  0.00102001  -0.00170832  1
  Fe  Fe2  1  0.62381202  0.62271005  0.87608776  1
  Fe  Fe3  1  0.75215973  0.50164644  0.24764091  1
  Fe  Fe4  1  0.50170499  0.75048235  0.24750375  1
  Fe  Fe5  1  0.75018218  -0.00040532  0.50135614  1
  Fe  Fe6  1  0.87757084  0.62841656  0.37409025  1
  Fe  Fe7  1  0.00327835  0.74956767  0.24656610  1
  Fe  Fe8  1  0.00190344  0.25095240  0.50058249  1
  Fe  Fe9  1  0.37566858  0.12579585  0.62552206  1
  Fe  Fe10  1  0.75247176  0.25134309  0.74679589  1
  Fe  Fe11  1  0.24877131  0.24761281  0.25007698  1
  Fe  Fe12  1  -0.00057004  0.49621578  0.00357122  1
  Fe  Fe13  1  0.62371878  0.87662718  0.62962738  1
  Fe  Fe14  1  0.62631103  0.37433770  0.12599495  1
  Fe  Fe15  1  0.37499140  0.62459982  0.87661747  1
  Fe  Fe16  1  0.49810038  0.49697523  0.00050467  1
  Fe  Fe17  1  0.12627276  0.87530622  0.87436701  1
  Fe  Fe18  1  0.75109796  0.00070755  0.25021122  1
  Fe  Fe19  1  0.87546531  0.87317440  0.87736007  1
  Fe  Fe20  1  0.74965126  0.24949988  0.50195773  1
  Fe  Fe21  1  0.50157215  0.25255395  0.50524028  1
  Fe  Fe22  1  0.12249710  0.12170193  0.62798531  1
  Fe  Fe23  1  0.37586808  0.62829574  0.37708271  1
  Fe  Fe24  1  0.12312491  0.11907432  0.37197787  1
  Fe  Fe25  1  0.12916180  0.87931972  0.12548103  1
  Fe  Fe26  1  0.49884499  0.25181523  -0.00138713  1
  Fe  Fe27  1  0.37134616  0.37435912  0.12683874  1
  Fe  Fe28  1  0.37358365  0.12863013  0.87356959  1
  Fe  Fe29  1  0.12512843  0.37008185  0.87531859  1
  Fe  Fe30  1  0.12608815  0.37722446  0.37235249  1
  Fe  Fe31  1  0.62421564  0.12445018  0.37650959  1
  Fe  Fe32  1  0.62510443  0.62370867  0.62624822  1
  Fe  Fe33  1  0.00301570  0.00207836  -0.00081553  1
  Fe  Fe34  1  0.12401079  0.62735867  0.62190716  1
  Fe  Fe35  1  0.74993217  0.00111386  -0.00266352  1
  Fe  Fe36  1  0.75277809  0.50125444  0.00291540  1
  Fe  Fe37  1  0.37293146  0.87611765  0.12447921  1
  Fe  Fe38  1  0.24699727  0.24841275  0.50089124  1
  Fe  Fe39  1  0.37535560  0.87297702  0.87456842  1
  Fe  Fe40  1  0.87729276  0.12474883  0.37476772  1
  Fe  Fe41  1  0.00066688  0.75102615  0.75059593  1
  Fe  Fe42  1  0.37291647  0.37307768  0.37618476  1
  Fe  Fe43  1  0.87281548  0.87286858  0.12118567  1
  Fe  Fe44  1  0.87438615  0.12614446  0.12538495  1
  Fe  Fe45  1  0.50005710  0.24887299  0.24968343  1
  Fe  Fe46  1  0.49792579  0.49795835  0.74857605  1
  Fe  Fe47  1  0.62605963  0.37448766  0.37430636  1
  Fe  Fe48  1  0.00011875  -0.00478082  0.50119495  1
  Fe  Fe49  1  -0.00100568  0.49974070  0.49872239  1
  Fe  Fe50  1  0.37374471  0.62669989  0.62384979  1
  Fe  Fe51  1  0.87582928  0.87479480  0.62779563  1
  Fe  Fe52  1  0.12355865  0.62602730  0.87939532  1
  Fe  Fe53  1  0.12658293  0.37655840  0.62597372  1
  Fe  Fe54  1  0.87792605  0.12355337  0.62649590  1
  Fe  Fe55  1  0.00254071  0.24879994  0.24619318  1
  Fe  Fe56  1  0.74990308  0.74930294  0.75286461  1
  Fe  Fe57  1  0.37417142  0.87111369  0.62514773  1
  Fe  Fe58  1  0.00125081  0.50228549  0.24621167  1
  Fe  Fe59  1  0.24935615  0.49838430  -0.00063453  1
  Fe  Fe60  1  0.25001219  0.50169907  0.49853502  1
  Fe  Fe61  1  0.62314677  0.12555868  0.86993984  1
  Fe  Fe62  1  0.24964081  -0.00395765  0.49769360  1
  Fe  Fe63  1  0.49909763  0.49845316  0.50079428  1
  Fe  Fe64  1  0.49768419  0.49935089  0.25036785  1
  Fe  Fe65  1  0.62728142  0.37536481  0.87363829  1
  Fe  Fe66  1  0.74742171  0.74944637  0.24495899  1
  Fe  Fe67  1  0.37542203  0.12535472  0.37720280  1
  Fe  Fe68  1  0.37151660  0.12357606  0.12363449  1
  Fe  Fe69  1  0.50220910  0.75003693  0.00108504  1
  Fe  Fe70  1  0.87558226  0.37297144  0.37275615  1
  Fe  Fe71  1  0.62495726  0.12420330  0.12406032  1
  Fe  Fe72  1  0.49786470  0.00100067  0.24999233  1
  Fe  Fe73  1  0.24971296  0.00120576  0.75211451  1
  Fe  Fe74  1  0.62363163  0.87551484  0.37363775  1
  Fe  Fe75  1  0.87999067  0.12742266  0.87236923  1
  Fe  Fe76  1  0.00021808  0.49798623  0.75135878  1
  Fe  Fe77  1  0.87729638  0.62555453  0.62490938  1
  Fe  Fe78  1  0.75227548  0.50046734  0.49897144  1
  Fe  Fe79  1  0.62435012  0.62559290  0.37410251  1
  Fe  Fe80  1  0.87741780  0.62756567  0.88022854  1
  Fe  Fe81  1  0.74930873  0.75039070  0.50095604  1
  Fe  Fe82  1  0.37008294  0.37322116  0.87019924  1
  Fe  Fe83  1  0.62358379  0.87664630  0.87361283  1
  Fe  Fe84  1  0.37237182  0.62556154  0.12353334  1
  Fe  Fe85  1  0.49975783  -0.00196227  0.50159100  1
  Fe  Fe86  1  0.24771820  0.74975729  0.25373972  1
  Fe  Fe87  1  0.75184028  0.25000797  -0.00016546  1
  Fe  Fe88  1  0.75440249  0.49944794  0.75049833  1
  Fe  Fe89  1  0.24903813  0.74691223  0.75162543  1
  Co  Co90  1  0.74905956  0.24690589  0.25156590  1
  Co  Co91  1  0.37853102  0.87251186  0.37557887  1
  Co  Co92  1  0.00048024  0.24980146  0.00525872  1
  Co  Co93  1  0.24674387  0.75236292  0.49605220  1
  Co  Co94  1  0.49979361  0.74738639  0.75115836  1
  Co  Co95  1  0.12884239  0.12124734  0.12484614  1
  Co  Co96  1  0.00006871  0.75322697  0.50091949  1
  Co  Co97  1  0.12831077  0.62376908  0.12215671  1
  Co  Co98  1  0.49931429  0.25393336  0.74798620  1
  Co  Co99  1  0.50383614  0.75021843  0.50182052  1
  Co  Co100  1  0.62247124  0.62112378  0.12415720  1
  Co  Co101  1  0.87325894  0.37292867  0.12730060  1
  Co  Co102  1  0.12091997  0.87763225  0.37312263  1
  Co  Co103  1  0.74386005  0.74926262  -0.00020160  1
  Co  Co104  1  0.62428014  0.12259986  0.62851207  1
  Co  Co105  1  0.87691219  0.62910758  0.12141604  1
  Co  Co106  1  0.24962394  0.00093921  -0.00504612  1
  Co  Co107  1  0.75314426  0.00004742  0.75151636  1
  Co  Co108  1  0.87569069  0.37416059  0.87642844  1
  Co  Co109  1  0.36941041  0.37628997  0.62600191  1
  Co  Co110  1  0.12867610  0.37606978  0.12629740  1
  Co  Co111  1  0.12306007  0.12959819  0.87445064  1
  Co  Co112  1  -0.00342698  -0.00100026  0.24531052  1
  Co  Co113  1  0.12730368  0.87402216  0.62719838  1
  Co  Co114  1  0.62441888  0.88007008  0.12374999  1
  Co  Co115  1  0.24959843  0.75141267  -0.00141417  1
  Co  Co116  1  0.00153783  -0.00279548  0.75268279  1
  Co  Co117  1  0.25360973  -0.00074840  0.25473343  1
  Co  Co118  1  0.62769201  0.37814955  0.62591406  1
  Co  Co119  1  0.87634897  0.37617659  0.62297647  1
  Co  Co120  1  0.24909065  0.24963493  0.00184860  1
  Co  Co121  1  0.24657565  0.50439601  0.75124439  1
  Co  Co122  1  0.49546587  0.00052193  0.75069157  1
  Co  Co123  1  0.24791862  0.24729584  0.74650034  1
  Co  Co124  1  0.00514622  0.75369227  0.00227502  1
  Co  Co125  1  0.12233872  0.62476044  0.37711374  1
  Co  Co126  1  -0.00050214  0.25336697  0.74727416  1
  Co  Co127  1  0.25070697  0.50331613  0.25213574  1
