# generated using pymatgen
data_Fe45Co19
_symmetry_space_group_name_H-M   'P 1'
_cell_length_a   11.42305116
_cell_length_b   11.42254149
_cell_length_c   11.42310658
_cell_angle_alpha   89.99752402
_cell_angle_beta   89.99560513
_cell_angle_gamma   89.99774117
_symmetry_Int_Tables_number   1
_chemical_formula_structural   Fe45Co19
_chemical_formula_sum   'Fe90 Co38'
_cell_volume   1490.49009016
_cell_formula_units_Z   2
loop_
 _symmetry_equiv_pos_site_id
 _symmetry_equiv_pos_as_xyz
  1  'x, y, z'
loop_
 _atom_site_type_symbol
 _atom_site_label
 _atom_site_symmetry_multiplicity
 _atom_site_fract_x
 _atom_site_fract_y
 _atom_site_fract_z
 _atom_site_occupancy
  Fe  Fe0  1  0.49820874  0.24912789  0.25017830  1
  Fe  Fe1  1  0.37411784  0.37645608  0.87425764  1
  Fe  Fe2  1  0.75012727  0.50329536  0.49798984  1
  Fe  Fe3  1  0.62027524  0.62860860  0.12769631  1
  Fe  Fe4  1  0.87516288  0.87428736  0.37490163  1
  Fe  Fe5  1  0.62414287  0.37742751  0.37511552  1
  Fe  Fe6  1  -0.00329590  0.24971873  0.49578746  1
  Fe  Fe7  1  0.75023884  0.24949234  0.00080285  1
  Fe  Fe8  1  0.74936630  0.50126992  0.74839034  1
  Fe  Fe9  1  0.75276766  0.00187651  0.50047793  1
  Fe  Fe10  1  0.87334587  0.37744804  0.12729799  1
  Fe  Fe11  1  0.75111007  -0.00161947  0.00223674  1
  Fe  Fe12  1  0.25130970  -0.00200443  0.24996359  1
  Fe  Fe13  1  0.37699651  0.87330547  0.87472174  1
  Fe  Fe14  1  -0.00022987  -0.00009463  0.50007028  1
  Fe  Fe15  1  0.62443760  0.37700895  0.87589307  1
  Fe  Fe16  1  0.49963625  0.50151394  0.74755176  1
  Fe  Fe17  1  0.49967952  -0.00289521  0.74735289  1
  Fe  Fe18  1  0.50029895  0.00087963  0.00364909  1
  Fe  Fe19  1  0.87640959  0.62527473  0.37371346  1
  Fe  Fe20  1  0.00089119  0.49823475  0.25310227  1
  Fe  Fe21  1  0.62448349  0.12553237  0.62360395  1
  Fe  Fe22  1  0.62220805  0.62722329  0.62162025  1
  Fe  Fe23  1  0.25013887  0.25090345  0.00014765  1
  Fe  Fe24  1  0.49779048  -0.00315072  0.50045879  1
  Fe  Fe25  1  0.49920963  0.24971207  0.49843364  1
  Fe  Fe26  1  0.12584494  0.12368964  0.37500316  1
  Fe  Fe27  1  0.12640727  0.37857568  0.61899836  1
  Fe  Fe28  1  0.24752184  0.74446752  0.49844151  1
  Fe  Fe29  1  0.62408272  0.12384786  0.87547766  1
  Fe  Fe30  1  0.25083613  0.24888762  0.25216299  1
  Fe  Fe31  1  0.49950388  0.25023569  0.74980558  1
  Fe  Fe32  1  -0.00092333  0.49741983  0.74969271  1
  Fe  Fe33  1  0.62319378  0.12206449  0.37486997  1
  Fe  Fe34  1  0.37365714  0.37693821  0.12693688  1
  Fe  Fe35  1  0.62620113  0.87227195  0.62072737  1
  Fe  Fe36  1  0.12554975  0.12421119  0.12484563  1
  Fe  Fe37  1  0.49862312  -0.00460593  0.25022078  1
  Fe  Fe38  1  0.62549024  0.37571954  0.12670044  1
  Fe  Fe39  1  0.74814221  -0.00252274  0.24902662  1
  Fe  Fe40  1  0.25128696  -0.00067923  0.00109881  1
  Fe  Fe41  1  0.87648273  0.87352027  0.62523384  1
  Fe  Fe42  1  0.87669350  0.62511694  0.12753178  1
  Fe  Fe43  1  0.87277530  0.37478597  0.62055586  1
  Fe  Fe44  1  0.00099783  0.25362746  -0.00050847  1
  Fe  Fe45  1  0.12472377  0.12411606  0.87503864  1
  Fe  Fe46  1  0.74975089  0.50240641  0.00218255  1
  Fe  Fe47  1  0.75035611  -0.00127419  0.74880339  1
  Fe  Fe48  1  0.87658427  0.12433633  0.87299476  1
  Fe  Fe49  1  0.25136357  0.50117386  0.74591454  1
  Fe  Fe50  1  0.12787776  0.37711725  0.12646801  1
  Fe  Fe51  1  0.87726933  0.62530854  0.62462084  1
  Fe  Fe52  1  0.00249029  0.74853951  0.49918155  1
  Fe  Fe53  1  0.62438835  0.62547426  0.87548065  1
  Fe  Fe54  1  0.00063738  0.25307029  0.75031190  1
  Fe  Fe55  1  0.37601216  0.12558244  0.62419589  1
  Fe  Fe56  1  0.87563201  0.62563195  0.87418670  1
  Fe  Fe57  1  0.12687592  0.62396852  0.12684798  1
  Fe  Fe58  1  0.12351677  0.12490895  0.62435245  1
  Fe  Fe59  1  0.61984973  0.62677769  0.37566819  1
  Fe  Fe60  1  0.24967220  0.25005396  0.74847843  1
  Fe  Fe61  1  0.62417548  0.87371501  0.87739113  1
  Fe  Fe62  1  0.25021245  0.00034013  0.50106726  1
  Fe  Fe63  1  0.37529063  0.12433031  0.87454507  1
  Fe  Fe64  1  0.00111077  0.49852269  -0.00035975  1
  Fe  Fe65  1  0.74753020  0.75003610  0.25250447  1
  Fe  Fe66  1  0.75126416  0.74981894  0.00144372  1
  Fe  Fe67  1  0.25264583  0.24986726  0.49801095  1
  Fe  Fe68  1  0.37541795  0.62655354  0.87138329  1
  Fe  Fe69  1  0.62439655  0.37507989  0.62233951  1
  Fe  Fe70  1  0.24958640  -0.00195960  0.74845073  1
  Fe  Fe71  1  0.12517770  0.62268806  0.87433335  1
  Fe  Fe72  1  0.25173612  0.74743210  0.00060446  1
  Fe  Fe73  1  0.24988858  0.75165924  0.25104556  1
  Fe  Fe74  1  0.87551623  0.12457626  0.12712572  1
  Fe  Fe75  1  0.00323609  0.75200540  0.25025519  1
  Fe  Fe76  1  0.37254797  0.86878169  0.62488024  1
  Fe  Fe77  1  0.74812987  0.74932885  0.74830772  1
  Fe  Fe78  1  0.75057067  0.24993888  0.25336935  1
  Fe  Fe79  1  0.00263293  -0.00282419  0.24971868  1
  Fe  Fe80  1  0.00367469  0.75125891  0.74935824  1
  Fe  Fe81  1  0.49338273  0.50150163  0.49990546  1
  Fe  Fe82  1  -0.00203807  -0.00302354  0.00140352  1
  Fe  Fe83  1  0.74923970  0.25034740  0.74948184  1
  Fe  Fe84  1  0.00000366  0.75056037  0.00176965  1
  Fe  Fe85  1  0.49727006  0.50275793  0.00252389  1
  Fe  Fe86  1  0.49892636  0.24973495  0.00225516  1
  Fe  Fe87  1  0.12517900  0.87531877  0.87672677  1
  Fe  Fe88  1  0.00025093  0.25178853  0.25219554  1
  Fe  Fe89  1  0.25186565  0.50054200  0.25533370  1
  Co  Co90  1  0.74943107  0.24757888  0.49605443  1
  Co  Co91  1  0.62520134  0.12527574  0.12745217  1
  Co  Co92  1  0.00195584  -0.00239749  0.74907437  1
  Co  Co93  1  0.49881700  0.75219560  0.49756128  1
  Co  Co94  1  0.87393417  0.87281958  0.12876916  1
  Co  Co95  1  0.37531872  0.62634914  0.13114180  1
  Co  Co96  1  0.75272829  0.74767993  0.49861091  1
  Co  Co97  1  0.37452599  0.37389959  0.62403764  1
  Co  Co98  1  0.74746424  0.50465398  0.25071722  1
  Co  Co99  1  0.37370429  0.12427090  0.12595192  1
  Co  Co100  1  0.49972331  0.49913577  0.24966414  1
  Co  Co101  1  0.12884294  0.37713827  0.87386799  1
  Co  Co102  1  0.37557040  0.87308210  0.12349245  1
  Co  Co103  1  0.37062991  0.87380980  0.37820120  1
  Co  Co104  1  0.87181397  0.37875164  0.37523406  1
  Co  Co105  1  0.49926181  0.75759170  0.25344285  1
  Co  Co106  1  0.12639711  0.87443964  0.62202723  1
  Co  Co107  1  0.24593137  0.75069210  0.75187672  1
  Co  Co108  1  0.62393389  0.87186930  0.12330155  1
  Co  Co109  1  0.37841143  0.62799204  0.37143974  1
  Co  Co110  1  0.37581763  0.37495453  0.37450439  1
  Co  Co111  1  0.12426361  0.62357007  0.37302564  1
  Co  Co112  1  0.37612895  0.12243803  0.37524497  1
  Co  Co113  1  -0.00072516  0.50207776  0.49686049  1
  Co  Co114  1  0.87455057  0.87280053  0.87321425  1
  Co  Co115  1  0.12704049  0.37517396  0.37826958  1
  Co  Co116  1  0.37560668  0.63080426  0.62643609  1
  Co  Co117  1  0.87176967  0.37628980  0.87549221  1
  Co  Co118  1  0.87538539  0.12135070  0.37194171  1
  Co  Co119  1  0.12424916  0.62189850  0.62566311  1
  Co  Co120  1  0.25215847  0.50319798  0.00036231  1
  Co  Co121  1  0.87619974  0.12645832  0.62659023  1
  Co  Co122  1  0.25483484  0.50452969  0.49787010  1
  Co  Co123  1  0.12720739  0.87427689  0.12368304  1
  Co  Co124  1  0.12651015  0.87533954  0.37696410  1
  Co  Co125  1  0.62765581  0.87593435  0.37852374  1
  Co  Co126  1  0.50390193  0.75078611  0.74938070  1
  Co  Co127  1  0.49683103  0.74701692  -0.00027885  1
