# generated using pymatgen
data_Fe45Co19
_symmetry_space_group_name_H-M   'P 1'
_cell_length_a   11.41381856
_cell_length_b   11.41476027
_cell_length_c   11.41565630
_cell_angle_alpha   89.99656198
_cell_angle_beta   90.00225444
_cell_angle_gamma   89.99997903
_symmetry_Int_Tables_number   1
_chemical_formula_structural   Fe45Co19
_chemical_formula_sum   'Fe90 Co38'
_cell_volume   1487.30022276
_cell_formula_units_Z   2
loop_
 _symmetry_equiv_pos_site_id
 _symmetry_equiv_pos_as_xyz
  1  'x, y, z'
loop_
 _atom_site_type_symbol
 _atom_site_label
 _atom_site_symmetry_multiplicity
 _atom_site_fract_x
 _atom_site_fract_y
 _atom_site_fract_z
 _atom_site_occupancy
  Fe  Fe0  1  0.37518037  0.87433859  0.37546817  1
  Fe  Fe1  1  -0.00033599  0.74935612  0.00136832  1
  Fe  Fe2  1  0.37537179  0.87319091  0.12605210  1
  Fe  Fe3  1  0.50000520  -0.00040872  0.74681758  1
  Fe  Fe4  1  0.87395593  0.87388904  0.62405708  1
  Fe  Fe5  1  -0.00178755  0.49735023  0.00478278  1
  Fe  Fe6  1  0.24956662  0.00068001  0.49972615  1
  Fe  Fe7  1  0.12719404  0.62323699  0.12473330  1
  Fe  Fe8  1  0.37294812  0.37279530  0.12610632  1
  Fe  Fe9  1  0.37377863  0.12683861  0.37255137  1
  Fe  Fe10  1  0.24772963  0.25271869  0.74998421  1
  Fe  Fe11  1  -0.00112420  0.00279301  0.24920568  1
  Fe  Fe12  1  0.75089480  0.00012899  0.75154780  1
  Fe  Fe13  1  0.87134737  0.12597007  0.12567134  1
  Fe  Fe14  1  0.00141837  0.74708041  0.50087708  1
  Fe  Fe15  1  0.50124098  0.50169639  0.74875588  1
  Fe  Fe16  1  0.12467367  0.87549535  0.12425664  1
  Fe  Fe17  1  0.62271167  0.37482041  0.62426623  1
  Fe  Fe18  1  0.50059257  0.50082853  -0.00185806  1
  Fe  Fe19  1  0.24988700  0.49581426  0.25253554  1
  Fe  Fe20  1  0.75041339  0.49857138  0.25098157  1
  Fe  Fe21  1  0.62275647  0.62372558  0.37607091  1
  Fe  Fe22  1  0.12430945  0.62060536  0.37682512  1
  Fe  Fe23  1  0.74976372  0.24900502  0.49958217  1
  Fe  Fe24  1  0.49985431  0.24887776  0.24858259  1
  Fe  Fe25  1  0.62065660  0.37724348  0.37783080  1
  Fe  Fe26  1  0.37385233  0.12363831  0.87574446  1
  Fe  Fe27  1  -0.00110909  0.00134402  0.75106623  1
  Fe  Fe28  1  0.74933428  0.75033791  -0.00114029  1
  Fe  Fe29  1  0.62567622  0.12559213  0.87483811  1
  Fe  Fe30  1  0.37488370  0.62638199  0.12695948  1
  Fe  Fe31  1  0.37746559  0.87291962  0.87352078  1
  Fe  Fe32  1  0.24798180  0.25201487  0.49798181  1
  Fe  Fe33  1  0.49705110  0.74733214  0.50110779  1
  Fe  Fe34  1  0.62769513  0.62408715  0.62453659  1
  Fe  Fe35  1  0.00290834  0.74824439  0.74866214  1
  Fe  Fe36  1  0.74939432  0.75062924  0.75098645  1
  Fe  Fe37  1  0.13160508  0.12692767  0.12126260  1
  Fe  Fe38  1  0.49840257  0.24865114  0.00074571  1
  Fe  Fe39  1  -0.00332353  0.00310974  -0.00113236  1
  Fe  Fe40  1  -0.00071316  0.00281995  0.49997631  1
  Fe  Fe41  1  0.62749407  0.12168701  0.12406608  1
  Fe  Fe42  1  0.49905491  -0.00040323  0.00191209  1
  Fe  Fe43  1  0.12541074  0.62403920  0.87496774  1
  Fe  Fe44  1  0.74812034  0.25058788  0.25252895  1
  Fe  Fe45  1  0.24981540  -0.00241444  0.75102620  1
  Fe  Fe46  1  0.49966919  0.24850779  0.50152737  1
  Fe  Fe47  1  0.25298670  0.49881162  -0.00330500  1
  Fe  Fe48  1  0.62561071  0.12330921  0.37617436  1
  Fe  Fe49  1  0.24929236  0.74936629  0.25280435  1
  Fe  Fe50  1  0.62581219  0.37654093  0.12330363  1
  Fe  Fe51  1  0.25362813  0.49564013  0.50089506  1
  Fe  Fe52  1  0.00561879  0.25162778  0.24644865  1
  Fe  Fe53  1  0.12198038  0.37391558  0.87686838  1
  Fe  Fe54  1  0.00076546  0.74882330  0.24954149  1
  Fe  Fe55  1  0.87247363  0.62351079  0.12487576  1
  Fe  Fe56  1  0.87419125  0.87571191  0.37660598  1
  Fe  Fe57  1  0.25073056  0.00138034  0.24850270  1
  Fe  Fe58  1  0.62681216  0.87604592  0.62173129  1
  Fe  Fe59  1  0.87467802  0.12594587  0.62648937  1
  Fe  Fe60  1  0.36852487  0.62784980  0.62784097  1
  Fe  Fe61  1  0.00429037  0.24765983  0.50221232  1
  Fe  Fe62  1  0.88037638  0.37437384  0.37374606  1
  Fe  Fe63  1  0.12225340  0.87537075  0.87712789  1
  Fe  Fe64  1  0.12616268  0.87459381  0.62385198  1
  Fe  Fe65  1  0.50101657  -0.00069754  0.24846689  1
  Fe  Fe66  1  0.87642976  0.62391456  0.37335453  1
  Fe  Fe67  1  0.62285623  0.87266449  0.87560993  1
  Fe  Fe68  1  0.49864520  0.49975951  0.25044865  1
  Fe  Fe69  1  0.87315364  0.62522866  0.62620909  1
  Fe  Fe70  1  0.74784586  0.75197085  0.25097664  1
  Fe  Fe71  1  0.75196094  0.49914921  0.49874489  1
  Fe  Fe72  1  0.37846358  0.37478376  0.87191217  1
  Fe  Fe73  1  0.00235639  0.50028538  0.74702406  1
  Fe  Fe74  1  0.75030091  0.25178422  -0.00136338  1
  Fe  Fe75  1  0.87284633  0.87670445  0.12398191  1
  Fe  Fe76  1  0.49871073  0.00229394  0.50249792  1
  Fe  Fe77  1  0.12361405  0.87723161  0.37407909  1
  Fe  Fe78  1  0.87502637  0.62423320  0.87559286  1
  Fe  Fe79  1  0.87659964  0.37455006  0.62479675  1
  Fe  Fe80  1  0.62669764  0.87601286  0.37827847  1
  Fe  Fe81  1  0.74791674  0.49806721  0.75379569  1
  Fe  Fe82  1  0.74927433  0.25131790  0.75007162  1
  Fe  Fe83  1  0.62412520  0.62562862  0.12386416  1
  Fe  Fe84  1  0.12453523  0.12648482  0.87604106  1
  Fe  Fe85  1  0.87737879  0.37343775  0.87561502  1
  Fe  Fe86  1  0.25048495  0.75101217  -0.00144288  1
  Fe  Fe87  1  0.37614771  0.62814484  0.87131230  1
  Fe  Fe88  1  0.37182570  0.12574806  0.62593255  1
  Fe  Fe89  1  0.50069904  0.24788329  0.74873272  1
  Co  Co90  1  0.24773951  0.25298743  0.25417101  1
  Co  Co91  1  0.49854667  0.74967148  0.00233538  1
  Co  Co92  1  0.13045226  0.37518774  0.12168171  1
  Co  Co93  1  0.12749294  0.12321843  0.62660539  1
  Co  Co94  1  0.50079731  0.75116445  0.25234489  1
  Co  Co95  1  0.37284837  0.87461155  0.62404834  1
  Co  Co96  1  0.74898104  0.49873035  -0.00258205  1
  Co  Co97  1  0.75318888  0.00493303  0.49955030  1
  Co  Co98  1  0.75095477  0.74720495  0.49924926  1
  Co  Co99  1  0.12013509  0.37905595  0.37748251  1
  Co  Co100  1  -0.00269119  0.50332387  0.50446571  1
  Co  Co101  1  0.25351172  0.25260430  -0.00420021  1
  Co  Co102  1  0.87143871  0.37369199  0.12713535  1
  Co  Co103  1  0.12565011  0.12280961  0.37401520  1
  Co  Co104  1  0.87501976  0.12922207  0.87343561  1
  Co  Co105  1  -0.00114461  0.24977999  0.00404244  1
  Co  Co106  1  0.00210526  0.24973140  0.74732049  1
  Co  Co107  1  0.12429875  0.37702896  0.62389831  1
  Co  Co108  1  0.87691077  0.87221022  0.87458876  1
  Co  Co109  1  0.37417688  0.62350752  0.37409494  1
  Co  Co110  1  0.87770012  0.12897890  0.37359103  1
  Co  Co111  1  0.24853093  0.49618756  0.75181512  1
  Co  Co112  1  0.49629049  0.50339550  0.50429380  1
  Co  Co113  1  0.75067990  -0.00015487  0.25372055  1
  Co  Co114  1  0.24876424  0.75156197  0.49648431  1
  Co  Co115  1  0.37678239  0.37236207  0.62701040  1
  Co  Co116  1  0.62352592  0.62767288  0.87546585  1
  Co  Co117  1  0.62209417  0.37304486  0.87484353  1
  Co  Co118  1  0.62639695  0.12538601  0.62600545  1
  Co  Co119  1  0.75129957  -0.00034676  -0.00456797  1
  Co  Co120  1  0.37210480  0.12637295  0.12558054  1
  Co  Co121  1  0.62660773  0.87590852  0.12397243  1
  Co  Co122  1  0.00022120  0.49919427  0.24478987  1
  Co  Co123  1  0.13074267  0.62421517  0.62424195  1
  Co  Co124  1  0.37950428  0.37344903  0.37548649  1
  Co  Co125  1  0.25190026  -0.00278267  -0.00128319  1
  Co  Co126  1  0.50121353  0.75021136  0.74400260  1
  Co  Co127  1  0.24645594  0.75392012  0.75269299  1
