# generated using pymatgen
data_Fe45Co19
_symmetry_space_group_name_H-M   'P 1'
_cell_length_a   11.41335837
_cell_length_b   11.41512366
_cell_length_c   11.41508282
_cell_angle_alpha   90.00219175
_cell_angle_beta   89.99204830
_cell_angle_gamma   89.99700572
_symmetry_Int_Tables_number   1
_chemical_formula_structural   Fe45Co19
_chemical_formula_sum   'Fe90 Co38'
_cell_volume   1487.21287420
_cell_formula_units_Z   2
loop_
 _symmetry_equiv_pos_site_id
 _symmetry_equiv_pos_as_xyz
  1  'x, y, z'
loop_
 _atom_site_type_symbol
 _atom_site_label
 _atom_site_symmetry_multiplicity
 _atom_site_fract_x
 _atom_site_fract_y
 _atom_site_fract_z
 _atom_site_occupancy
  Fe  Fe0  1  0.62856260  0.12661202  0.12535910  1
  Fe  Fe1  1  0.75304105  0.74911420  0.75133471  1
  Fe  Fe2  1  0.62272700  0.87385580  0.37470173  1
  Fe  Fe3  1  0.00033446  0.00103985  0.50062939  1
  Fe  Fe4  1  0.12563438  0.12813496  0.62571798  1
  Fe  Fe5  1  0.74891707  -0.00129209  0.25242120  1
  Fe  Fe6  1  0.12406675  0.12478794  0.87758428  1
  Fe  Fe7  1  0.62379052  0.87512628  0.87444767  1
  Fe  Fe8  1  0.37471668  0.12700844  0.87371105  1
  Fe  Fe9  1  0.25180572  0.74720886  0.25064457  1
  Fe  Fe10  1  0.37395093  0.62335535  0.87489402  1
  Fe  Fe11  1  0.37657713  0.37911185  0.37221578  1
  Fe  Fe12  1  0.37368687  0.37973745  0.12751962  1
  Fe  Fe13  1  0.75089154  0.49932166  0.24770759  1
  Fe  Fe14  1  0.24702879  0.49765185  0.50043383  1
  Fe  Fe15  1  0.49978467  0.74753672  0.50214448  1
  Fe  Fe16  1  0.75019860  -0.00234778  0.00020029  1
  Fe  Fe17  1  0.87584392  0.87456962  0.62275657  1
  Fe  Fe18  1  -0.00098636  0.00438100  0.00459822  1
  Fe  Fe19  1  0.12674769  0.62466350  0.12294080  1
  Fe  Fe20  1  0.37774190  0.87586140  0.87464347  1
  Fe  Fe21  1  0.24948123  0.75096696  -0.00272337  1
  Fe  Fe22  1  0.37472246  0.87498619  0.12307022  1
  Fe  Fe23  1  0.12699544  0.87709798  0.12357913  1
  Fe  Fe24  1  0.00055885  0.00127465  0.24802471  1
  Fe  Fe25  1  0.50290748  0.25017127  0.74989719  1
  Fe  Fe26  1  0.62455813  0.62359998  0.37566330  1
  Fe  Fe27  1  0.24852885  0.25380706  0.49974885  1
  Fe  Fe28  1  -0.00192103  0.25032727  0.50006806  1
  Fe  Fe29  1  0.49943592  0.25017405  0.00117091  1
  Fe  Fe30  1  0.50057990  0.00181270  0.24996977  1
  Fe  Fe31  1  0.24717263  0.49630756  0.75010275  1
  Fe  Fe32  1  0.12280096  0.62475510  0.37667918  1
  Fe  Fe33  1  0.62669664  0.87482093  0.62505717  1
  Fe  Fe34  1  0.37700580  0.87340240  0.37669053  1
  Fe  Fe35  1  0.24623046  0.75275174  0.75149855  1
  Fe  Fe36  1  -0.00099655  0.49864669  0.50138318  1
  Fe  Fe37  1  -0.00186714  0.74631701  -0.00137579  1
  Fe  Fe38  1  0.37614698  0.37435277  0.87418215  1
  Fe  Fe39  1  0.75240382  0.25179624  0.25279129  1
  Fe  Fe40  1  0.12341326  0.62584451  0.62481931  1
  Fe  Fe41  1  0.12207817  0.37495141  0.37111011  1
  Fe  Fe42  1  0.24905593  0.74955685  0.50066480  1
  Fe  Fe43  1  0.50022131  0.00117484  0.00097817  1
  Fe  Fe44  1  0.50253360  0.50074507  0.00066516  1
  Fe  Fe45  1  0.62846832  0.37764820  0.87384176  1
  Fe  Fe46  1  0.37044526  0.12338011  0.12609998  1
  Fe  Fe47  1  0.87346781  0.12541087  0.37544268  1
  Fe  Fe48  1  0.24669649  -0.00136578  0.75208384  1
  Fe  Fe49  1  0.87661600  0.87387341  0.37524854  1
  Fe  Fe50  1  -0.00292794  0.50333140  0.75020629  1
  Fe  Fe51  1  0.62502697  0.87175569  0.12508300  1
  Fe  Fe52  1  0.50236417  0.00323430  0.50082912  1
  Fe  Fe53  1  0.62655283  0.62300858  0.62649553  1
  Fe  Fe54  1  0.37505688  0.87646950  0.62583039  1
  Fe  Fe55  1  0.50269185  0.00279364  0.74824097  1
  Fe  Fe56  1  0.62929852  0.62853133  0.12218727  1
  Fe  Fe57  1  0.24769486  -0.00043993  0.49941589  1
  Fe  Fe58  1  0.37441740  0.12634205  0.37469414  1
  Fe  Fe59  1  0.11797410  0.37520804  0.87793258  1
  Fe  Fe60  1  0.49959902  0.49932934  0.50199548  1
  Fe  Fe61  1  0.87702860  0.87755421  0.87541423  1
  Fe  Fe62  1  0.12625996  0.12680263  0.37146702  1
  Fe  Fe63  1  0.87616078  0.62385730  0.37396944  1
  Fe  Fe64  1  0.49749588  0.74471746  0.24843921  1
  Fe  Fe65  1  0.75586473  0.25062016  -0.00439309  1
  Fe  Fe66  1  0.37347565  0.62335403  0.62649519  1
  Fe  Fe67  1  0.37585157  0.37344750  0.62732917  1
  Fe  Fe68  1  0.62679838  0.37391447  0.62618768  1
  Fe  Fe69  1  0.62901732  0.62302501  0.87531581  1
  Fe  Fe70  1  0.37229873  0.12767292  0.62644033  1
  Fe  Fe71  1  0.75136579  0.74922306  0.49774512  1
  Fe  Fe72  1  0.24681095  0.49882552  -0.00092379  1
  Fe  Fe73  1  0.87334814  0.87269374  0.12620393  1
  Fe  Fe74  1  -0.00004674  0.74909715  0.24868495  1
  Fe  Fe75  1  0.62722657  0.37266903  0.12451852  1
  Fe  Fe76  1  0.24778592  0.25072344  0.00109103  1
  Fe  Fe77  1  0.00017018  0.24817714  0.24373532  1
  Fe  Fe78  1  0.75352750  0.49771708  0.50055597  1
  Fe  Fe79  1  -0.00416996  0.24769302  0.75277125  1
  Fe  Fe80  1  -0.00101304  0.50093764  0.24359631  1
  Fe  Fe81  1  0.63285847  0.12812978  0.62210851  1
  Fe  Fe82  1  0.49923321  0.24982621  0.24944114  1
  Fe  Fe83  1  0.12416096  0.87371593  0.37537580  1
  Fe  Fe84  1  0.62302711  0.37436969  0.37527895  1
  Fe  Fe85  1  -0.00063567  0.74783201  0.75170258  1
  Fe  Fe86  1  0.50029545  0.74726423  0.75094633  1
  Fe  Fe87  1  0.87543643  0.37327234  0.62736365  1
  Fe  Fe88  1  -0.00017713  0.00119044  0.74710430  1
  Fe  Fe89  1  0.62782939  0.12411352  0.87497878  1
  Co  Co90  1  0.75123549  0.49903690  0.00431596  1
  Co  Co91  1  0.75211403  0.75321604  -0.00391732  1
  Co  Co92  1  0.37289473  0.62147521  0.12164326  1
  Co  Co93  1  0.12444348  0.37495312  0.12423993  1
  Co  Co94  1  0.75377746  0.50028408  0.74689147  1
  Co  Co95  1  0.87568513  0.37309694  0.12203461  1
  Co  Co96  1  0.25106071  -0.00055925  -0.00418316  1
  Co  Co97  1  0.12281068  0.87386336  0.62432999  1
  Co  Co98  1  0.11982228  0.87704067  0.87762254  1
  Co  Co99  1  0.75044842  -0.00243437  0.49711208  1
  Co  Co100  1  0.37581814  0.62183845  0.37711584  1
  Co  Co101  1  -0.00179800  0.24543695  0.00311748  1
  Co  Co102  1  0.87455596  0.12051653  0.87460962  1
  Co  Co103  1  0.24670427  0.25300793  0.75237870  1
  Co  Co104  1  0.87872201  0.37643801  0.37097931  1
  Co  Co105  1  0.12014444  0.37404818  0.62757933  1
  Co  Co106  1  0.62644184  0.12839463  0.37555146  1
  Co  Co107  1  0.25030254  -0.00366247  0.25333576  1
  Co  Co108  1  0.75097267  -0.00197279  0.74953188  1
  Co  Co109  1  0.87121573  0.62831111  0.12542815  1
  Co  Co110  1  0.49882592  0.25026325  0.50067450  1
  Co  Co111  1  0.75432738  0.25513402  0.49735206  1
  Co  Co112  1  0.87591398  0.62675923  0.62226556  1
  Co  Co113  1  0.24633978  0.50304229  0.25153779  1
  Co  Co114  1  0.75055605  0.75007966  0.25373359  1
  Co  Co115  1  0.13089609  0.12264202  0.12639276  1
  Co  Co116  1  -0.00048806  0.75023730  0.49917493  1
  Co  Co117  1  0.87798223  0.37980301  0.87705089  1
  Co  Co118  1  0.86904825  0.12531143  0.12662516  1
  Co  Co119  1  0.25077776  0.25332456  0.24975578  1
  Co  Co120  1  0.49991616  0.49966516  0.75153849  1
  Co  Co121  1  0.75321337  0.25144907  0.75388285  1
  Co  Co122  1  0.12493971  0.62301918  0.87443851  1
  Co  Co123  1  0.49982557  0.74779475  -0.00134039  1
  Co  Co124  1  0.50427742  0.50275898  0.24643304  1
  Co  Co125  1  -0.00197840  0.50343609  0.00493696  1
  Co  Co126  1  0.87165678  0.12562649  0.62317423  1
  Co  Co127  1  0.87206528  0.62129675  0.87776371  1
