# generated using pymatgen
data_Fe45Co19
_symmetry_space_group_name_H-M   'P 1'
_cell_length_a   11.41511242
_cell_length_b   11.41569476
_cell_length_c   11.41591675
_cell_angle_alpha   90.00489721
_cell_angle_beta   89.99938724
_cell_angle_gamma   89.99643819
_symmetry_Int_Tables_number   1
_chemical_formula_structural   Fe45Co19
_chemical_formula_sum   'Fe90 Co38'
_cell_volume   1487.62453171
_cell_formula_units_Z   2
loop_
 _symmetry_equiv_pos_site_id
 _symmetry_equiv_pos_as_xyz
  1  'x, y, z'
loop_
 _atom_site_type_symbol
 _atom_site_label
 _atom_site_symmetry_multiplicity
 _atom_site_fract_x
 _atom_site_fract_y
 _atom_site_fract_z
 _atom_site_occupancy
  Fe  Fe0  1  0.50146107  0.75093246  0.24956823  1
  Fe  Fe1  1  0.25115639  0.49920929  0.50073335  1
  Fe  Fe2  1  0.75053569  0.25009600  0.00001563  1
  Fe  Fe3  1  0.50083071  0.25308658  0.50086920  1
  Fe  Fe4  1  0.37612040  0.37481661  0.62710996  1
  Fe  Fe5  1  0.62692439  0.37375726  0.87392591  1
  Fe  Fe6  1  -0.00040845  0.24857362  -0.00169050  1
  Fe  Fe7  1  0.87222299  0.12505138  0.61898292  1
  Fe  Fe8  1  0.37679479  0.62382612  0.37455772  1
  Fe  Fe9  1  -0.00489887  0.74589830  0.75062141  1
  Fe  Fe10  1  0.25001317  0.24943105  0.25140246  1
  Fe  Fe11  1  0.12437375  0.87626940  0.87190250  1
  Fe  Fe12  1  0.50221387  0.75254534  0.00006271  1
  Fe  Fe13  1  0.24863042  0.24790634  0.75019067  1
  Fe  Fe14  1  -0.00196116  0.49886881  -0.00156038  1
  Fe  Fe15  1  0.87415259  0.87492414  0.62486748  1
  Fe  Fe16  1  0.74878730  0.24786762  0.74743356  1
  Fe  Fe17  1  0.37810975  0.12306004  0.12615048  1
  Fe  Fe18  1  0.00025907  0.00071172  0.25219444  1
  Fe  Fe19  1  0.37957475  0.87802849  0.12684697  1
  Fe  Fe20  1  0.87254742  0.37439015  0.12869049  1
  Fe  Fe21  1  0.50231368  0.24601933  0.74949143  1
  Fe  Fe22  1  0.74821327  0.74902208  0.24854448  1
  Fe  Fe23  1  0.87282570  0.87677909  0.12798447  1
  Fe  Fe24  1  0.12391159  0.12477071  0.12422078  1
  Fe  Fe25  1  0.25032174  -0.00105486  0.00050041  1
  Fe  Fe26  1  0.25091043  0.00014904  0.25130028  1
  Fe  Fe27  1  -0.00178488  0.75136011  0.49867479  1
  Fe  Fe28  1  0.62348731  0.87522031  0.62453446  1
  Fe  Fe29  1  0.87234993  0.87564171  0.87299854  1
  Fe  Fe30  1  0.12614796  0.87543542  0.37604194  1
  Fe  Fe31  1  0.62458461  0.37787432  0.37254188  1
  Fe  Fe32  1  0.74997069  0.75084258  0.50063991  1
  Fe  Fe33  1  0.50195493  0.24862876  0.00108557  1
  Fe  Fe34  1  0.74310837  0.00216771  0.25458846  1
  Fe  Fe35  1  0.63118029  0.62520710  0.87784899  1
  Fe  Fe36  1  0.12482780  0.12304720  0.37953999  1
  Fe  Fe37  1  0.12445699  0.62392511  0.87589710  1
  Fe  Fe38  1  -0.00037491  0.49943104  0.25131075  1
  Fe  Fe39  1  0.75011575  0.24702387  0.25574300  1
  Fe  Fe40  1  0.62294095  0.62287587  0.37381427  1
  Fe  Fe41  1  0.50026084  0.25017300  0.24952125  1
  Fe  Fe42  1  0.74671800  0.00218249  0.74721161  1
  Fe  Fe43  1  0.62657154  0.62507835  0.62484134  1
  Fe  Fe44  1  0.24888192  0.49919432  0.75066877  1
  Fe  Fe45  1  0.00060365  0.49921261  0.49954445  1
  Fe  Fe46  1  0.25260377  0.75367454  0.50129771  1
  Fe  Fe47  1  0.37557023  0.12224015  0.87280523  1
  Fe  Fe48  1  -0.00373719  0.75197316  -0.00120011  1
  Fe  Fe49  1  0.12358682  0.62658997  0.12526921  1
  Fe  Fe50  1  0.74904782  0.49853121  0.50001839  1
  Fe  Fe51  1  -0.00370645  0.25218980  0.49542386  1
  Fe  Fe52  1  0.37686949  0.87787106  0.87111625  1
  Fe  Fe53  1  0.62530827  0.37485954  0.62522456  1
  Fe  Fe54  1  0.50238814  0.74895667  0.75139855  1
  Fe  Fe55  1  0.87299773  0.62531686  0.12313037  1
  Fe  Fe56  1  0.87434104  0.37768779  0.87174876  1
  Fe  Fe57  1  0.37599184  0.12259445  0.37708506  1
  Fe  Fe58  1  0.37666031  0.62294924  0.87698097  1
  Fe  Fe59  1  0.25209128  0.49883386  0.24810829  1
  Fe  Fe60  1  0.87427468  0.62418284  0.37591195  1
  Fe  Fe61  1  0.37624880  0.62481112  0.62579483  1
  Fe  Fe62  1  0.12667421  0.37396664  0.12397691  1
  Fe  Fe63  1  -0.00105726  0.00005236  0.00019988  1
  Fe  Fe64  1  0.25071778  0.75153677  -0.00044025  1
  Fe  Fe65  1  0.37609507  0.37744889  0.37453595  1
  Fe  Fe66  1  0.49952622  -0.00222841  0.49864586  1
  Fe  Fe67  1  0.87335006  0.12400445  0.87474548  1
  Fe  Fe68  1  0.25108012  0.75099627  0.24941360  1
  Fe  Fe69  1  0.25145222  0.74987654  0.74974908  1
  Fe  Fe70  1  0.87523627  0.37692411  0.62584311  1
  Fe  Fe71  1  0.50254310  0.50067401  0.74977449  1
  Fe  Fe72  1  0.74809473  0.00072683  0.00145152  1
  Fe  Fe73  1  0.25180371  0.24999842  0.50025780  1
  Fe  Fe74  1  0.24896309  0.24808664  -0.00235306  1
  Fe  Fe75  1  -0.00023807  0.24959573  0.25346220  1
  Fe  Fe76  1  0.37693152  0.62502417  0.12382275  1
  Fe  Fe77  1  0.24818602  0.00181187  0.74150880  1
  Fe  Fe78  1  0.50412211  0.49662845  0.00480049  1
  Fe  Fe79  1  0.12394022  0.37327633  0.62529829  1
  Fe  Fe80  1  0.12554082  0.62578343  0.37417422  1
  Fe  Fe81  1  0.37502062  0.37619472  0.87678345  1
  Fe  Fe82  1  0.62600729  0.87648928  0.87522626  1
  Fe  Fe83  1  0.00086180  0.00293856  0.74644438  1
  Fe  Fe84  1  0.87339824  0.12477627  0.12749095  1
  Fe  Fe85  1  0.00134736  0.24783719  0.75164686  1
  Fe  Fe86  1  0.87330506  0.87595551  0.37373348  1
  Fe  Fe87  1  0.12359855  0.87401578  0.12596314  1
  Fe  Fe88  1  0.12424032  0.62683349  0.62405121  1
  Fe  Fe89  1  0.49860650  0.74928693  0.50008726  1
  Co  Co90  1  0.75080258  0.75390851  0.00232948  1
  Co  Co91  1  0.50006434  0.49966553  0.50201828  1
  Co  Co92  1  0.87466290  0.12189771  0.37779453  1
  Co  Co93  1  0.38005657  0.87384616  0.62804589  1
  Co  Co94  1  0.37849247  0.12559538  0.62341494  1
  Co  Co95  1  0.50141008  0.00181860  -0.00173303  1
  Co  Co96  1  0.12210502  0.12906852  0.61941392  1
  Co  Co97  1  0.25109456  -0.00292903  0.50501655  1
  Co  Co98  1  0.75017488  0.75029707  0.74830845  1
  Co  Co99  1  0.62606604  0.12521294  0.61849432  1
  Co  Co100  1  0.12480844  0.37589223  0.87531229  1
  Co  Co101  1  -0.00051987  -0.00301917  0.50037069  1
  Co  Co102  1  0.62965715  0.37144462  0.12961775  1
  Co  Co103  1  0.75118309  0.25482687  0.49813859  1
  Co  Co104  1  0.62505393  0.12584881  0.12502351  1
  Co  Co105  1  0.62590489  0.62587071  0.12424950  1
  Co  Co106  1  0.74834401  -0.00296344  0.49802059  1
  Co  Co107  1  0.00035883  0.50299428  0.74939186  1
  Co  Co108  1  0.87336738  0.62382468  0.62284552  1
  Co  Co109  1  0.24978695  0.50197818  0.00117519  1
  Co  Co110  1  0.62756841  0.12586361  0.87684667  1
  Co  Co111  1  0.49830406  0.49765266  0.24528845  1
  Co  Co112  1  0.62312185  0.87727095  0.12534553  1
  Co  Co113  1  0.87269280  0.37856141  0.37265668  1
  Co  Co114  1  0.37527400  0.87537231  0.37389008  1
  Co  Co115  1  0.86927554  0.62342961  0.87676361  1
  Co  Co116  1  0.74874030  0.49570624  0.00142269  1
  Co  Co117  1  0.50445940  0.00402279  0.74932254  1
  Co  Co118  1  0.12156868  0.87091466  0.62608213  1
  Co  Co119  1  0.37251172  0.37202606  0.12248746  1
  Co  Co120  1  0.62410300  0.12809202  0.38119074  1
  Co  Co121  1  0.62392064  0.87096786  0.37595919  1
  Co  Co122  1  -0.00206884  0.75056030  0.25079280  1
  Co  Co123  1  0.12507274  0.12164139  0.87527960  1
  Co  Co124  1  0.74920506  0.50058485  0.74822460  1
  Co  Co125  1  0.75001841  0.50362034  0.24956831  1
  Co  Co126  1  0.12705221  0.37568763  0.37479711  1
  Co  Co127  1  0.50448326  0.00171474  0.25446083  1
