# generated using pymatgen
data_Fe45Co19
_symmetry_space_group_name_H-M   'P 1'
_cell_length_a   11.41703542
_cell_length_b   11.41477704
_cell_length_c   11.41559518
_cell_angle_alpha   90.00322456
_cell_angle_beta   89.99631978
_cell_angle_gamma   90.00658233
_symmetry_Int_Tables_number   1
_chemical_formula_structural   Fe45Co19
_chemical_formula_sum   'Fe90 Co38'
_cell_volume   1487.71361125
_cell_formula_units_Z   2
loop_
 _symmetry_equiv_pos_site_id
 _symmetry_equiv_pos_as_xyz
  1  'x, y, z'
loop_
 _atom_site_type_symbol
 _atom_site_label
 _atom_site_symmetry_multiplicity
 _atom_site_fract_x
 _atom_site_fract_y
 _atom_site_fract_z
 _atom_site_occupancy
  Fe  Fe0  1  0.62461590  0.87495637  0.37357055  1
  Fe  Fe1  1  0.12598681  0.87615097  0.12705604  1
  Fe  Fe2  1  0.87630911  0.37431665  0.37469869  1
  Fe  Fe3  1  0.00107100  0.24805941  0.25419571  1
  Fe  Fe4  1  0.24691058  0.25064063  0.49777446  1
  Fe  Fe5  1  0.49698812  0.74457013  0.24588620  1
  Fe  Fe6  1  0.62568393  0.37560449  0.12628701  1
  Fe  Fe7  1  0.24971944  0.74969760  0.74974606  1
  Fe  Fe8  1  0.37662606  0.37757108  0.37582481  1
  Fe  Fe9  1  -0.00107319  0.00551159  0.50203734  1
  Fe  Fe10  1  0.87382029  0.12590854  0.12534219  1
  Fe  Fe11  1  0.24901887  0.00143776  0.75004329  1
  Fe  Fe12  1  0.62607863  0.62276568  0.87440298  1
  Fe  Fe13  1  0.37453115  0.12683172  0.62400124  1
  Fe  Fe14  1  0.12538505  0.62502884  0.12683032  1
  Fe  Fe15  1  0.37649573  0.87671796  0.12397873  1
  Fe  Fe16  1  0.00073122  0.00209891  -0.00148293  1
  Fe  Fe17  1  0.62595858  0.12573791  0.62614993  1
  Fe  Fe18  1  0.75231265  0.75027300  0.74809787  1
  Fe  Fe19  1  0.24843746  0.50029334  0.49851386  1
  Fe  Fe20  1  0.37330917  0.37727667  0.12380295  1
  Fe  Fe21  1  0.25034892  0.49705548  0.75170429  1
  Fe  Fe22  1  -0.00065795  0.75024401  0.74920773  1
  Fe  Fe23  1  0.12398528  0.87696277  0.62565634  1
  Fe  Fe24  1  0.87486464  0.62436341  0.87659685  1
  Fe  Fe25  1  0.12218009  0.37162490  0.62515817  1
  Fe  Fe26  1  0.24995135  0.25246413  0.75335627  1
  Fe  Fe27  1  0.00088327  0.74984990  0.50024188  1
  Fe  Fe28  1  -0.00277364  0.24609335  0.75133168  1
  Fe  Fe29  1  0.75022466  -0.00153797  0.50174602  1
  Fe  Fe30  1  0.75337641  0.50016624  0.24728089  1
  Fe  Fe31  1  0.74963646  0.24997975  0.25123121  1
  Fe  Fe32  1  0.00042702  0.24937008  -0.00123394  1
  Fe  Fe33  1  0.24707254  0.25337716  -0.00212639  1
  Fe  Fe34  1  0.75343682  0.49838713  0.00211143  1
  Fe  Fe35  1  0.87698314  0.62484539  0.37469664  1
  Fe  Fe36  1  0.12548855  0.62475782  0.62505175  1
  Fe  Fe37  1  0.50134601  0.50031992  0.00089973  1
  Fe  Fe38  1  0.37563173  0.87562292  0.87689389  1
  Fe  Fe39  1  0.49974711  0.25261547  0.75227688  1
  Fe  Fe40  1  0.62375021  0.87482310  0.87411061  1
  Fe  Fe41  1  0.24861716  0.74889892  0.49917137  1
  Fe  Fe42  1  0.62481097  0.62426711  0.62684746  1
  Fe  Fe43  1  0.74886346  0.49961198  0.50053655  1
  Fe  Fe44  1  -0.00318777  0.50049647  0.74846777  1
  Fe  Fe45  1  0.37372831  0.12558749  0.87727076  1
  Fe  Fe46  1  0.75005857  0.74867074  0.25020245  1
  Fe  Fe47  1  0.87376549  0.87541761  0.37614075  1
  Fe  Fe48  1  0.87415109  0.62606930  0.62224852  1
  Fe  Fe49  1  0.49823480  0.75004899  0.74961276  1
  Fe  Fe50  1  0.62490054  0.37768311  0.62845636  1
  Fe  Fe51  1  0.74844256  -0.00085584  0.00221420  1
  Fe  Fe52  1  0.50005819  -0.00131205  0.50132859  1
  Fe  Fe53  1  0.37570338  0.12508239  0.37532634  1
  Fe  Fe54  1  0.00239118  0.49819729  0.49840979  1
  Fe  Fe55  1  0.25198081  0.50544830  0.25369281  1
  Fe  Fe56  1  0.74952940  0.25261881  0.49966348  1
  Fe  Fe57  1  0.12467903  0.62306586  0.87517040  1
  Fe  Fe58  1  0.37514851  0.12294117  0.12394339  1
  Fe  Fe59  1  0.50205055  0.25039526  -0.00088908  1
  Fe  Fe60  1  0.50137135  0.75119593  0.50262329  1
  Fe  Fe61  1  0.50350847  0.25292228  0.49872681  1
  Fe  Fe62  1  0.62126905  0.62106825  0.37308695  1
  Fe  Fe63  1  0.12492130  0.37643343  0.12958079  1
  Fe  Fe64  1  0.25051043  0.24843104  0.25193777  1
  Fe  Fe65  1  0.12421670  0.87702518  0.87406373  1
  Fe  Fe66  1  0.75330608  0.25517040  0.75198401  1
  Fe  Fe67  1  0.12721664  0.12352355  0.12569292  1
  Fe  Fe68  1  0.00110432  0.74915960  -0.00020290  1
  Fe  Fe69  1  0.62186001  0.87470602  0.12551618  1
  Fe  Fe70  1  0.62411960  0.12350399  0.12739130  1
  Fe  Fe71  1  0.50031805  0.25123719  0.25122516  1
  Fe  Fe72  1  0.49879436  -0.00043045  0.74842284  1
  Fe  Fe73  1  0.37574775  0.37471949  0.62463272  1
  Fe  Fe74  1  0.74877632  0.75013211  0.00082604  1
  Fe  Fe75  1  0.12624235  0.87550692  0.37318963  1
  Fe  Fe76  1  0.75003659  0.25165193  -0.00137806  1
  Fe  Fe77  1  -0.00149658  0.00185555  0.25107817  1
  Fe  Fe78  1  0.87651655  0.87616988  0.87505871  1
  Fe  Fe79  1  0.37308375  0.62298874  0.87813538  1
  Fe  Fe80  1  0.00036649  0.74924892  0.25019224  1
  Fe  Fe81  1  -0.00081718  0.49892149  0.00391996  1
  Fe  Fe82  1  0.62725631  0.12472072  0.87340811  1
  Fe  Fe83  1  0.87522135  0.87354529  0.12464214  1
  Fe  Fe84  1  0.62642566  0.12341536  0.37412893  1
  Fe  Fe85  1  0.75360736  -0.00201689  0.74705458  1
  Fe  Fe86  1  0.25035718  0.00089493  0.49932426  1
  Fe  Fe87  1  0.37522447  0.62404728  0.62324638  1
  Fe  Fe88  1  0.24923557  0.75091224  0.00164796  1
  Fe  Fe89  1  0.37452921  0.87287074  0.37325945  1
  Co  Co90  1  0.12305615  0.62643885  0.37423957  1
  Co  Co91  1  0.87774859  0.37409699  0.62202881  1
  Co  Co92  1  0.12638646  0.12491370  0.87525297  1
  Co  Co93  1  0.62683902  0.62344666  0.12446331  1
  Co  Co94  1  0.25210119  0.74771226  0.24915717  1
  Co  Co95  1  0.11920740  0.37554405  0.87275195  1
  Co  Co96  1  -0.00165713  0.50082407  0.24904449  1
  Co  Co97  1  0.87108042  0.12487056  0.37495032  1
  Co  Co98  1  0.12730791  0.12291258  0.37445128  1
  Co  Co99  1  0.37185692  0.62149820  0.11944392  1
  Co  Co100  1  0.49919425  0.00117912  0.25142439  1
  Co  Co101  1  0.24461009  0.49639110  -0.00229870  1
  Co  Co102  1  0.87177022  0.12372144  0.87643557  1
  Co  Co103  1  0.12686058  0.12730224  0.62530756  1
  Co  Co104  1  0.74771682  0.74770517  0.49782772  1
  Co  Co105  1  0.50038917  0.74823957  -0.00015227  1
  Co  Co106  1  0.12574245  0.37621708  0.37238179  1
  Co  Co107  1  0.87760047  0.37631243  0.87653673  1
  Co  Co108  1  0.87611185  0.87294909  0.62273203  1
  Co  Co109  1  0.62534996  0.37825236  0.87521605  1
  Co  Co110  1  0.37744317  0.37581344  0.87830849  1
  Co  Co111  1  0.87292865  0.12785660  0.62411588  1
  Co  Co112  1  0.62608874  0.87369923  0.62577189  1
  Co  Co113  1  0.49718342  0.50023137  0.75040373  1
  Co  Co114  1  0.24926577  -0.00084507  0.00034817  1
  Co  Co115  1  0.62566795  0.37799377  0.37143535  1
  Co  Co116  1  0.75048541  -0.00176892  0.24807842  1
  Co  Co117  1  0.87557680  0.62895111  0.12489891  1
  Co  Co118  1  0.75388219  0.49903476  0.74876779  1
  Co  Co119  1  0.37270708  0.87497362  0.62484328  1
  Co  Co120  1  0.50183234  0.00205802  -0.00159787  1
  Co  Co121  1  0.87632377  0.37044763  0.12670715  1
  Co  Co122  1  0.49698146  0.49989513  0.24679367  1
  Co  Co123  1  0.37942788  0.62531730  0.37966979  1
  Co  Co124  1  0.25162937  0.00021607  0.24997441  1
  Co  Co125  1  -0.00118934  0.00252289  0.74912548  1
  Co  Co126  1  0.50203407  0.49662606  0.50248396  1
  Co  Co127  1  0.00088353  0.24775128  0.49549744  1
