# generated using pymatgen
data_Fe45Co19
_symmetry_space_group_name_H-M   'P 1'
_cell_length_a   11.41454844
_cell_length_b   11.41515851
_cell_length_c   11.41543393
_cell_angle_alpha   90.00940724
_cell_angle_beta   89.98649662
_cell_angle_gamma   90.00341765
_symmetry_Int_Tables_number   1
_chemical_formula_structural   Fe45Co19
_chemical_formula_sum   'Fe90 Co38'
_cell_volume   1487.41818976
_cell_formula_units_Z   2
loop_
 _symmetry_equiv_pos_site_id
 _symmetry_equiv_pos_as_xyz
  1  'x, y, z'
loop_
 _atom_site_type_symbol
 _atom_site_label
 _atom_site_symmetry_multiplicity
 _atom_site_fract_x
 _atom_site_fract_y
 _atom_site_fract_z
 _atom_site_occupancy
  Fe  Fe0  1  0.37642136  0.37501116  0.87406810  1
  Fe  Fe1  1  0.74967265  0.75207633  0.00024515  1
  Fe  Fe2  1  0.37047193  0.87720269  0.62940141  1
  Fe  Fe3  1  0.74748173  -0.00013875  0.24985106  1
  Fe  Fe4  1  0.24996420  -0.00239337  -0.00043659  1
  Fe  Fe5  1  0.25471131  0.25312846  0.50102294  1
  Fe  Fe6  1  0.24738954  0.75259677  -0.00357964  1
  Fe  Fe7  1  0.50001258  0.75139742  0.00060855  1
  Fe  Fe8  1  0.00011807  0.50073885  0.25170245  1
  Fe  Fe9  1  0.00376950  0.00079132  0.74768998  1
  Fe  Fe10  1  0.37521463  0.62311328  0.62509598  1
  Fe  Fe11  1  0.62642952  0.62502662  0.87503311  1
  Fe  Fe12  1  0.87132490  0.62143644  0.37697216  1
  Fe  Fe13  1  0.00094227  0.49896349  0.00007819  1
  Fe  Fe14  1  0.62404737  0.12613753  0.37706666  1
  Fe  Fe15  1  0.62473249  0.63075431  0.37506269  1
  Fe  Fe16  1  0.49838279  0.49894163  0.00166073  1
  Fe  Fe17  1  0.37702422  0.87401163  0.37445958  1
  Fe  Fe18  1  0.12519839  0.37533102  0.37656664  1
  Fe  Fe19  1  -0.00184749  0.24844301  0.49795585  1
  Fe  Fe20  1  0.75122647  0.25039878  0.49686362  1
  Fe  Fe21  1  0.62303160  0.12643340  0.12410070  1
  Fe  Fe22  1  0.87298158  0.62269971  0.62230730  1
  Fe  Fe23  1  0.62283196  0.87138605  0.37445818  1
  Fe  Fe24  1  0.50017392  0.24749195  0.74949082  1
  Fe  Fe25  1  0.37607242  0.62555578  0.37581445  1
  Fe  Fe26  1  0.87521296  0.37759798  0.62149256  1
  Fe  Fe27  1  0.62614038  0.62674608  0.62343037  1
  Fe  Fe28  1  0.00078448  0.24896056  0.74783877  1
  Fe  Fe29  1  0.87397220  0.37643877  0.87400515  1
  Fe  Fe30  1  -0.00161017  0.24989899  0.00090284  1
  Fe  Fe31  1  -0.00041610  0.74851674  0.25093562  1
  Fe  Fe32  1  0.25376653  0.49779089  0.24705076  1
  Fe  Fe33  1  0.87445561  0.62345690  0.87493373  1
  Fe  Fe34  1  0.87431558  0.12469895  0.12631507  1
  Fe  Fe35  1  0.87341806  0.62435359  0.12531338  1
  Fe  Fe36  1  0.12568336  0.87699645  0.37610203  1
  Fe  Fe37  1  0.12664751  0.12389064  0.12541296  1
  Fe  Fe38  1  0.74776585  0.49847792  0.00088517  1
  Fe  Fe39  1  0.74931894  -0.00079203  -0.00002572  1
  Fe  Fe40  1  0.87551939  0.87564479  0.12549589  1
  Fe  Fe41  1  0.87562218  0.87731581  0.37507720  1
  Fe  Fe42  1  0.50003117  0.00240682  0.74862802  1
  Fe  Fe43  1  0.25085229  0.25246180  0.00068777  1
  Fe  Fe44  1  0.62486911  0.87478432  0.62503098  1
  Fe  Fe45  1  0.37538736  0.12318648  0.87562561  1
  Fe  Fe46  1  0.00050981  0.75038384  0.49947063  1
  Fe  Fe47  1  0.37571066  0.87375944  0.12413168  1
  Fe  Fe48  1  0.87567358  0.87653890  0.62488006  1
  Fe  Fe49  1  0.37525220  0.12849846  0.12594317  1
  Fe  Fe50  1  0.62555450  0.62892175  0.12748914  1
  Fe  Fe51  1  0.37362852  0.62529039  0.87672055  1
  Fe  Fe52  1  0.12791108  0.62458474  0.12351453  1
  Fe  Fe53  1  0.25121760  0.75126366  0.24987017  1
  Fe  Fe54  1  -0.00060143  0.24880899  0.25292389  1
  Fe  Fe55  1  0.62366962  0.37324284  0.62613031  1
  Fe  Fe56  1  0.00341924  0.75006880  0.74916104  1
  Fe  Fe57  1  0.25025355  0.24968669  0.74837648  1
  Fe  Fe58  1  0.12353556  0.12437961  0.87772121  1
  Fe  Fe59  1  0.74932079  -0.00091680  0.50040183  1
  Fe  Fe60  1  0.62562858  0.12350462  0.87497662  1
  Fe  Fe61  1  0.87795681  0.87704375  0.87489059  1
  Fe  Fe62  1  0.12596943  0.62575590  0.62417480  1
  Fe  Fe63  1  0.12771061  0.12268993  0.37641444  1
  Fe  Fe64  1  0.00116678  0.49979763  0.74817080  1
  Fe  Fe65  1  0.87320161  0.37468210  0.12919445  1
  Fe  Fe66  1  0.62261905  0.87656074  0.87540892  1
  Fe  Fe67  1  0.50247568  0.50107140  0.75105928  1
  Fe  Fe68  1  0.24818174  0.50004356  0.75039922  1
  Fe  Fe69  1  0.25202546  0.75114628  0.50131019  1
  Fe  Fe70  1  0.49815026  0.00107787  0.50235973  1
  Fe  Fe71  1  0.62430512  0.37291260  0.37210838  1
  Fe  Fe72  1  0.12797561  0.62447259  0.37511358  1
  Fe  Fe73  1  0.75030319  0.75091946  0.75011055  1
  Fe  Fe74  1  0.74959448  0.25077585  0.75078993  1
  Fe  Fe75  1  0.87547495  0.12300136  0.87430366  1
  Fe  Fe76  1  0.12416794  0.37474175  0.87422915  1
  Fe  Fe77  1  0.49806948  0.74945240  0.74908404  1
  Fe  Fe78  1  0.00272970  0.75079360  0.00026851  1
  Fe  Fe79  1  0.62211937  0.37151245  0.12604167  1
  Fe  Fe80  1  0.74913512  0.25069572  -0.00097951  1
  Fe  Fe81  1  0.37510790  0.12790913  0.37453453  1
  Fe  Fe82  1  0.50076588  0.49795987  0.49839243  1
  Fe  Fe83  1  0.12939548  0.12302521  0.62125428  1
  Fe  Fe84  1  0.12537442  0.37490529  0.12551001  1
  Fe  Fe85  1  0.25084493  0.49700465  0.50154970  1
  Fe  Fe86  1  0.49928337  -0.00011666  0.24821823  1
  Fe  Fe87  1  0.49737605  0.50232793  0.24822865  1
  Fe  Fe88  1  0.87199353  0.12276630  0.62462076  1
  Fe  Fe89  1  0.00195704  0.00108117  0.24976470  1
  Co  Co90  1  0.62702642  0.12643791  0.62334357  1
  Co  Co91  1  0.25451587  -0.00111976  0.49709976  1
  Co  Co92  1  0.87510952  0.37825587  0.37466179  1
  Co  Co93  1  0.12479761  0.87510365  0.12726575  1
  Co  Co94  1  0.12428111  0.62244367  0.87658652  1
  Co  Co95  1  0.37385458  0.12447141  0.62468825  1
  Co  Co96  1  0.12370480  0.87686646  0.87345489  1
  Co  Co97  1  0.49791649  0.25109578  0.50131908  1
  Co  Co98  1  0.75041113  0.24862015  0.25129676  1
  Co  Co99  1  0.49680595  0.74966140  0.24816242  1
  Co  Co100  1  0.49658415  0.75141612  0.50394499  1
  Co  Co101  1  0.25161096  0.49590494  0.00033789  1
  Co  Co102  1  0.74878623  -0.00178948  0.75050309  1
  Co  Co103  1  0.12879225  0.87609712  0.62341882  1
  Co  Co104  1  0.00088305  0.00046165  0.00176041  1
  Co  Co105  1  0.75260706  0.75106202  0.25091225  1
  Co  Co106  1  0.37668503  0.87537306  0.87294599  1
  Co  Co107  1  0.74653644  0.50092073  0.24995586  1
  Co  Co108  1  -0.00014352  0.00057827  0.50165312  1
  Co  Co109  1  0.49963391  0.24822837  0.25179018  1
  Co  Co110  1  0.24877539  0.74768868  0.75215442  1
  Co  Co111  1  0.24788684  0.25092285  0.25052741  1
  Co  Co112  1  0.37769003  0.37629352  0.62787729  1
  Co  Co113  1  0.62452484  0.87380022  0.12624873  1
  Co  Co114  1  0.74452353  0.49898652  0.49868028  1
  Co  Co115  1  0.37564527  0.37475580  0.37294479  1
  Co  Co116  1  0.37218024  0.62792826  0.12199725  1
  Co  Co117  1  0.12423991  0.37343982  0.62388586  1
  Co  Co118  1  0.37785806  0.37047420  0.12592712  1
  Co  Co119  1  0.24782105  0.00279355  0.75298968  1
  Co  Co120  1  0.25263898  -0.00067090  0.24982616  1
  Co  Co121  1  0.62431308  0.37556281  0.87436082  1
  Co  Co122  1  0.87415216  0.12158243  0.37427006  1
  Co  Co123  1  0.49989146  0.24924183  -0.00407026  1
  Co  Co124  1  0.49830851  0.00006689  0.00209879  1
  Co  Co125  1  0.75139527  0.75192846  0.50033446  1
  Co  Co126  1  0.00286740  0.50154491  0.49926028  1
  Co  Co127  1  0.74925749  0.50017709  0.74865031  1
