# generated using pymatgen
data_Fe45Co19
_symmetry_space_group_name_H-M   'P 1'
_cell_length_a   11.41498401
_cell_length_b   11.41560840
_cell_length_c   11.41518483
_cell_angle_alpha   89.99533712
_cell_angle_beta   90.00467850
_cell_angle_gamma   89.99852919
_symmetry_Int_Tables_number   1
_chemical_formula_structural   Fe45Co19
_chemical_formula_sum   'Fe90 Co38'
_cell_volume   1487.50116475
_cell_formula_units_Z   2
loop_
 _symmetry_equiv_pos_site_id
 _symmetry_equiv_pos_as_xyz
  1  'x, y, z'
loop_
 _atom_site_type_symbol
 _atom_site_label
 _atom_site_symmetry_multiplicity
 _atom_site_fract_x
 _atom_site_fract_y
 _atom_site_fract_z
 _atom_site_occupancy
  Fe  Fe0  1  0.50057205  -0.00358734  0.24974341  1
  Fe  Fe1  1  0.49800805  0.25161421  0.49863457  1
  Fe  Fe2  1  0.87481211  0.62340727  0.62524151  1
  Fe  Fe3  1  0.62011647  0.37743950  0.87591205  1
  Fe  Fe4  1  -0.00097134  0.49934375  0.49799702  1
  Fe  Fe5  1  0.12417472  0.62653853  0.12652807  1
  Fe  Fe6  1  0.87394058  0.87510407  0.37392106  1
  Fe  Fe7  1  0.25176372  0.24716708  0.24996189  1
  Fe  Fe8  1  0.12696222  0.37428781  0.62560515  1
  Fe  Fe9  1  0.74798272  0.50087720  0.75073432  1
  Fe  Fe10  1  0.87186264  0.37658360  0.36917684  1
  Fe  Fe11  1  0.37518634  0.87605211  0.87533616  1
  Fe  Fe12  1  0.62097222  0.12632130  0.87712291  1
  Fe  Fe13  1  0.49692442  0.75239596  0.49978621  1
  Fe  Fe14  1  0.62524436  0.87418951  0.37631241  1
  Fe  Fe15  1  0.75247283  0.75108065  0.50157891  1
  Fe  Fe16  1  -0.00014896  0.49886041  0.75059670  1
  Fe  Fe17  1  0.62407231  0.12362015  0.12371319  1
  Fe  Fe18  1  0.62558086  0.37511419  0.37236798  1
  Fe  Fe19  1  0.12715126  0.37322896  0.37379530  1
  Fe  Fe20  1  0.49770638  0.49901905  0.50002997  1
  Fe  Fe21  1  0.00109234  0.75046998  0.75017121  1
  Fe  Fe22  1  0.12609136  0.12678189  0.87652077  1
  Fe  Fe23  1  -0.00095037  0.24740402  0.74974049  1
  Fe  Fe24  1  0.24866487  0.49993876  0.25027073  1
  Fe  Fe25  1  0.12330144  0.62802138  0.37325374  1
  Fe  Fe26  1  0.62365172  0.12546077  0.62398087  1
  Fe  Fe27  1  0.25367065  0.25081508  0.49935747  1
  Fe  Fe28  1  -0.00133769  -0.00127557  -0.00280253  1
  Fe  Fe29  1  0.74891926  0.24827274  0.49747771  1
  Fe  Fe30  1  0.74959746  0.74801736  0.24984790  1
  Fe  Fe31  1  0.87825826  0.62543770  0.12755450  1
  Fe  Fe32  1  0.87669627  0.62572167  0.87654974  1
  Fe  Fe33  1  0.87316116  0.37442837  0.62563867  1
  Fe  Fe34  1  0.25187157  0.50069187  0.49823603  1
  Fe  Fe35  1  0.87433315  0.37495929  0.87638535  1
  Fe  Fe36  1  0.49889703  -0.00380733  0.50173705  1
  Fe  Fe37  1  0.75065676  0.24758953  0.75087441  1
  Fe  Fe38  1  0.12407419  0.87435949  0.87511685  1
  Fe  Fe39  1  0.50045851  0.74966857  0.74985954  1
  Fe  Fe40  1  0.25130477  -0.00062883  0.00066720  1
  Fe  Fe41  1  0.50069342  -0.00045879  0.74902505  1
  Fe  Fe42  1  0.00246106  -0.00129795  0.25087305  1
  Fe  Fe43  1  0.12736386  0.37404439  0.87564192  1
  Fe  Fe44  1  0.37774301  0.12137185  0.12215641  1
  Fe  Fe45  1  0.12630447  0.12617136  0.62398529  1
  Fe  Fe46  1  0.37407925  0.62852269  0.37082813  1
  Fe  Fe47  1  -0.00147820  0.75125589  0.50110069  1
  Fe  Fe48  1  0.25094581  -0.00201530  0.50168192  1
  Fe  Fe49  1  0.74950912  0.74884362  0.75051666  1
  Fe  Fe50  1  0.12514103  0.62434885  0.62436494  1
  Fe  Fe51  1  0.74835007  0.25033587  0.00030042  1
  Fe  Fe52  1  0.74893778  0.50220274  0.00237647  1
  Fe  Fe53  1  0.25216383  0.49762416  0.75040889  1
  Fe  Fe54  1  0.25519749  0.24916334  -0.00241897  1
  Fe  Fe55  1  0.49393258  0.25008124  0.75045339  1
  Fe  Fe56  1  0.24906924  0.75100153  0.74811435  1
  Fe  Fe57  1  0.00156630  0.25243577  0.24725168  1
  Fe  Fe58  1  0.87577469  0.87310247  0.12349553  1
  Fe  Fe59  1  0.00148115  0.00078720  0.49936473  1
  Fe  Fe60  1  0.25444413  0.50270826  0.00012250  1
  Fe  Fe61  1  0.75045655  0.50028789  0.49834473  1
  Fe  Fe62  1  0.12490042  0.12518775  0.12412204  1
  Fe  Fe63  1  0.25369816  0.74867471  0.00179814  1
  Fe  Fe64  1  0.50245674  0.50256749  0.24857909  1
  Fe  Fe65  1  -0.00104273  0.24981462  0.49888198  1
  Fe  Fe66  1  0.62488197  0.62724211  0.37631577  1
  Fe  Fe67  1  0.24979801  0.00135913  0.74850326  1
  Fe  Fe68  1  0.37626959  0.12229376  0.37581630  1
  Fe  Fe69  1  0.62158425  0.62521691  0.87899409  1
  Fe  Fe70  1  0.62310351  0.86971309  0.12155383  1
  Fe  Fe71  1  0.50089933  0.24772057  0.24972776  1
  Fe  Fe72  1  0.24967853  -0.00124722  0.24948577  1
  Fe  Fe73  1  0.74987148  -0.00153335  -0.00309761  1
  Fe  Fe74  1  0.62360651  0.37534130  0.62590250  1
  Fe  Fe75  1  0.12573854  0.62484630  0.87552583  1
  Fe  Fe76  1  0.87438884  0.12524554  0.12442809  1
  Fe  Fe77  1  0.00125729  0.49768411  0.00309797  1
  Fe  Fe78  1  0.62544242  0.87154878  0.87674567  1
  Fe  Fe79  1  0.37511358  0.37563915  0.12579542  1
  Fe  Fe80  1  0.62436947  0.62546345  0.62309515  1
  Fe  Fe81  1  0.62600322  0.37606062  0.12600510  1
  Fe  Fe82  1  0.12445646  0.87395167  0.12322873  1
  Fe  Fe83  1  0.74794644  0.00123601  0.50117780  1
  Fe  Fe84  1  0.87488498  0.12452420  0.37291970  1
  Fe  Fe85  1  0.74796527  -0.00010398  0.24938790  1
  Fe  Fe86  1  0.12827495  0.87263135  0.37688080  1
  Fe  Fe87  1  0.37507702  0.62535139  0.62654524  1
  Fe  Fe88  1  -0.00060904  0.25296406  0.00266803  1
  Fe  Fe89  1  0.87445574  0.88058869  0.63106640  1
  Co  Co90  1  0.49920391  0.25118611  0.00201546  1
  Co  Co91  1  0.62180554  0.12226842  0.37608745  1
  Co  Co92  1  0.37780237  0.37783159  0.87612576  1
  Co  Co93  1  0.37579492  0.37553171  0.37108156  1
  Co  Co94  1  0.12352422  0.87582772  0.62495261  1
  Co  Co95  1  0.49305743  0.74801468  -0.00053619  1
  Co  Co96  1  0.13168412  0.37372816  0.12314149  1
  Co  Co97  1  0.25356130  0.24901713  0.75245545  1
  Co  Co98  1  0.37629689  0.87581693  0.12440520  1
  Co  Co99  1  0.87482784  0.12588482  0.87798094  1
  Co  Co100  1  0.86909043  0.37548590  0.12767991  1
  Co  Co101  1  0.00115981  0.75008481  -0.00118629  1
  Co  Co102  1  0.74698799  0.24534186  0.25074926  1
  Co  Co103  1  0.37494053  0.12398479  0.62329407  1
  Co  Co104  1  0.25123160  0.74872774  0.50208443  1
  Co  Co105  1  0.37518554  0.62475989  0.87120008  1
  Co  Co106  1  0.74680597  0.50670850  0.24894844  1
  Co  Co107  1  0.37244481  0.87425489  0.37462714  1
  Co  Co108  1  0.49684366  0.50273064  0.00311792  1
  Co  Co109  1  0.37700626  0.12072610  0.87733176  1
  Co  Co110  1  0.00336894  0.49552743  0.24816458  1
  Co  Co111  1  0.74612478  0.00361048  0.75371228  1
  Co  Co112  1  0.50232340  -0.00269726  -0.00037856  1
  Co  Co113  1  0.37512233  0.87363757  0.62715004  1
  Co  Co114  1  0.24881743  0.75344703  0.24700978  1
  Co  Co115  1  0.00109123  0.75376566  0.25087365  1
  Co  Co116  1  0.75343218  0.74882616  -0.00013494  1
  Co  Co117  1  0.87404566  0.12267760  0.62390018  1
  Co  Co118  1  0.37563096  0.62650015  0.13104546  1
  Co  Co119  1  0.62204776  0.62989301  0.12212299  1
  Co  Co120  1  0.87490505  0.87496424  0.87205642  1
  Co  Co121  1  0.50112265  0.75320771  0.25143312  1
  Co  Co122  1  0.50079802  0.50115641  0.74812536  1
  Co  Co123  1  0.00292424  0.00388944  0.75293764  1
  Co  Co124  1  0.37406183  0.37675521  0.62561953  1
  Co  Co125  1  0.62618026  0.87451736  0.62563195  1
  Co  Co126  1  0.12618528  0.12597265  0.37471946  1
  Co  Co127  1  0.87715659  0.62495273  0.37278274  1
