# generated using pymatgen
data_Fe45Co19
_symmetry_space_group_name_H-M   'P 1'
_cell_length_a   11.41502718
_cell_length_b   11.41502494
_cell_length_c   11.41633428
_cell_angle_alpha   90.00385928
_cell_angle_beta   89.99383486
_cell_angle_gamma   90.00771711
_symmetry_Int_Tables_number   1
_chemical_formula_structural   Fe45Co19
_chemical_formula_sum   'Fe90 Co38'
_cell_volume   1487.58052429
_cell_formula_units_Z   2
loop_
 _symmetry_equiv_pos_site_id
 _symmetry_equiv_pos_as_xyz
  1  'x, y, z'
loop_
 _atom_site_type_symbol
 _atom_site_label
 _atom_site_symmetry_multiplicity
 _atom_site_fract_x
 _atom_site_fract_y
 _atom_site_fract_z
 _atom_site_occupancy
  Fe  Fe0  1  0.24808555  0.74969460  0.25117159  1
  Fe  Fe1  1  0.25129584  0.25108809  0.49985460  1
  Fe  Fe2  1  0.87579851  0.87488827  0.62454464  1
  Fe  Fe3  1  0.87231362  0.37761822  0.62751972  1
  Fe  Fe4  1  0.62594963  0.12666063  0.62643701  1
  Fe  Fe5  1  0.12541879  0.87302806  0.62259509  1
  Fe  Fe6  1  0.25201283  0.75238212  0.75096039  1
  Fe  Fe7  1  0.87789027  0.87426410  0.12358249  1
  Fe  Fe8  1  0.87709725  0.37401992  0.12527213  1
  Fe  Fe9  1  0.62366321  0.87399303  0.62460504  1
  Fe  Fe10  1  0.25013777  0.00000772  0.50035147  1
  Fe  Fe11  1  0.74999300  0.50033966  -0.00081912  1
  Fe  Fe12  1  0.87434133  0.37535312  0.37587982  1
  Fe  Fe13  1  0.74885678  0.74584113  0.49940844  1
  Fe  Fe14  1  0.37268843  0.37161974  0.12483188  1
  Fe  Fe15  1  0.49538497  0.24926464  -0.00046030  1
  Fe  Fe16  1  0.62641401  0.12972908  0.37309834  1
  Fe  Fe17  1  0.75009350  0.74826276  0.75093964  1
  Fe  Fe18  1  0.75115796  0.74966364  0.24916851  1
  Fe  Fe19  1  0.50017621  0.74674069  0.49773609  1
  Fe  Fe20  1  0.75124410  0.74924320  0.00050807  1
  Fe  Fe21  1  0.24869331  0.00682869  0.00332989  1
  Fe  Fe22  1  0.50351009  0.49481314  0.25008422  1
  Fe  Fe23  1  0.75077549  0.00073062  0.24911302  1
  Fe  Fe24  1  0.00312292  0.74976386  0.25082779  1
  Fe  Fe25  1  0.49950809  0.25031112  0.50008354  1
  Fe  Fe26  1  0.74736628  0.49615676  0.24953746  1
  Fe  Fe27  1  0.87629982  0.87560291  0.37645579  1
  Fe  Fe28  1  0.50032325  0.49888348  0.75057890  1
  Fe  Fe29  1  0.12769814  0.12671656  0.62771684  1
  Fe  Fe30  1  0.62443829  0.87270594  0.37318613  1
  Fe  Fe31  1  0.37422230  0.62437660  0.62598490  1
  Fe  Fe32  1  0.24951524  0.74790887  0.49718678  1
  Fe  Fe33  1  -0.00214028  0.24911079  0.50060623  1
  Fe  Fe34  1  0.49942712  0.25136553  0.74961319  1
  Fe  Fe35  1  0.37467616  0.37687104  0.62371516  1
  Fe  Fe36  1  0.87495209  0.62279755  0.62752458  1
  Fe  Fe37  1  0.00411410  0.49891563  0.00111124  1
  Fe  Fe38  1  0.00114811  0.00016018  0.25124261  1
  Fe  Fe39  1  0.62327439  0.12976875  0.12575258  1
  Fe  Fe40  1  0.49495737  0.74925847  0.00126924  1
  Fe  Fe41  1  0.62204385  0.62523824  0.87490833  1
  Fe  Fe42  1  0.37518605  0.12773904  0.37228456  1
  Fe  Fe43  1  0.87595481  0.87550759  0.87560537  1
  Fe  Fe44  1  0.00212840  0.74835597  0.75122618  1
  Fe  Fe45  1  0.00145354  0.50135682  0.50061052  1
  Fe  Fe46  1  0.74845548  0.00004800  0.75114662  1
  Fe  Fe47  1  0.12440507  0.12723235  0.37460796  1
  Fe  Fe48  1  0.24380618  0.49655823  0.24943638  1
  Fe  Fe49  1  0.37295298  0.37513284  0.37528824  1
  Fe  Fe50  1  0.87861693  0.37525196  0.87207309  1
  Fe  Fe51  1  0.62386285  0.12566113  0.87445904  1
  Fe  Fe52  1  0.74958583  0.00097042  0.49849422  1
  Fe  Fe53  1  0.49719611  0.50042887  0.00135084  1
  Fe  Fe54  1  0.00300291  0.00030693  0.74978700  1
  Fe  Fe55  1  0.37416987  0.87569142  0.37444389  1
  Fe  Fe56  1  0.24912465  0.00275191  0.24783434  1
  Fe  Fe57  1  0.49549479  0.75294860  0.75142082  1
  Fe  Fe58  1  0.49844466  -0.00071148  0.24884868  1
  Fe  Fe59  1  0.37358700  0.12391211  0.62772856  1
  Fe  Fe60  1  0.12503353  0.36758953  0.12213383  1
  Fe  Fe61  1  0.75253373  0.25006746  -0.00041166  1
  Fe  Fe62  1  0.00042258  0.00122424  0.49969813  1
  Fe  Fe63  1  0.62330989  0.87565195  0.87648325  1
  Fe  Fe64  1  0.87678758  0.12643643  0.87253431  1
  Fe  Fe65  1  0.24760712  0.49818738  0.74861461  1
  Fe  Fe66  1  0.87842439  0.12822698  0.12749295  1
  Fe  Fe67  1  0.87859516  0.62371027  0.12541662  1
  Fe  Fe68  1  0.87696589  0.62201427  0.37184435  1
  Fe  Fe69  1  0.25230141  0.74789897  0.00019769  1
  Fe  Fe70  1  0.12537780  0.87428499  0.12360306  1
  Fe  Fe71  1  0.50008262  0.00129522  0.49986555  1
  Fe  Fe72  1  0.37283078  0.62237925  0.12740697  1
  Fe  Fe73  1  0.87369111  0.12474876  0.62690150  1
  Fe  Fe74  1  0.87777836  0.62328510  0.87586467  1
  Fe  Fe75  1  0.50277578  0.50165385  0.49831655  1
  Fe  Fe76  1  0.75088896  0.00097376  0.00160226  1
  Fe  Fe77  1  0.12489151  0.37583938  0.62365345  1
  Fe  Fe78  1  0.62379183  0.62449944  0.12618273  1
  Fe  Fe79  1  0.12634420  0.87634525  0.87714652  1
  Fe  Fe80  1  0.00191792  0.74765638  0.49801557  1
  Fe  Fe81  1  0.00223315  0.00344185  -0.00070159  1
  Fe  Fe82  1  0.37048480  0.37650672  0.87658015  1
  Fe  Fe83  1  0.37354729  0.62117024  0.37246278  1
  Fe  Fe84  1  0.49711210  0.00116524  0.00241269  1
  Fe  Fe85  1  0.12688293  0.62212744  0.87651947  1
  Fe  Fe86  1  0.62333430  0.87352878  0.12510289  1
  Fe  Fe87  1  0.62496512  0.37450567  0.87718329  1
  Fe  Fe88  1  0.62912896  0.37656716  0.62336071  1
  Fe  Fe89  1  0.37188828  0.12279137  0.86990150  1
  Co  Co90  1  0.75015635  0.25279581  0.24814884  1
  Co  Co91  1  0.37319735  0.62070268  0.87373109  1
  Co  Co92  1  0.50148338  0.25555722  0.25136605  1
  Co  Co93  1  0.00066584  0.74920042  -0.00114589  1
  Co  Co94  1  0.37699000  0.12937280  0.12944254  1
  Co  Co95  1  0.24835189  0.25038082  0.25207996  1
  Co  Co96  1  0.12720828  0.12835156  0.87036957  1
  Co  Co97  1  0.12395987  0.62676078  0.12444634  1
  Co  Co98  1  0.24770433  0.49897644  0.00299712  1
  Co  Co99  1  -0.00055479  0.24886600  -0.00304316  1
  Co  Co100  1  0.00023982  0.25294162  0.25455456  1
  Co  Co101  1  0.25019420  0.50049197  0.50113786  1
  Co  Co102  1  0.62451802  0.37284197  0.11915404  1
  Co  Co103  1  0.12617140  0.37316729  0.87666972  1
  Co  Co104  1  0.37202074  0.87566182  0.12455952  1
  Co  Co105  1  0.12465453  0.62091464  0.37533318  1
  Co  Co106  1  0.12540961  0.87709504  0.37544467  1
  Co  Co107  1  0.24848531  -0.00427839  0.74732155  1
  Co  Co108  1  0.62809796  0.37220942  0.38014630  1
  Co  Co109  1  0.25126885  0.24489448  -0.00050844  1
  Co  Co110  1  0.12056001  0.13014561  0.12754232  1
  Co  Co111  1  0.00406816  0.50045439  0.74989021  1
  Co  Co112  1  0.12749466  0.62588115  0.62444271  1
  Co  Co113  1  0.74877309  0.50085280  0.75356102  1
  Co  Co114  1  0.75322348  0.24839663  0.50106296  1
  Co  Co115  1  0.25074085  0.25479027  0.74837728  1
  Co  Co116  1  0.12506564  0.37425721  0.37998560  1
  Co  Co117  1  0.74984897  0.25121229  0.75145567  1
  Co  Co118  1  0.62491427  0.62491107  0.37025209  1
  Co  Co119  1  0.62342097  0.62430354  0.62855439  1
  Co  Co120  1  0.49633503  0.75032170  0.24910467  1
  Co  Co121  1  0.37351819  0.88027742  0.87858521  1
  Co  Co122  1  0.74934295  0.50445566  0.49862002  1
  Co  Co123  1  0.00085595  0.25118403  0.74731613  1
  Co  Co124  1  0.87485940  0.12510315  0.37297281  1
  Co  Co125  1  0.00487181  0.49640579  0.24820420  1
  Co  Co126  1  0.37505102  0.87501501  0.62065073  1
  Co  Co127  1  0.49953571  -0.00177532  0.74817146  1
