# generated using pymatgen
data_Fe45Co19
_symmetry_space_group_name_H-M   'P 1'
_cell_length_a   11.41644846
_cell_length_b   11.41486401
_cell_length_c   11.41667389
_cell_angle_alpha   89.99583011
_cell_angle_beta   89.99941621
_cell_angle_gamma   89.99556528
_symmetry_Int_Tables_number   1
_chemical_formula_structural   Fe45Co19
_chemical_formula_sum   'Fe90 Co38'
_cell_volume   1487.78904197
_cell_formula_units_Z   2
loop_
 _symmetry_equiv_pos_site_id
 _symmetry_equiv_pos_as_xyz
  1  'x, y, z'
loop_
 _atom_site_type_symbol
 _atom_site_label
 _atom_site_symmetry_multiplicity
 _atom_site_fract_x
 _atom_site_fract_y
 _atom_site_fract_z
 _atom_site_occupancy
  Fe  Fe0  1  0.12161848  0.87656912  0.87665527  1
  Fe  Fe1  1  0.49990554  -0.00054164  0.24805172  1
  Fe  Fe2  1  0.62468091  0.12459935  0.87584492  1
  Fe  Fe3  1  0.87612624  0.87600803  0.37526554  1
  Fe  Fe4  1  0.75208599  0.49912598  0.00180887  1
  Fe  Fe5  1  0.37460031  0.62504616  0.62543469  1
  Fe  Fe6  1  0.12274213  0.36688075  0.62562659  1
  Fe  Fe7  1  0.74923751  0.75140320  0.25003541  1
  Fe  Fe8  1  0.62441955  0.12645231  0.37267472  1
  Fe  Fe9  1  0.75369620  0.75085009  -0.00379855  1
  Fe  Fe10  1  0.37523675  0.12748608  0.12622102  1
  Fe  Fe11  1  0.12293471  0.37373398  0.12746996  1
  Fe  Fe12  1  0.00026978  0.74655343  0.75408364  1
  Fe  Fe13  1  0.24794410  0.00304831  0.75049159  1
  Fe  Fe14  1  0.87812037  0.87377660  0.12240123  1
  Fe  Fe15  1  0.24854410  0.49733902  0.74793018  1
  Fe  Fe16  1  0.75008732  -0.00264503  -0.00069982  1
  Fe  Fe17  1  0.00096605  0.50057681  0.75006791  1
  Fe  Fe18  1  0.25007190  0.49657269  0.50184822  1
  Fe  Fe19  1  0.37566429  0.62621528  0.12459597  1
  Fe  Fe20  1  0.87643385  0.37362984  0.37171736  1
  Fe  Fe21  1  0.87444210  0.62580370  0.37577629  1
  Fe  Fe22  1  0.75087961  0.25255270  0.00120213  1
  Fe  Fe23  1  0.24876847  -0.00030828  0.24678723  1
  Fe  Fe24  1  0.61988333  0.87292760  0.12127915  1
  Fe  Fe25  1  0.74995094  -0.00056983  0.24675735  1
  Fe  Fe26  1  0.37544937  0.87635413  0.62560618  1
  Fe  Fe27  1  0.25076322  0.75214442  0.24771525  1
  Fe  Fe28  1  0.87573843  0.12589719  0.12197067  1
  Fe  Fe29  1  0.74913798  0.25024535  0.49832969  1
  Fe  Fe30  1  0.62512649  0.62464079  0.37753599  1
  Fe  Fe31  1  0.50020773  0.49977991  0.25083158  1
  Fe  Fe32  1  0.25159732  -0.00218351  0.00171371  1
  Fe  Fe33  1  0.62421167  0.62473605  0.62336287  1
  Fe  Fe34  1  0.00095938  0.49856308  0.50003522  1
  Fe  Fe35  1  0.62241932  0.37414737  0.62353947  1
  Fe  Fe36  1  0.25188722  0.25395180  0.00071700  1
  Fe  Fe37  1  0.87471451  0.37397567  0.87286952  1
  Fe  Fe38  1  0.87719572  0.37052982  0.62623599  1
  Fe  Fe39  1  0.24768374  -0.00210705  0.50217448  1
  Fe  Fe40  1  0.00089457  0.01083745  0.75225599  1
  Fe  Fe41  1  0.37505857  0.12645790  0.87426805  1
  Fe  Fe42  1  0.62795967  0.62311074  0.87483361  1
  Fe  Fe43  1  0.62447060  0.87573169  0.37531628  1
  Fe  Fe44  1  0.75006967  0.49967947  0.25026401  1
  Fe  Fe45  1  0.62520734  0.62674699  0.12448003  1
  Fe  Fe46  1  0.62479488  0.12699129  0.12491007  1
  Fe  Fe47  1  0.24684861  0.75398378  0.50171826  1
  Fe  Fe48  1  0.49974784  0.75087315  0.49934428  1
  Fe  Fe49  1  0.12455658  0.12751867  0.12134092  1
  Fe  Fe50  1  0.50106797  0.49765578  0.75192011  1
  Fe  Fe51  1  0.62269785  0.12399503  0.62540306  1
  Fe  Fe52  1  0.75035184  0.49844505  0.50015359  1
  Fe  Fe53  1  0.49905890  0.25270539  -0.00212682  1
  Fe  Fe54  1  0.74895825  -0.00130187  0.50052479  1
  Fe  Fe55  1  0.87730180  0.87717702  0.62751348  1
  Fe  Fe56  1  0.37718430  0.37183097  0.62713665  1
  Fe  Fe57  1  0.25002849  0.49828628  0.00064446  1
  Fe  Fe58  1  0.87404230  0.12363426  0.37524107  1
  Fe  Fe59  1  0.12644610  0.62595326  0.62565095  1
  Fe  Fe60  1  0.50079379  0.75099331  0.75314372  1
  Fe  Fe61  1  0.12262294  0.87284205  0.12179199  1
  Fe  Fe62  1  0.37207897  0.62184200  0.87460121  1
  Fe  Fe63  1  0.75051536  -0.00004913  0.75258278  1
  Fe  Fe64  1  0.00029627  0.74820775  0.24989385  1
  Fe  Fe65  1  0.74972851  0.24825151  0.75029082  1
  Fe  Fe66  1  0.49990774  0.49808819  -0.00194683  1
  Fe  Fe67  1  0.74928790  0.49834146  0.74739682  1
  Fe  Fe68  1  0.37485032  0.12597999  0.37432578  1
  Fe  Fe69  1  0.37391362  0.87642636  0.37350392  1
  Fe  Fe70  1  0.12527649  0.62626665  0.12297601  1
  Fe  Fe71  1  0.24913455  0.75193962  0.75343546  1
  Fe  Fe72  1  0.37664334  0.12634708  0.62535984  1
  Fe  Fe73  1  0.74972636  0.75296257  0.75148290  1
  Fe  Fe74  1  0.37861202  0.87729126  0.87843733  1
  Fe  Fe75  1  0.12393183  0.37173922  0.37345583  1
  Fe  Fe76  1  0.12476585  0.37211932  0.87288724  1
  Fe  Fe77  1  0.87467952  0.62564596  0.62460832  1
  Fe  Fe78  1  0.62311987  0.87668869  0.62484240  1
  Fe  Fe79  1  0.37654920  0.37242725  0.37304998  1
  Fe  Fe80  1  -0.00148854  0.50270521  -0.00112670  1
  Fe  Fe81  1  0.00095820  0.00248752  0.24795334  1
  Fe  Fe82  1  0.87825318  0.37469220  0.12863051  1
  Fe  Fe83  1  0.37361017  0.62555886  0.37646838  1
  Fe  Fe84  1  0.24976416  0.49845922  0.24930998  1
  Fe  Fe85  1  0.12650112  0.12653437  0.37722165  1
  Fe  Fe86  1  0.00208010  0.75226668  0.50074894  1
  Fe  Fe87  1  0.00264291  0.00052874  0.50246298  1
  Fe  Fe88  1  0.62359710  0.37362766  0.12724295  1
  Fe  Fe89  1  0.12682591  0.62511543  0.37592283  1
  Co  Co90  1  0.75244842  0.24869172  0.24914813  1
  Co  Co91  1  -0.00103093  0.25228125  -0.00176666  1
  Co  Co92  1  0.37237597  0.37582973  0.87360116  1
  Co  Co93  1  0.49940734  0.00006509  0.75088270  1
  Co  Co94  1  0.50153395  0.25111534  0.75286687  1
  Co  Co95  1  -0.00278320  0.24884792  0.49846083  1
  Co  Co96  1  0.12462542  0.87653985  0.37198420  1
  Co  Co97  1  0.87189590  0.12494079  0.62234027  1
  Co  Co98  1  0.25345796  0.25168114  0.49943094  1
  Co  Co99  1  0.12758666  0.12964694  0.62129813  1
  Co  Co100  1  -0.00109032  0.24161584  0.75296929  1
  Co  Co101  1  0.50036856  0.75010300  0.25213327  1
  Co  Co102  1  0.49921865  0.25018246  0.24916788  1
  Co  Co103  1  0.87929848  0.87823860  0.87334103  1
  Co  Co104  1  -0.00280090  0.74462116  -0.00389095  1
  Co  Co105  1  0.62847840  0.37538210  0.87597514  1
  Co  Co106  1  0.62190291  0.87736369  0.87812590  1
  Co  Co107  1  0.75020201  0.75197726  0.50167555  1
  Co  Co108  1  0.12893122  0.62255581  0.87527746  1
  Co  Co109  1  0.62514726  0.37407639  0.37314140  1
  Co  Co110  1  0.87081052  0.62050710  0.87203112  1
  Co  Co111  1  0.37860344  0.87354188  0.12389290  1
  Co  Co112  1  0.49897351  0.00480405  0.00117156  1
  Co  Co113  1  0.49973675  0.00008144  0.49877027  1
  Co  Co114  1  0.00006808  0.00231150  -0.00063784  1
  Co  Co115  1  0.12919284  0.12720322  0.88114870  1
  Co  Co116  1  0.25097398  0.75177306  -0.00161137  1
  Co  Co117  1  0.37613938  0.37572394  0.12594866  1
  Co  Co118  1  0.24955780  0.24762958  0.75033378  1
  Co  Co119  1  0.87051228  0.12593750  0.88030748  1
  Co  Co120  1  0.24886874  0.24992708  0.24885969  1
  Co  Co121  1  0.49839528  0.49885600  0.49965852  1
  Co  Co122  1  0.00017779  0.24526158  0.24979520  1
  Co  Co123  1  0.49875484  0.74563108  -0.00382766  1
  Co  Co124  1  0.87343488  0.62552723  0.12693428  1
  Co  Co125  1  0.00134226  0.50299447  0.25043230  1
  Co  Co126  1  0.50071994  0.24953010  0.49933540  1
  Co  Co127  1  0.12223634  0.87660249  0.63138123  1
