# generated using pymatgen
data_Fe45Co19
_symmetry_space_group_name_H-M   'P 1'
_cell_length_a   11.41369205
_cell_length_b   11.41577587
_cell_length_c   11.41420609
_cell_angle_alpha   89.99663563
_cell_angle_beta   90.00822763
_cell_angle_gamma   90.00337882
_symmetry_Int_Tables_number   1
_chemical_formula_structural   Fe45Co19
_chemical_formula_sum   'Fe90 Co38'
_cell_volume   1487.22709070
_cell_formula_units_Z   2
loop_
 _symmetry_equiv_pos_site_id
 _symmetry_equiv_pos_as_xyz
  1  'x, y, z'
loop_
 _atom_site_type_symbol
 _atom_site_label
 _atom_site_symmetry_multiplicity
 _atom_site_fract_x
 _atom_site_fract_y
 _atom_site_fract_z
 _atom_site_occupancy
  Fe  Fe0  1  0.75318980  0.25107835  -0.00155220  1
  Fe  Fe1  1  0.49899341  0.74893231  0.49838609  1
  Fe  Fe2  1  0.37378549  0.87653721  0.37280000  1
  Fe  Fe3  1  0.25147321  0.50041039  0.50858751  1
  Fe  Fe4  1  0.24467270  0.74703272  0.75262950  1
  Fe  Fe5  1  0.36991632  0.62460649  0.37331048  1
  Fe  Fe6  1  0.37520162  0.87451194  0.87725091  1
  Fe  Fe7  1  0.62707008  0.12481966  0.62569582  1
  Fe  Fe8  1  0.87644586  0.12194733  0.37835248  1
  Fe  Fe9  1  0.62501470  0.12480555  0.12454750  1
  Fe  Fe10  1  0.00513465  0.74990883  0.25456424  1
  Fe  Fe11  1  0.87733343  0.62513673  0.87530074  1
  Fe  Fe12  1  0.00060299  0.50189711  0.25261446  1
  Fe  Fe13  1  0.87564184  0.37568840  0.37619064  1
  Fe  Fe14  1  0.87408193  0.87318332  0.37549617  1
  Fe  Fe15  1  0.24573821  0.25210721  -0.00071066  1
  Fe  Fe16  1  0.37271990  0.12616112  0.87543875  1
  Fe  Fe17  1  0.50092905  0.24979804  0.75012006  1
  Fe  Fe18  1  0.87618976  0.62874529  0.12776720  1
  Fe  Fe19  1  0.87903078  0.12513704  0.12347822  1
  Fe  Fe20  1  0.87884529  0.63086510  0.62343155  1
  Fe  Fe21  1  0.75037273  0.50059696  0.74842049  1
  Fe  Fe22  1  0.87724039  0.37441310  0.62485053  1
  Fe  Fe23  1  0.74980735  0.74968547  0.74971099  1
  Fe  Fe24  1  0.62569002  0.37623897  0.87506327  1
  Fe  Fe25  1  0.37360216  0.37565068  0.37861884  1
  Fe  Fe26  1  0.49893404  0.50233460  -0.00052924  1
  Fe  Fe27  1  0.24846667  0.25329149  0.74513920  1
  Fe  Fe28  1  0.49793587  -0.00102458  0.50192447  1
  Fe  Fe29  1  0.00407340  0.75177561  0.49485796  1
  Fe  Fe30  1  0.75296223  -0.00383131  0.24674894  1
  Fe  Fe31  1  0.62470832  0.37590304  0.12603348  1
  Fe  Fe32  1  0.24835944  0.49714455  0.00237913  1
  Fe  Fe33  1  0.37318408  0.87083578  0.62646794  1
  Fe  Fe34  1  0.49947236  0.24858846  -0.00067589  1
  Fe  Fe35  1  0.62735674  0.12403356  0.87421388  1
  Fe  Fe36  1  0.49873416  0.74931589  0.25019798  1
  Fe  Fe37  1  0.12381609  0.37840989  0.87240509  1
  Fe  Fe38  1  0.62187296  0.37760568  0.62324361  1
  Fe  Fe39  1  0.75199649  0.50073142  0.00204596  1
  Fe  Fe40  1  0.25072189  -0.00058677  0.00166710  1
  Fe  Fe41  1  0.25170027  0.00059538  0.24793417  1
  Fe  Fe42  1  0.00388796  0.50492402  0.74660310  1
  Fe  Fe43  1  0.00405144  0.75061659  -0.00300545  1
  Fe  Fe44  1  0.24829981  0.24979629  0.25375953  1
  Fe  Fe45  1  0.62488671  0.87345829  0.62555446  1
  Fe  Fe46  1  0.75150764  -0.00308550  0.74804107  1
  Fe  Fe47  1  0.87811446  0.37290175  0.12614548  1
  Fe  Fe48  1  0.12266904  0.87750668  0.12634711  1
  Fe  Fe49  1  0.62835526  0.62602139  0.37300783  1
  Fe  Fe50  1  0.75244730  -0.00286846  0.00065392  1
  Fe  Fe51  1  0.24978936  -0.00080796  0.74788638  1
  Fe  Fe52  1  0.37240051  0.62587835  0.12679733  1
  Fe  Fe53  1  0.62493183  0.87567335  0.37554156  1
  Fe  Fe54  1  0.49836952  0.50046835  0.25174208  1
  Fe  Fe55  1  0.87717359  0.37614309  0.87319579  1
  Fe  Fe56  1  0.49895430  -0.00090114  0.75099777  1
  Fe  Fe57  1  0.87692326  0.87347840  0.87395159  1
  Fe  Fe58  1  0.00098959  -0.00344890  0.74424502  1
  Fe  Fe59  1  0.37012025  0.62187032  0.87252782  1
  Fe  Fe60  1  0.61956754  0.87368002  0.12087045  1
  Fe  Fe61  1  0.75287326  0.50359610  0.49991376  1
  Fe  Fe62  1  0.12237684  0.12573218  0.12414453  1
  Fe  Fe63  1  0.24887532  0.75039275  0.49663688  1
  Fe  Fe64  1  0.12698086  0.62352590  0.12729267  1
  Fe  Fe65  1  0.00110186  0.49923339  0.00269121  1
  Fe  Fe66  1  0.49901000  0.24746146  0.49857151  1
  Fe  Fe67  1  0.50047692  0.74931618  0.75297268  1
  Fe  Fe68  1  0.75141856  0.24837778  0.25062909  1
  Fe  Fe69  1  0.62573956  0.37601259  0.37555711  1
  Fe  Fe70  1  0.24843628  0.75178760  0.00099776  1
  Fe  Fe71  1  0.49653510  0.00221371  0.24780542  1
  Fe  Fe72  1  0.75139956  0.24974805  0.50121520  1
  Fe  Fe73  1  0.87550109  0.12487813  0.87242532  1
  Fe  Fe74  1  0.37315478  0.12641186  0.62363560  1
  Fe  Fe75  1  0.75001177  0.75070977  0.00207943  1
  Fe  Fe76  1  0.12392137  0.12099275  0.38061725  1
  Fe  Fe77  1  0.62689621  0.62465057  0.87605593  1
  Fe  Fe78  1  0.12444833  0.37892720  0.38002179  1
  Fe  Fe79  1  0.37418776  0.37237017  0.12604856  1
  Fe  Fe80  1  0.00109094  0.24780681  0.74792348  1
  Fe  Fe81  1  0.24965975  -0.00237920  0.50214298  1
  Fe  Fe82  1  0.75240602  -0.00237381  0.50325195  1
  Fe  Fe83  1  0.75217191  0.50190668  0.24935151  1
  Fe  Fe84  1  0.00170525  0.24899201  0.25369019  1
  Fe  Fe85  1  0.49811504  0.24792767  0.25237356  1
  Fe  Fe86  1  0.37335818  0.37753368  0.87086076  1
  Fe  Fe87  1  0.12456935  0.12258707  0.87371795  1
  Fe  Fe88  1  0.62214406  0.62445126  0.62435650  1
  Fe  Fe89  1  0.62602914  0.12226452  0.37467154  1
  Co  Co90  1  -0.00323313  0.50357825  0.49954485  1
  Co  Co91  1  -0.00046455  -0.00045304  -0.00236968  1
  Co  Co92  1  -0.00130247  0.24877214  0.49929943  1
  Co  Co93  1  0.62473242  0.87471209  0.87622851  1
  Co  Co94  1  0.87624455  0.86805392  0.62463615  1
  Co  Co95  1  0.12706917  0.87091755  0.62569178  1
  Co  Co96  1  0.25016656  0.25194261  0.50149070  1
  Co  Co97  1  0.74787449  0.75441465  0.24701232  1
  Co  Co98  1  -0.00235521  0.00021188  0.25117280  1
  Co  Co99  1  0.12285451  0.37365630  0.12765082  1
  Co  Co100  1  0.49746564  0.00344987  -0.00211716  1
  Co  Co101  1  0.37716782  0.87343510  0.12383988  1
  Co  Co102  1  0.24988617  0.49667859  0.24882005  1
  Co  Co103  1  0.49778837  0.74493704  -0.00294558  1
  Co  Co104  1  0.74687521  0.74920434  0.50071551  1
  Co  Co105  1  0.87297112  0.63000660  0.37349352  1
  Co  Co106  1  0.37217690  0.12852849  0.12394960  1
  Co  Co107  1  0.12638506  0.62053866  0.87763010  1
  Co  Co108  1  0.87446720  0.12649438  0.62534921  1
  Co  Co109  1  0.12632239  0.12433549  0.62216754  1
  Co  Co110  1  0.74926009  0.25322712  0.74915593  1
  Co  Co111  1  0.24706527  0.75304132  0.25047891  1
  Co  Co112  1  0.12285657  0.63035093  0.62188241  1
  Co  Co113  1  -0.00104740  -0.00410557  0.50564551  1
  Co  Co114  1  0.12000018  0.37372942  0.62213721  1
  Co  Co115  1  0.62481197  0.62468366  0.12613529  1
  Co  Co116  1  0.00451641  0.75018044  0.75468128  1
  Co  Co117  1  0.37527669  0.62817744  0.62763442  1
  Co  Co118  1  0.88116098  0.87146387  0.12499621  1
  Co  Co119  1  0.49814272  0.50508955  0.49697617  1
  Co  Co120  1  0.00125601  0.25040017  -0.00316239  1
  Co  Co121  1  0.38065691  0.37532573  0.62559062  1
  Co  Co122  1  0.24590747  0.49959760  0.74228064  1
  Co  Co123  1  0.50080817  0.50227393  0.75206098  1
  Co  Co124  1  0.12989896  0.61953300  0.37630591  1
  Co  Co125  1  0.12614497  0.88100588  0.37376384  1
  Co  Co126  1  0.37294214  0.12269080  0.37705393  1
  Co  Co127  1  0.12619652  0.87854196  0.87419039  1
