# generated using pymatgen
data_Fe45Co19
_symmetry_space_group_name_H-M   'P 1'
_cell_length_a   11.41573831
_cell_length_b   11.41490866
_cell_length_c   11.41477206
_cell_angle_alpha   89.99062208
_cell_angle_beta   90.00227376
_cell_angle_gamma   90.00233763
_symmetry_Int_Tables_number   1
_chemical_formula_structural   Fe45Co19
_chemical_formula_sum   'Fe90 Co38'
_cell_volume   1487.45447348
_cell_formula_units_Z   2
loop_
 _symmetry_equiv_pos_site_id
 _symmetry_equiv_pos_as_xyz
  1  'x, y, z'
loop_
 _atom_site_type_symbol
 _atom_site_label
 _atom_site_symmetry_multiplicity
 _atom_site_fract_x
 _atom_site_fract_y
 _atom_site_fract_z
 _atom_site_occupancy
  Fe  Fe0  1  0.50006359  0.75085859  0.49797296  1
  Fe  Fe1  1  -0.00014489  0.24998680  0.75107624  1
  Fe  Fe2  1  0.37460565  0.87785231  0.37655497  1
  Fe  Fe3  1  -0.00171847  -0.00182513  0.50232153  1
  Fe  Fe4  1  0.74760568  0.75026799  0.75320998  1
  Fe  Fe5  1  0.00132698  0.00067703  0.24780991  1
  Fe  Fe6  1  0.24686994  0.25282459  0.50204828  1
  Fe  Fe7  1  -0.00561331  0.50244368  0.00192058  1
  Fe  Fe8  1  0.25481968  0.50533611  0.00215287  1
  Fe  Fe9  1  0.12227574  0.12628218  0.37632041  1
  Fe  Fe10  1  0.87701109  0.37179937  0.37081825  1
  Fe  Fe11  1  -0.00264957  0.00098534  0.00099941  1
  Fe  Fe12  1  0.62229589  0.37176059  0.12206150  1
  Fe  Fe13  1  0.24710148  0.24908312  0.24884231  1
  Fe  Fe14  1  0.50023335  0.00059626  0.24661391  1
  Fe  Fe15  1  0.74805406  0.75075162  0.25015861  1
  Fe  Fe16  1  0.00018853  0.74816365  0.25193254  1
  Fe  Fe17  1  0.50004183  0.49858532  0.50057552  1
  Fe  Fe18  1  0.62628727  0.87819573  0.11915441  1
  Fe  Fe19  1  0.12671529  0.87450995  0.37741444  1
  Fe  Fe20  1  0.62544468  0.62361676  0.12342248  1
  Fe  Fe21  1  0.74867925  0.25022561  -0.00032793  1
  Fe  Fe22  1  0.37602119  0.12590124  0.62426230  1
  Fe  Fe23  1  0.24963440  0.00178664  0.24798258  1
  Fe  Fe24  1  0.50058247  0.49773862  0.24930552  1
  Fe  Fe25  1  0.37463301  0.12512851  0.87382330  1
  Fe  Fe26  1  0.62585935  0.62090945  0.87856563  1
  Fe  Fe27  1  0.37610399  0.62374915  0.62707299  1
  Fe  Fe28  1  0.74847675  0.49822648  0.74967719  1
  Fe  Fe29  1  -0.00097951  0.49866968  0.49924396  1
  Fe  Fe30  1  0.62526580  0.62440144  0.62302362  1
  Fe  Fe31  1  0.87326647  0.87372132  0.87507099  1
  Fe  Fe32  1  0.00186677  0.24940552  0.00048759  1
  Fe  Fe33  1  0.12524903  0.12295548  0.87542595  1
  Fe  Fe34  1  0.25412557  0.00074279  0.00276862  1
  Fe  Fe35  1  0.37710488  0.37219207  0.12507584  1
  Fe  Fe36  1  0.75148440  0.49712031  0.24602724  1
  Fe  Fe37  1  0.87432817  0.37171884  0.62721894  1
  Fe  Fe38  1  0.87491853  0.12893064  0.12690930  1
  Fe  Fe39  1  0.62647107  0.62291909  0.37460393  1
  Fe  Fe40  1  0.37437783  0.87363460  0.87575217  1
  Fe  Fe41  1  0.24942352  0.74869333  0.75028116  1
  Fe  Fe42  1  0.62650257  0.37595934  0.37618538  1
  Fe  Fe43  1  0.75095312  -0.00037392  0.75076078  1
  Fe  Fe44  1  0.12675239  0.87578733  0.87810924  1
  Fe  Fe45  1  -0.00218754  0.74698099  -0.00208092  1
  Fe  Fe46  1  0.24954144  0.74829585  0.24930646  1
  Fe  Fe47  1  0.50073152  0.25139431  0.49923900  1
  Fe  Fe48  1  -0.00058022  0.50106001  0.75172872  1
  Fe  Fe49  1  0.24855977  0.25290600  0.74936088  1
  Fe  Fe50  1  0.37615295  0.62396769  0.37346520  1
  Fe  Fe51  1  0.75300575  0.49972200  0.50035454  1
  Fe  Fe52  1  0.24932705  -0.00049849  0.74788184  1
  Fe  Fe53  1  0.12588406  0.37788090  0.87604467  1
  Fe  Fe54  1  0.12656894  0.62443930  0.87560589  1
  Fe  Fe55  1  0.25023670  0.24904002  0.00012505  1
  Fe  Fe56  1  0.87458877  0.12582893  0.87363664  1
  Fe  Fe57  1  0.87291055  0.37511262  0.87545450  1
  Fe  Fe58  1  0.50382504  0.25335289  0.75241484  1
  Fe  Fe59  1  0.25060160  0.50159085  0.24740417  1
  Fe  Fe60  1  0.12423661  0.37716850  0.12381610  1
  Fe  Fe61  1  0.50266470  0.75264370  0.25092376  1
  Fe  Fe62  1  0.87434502  0.87226402  0.12429378  1
  Fe  Fe63  1  0.75133611  0.24914775  0.49925809  1
  Fe  Fe64  1  0.62440575  0.12139738  0.87861761  1
  Fe  Fe65  1  0.87366174  0.87549492  0.37423861  1
  Fe  Fe66  1  0.12502596  0.62342184  0.37606842  1
  Fe  Fe67  1  0.50057188  -0.00149526  0.75027764  1
  Fe  Fe68  1  0.62403863  0.12415427  0.37318123  1
  Fe  Fe69  1  0.75044240  0.00015769  0.50060465  1
  Fe  Fe70  1  0.12486639  0.87136172  0.62243615  1
  Fe  Fe71  1  0.12224814  0.12653237  0.62575327  1
  Fe  Fe72  1  0.24901307  0.49812299  0.50330039  1
  Fe  Fe73  1  0.50236986  0.49708860  0.74960150  1
  Fe  Fe74  1  0.37480381  0.37762518  0.87430874  1
  Fe  Fe75  1  0.87761988  0.12693243  0.37332275  1
  Fe  Fe76  1  0.74880266  0.00175253  0.24719433  1
  Fe  Fe77  1  0.87658536  0.62893889  0.62683400  1
  Fe  Fe78  1  0.50211265  0.75158582  0.75092763  1
  Fe  Fe79  1  0.62630511  0.12649703  0.62601817  1
  Fe  Fe80  1  0.49909424  0.74931577  -0.00073273  1
  Fe  Fe81  1  0.37524343  0.12399144  0.37606011  1
  Fe  Fe82  1  0.37433838  0.87690293  0.62157247  1
  Fe  Fe83  1  0.75065421  0.74985154  0.49735317  1
  Fe  Fe84  1  0.62634118  0.87520904  0.62361028  1
  Fe  Fe85  1  0.12611374  0.87308703  0.12266817  1
  Fe  Fe86  1  -0.00150309  -0.00247287  0.74854142  1
  Fe  Fe87  1  -0.00200677  0.50055548  0.24780540  1
  Fe  Fe88  1  0.37312499  0.37488672  0.37491997  1
  Fe  Fe89  1  0.12301740  0.62665600  0.62476550  1
  Co  Co90  1  -0.00008980  0.25283559  0.50074960  1
  Co  Co91  1  0.50062807  0.25086401  0.25326598  1
  Co  Co92  1  0.87149100  0.62394239  0.87332330  1
  Co  Co93  1  0.87260347  0.87133031  0.62598923  1
  Co  Co94  1  0.74990867  0.74843169  -0.00190948  1
  Co  Co95  1  0.00525094  0.24919611  0.24713171  1
  Co  Co96  1  0.49454209  0.00004992  0.00118847  1
  Co  Co97  1  0.37360666  0.87242231  0.12599945  1
  Co  Co98  1  0.49939500  0.24977759  -0.00424296  1
  Co  Co99  1  0.62309130  0.12572515  0.12226520  1
  Co  Co100  1  0.50262784  0.00051752  0.50094102  1
  Co  Co101  1  -0.00243168  0.74969474  0.49644780  1
  Co  Co102  1  0.37747572  0.12894833  0.12602729  1
  Co  Co103  1  0.87649575  0.36958730  0.12612934  1
  Co  Co104  1  0.87420301  0.12643687  0.62586730  1
  Co  Co105  1  0.37680429  0.37445178  0.62644212  1
  Co  Co106  1  0.87252712  0.62417442  0.37224070  1
  Co  Co107  1  0.75383539  0.49840571  0.00443030  1
  Co  Co108  1  0.25269979  0.74556473  0.00034891  1
  Co  Co109  1  0.62675094  0.37932933  0.87920273  1
  Co  Co110  1  0.75415034  0.00239644  0.00073846  1
  Co  Co111  1  0.25291747  0.74765162  0.49925281  1
  Co  Co112  1  0.74713295  0.25035799  0.75298363  1
  Co  Co113  1  0.12219414  0.37567665  0.62855100  1
  Co  Co114  1  0.12560172  0.12295470  0.12198197  1
  Co  Co115  1  0.12454197  0.37688205  0.37208632  1
  Co  Co116  1  0.12254797  0.62529760  0.12450757  1
  Co  Co117  1  0.49679046  0.50049747  0.00138278  1
  Co  Co118  1  0.62564629  0.87703471  0.37548306  1
  Co  Co119  1  0.62660739  0.37406159  0.62265474  1
  Co  Co120  1  0.37945672  0.62762380  0.12892616  1
  Co  Co121  1  0.00178229  0.75107544  0.75424164  1
  Co  Co122  1  0.24721951  0.00242463  0.50109433  1
  Co  Co123  1  0.87307111  0.62865840  0.12685418  1
  Co  Co124  1  0.37721889  0.62443614  0.87147799  1
  Co  Co125  1  0.74629463  0.24994075  0.25012863  1
  Co  Co126  1  0.62523171  0.87828389  0.87898315  1
  Co  Co127  1  0.24922350  0.50031554  0.74866410  1
