# generated using pymatgen
data_Fe45Co19
_symmetry_space_group_name_H-M   'P 1'
_cell_length_a   11.41377561
_cell_length_b   11.41565310
_cell_length_c   11.41475933
_cell_angle_alpha   90.00051327
_cell_angle_beta   89.99845765
_cell_angle_gamma   90.00465855
_symmetry_Int_Tables_number   1
_chemical_formula_structural   Fe45Co19
_chemical_formula_sum   'Fe90 Co38'
_cell_volume   1487.29408619
_cell_formula_units_Z   2
loop_
 _symmetry_equiv_pos_site_id
 _symmetry_equiv_pos_as_xyz
  1  'x, y, z'
loop_
 _atom_site_type_symbol
 _atom_site_label
 _atom_site_symmetry_multiplicity
 _atom_site_fract_x
 _atom_site_fract_y
 _atom_site_fract_z
 _atom_site_occupancy
  Fe  Fe0  1  0.62407792  0.62673636  0.12623169  1
  Fe  Fe1  1  0.87334969  0.12475053  0.37269397  1
  Fe  Fe2  1  0.87603288  0.87678755  0.87642170  1
  Fe  Fe3  1  0.62766242  0.12366289  0.12449635  1
  Fe  Fe4  1  0.87591359  0.62547499  0.62613437  1
  Fe  Fe5  1  0.62911165  0.37395146  0.12458169  1
  Fe  Fe6  1  0.74934662  0.50173054  0.00060311  1
  Fe  Fe7  1  0.37607538  0.62193640  0.12218809  1
  Fe  Fe8  1  0.12278540  0.12373230  0.12437186  1
  Fe  Fe9  1  0.62760434  0.12573960  0.37317378  1
  Fe  Fe10  1  0.87581182  0.62464558  0.87366328  1
  Fe  Fe11  1  0.49742733  0.25280202  0.75323705  1
  Fe  Fe12  1  -0.00000556  0.75251264  0.75101987  1
  Fe  Fe13  1  0.50116545  0.24904504  0.50018480  1
  Fe  Fe14  1  0.37655495  0.12435574  0.62952229  1
  Fe  Fe15  1  0.87751345  0.62384759  0.12668907  1
  Fe  Fe16  1  0.74636177  -0.00291449  0.75037144  1
  Fe  Fe17  1  0.12329601  0.37364434  0.12254989  1
  Fe  Fe18  1  0.62346584  0.62676308  0.62557758  1
  Fe  Fe19  1  0.00021548  0.49967244  0.49895486  1
  Fe  Fe20  1  0.24558214  0.74529455  0.00122864  1
  Fe  Fe21  1  0.62434335  0.62706637  0.87567601  1
  Fe  Fe22  1  0.13357833  0.87467495  0.37441432  1
  Fe  Fe23  1  0.62405526  0.87485664  0.37589816  1
  Fe  Fe24  1  0.37498636  0.37564548  0.12128102  1
  Fe  Fe25  1  0.87624953  0.12214060  0.62828495  1
  Fe  Fe26  1  0.00000372  0.49751395  0.25114377  1
  Fe  Fe27  1  0.37335361  0.12405024  0.37535662  1
  Fe  Fe28  1  0.49989599  0.75143359  -0.00028331  1
  Fe  Fe29  1  0.50064409  -0.00143593  -0.00530262  1
  Fe  Fe30  1  0.74982661  0.75005368  0.49948602  1
  Fe  Fe31  1  0.75185078  0.75014948  0.00074925  1
  Fe  Fe32  1  0.87108054  0.37314685  0.37418545  1
  Fe  Fe33  1  0.00266374  -0.00162660  0.25095500  1
  Fe  Fe34  1  0.12658987  0.37259352  0.37608382  1
  Fe  Fe35  1  0.87446876  0.87492594  0.62368155  1
  Fe  Fe36  1  0.75057273  0.00307102  -0.00080362  1
  Fe  Fe37  1  0.50120692  0.75521888  0.75275658  1
  Fe  Fe38  1  0.12788036  0.87474668  0.62390172  1
  Fe  Fe39  1  0.25081384  0.24960594  0.50433700  1
  Fe  Fe40  1  0.62847244  0.37389407  0.87730894  1
  Fe  Fe41  1  0.00087198  0.50202224  -0.00155832  1
  Fe  Fe42  1  0.00279069  0.75092367  0.49978188  1
  Fe  Fe43  1  0.37308516  0.87671464  0.62519690  1
  Fe  Fe44  1  0.75039758  0.00022896  0.49921167  1
  Fe  Fe45  1  0.37660066  0.62453673  0.62815256  1
  Fe  Fe46  1  0.74898436  0.75305593  0.24899967  1
  Fe  Fe47  1  0.87487062  0.62778327  0.37286012  1
  Fe  Fe48  1  0.25259402  0.49618181  0.75205910  1
  Fe  Fe49  1  0.25031952  0.00138955  0.75431138  1
  Fe  Fe50  1  0.12783129  0.62666013  0.37297751  1
  Fe  Fe51  1  0.50180931  0.49947700  0.24993122  1
  Fe  Fe52  1  0.87641401  0.87768550  0.12456722  1
  Fe  Fe53  1  0.25000586  0.24622331  -0.00236365  1
  Fe  Fe54  1  0.37026663  0.87821489  0.12120225  1
  Fe  Fe55  1  0.87258964  0.37726220  0.62547498  1
  Fe  Fe56  1  0.50167294  0.50015625  0.49832451  1
  Fe  Fe57  1  0.00421903  0.75308695  0.24707201  1
  Fe  Fe58  1  0.12649901  0.12638940  0.37548264  1
  Fe  Fe59  1  0.49829571  -0.00156958  0.24996252  1
  Fe  Fe60  1  0.24977333  0.74943517  0.75239762  1
  Fe  Fe61  1  0.49714190  0.75170813  0.49930604  1
  Fe  Fe62  1  -0.00936494  0.24674885  -0.00109246  1
  Fe  Fe63  1  0.75343266  0.24991865  0.75320360  1
  Fe  Fe64  1  0.74919193  0.75078512  0.74994761  1
  Fe  Fe65  1  -0.00231823  0.25029506  0.50280426  1
  Fe  Fe66  1  0.12439923  0.62380067  0.62748627  1
  Fe  Fe67  1  0.37607846  0.12360647  0.12169582  1
  Fe  Fe68  1  0.25025069  0.50031734  0.50225782  1
  Fe  Fe69  1  0.62559004  0.37414949  0.62552386  1
  Fe  Fe70  1  0.12313143  0.12759669  0.62887002  1
  Fe  Fe71  1  -0.00052572  0.49752221  0.75017304  1
  Fe  Fe72  1  0.12342960  0.37176657  0.87384415  1
  Fe  Fe73  1  0.24978015  0.49900957  0.24805060  1
  Fe  Fe74  1  0.49971755  0.49824169  0.75424835  1
  Fe  Fe75  1  0.37366835  0.62663008  0.37367120  1
  Fe  Fe76  1  0.11922266  0.12629319  0.87199885  1
  Fe  Fe77  1  0.62826276  0.37251244  0.37393250  1
  Fe  Fe78  1  0.74796618  0.50272262  0.49916948  1
  Fe  Fe79  1  0.49684321  0.75357483  0.24901620  1
  Fe  Fe80  1  0.37425471  0.37334540  0.37569486  1
  Fe  Fe81  1  -0.00248625  0.25086616  0.24792129  1
  Fe  Fe82  1  0.49909508  -0.00025624  0.50106672  1
  Fe  Fe83  1  0.24774855  0.50213509  -0.00282745  1
  Fe  Fe84  1  0.12319518  0.87546580  0.88017869  1
  Fe  Fe85  1  0.50211607  0.25037920  -0.00058579  1
  Fe  Fe86  1  0.00162252  -0.00142416  0.49961123  1
  Fe  Fe87  1  0.62342283  0.12421747  0.62903562  1
  Fe  Fe88  1  0.49975011  0.24954856  0.24862286  1
  Fe  Fe89  1  0.25131523  0.24844714  0.24701184  1
  Co  Co90  1  0.12702105  0.87860850  0.12157409  1
  Co  Co91  1  0.87588098  0.87411545  0.37485987  1
  Co  Co92  1  0.75125760  0.24962670  0.24584124  1
  Co  Co93  1  0.62557471  0.87483508  0.62191000  1
  Co  Co94  1  0.87733640  0.11893315  0.86895001  1
  Co  Co95  1  0.62497919  0.87634664  0.12307181  1
  Co  Co96  1  0.75025430  0.24762471  0.50325435  1
  Co  Co97  1  0.12459370  0.37459541  0.62581716  1
  Co  Co98  1  0.87390029  0.37905010  0.87627461  1
  Co  Co99  1  0.37731817  0.37529309  0.62315851  1
  Co  Co100  1  0.24931254  0.00395372  0.50309780  1
  Co  Co101  1  0.62453336  0.62933965  0.37343958  1
  Co  Co102  1  0.49973175  -0.00551281  0.75291702  1
  Co  Co103  1  0.75527141  0.24567942  -0.00175602  1
  Co  Co104  1  0.87355995  0.12051359  0.13010372  1
  Co  Co105  1  0.12239403  0.62195498  0.12754956  1
  Co  Co106  1  0.50396844  0.49952457  -0.00060873  1
  Co  Co107  1  0.37694066  0.62549680  0.87559971  1
  Co  Co108  1  -0.00183631  0.00239269  0.00163700  1
  Co  Co109  1  -0.00533560  0.25382139  0.74954911  1
  Co  Co110  1  0.37474391  0.37432574  0.88071194  1
  Co  Co111  1  0.87483565  0.37809297  0.12380771  1
  Co  Co112  1  0.12293122  0.62483547  0.87078082  1
  Co  Co113  1  0.25091538  0.74681075  0.50302941  1
  Co  Co114  1  0.37032270  0.87662985  0.37612655  1
  Co  Co115  1  0.37874404  0.12590418  0.87401844  1
  Co  Co116  1  0.74812819  -0.00361473  0.25133064  1
  Co  Co117  1  0.24802139  0.00547681  -0.00381017  1
  Co  Co118  1  0.62368709  0.12523327  0.87340330  1
  Co  Co119  1  0.74737017  0.50184875  0.74989667  1
  Co  Co120  1  0.62756849  0.87444064  0.87768470  1
  Co  Co121  1  0.25046155  0.00341053  0.24737309  1
  Co  Co122  1  0.25158198  0.74955733  0.24392821  1
  Co  Co123  1  0.74896626  0.50155115  0.25031257  1
  Co  Co124  1  0.00274721  -0.00544731  0.74827863  1
  Co  Co125  1  0.00075743  0.74858567  0.00070494  1
  Co  Co126  1  0.25265138  0.25129522  0.75103311  1
  Co  Co127  1  0.37120073  0.87319229  0.87826216  1
