# generated using pymatgen
data_Fe45Co19
_symmetry_space_group_name_H-M   'P 1'
_cell_length_a   11.41633748
_cell_length_b   11.41561978
_cell_length_c   11.41501527
_cell_angle_alpha   90.01028948
_cell_angle_beta   89.99759437
_cell_angle_gamma   90.00428957
_symmetry_Int_Tables_number   1
_chemical_formula_structural   Fe45Co19
_chemical_formula_sum   'Fe90 Co38'
_cell_volume   1487.65690471
_cell_formula_units_Z   2
loop_
 _symmetry_equiv_pos_site_id
 _symmetry_equiv_pos_as_xyz
  1  'x, y, z'
loop_
 _atom_site_type_symbol
 _atom_site_label
 _atom_site_symmetry_multiplicity
 _atom_site_fract_x
 _atom_site_fract_y
 _atom_site_fract_z
 _atom_site_occupancy
  Fe  Fe0  1  0.50046042  0.00256962  0.50175611  1
  Fe  Fe1  1  0.00481544  0.25002147  0.00293855  1
  Fe  Fe2  1  0.87681332  0.12688228  0.12528092  1
  Fe  Fe3  1  0.12684889  0.38138425  0.12707989  1
  Fe  Fe4  1  0.12476023  0.12364263  0.37312625  1
  Fe  Fe5  1  0.87515779  0.37383867  0.37215121  1
  Fe  Fe6  1  0.87475644  0.62728512  0.12400788  1
  Fe  Fe7  1  0.62315509  0.12350145  0.12622019  1
  Fe  Fe8  1  0.49796372  0.74893180  0.74617985  1
  Fe  Fe9  1  0.24783394  0.24973306  0.24882065  1
  Fe  Fe10  1  0.49831918  0.50271712  0.49945758  1
  Fe  Fe11  1  0.62338152  0.87546674  0.37414457  1
  Fe  Fe12  1  0.75239226  0.74952007  0.74706525  1
  Fe  Fe13  1  0.87649205  0.12798833  0.87667787  1
  Fe  Fe14  1  0.00220035  0.74987124  0.24806493  1
  Fe  Fe15  1  0.62439529  0.87432643  0.87516878  1
  Fe  Fe16  1  0.00146460  0.25097310  0.74772002  1
  Fe  Fe17  1  0.24925515  0.74986974  0.74658256  1
  Fe  Fe18  1  0.12616338  0.87665814  0.37432832  1
  Fe  Fe19  1  0.74775710  0.74862316  0.25041150  1
  Fe  Fe20  1  0.25143470  0.00275896  0.50219265  1
  Fe  Fe21  1  0.87617973  0.62595658  0.37431361  1
  Fe  Fe22  1  0.24938554  0.75032309  0.50176187  1
  Fe  Fe23  1  0.37491752  0.62579558  0.87423470  1
  Fe  Fe24  1  0.87596639  0.37749020  0.62357825  1
  Fe  Fe25  1  0.75048015  -0.00058723  -0.00141031  1
  Fe  Fe26  1  0.62632567  0.38008838  0.62809660  1
  Fe  Fe27  1  0.49986604  0.74666917  0.50323074  1
  Fe  Fe28  1  0.62648895  0.37811403  0.87288277  1
  Fe  Fe29  1  0.12407604  0.37586811  0.87470275  1
  Fe  Fe30  1  0.12275858  0.62745573  0.87459823  1
  Fe  Fe31  1  -0.00253541  -0.00517501  0.75363914  1
  Fe  Fe32  1  0.37244948  0.37109875  0.87761245  1
  Fe  Fe33  1  0.75045832  0.00103153  0.49799300  1
  Fe  Fe34  1  -0.00032712  0.75132985  0.50140740  1
  Fe  Fe35  1  0.12328795  0.62103715  0.62379823  1
  Fe  Fe36  1  0.50109012  0.25074820  0.74944930  1
  Fe  Fe37  1  0.62362880  0.87588035  0.12584258  1
  Fe  Fe38  1  0.37577268  0.87402280  0.37606778  1
  Fe  Fe39  1  0.37342877  0.87339686  0.87597447  1
  Fe  Fe40  1  0.75184484  0.50096241  -0.00200993  1
  Fe  Fe41  1  0.37294130  0.37377528  0.12251156  1
  Fe  Fe42  1  0.49748615  0.00176740  0.74880632  1
  Fe  Fe43  1  0.12393865  0.37659776  0.37332559  1
  Fe  Fe44  1  0.62648868  0.37853391  0.12610102  1
  Fe  Fe45  1  0.12411493  0.87766567  0.62523105  1
  Fe  Fe46  1  -0.00232034  -0.00180482  0.25057960  1
  Fe  Fe47  1  0.75002730  0.50320999  0.49884615  1
  Fe  Fe48  1  0.50459030  0.24837234  0.50185977  1
  Fe  Fe49  1  0.75184550  0.25196875  0.75085364  1
  Fe  Fe50  1  -0.00238591  -0.00120082  0.49742067  1
  Fe  Fe51  1  0.25188572  0.49845230  0.49591013  1
  Fe  Fe52  1  0.25185044  0.49992834  0.75164408  1
  Fe  Fe53  1  0.87494522  0.37387533  0.12648208  1
  Fe  Fe54  1  0.37168921  0.62345745  0.12561940  1
  Fe  Fe55  1  0.62475741  0.62137848  0.12670381  1
  Fe  Fe56  1  0.12782849  0.87711821  0.12390579  1
  Fe  Fe57  1  0.62504083  0.87609495  0.62517817  1
  Fe  Fe58  1  0.12611575  0.12181431  0.87691284  1
  Fe  Fe59  1  0.12451260  0.62298091  0.37329003  1
  Fe  Fe60  1  0.24944145  0.74991345  0.25036956  1
  Fe  Fe61  1  0.74794345  0.25052251  0.00077967  1
  Fe  Fe62  1  0.87234286  0.87228755  0.12323427  1
  Fe  Fe63  1  0.50206076  0.74770527  0.00020212  1
  Fe  Fe64  1  -0.00056983  -0.00466937  -0.00203405  1
  Fe  Fe65  1  0.75002644  0.74842063  0.50160508  1
  Fe  Fe66  1  0.75085553  0.00119558  0.25207814  1
  Fe  Fe67  1  0.24780534  0.74873156  0.00004076  1
  Fe  Fe68  1  0.49794998  0.49930388  -0.00266007  1
  Fe  Fe69  1  0.49533767  0.50022088  0.25368070  1
  Fe  Fe70  1  0.74752492  0.24911438  0.49990042  1
  Fe  Fe71  1  0.62427761  0.12529305  0.87479572  1
  Fe  Fe72  1  0.50274593  0.25046559  0.24984865  1
  Fe  Fe73  1  0.25252573  0.00106967  0.74842632  1
  Fe  Fe74  1  0.87552056  0.12924135  0.37322529  1
  Fe  Fe75  1  0.62454780  0.62201182  0.86987393  1
  Fe  Fe76  1  0.87574542  0.12421189  0.62527159  1
  Fe  Fe77  1  0.00106311  0.50259237  0.00147879  1
  Fe  Fe78  1  0.62623809  0.37743291  0.37325981  1
  Fe  Fe79  1  0.00414402  0.25096443  0.50154022  1
  Fe  Fe80  1  0.24599515  0.24830185  0.74577840  1
  Fe  Fe81  1  -0.00317308  0.50032522  0.75038252  1
  Fe  Fe82  1  0.87741995  0.63113031  0.87695970  1
  Fe  Fe83  1  0.49564373  -0.00024494  0.00241683  1
  Fe  Fe84  1  0.49945797  0.74877447  0.25055547  1
  Fe  Fe85  1  0.37373148  0.12934403  0.87921507  1
  Fe  Fe86  1  0.37266745  0.37307858  0.62254631  1
  Fe  Fe87  1  0.37586072  0.12891734  0.37619150  1
  Fe  Fe88  1  0.75205585  -0.00127498  0.75198709  1
  Fe  Fe89  1  0.25628197  0.00174568  0.24592302  1
  Co  Co90  1  0.12080730  0.11987578  0.62556813  1
  Co  Co91  1  -0.00073809  0.49811465  0.49633227  1
  Co  Co92  1  0.62514307  0.62125986  0.62873499  1
  Co  Co93  1  0.24277634  0.24990137  0.00295425  1
  Co  Co94  1  0.74721201  0.24928879  0.24920003  1
  Co  Co95  1  0.75254432  0.50141103  0.25134250  1
  Co  Co96  1  0.74358674  0.74788158  0.00021460  1
  Co  Co97  1  0.00525220  0.75242782  0.00323291  1
  Co  Co98  1  0.37734151  0.13293542  0.12243091  1
  Co  Co99  1  0.25469330  0.00059556  0.00325931  1
  Co  Co100  1  0.24303747  0.24892327  0.50165398  1
  Co  Co101  1  0.12970638  0.62167657  0.12684742  1
  Co  Co102  1  0.37631736  0.36836704  0.37828363  1
  Co  Co103  1  0.12301088  0.11967382  0.12534275  1
  Co  Co104  1  0.87731520  0.62289657  0.62329818  1
  Co  Co105  1  0.37255970  0.62224044  0.62392880  1
  Co  Co106  1  -0.00221868  0.50162753  0.24922262  1
  Co  Co107  1  0.87497916  0.87709795  0.62348679  1
  Co  Co108  1  0.49385147  0.49765050  0.75026560  1
  Co  Co109  1  0.50551566  0.25290060  -0.00061121  1
  Co  Co110  1  0.00035455  0.75261132  0.74656574  1
  Co  Co111  1  0.37583698  0.12910912  0.62356986  1
  Co  Co112  1  0.25435271  0.49786618  0.25500185  1
  Co  Co113  1  0.87381724  0.87156805  0.37371447  1
  Co  Co114  1  0.62443803  0.62489856  0.37426354  1
  Co  Co115  1  0.25019845  0.50068887  -0.00396885  1
  Co  Co116  1  0.62379065  0.12328293  0.37288649  1
  Co  Co117  1  0.49505078  0.00033585  0.24793634  1
  Co  Co118  1  0.87853848  0.37252238  0.87926606  1
  Co  Co119  1  0.12551318  0.38091442  0.62551795  1
  Co  Co120  1  0.37534491  0.86854544  0.12415783  1
  Co  Co121  1  0.37500288  0.87542609  0.62363250  1
  Co  Co122  1  0.62759936  0.12417491  0.62845526  1
  Co  Co123  1  0.37370787  0.62886958  0.37547704  1
  Co  Co124  1  0.75764124  0.50015382  0.75285824  1
  Co  Co125  1  0.12981045  0.87481612  0.87502750  1
  Co  Co126  1  0.87236935  0.86842580  0.87852013  1
  Co  Co127  1  0.00375541  0.25086179  0.24893593  1
