# generated using pymatgen
data_Fe45Co19
_symmetry_space_group_name_H-M   'P 1'
_cell_length_a   11.41498863
_cell_length_b   11.41405174
_cell_length_c   11.41437180
_cell_angle_alpha   89.99544308
_cell_angle_beta   89.99587035
_cell_angle_gamma   90.00386052
_symmetry_Int_Tables_number   1
_chemical_formula_structural   Fe45Co19
_chemical_formula_sum   'Fe90 Co38'
_cell_volume   1487.19299607
_cell_formula_units_Z   2
loop_
 _symmetry_equiv_pos_site_id
 _symmetry_equiv_pos_as_xyz
  1  'x, y, z'
loop_
 _atom_site_type_symbol
 _atom_site_label
 _atom_site_symmetry_multiplicity
 _atom_site_fract_x
 _atom_site_fract_y
 _atom_site_fract_z
 _atom_site_occupancy
  Fe  Fe0  1  0.75018207  0.75167401  0.00110820  1
  Fe  Fe1  1  -0.00236996  0.00170853  0.74878133  1
  Fe  Fe2  1  0.62712073  0.87782458  0.87736529  1
  Fe  Fe3  1  0.62269945  0.62534176  0.37338938  1
  Fe  Fe4  1  0.00107365  0.24939749  0.00194402  1
  Fe  Fe5  1  0.87210783  0.12314208  0.87769114  1
  Fe  Fe6  1  0.49801340  0.49933186  0.24906392  1
  Fe  Fe7  1  0.25042855  0.00014863  0.74950589  1
  Fe  Fe8  1  0.62653164  0.12508797  0.62681539  1
  Fe  Fe9  1  0.75110643  0.74823716  0.74954651  1
  Fe  Fe10  1  0.87664666  0.37483437  0.62342273  1
  Fe  Fe11  1  0.00057093  0.24639694  0.49479830  1
  Fe  Fe12  1  0.88008632  0.62264178  0.87810029  1
  Fe  Fe13  1  0.37585822  0.62806541  0.37526284  1
  Fe  Fe14  1  0.37391730  0.37465122  0.62417662  1
  Fe  Fe15  1  0.62566362  0.62504050  0.87702392  1
  Fe  Fe16  1  -0.00065633  0.75193222  0.25013765  1
  Fe  Fe17  1  0.62345379  0.87728385  0.37193055  1
  Fe  Fe18  1  -0.00094132  0.24930196  0.75010970  1
  Fe  Fe19  1  0.25019041  0.50065317  0.24918281  1
  Fe  Fe20  1  0.87480284  0.62734882  0.12536024  1
  Fe  Fe21  1  0.74944476  0.49859350  0.25144117  1
  Fe  Fe22  1  0.00224280  0.74808271  0.75173690  1
  Fe  Fe23  1  0.37328811  0.62659008  0.87811032  1
  Fe  Fe24  1  0.12190751  0.37784585  0.87669480  1
  Fe  Fe25  1  0.25087254  0.00219494  0.49714553  1
  Fe  Fe26  1  0.75438974  0.50072974  0.74988100  1
  Fe  Fe27  1  0.50139133  0.00194450  0.75128651  1
  Fe  Fe28  1  0.12690965  0.87885199  0.37035239  1
  Fe  Fe29  1  0.37445971  0.87653443  0.87697056  1
  Fe  Fe30  1  0.49785387  0.49935316  0.75228244  1
  Fe  Fe31  1  0.50178720  0.25017522  0.50071011  1
  Fe  Fe32  1  0.37441554  0.62728495  0.12238806  1
  Fe  Fe33  1  0.25005941  0.50068155  0.49727773  1
  Fe  Fe34  1  0.62528319  0.37496381  0.12604780  1
  Fe  Fe35  1  0.87678755  0.87518223  0.12293712  1
  Fe  Fe36  1  0.12277590  0.11873462  0.13039982  1
  Fe  Fe37  1  0.75048490  0.25279605  0.49583125  1
  Fe  Fe38  1  0.24868073  0.49848872  0.00164837  1
  Fe  Fe39  1  0.24856183  0.75071428  0.49860146  1
  Fe  Fe40  1  0.50069626  0.24782296  0.24896534  1
  Fe  Fe41  1  0.37421886  0.12398603  0.87803838  1
  Fe  Fe42  1  0.24696467  0.24807551  0.00107323  1
  Fe  Fe43  1  0.24752022  0.75018906  0.75163928  1
  Fe  Fe44  1  0.24408496  0.75576203  -0.00083944  1
  Fe  Fe45  1  0.62388132  0.12154565  0.12394140  1
  Fe  Fe46  1  0.62559495  0.12320226  0.37461572  1
  Fe  Fe47  1  0.74711674  0.74786143  0.50044494  1
  Fe  Fe48  1  0.12378828  0.62748070  0.12310061  1
  Fe  Fe49  1  0.74945183  0.24899570  0.00113561  1
  Fe  Fe50  1  0.87589070  0.62524564  0.37410970  1
  Fe  Fe51  1  0.37642889  0.87901246  0.12196182  1
  Fe  Fe52  1  0.87256776  0.87485046  0.37664635  1
  Fe  Fe53  1  0.75184759  0.25044269  0.75093242  1
  Fe  Fe54  1  0.75300511  0.49773793  0.00154769  1
  Fe  Fe55  1  0.37670331  0.87531786  0.62210780  1
  Fe  Fe56  1  0.62597604  0.62714013  0.12501457  1
  Fe  Fe57  1  0.87379286  0.12526650  0.62299482  1
  Fe  Fe58  1  0.87574448  0.87706564  0.87586158  1
  Fe  Fe59  1  0.62663813  0.37483970  0.87517227  1
  Fe  Fe60  1  0.37623425  0.37219430  0.37421649  1
  Fe  Fe61  1  0.00146657  0.49893374  0.24723317  1
  Fe  Fe62  1  0.49965307  0.75253729  0.24764773  1
  Fe  Fe63  1  0.62430942  0.87449868  0.62665369  1
  Fe  Fe64  1  0.00069830  0.50093596  0.49924997  1
  Fe  Fe65  1  0.74985314  0.50075699  0.49839999  1
  Fe  Fe66  1  0.25094130  0.24541354  0.24983254  1
  Fe  Fe67  1  0.12451614  0.37426365  0.37184480  1
  Fe  Fe68  1  0.24921178  0.25058864  0.75097145  1
  Fe  Fe69  1  0.50021557  0.74959523  0.75138242  1
  Fe  Fe70  1  0.00002828  0.00221819  0.49745164  1
  Fe  Fe71  1  0.37699232  0.62587272  0.62365027  1
  Fe  Fe72  1  0.12463679  0.87772995  0.62531519  1
  Fe  Fe73  1  0.50115123  0.24952133  -0.00184608  1
  Fe  Fe74  1  0.24723004  0.24672297  0.49836357  1
  Fe  Fe75  1  0.12412950  0.37327580  0.62432988  1
  Fe  Fe76  1  0.75282886  -0.00001339  0.24607469  1
  Fe  Fe77  1  0.12446552  0.12140554  0.87331983  1
  Fe  Fe78  1  0.87603393  0.87298841  0.62460987  1
  Fe  Fe79  1  0.25082068  0.75252846  0.24861862  1
  Fe  Fe80  1  0.49962757  0.25027202  0.75232944  1
  Fe  Fe81  1  0.74921581  -0.00095334  0.50259502  1
  Fe  Fe82  1  0.37382349  0.37212801  0.12407440  1
  Fe  Fe83  1  0.24902417  0.49943350  0.75151702  1
  Fe  Fe84  1  0.49940995  0.49959307  0.00071348  1
  Fe  Fe85  1  0.87436863  0.36963335  0.12950682  1
  Fe  Fe86  1  0.12465757  0.62442510  0.62513249  1
  Fe  Fe87  1  0.62502875  0.37782383  0.62494996  1
  Fe  Fe88  1  0.00243557  0.74994033  0.49819687  1
  Fe  Fe89  1  0.37491338  0.12517565  0.62408841  1
  Co  Co90  1  0.37647353  0.87333645  0.37762544  1
  Co  Co91  1  0.24594883  -0.00086257  0.00068821  1
  Co  Co92  1  -0.00222876  0.49600357  0.00661731  1
  Co  Co93  1  0.74711035  0.24837074  0.25119359  1
  Co  Co94  1  0.12544279  0.12089367  0.37007512  1
  Co  Co95  1  0.62279279  0.37502431  0.37405414  1
  Co  Co96  1  0.37333910  0.37362448  0.87819603  1
  Co  Co97  1  0.50136892  0.75141075  0.00015135  1
  Co  Co98  1  0.87068156  0.12450088  0.37435859  1
  Co  Co99  1  0.62364018  0.62254786  0.62696371  1
  Co  Co100  1  0.62853984  0.12450619  0.87465473  1
  Co  Co101  1  0.37790085  0.12735691  0.37738838  1
  Co  Co102  1  0.75109768  -0.00021227  0.00348346  1
  Co  Co103  1  0.00022940  0.24751173  0.25324433  1
  Co  Co104  1  0.25849461  0.00175731  0.25135709  1
  Co  Co105  1  0.62383610  0.87585156  0.12540130  1
  Co  Co106  1  0.12472532  0.62617411  0.37163148  1
  Co  Co107  1  0.37558643  0.12464348  0.11968629  1
  Co  Co108  1  0.00253590  0.75381572  -0.00025613  1
  Co  Co109  1  0.12486810  0.12397201  0.62592663  1
  Co  Co110  1  0.12360515  0.88018706  0.13119685  1
  Co  Co111  1  0.49570390  0.00124863  0.25007918  1
  Co  Co112  1  -0.00690905  -0.00065117  0.25263428  1
  Co  Co113  1  0.49830602  0.49943821  0.49851649  1
  Co  Co114  1  0.50358451  0.75070556  0.50028180  1
  Co  Co115  1  0.87695809  0.12724841  0.12509078  1
  Co  Co116  1  0.12664499  0.37211815  0.12739778  1
  Co  Co117  1  0.75127996  -0.00067565  0.74813482  1
  Co  Co118  1  0.00137380  -0.00047556  0.00000902  1
  Co  Co119  1  -0.00079127  0.49965585  0.74800838  1
  Co  Co120  1  0.87658014  0.37359802  0.87643735  1
  Co  Co121  1  0.87670928  0.37594685  0.37221171  1
  Co  Co122  1  0.75053517  0.75190246  0.25030720  1
  Co  Co123  1  0.12313290  0.62130463  0.87893795  1
  Co  Co124  1  0.50153086  0.00086497  0.50048794  1
  Co  Co125  1  0.50184417  0.00030441  -0.00181270  1
  Co  Co126  1  0.87618493  0.62718546  0.62329524  1
  Co  Co127  1  0.12342581  0.87880037  0.87099707  1
