# generated using pymatgen
data_Fe45Co19
_symmetry_space_group_name_H-M   'P 1'
_cell_length_a   11.41521698
_cell_length_b   11.41356493
_cell_length_c   11.41408237
_cell_angle_alpha   89.99825747
_cell_angle_beta   89.99518702
_cell_angle_gamma   89.99474412
_symmetry_Int_Tables_number   1
_chemical_formula_structural   Fe45Co19
_chemical_formula_sum   'Fe90 Co38'
_cell_volume   1487.12160669
_cell_formula_units_Z   2
loop_
 _symmetry_equiv_pos_site_id
 _symmetry_equiv_pos_as_xyz
  1  'x, y, z'
loop_
 _atom_site_type_symbol
 _atom_site_label
 _atom_site_symmetry_multiplicity
 _atom_site_fract_x
 _atom_site_fract_y
 _atom_site_fract_z
 _atom_site_occupancy
  Fe  Fe0  1  0.25107433  0.00143605  0.74766842  1
  Fe  Fe1  1  0.62352371  0.12365399  0.37496463  1
  Fe  Fe2  1  0.74987443  0.75035128  0.49910049  1
  Fe  Fe3  1  0.12649806  0.87364829  0.12537922  1
  Fe  Fe4  1  0.49684631  0.50227544  0.25116885  1
  Fe  Fe5  1  0.62486470  0.12612753  0.12250390  1
  Fe  Fe6  1  0.75119160  0.75059651  -0.00010984  1
  Fe  Fe7  1  0.49708675  0.49916914  0.49858877  1
  Fe  Fe8  1  0.50097976  0.75049481  0.25140933  1
  Fe  Fe9  1  0.12577911  0.37639422  0.37749833  1
  Fe  Fe10  1  0.87499880  0.12799966  0.12467735  1
  Fe  Fe11  1  0.74894334  0.49930854  0.74968366  1
  Fe  Fe12  1  0.75016566  0.74972043  0.25026397  1
  Fe  Fe13  1  0.00291139  0.75094733  0.24832022  1
  Fe  Fe14  1  0.50051897  0.75064475  0.74991823  1
  Fe  Fe15  1  0.49851352  0.50002968  0.00179080  1
  Fe  Fe16  1  0.12618585  0.37656796  0.12599700  1
  Fe  Fe17  1  0.37584854  0.62766404  0.87636516  1
  Fe  Fe18  1  0.62456230  0.62508904  0.87576553  1
  Fe  Fe19  1  0.62431958  0.62632770  0.12521684  1
  Fe  Fe20  1  0.62374901  0.87834965  0.62609188  1
  Fe  Fe21  1  0.62426118  0.37591330  0.37451815  1
  Fe  Fe22  1  0.37006363  0.37543427  0.62724301  1
  Fe  Fe23  1  0.75047743  0.75015091  0.74992090  1
  Fe  Fe24  1  0.62548079  0.37302874  0.12542518  1
  Fe  Fe25  1  0.37309596  0.37470609  0.87327014  1
  Fe  Fe26  1  0.49632453  -0.00410108  0.00141129  1
  Fe  Fe27  1  0.62478524  0.62387503  0.62233482  1
  Fe  Fe28  1  0.12807952  0.12077071  0.37407427  1
  Fe  Fe29  1  0.87686052  0.87581936  0.87490509  1
  Fe  Fe30  1  0.12488978  0.87693934  0.87279984  1
  Fe  Fe31  1  0.62321839  0.37342396  0.87698436  1
  Fe  Fe32  1  0.87550420  0.37394826  0.87358844  1
  Fe  Fe33  1  0.12641108  0.12460837  0.62399870  1
  Fe  Fe34  1  0.37261947  0.12728456  0.12751513  1
  Fe  Fe35  1  0.37297025  0.37326090  0.12684788  1
  Fe  Fe36  1  0.24977006  0.74970144  0.74946595  1
  Fe  Fe37  1  -0.00082914  -0.00070873  0.00272826  1
  Fe  Fe38  1  0.62500957  0.12500334  0.87688681  1
  Fe  Fe39  1  0.00224188  0.24729669  0.75083324  1
  Fe  Fe40  1  0.12439412  0.88057848  0.37526268  1
  Fe  Fe41  1  0.24954616  0.25047888  -0.00110072  1
  Fe  Fe42  1  0.24992572  0.50189787  -0.00054739  1
  Fe  Fe43  1  0.87462418  0.37184992  0.12730867  1
  Fe  Fe44  1  0.37140831  0.63154321  0.12500905  1
  Fe  Fe45  1  0.62419227  0.87593062  0.87490140  1
  Fe  Fe46  1  0.49903212  0.24963319  0.74883367  1
  Fe  Fe47  1  0.87806335  0.62689291  0.12369099  1
  Fe  Fe48  1  0.25271990  -0.00324422  0.00162612  1
  Fe  Fe49  1  0.12689741  0.12553732  0.12436605  1
  Fe  Fe50  1  0.37241382  0.87794187  0.37364163  1
  Fe  Fe51  1  0.25196883  0.50164249  0.25351687  1
  Fe  Fe52  1  0.00277504  0.24907324  0.25102170  1
  Fe  Fe53  1  0.49804928  -0.00120425  0.24785724  1
  Fe  Fe54  1  0.74895099  0.24961937  0.49918295  1
  Fe  Fe55  1  0.49980793  0.24896609  0.25042881  1
  Fe  Fe56  1  0.75173107  0.00115316  0.24790597  1
  Fe  Fe57  1  0.00204710  0.49966056  0.74778314  1
  Fe  Fe58  1  0.12332713  0.62565927  0.87642346  1
  Fe  Fe59  1  0.49756993  0.24846831  0.50016388  1
  Fe  Fe60  1  0.12428985  0.62344868  0.37730325  1
  Fe  Fe61  1  0.00112422  0.24987921  -0.00208530  1
  Fe  Fe62  1  0.87613994  0.87716906  0.62521235  1
  Fe  Fe63  1  0.25277818  0.24811781  0.49907330  1
  Fe  Fe64  1  -0.00040425  0.50015023  -0.00060317  1
  Fe  Fe65  1  -0.00217545  0.49974190  0.25312607  1
  Fe  Fe66  1  0.00124151  0.24973989  0.50020219  1
  Fe  Fe67  1  0.75257422  0.50088894  0.25316773  1
  Fe  Fe68  1  0.74959270  0.24812558  0.75042761  1
  Fe  Fe69  1  0.12786300  0.37409222  0.87207497  1
  Fe  Fe70  1  0.37407238  0.12452075  0.87445470  1
  Fe  Fe71  1  0.49985615  0.49959565  0.74882030  1
  Fe  Fe72  1  -0.00178303  0.00385775  0.74771449  1
  Fe  Fe73  1  0.75182521  -0.00078482  0.00119308  1
  Fe  Fe74  1  0.87598347  0.37300095  0.62404840  1
  Fe  Fe75  1  0.87676016  0.12443628  0.37490778  1
  Fe  Fe76  1  0.87775423  0.87657193  0.37353219  1
  Fe  Fe77  1  0.24853948  0.75360053  0.50011285  1
  Fe  Fe78  1  0.75123150  -0.00014852  0.50074040  1
  Fe  Fe79  1  0.87507664  0.62429319  0.62415173  1
  Fe  Fe80  1  0.62624924  0.87653338  0.37339320  1
  Fe  Fe81  1  0.75096391  0.49868380  0.00001376  1
  Fe  Fe82  1  0.50106677  0.75259406  0.49875758  1
  Fe  Fe83  1  0.75304080  0.50048716  0.49661480  1
  Fe  Fe84  1  0.37690585  0.87873211  0.62572851  1
  Fe  Fe85  1  0.62310962  0.12205949  0.62568465  1
  Fe  Fe86  1  -0.00058246  0.74857969  0.74976543  1
  Fe  Fe87  1  0.37392621  0.62471119  0.62274405  1
  Fe  Fe88  1  0.12653147  0.62232868  0.62231979  1
  Fe  Fe89  1  0.00133450  0.75197544  0.50128599  1
  Co  Co90  1  0.87495033  0.62419892  0.87538415  1
  Co  Co91  1  0.24517345  0.75012008  0.25399009  1
  Co  Co92  1  0.87414918  0.12615401  0.62355453  1
  Co  Co93  1  0.87492537  0.37020497  0.37522006  1
  Co  Co94  1  0.37295010  0.12213637  0.37272302  1
  Co  Co95  1  0.62525555  0.37545954  0.62275999  1
  Co  Co96  1  0.75091120  0.00062855  0.74965934  1
  Co  Co97  1  0.24909590  0.50372126  0.75136273  1
  Co  Co98  1  0.37479624  0.62931924  0.37675596  1
  Co  Co99  1  0.12384640  0.87683563  0.62820574  1
  Co  Co100  1  0.37277853  0.86786054  0.12695944  1
  Co  Co101  1  0.50127067  0.75247581  -0.00041229  1
  Co  Co102  1  0.24588687  0.75099437  -0.00221592  1
  Co  Co103  1  0.62392882  0.62425067  0.37588937  1
  Co  Co104  1  0.49745167  0.25031597  0.00038572  1
  Co  Co105  1  0.37319760  0.87339435  0.87304040  1
  Co  Co106  1  0.12517496  0.62288058  0.12574270  1
  Co  Co107  1  0.62517369  0.87505358  0.12543211  1
  Co  Co108  1  0.12619134  0.12108285  0.87710517  1
  Co  Co109  1  0.25017114  -0.00120355  0.24636338  1
  Co  Co110  1  0.37755520  0.12185135  0.62500507  1
  Co  Co111  1  0.74796938  0.24827812  0.25114450  1
  Co  Co112  1  0.50004980  -0.00025769  0.49694648  1
  Co  Co113  1  0.24999639  -0.00040944  0.50285692  1
  Co  Co114  1  0.00170898  0.75097263  -0.00010000  1
  Co  Co115  1  0.24730675  0.25117946  0.25190841  1
  Co  Co116  1  0.24946338  0.24530383  0.74977851  1
  Co  Co117  1  0.87767940  0.62969452  0.37535033  1
  Co  Co118  1  0.87533752  0.87289351  0.12640262  1
  Co  Co119  1  -0.00235871  0.49862563  0.50027322  1
  Co  Co120  1  0.75108532  0.25128373  -0.00082447  1
  Co  Co121  1  0.00015179  0.00074213  0.50209676  1
  Co  Co122  1  0.50022303  0.00017973  0.75355281  1
  Co  Co123  1  0.37615535  0.37196391  0.37379297  1
  Co  Co124  1  0.00033307  0.00167120  0.24686397  1
  Co  Co125  1  0.12832892  0.37446044  0.62481687  1
  Co  Co126  1  0.87542667  0.12401583  0.87674266  1
  Co  Co127  1  0.25230810  0.49945536  0.49731365  1
