# generated using pymatgen
data_Fe45Co19
_symmetry_space_group_name_H-M   'P 1'
_cell_length_a   11.41453578
_cell_length_b   11.41455700
_cell_length_c   11.41507255
_cell_angle_alpha   90.00618017
_cell_angle_beta   90.00018316
_cell_angle_gamma   90.00193092
_symmetry_Int_Tables_number   1
_chemical_formula_structural   Fe45Co19
_chemical_formula_sum   'Fe90 Co38'
_cell_volume   1487.29113101
_cell_formula_units_Z   2
loop_
 _symmetry_equiv_pos_site_id
 _symmetry_equiv_pos_as_xyz
  1  'x, y, z'
loop_
 _atom_site_type_symbol
 _atom_site_label
 _atom_site_symmetry_multiplicity
 _atom_site_fract_x
 _atom_site_fract_y
 _atom_site_fract_z
 _atom_site_occupancy
  Fe  Fe0  1  0.62844126  0.37702342  0.12448183  1
  Fe  Fe1  1  0.87219225  0.37124373  0.62579031  1
  Fe  Fe2  1  0.12642030  0.87596561  0.87597185  1
  Fe  Fe3  1  0.24395712  0.24496443  0.24737631  1
  Fe  Fe4  1  0.12148925  0.12245295  0.62223152  1
  Fe  Fe5  1  0.74960323  0.49923981  0.49882207  1
  Fe  Fe6  1  0.87433893  0.37367879  0.87664363  1
  Fe  Fe7  1  0.87449894  0.62538622  0.87627404  1
  Fe  Fe8  1  0.87890572  0.12768363  0.12559955  1
  Fe  Fe9  1  0.37520201  0.87474683  0.87434240  1
  Fe  Fe10  1  0.37537408  0.87564231  0.37397301  1
  Fe  Fe11  1  0.74964700  0.24848572  -0.00045089  1
  Fe  Fe12  1  0.24919953  0.24794024  0.49999503  1
  Fe  Fe13  1  -0.00154524  0.24796331  0.74999652  1
  Fe  Fe14  1  0.62744932  0.87452026  0.37538585  1
  Fe  Fe15  1  0.62068571  0.12246496  0.11874388  1
  Fe  Fe16  1  0.62519209  0.88135020  0.62623184  1
  Fe  Fe17  1  0.12297818  0.62850754  0.12453312  1
  Fe  Fe18  1  0.87144991  0.87357239  0.37240938  1
  Fe  Fe19  1  -0.00210608  0.24904646  0.49780502  1
  Fe  Fe20  1  0.25204445  0.49940356  0.50159462  1
  Fe  Fe21  1  0.62609862  0.12423007  0.37379179  1
  Fe  Fe22  1  0.37571272  0.12539745  0.37157636  1
  Fe  Fe23  1  0.00260457  0.25439296  0.00527856  1
  Fe  Fe24  1  -0.00281668  0.75208576  0.49990626  1
  Fe  Fe25  1  0.24969685  0.24759083  0.00349121  1
  Fe  Fe26  1  0.50016874  0.49897117  0.74959438  1
  Fe  Fe27  1  0.74547523  0.74510166  0.00110580  1
  Fe  Fe28  1  0.25187190  0.75110678  0.50074240  1
  Fe  Fe29  1  0.87721408  0.12491895  0.37052461  1
  Fe  Fe30  1  0.25039664  0.50109871  0.74881333  1
  Fe  Fe31  1  -0.00295072  -0.00491099  0.00157791  1
  Fe  Fe32  1  0.37329732  0.37324398  0.87484628  1
  Fe  Fe33  1  0.62833713  0.37064056  0.62495346  1
  Fe  Fe34  1  0.12324385  0.12353331  0.87903512  1
  Fe  Fe35  1  0.12577689  0.37553336  0.37374394  1
  Fe  Fe36  1  0.37365490  0.37258685  0.37246851  1
  Fe  Fe37  1  0.12437676  0.87570481  0.62562221  1
  Fe  Fe38  1  0.12616635  0.87353668  0.12693220  1
  Fe  Fe39  1  0.37776903  0.62629906  0.37638736  1
  Fe  Fe40  1  0.12384468  0.62570256  0.87635623  1
  Fe  Fe41  1  0.37897123  0.12149856  0.62527270  1
  Fe  Fe42  1  0.87079300  0.87397038  0.87637661  1
  Fe  Fe43  1  0.87376803  0.87802747  0.62646994  1
  Fe  Fe44  1  0.12312431  0.62530722  0.62405116  1
  Fe  Fe45  1  0.87003768  0.63073662  0.37344598  1
  Fe  Fe46  1  -0.00248357  0.00123474  0.75190025  1
  Fe  Fe47  1  0.37789860  0.62806267  0.12413128  1
  Fe  Fe48  1  0.50412896  0.25207493  0.24897605  1
  Fe  Fe49  1  0.12577446  0.37508126  0.87555269  1
  Fe  Fe50  1  0.75003734  0.00752007  0.75640324  1
  Fe  Fe51  1  0.74854877  0.74926469  0.74860045  1
  Fe  Fe52  1  0.75097495  0.49982059  0.75070704  1
  Fe  Fe53  1  0.62756964  0.37498122  0.87562892  1
  Fe  Fe54  1  0.74864982  0.50423207  0.24796414  1
  Fe  Fe55  1  0.87432380  0.86815647  0.12604530  1
  Fe  Fe56  1  -0.00160954  0.75025201  0.75092956  1
  Fe  Fe57  1  0.37354142  0.37429730  0.12646979  1
  Fe  Fe58  1  0.62572224  0.62411633  0.62411095  1
  Fe  Fe59  1  -0.00160541  0.50023396  0.74965405  1
  Fe  Fe60  1  0.62629922  0.12505367  0.62417321  1
  Fe  Fe61  1  0.25102685  0.50254409  -0.00018392  1
  Fe  Fe62  1  0.37607304  0.37356490  0.62548220  1
  Fe  Fe63  1  0.25456325  0.00098503  0.00363473  1
  Fe  Fe64  1  0.12530953  0.87858706  0.37215399  1
  Fe  Fe65  1  0.50245884  0.25013146  0.49757619  1
  Fe  Fe66  1  0.37518271  0.87170585  0.12692537  1
  Fe  Fe67  1  0.50009095  -0.00082665  0.24986169  1
  Fe  Fe68  1  -0.00288440  0.49959993  0.24779568  1
  Fe  Fe69  1  0.50244692  0.49945920  0.25238794  1
  Fe  Fe70  1  -0.00338591  0.49881001  0.00381033  1
  Fe  Fe71  1  -0.00477017  0.49913121  0.49768788  1
  Fe  Fe72  1  0.50161690  0.75405749  0.74949061  1
  Fe  Fe73  1  0.25176235  0.74964621  0.74851254  1
  Fe  Fe74  1  0.50234821  0.24628011  0.75409525  1
  Fe  Fe75  1  0.12433031  0.62449855  0.37565109  1
  Fe  Fe76  1  0.62395971  0.87735987  0.11991080  1
  Fe  Fe77  1  0.50145573  0.75275609  0.50294619  1
  Fe  Fe78  1  0.50404461  0.74950657  0.24994963  1
  Fe  Fe79  1  0.50146947  0.49745061  0.49816358  1
  Fe  Fe80  1  0.75156456  0.00183151  0.49873173  1
  Fe  Fe81  1  0.24932410  0.24775447  0.74926022  1
  Fe  Fe82  1  0.50164551  0.49957517  -0.00097362  1
  Fe  Fe83  1  0.37815395  0.62676433  0.87471535  1
  Fe  Fe84  1  0.25132422  0.00065462  0.49852715  1
  Fe  Fe85  1  0.75057791  0.00057828  0.24538883  1
  Fe  Fe86  1  0.12312650  0.37546795  0.62451052  1
  Fe  Fe87  1  0.87056437  0.37005540  0.36818093  1
  Fe  Fe88  1  0.25078365  0.50376684  0.24959954  1
  Fe  Fe89  1  0.25149571  0.00173506  0.75028266  1
  Co  Co90  1  0.50143013  0.00096887  0.49636301  1
  Co  Co91  1  0.75068427  0.24761658  0.49701425  1
  Co  Co92  1  0.37677767  0.87989767  0.62487811  1
  Co  Co93  1  0.62209323  0.12175135  0.88401079  1
  Co  Co94  1  0.75578963  0.00176776  0.00316912  1
  Co  Co95  1  0.50229735  0.00114445  0.75548582  1
  Co  Co96  1  0.00056253  0.75180869  -0.00257286  1
  Co  Co97  1  0.00190656  0.75031657  0.25287751  1
  Co  Co98  1  -0.00324842  -0.00359785  0.24759007  1
  Co  Co99  1  0.74404079  0.75072411  0.24543131  1
  Co  Co100  1  0.74948346  0.75274935  0.50461676  1
  Co  Co101  1  0.75039825  0.50319772  -0.00016879  1
  Co  Co102  1  0.62921362  0.87801834  0.87866930  1
  Co  Co103  1  0.50273861  0.75060152  -0.00196482  1
  Co  Co104  1  0.86923418  0.37292247  0.12797337  1
  Co  Co105  1  0.74527837  0.24408887  0.24629805  1
  Co  Co106  1  0.62388461  0.62474915  0.87161429  1
  Co  Co107  1  0.87458767  0.62452254  0.62443199  1
  Co  Co108  1  0.87618561  0.62926643  0.12548859  1
  Co  Co109  1  0.37499105  0.12670501  0.87705581  1
  Co  Co110  1  0.24958378  0.74830578  0.25176134  1
  Co  Co111  1  0.12080835  0.11886525  0.12339781  1
  Co  Co112  1  0.25042830  0.75007403  -0.00074919  1
  Co  Co113  1  0.62896242  0.37450004  0.37328505  1
  Co  Co114  1  0.88023329  0.12683280  0.88108357  1
  Co  Co115  1  -0.00325221  -0.00266912  0.49938206  1
  Co  Co116  1  0.25198172  0.00237589  0.24746395  1
  Co  Co117  1  0.38031429  0.12726694  0.12691015  1
  Co  Co118  1  0.00538194  0.25243541  0.24750865  1
  Co  Co119  1  0.49309492  -0.00380364  -0.00208964  1
  Co  Co120  1  0.87383353  0.12473535  0.62410871  1
  Co  Co121  1  0.62212260  0.62274207  0.12508900  1
  Co  Co122  1  0.12862869  0.37976545  0.12633247  1
  Co  Co123  1  0.37689260  0.62487693  0.62444428  1
  Co  Co124  1  0.49967524  0.25516782  -0.00014754  1
  Co  Co125  1  0.74976761  0.24472913  0.75579511  1
  Co  Co126  1  0.12129123  0.12116208  0.37520855  1
  Co  Co127  1  0.62644143  0.62801788  0.37751678  1
