# generated using pymatgen
data_Fe45Co19
_symmetry_space_group_name_H-M   'P 1'
_cell_length_a   11.41407820
_cell_length_b   11.41613739
_cell_length_c   11.41496541
_cell_angle_alpha   90.00097912
_cell_angle_beta   89.98881272
_cell_angle_gamma   89.99793210
_symmetry_Int_Tables_number   1
_chemical_formula_structural   Fe45Co19
_chemical_formula_sum   'Fe90 Co38'
_cell_volume   1487.42344109
_cell_formula_units_Z   2
loop_
 _symmetry_equiv_pos_site_id
 _symmetry_equiv_pos_as_xyz
  1  'x, y, z'
loop_
 _atom_site_type_symbol
 _atom_site_label
 _atom_site_symmetry_multiplicity
 _atom_site_fract_x
 _atom_site_fract_y
 _atom_site_fract_z
 _atom_site_occupancy
  Fe  Fe0  1  -0.00400422  0.75083131  0.25404507  1
  Fe  Fe1  1  0.49854975  0.00020635  0.24723610  1
  Fe  Fe2  1  0.25171552  0.50056966  0.24704782  1
  Fe  Fe3  1  0.24929859  0.49854938  0.75052482  1
  Fe  Fe4  1  0.13004818  0.12470305  0.37506771  1
  Fe  Fe5  1  0.87021506  0.12875236  0.87555247  1
  Fe  Fe6  1  0.50069772  0.75011198  -0.00301742  1
  Fe  Fe7  1  0.74887060  0.50002628  0.74738805  1
  Fe  Fe8  1  0.62500067  0.62541816  0.87332276  1
  Fe  Fe9  1  0.12627733  0.87597477  0.87390925  1
  Fe  Fe10  1  0.74866305  0.50114823  0.25009259  1
  Fe  Fe11  1  0.62229704  0.12480107  0.62557274  1
  Fe  Fe12  1  0.12244007  0.87661008  0.62389584  1
  Fe  Fe13  1  0.62768034  0.12467996  0.37189679  1
  Fe  Fe14  1  0.49886559  0.24824807  0.49703307  1
  Fe  Fe15  1  -0.00050125  0.24949317  0.25068796  1
  Fe  Fe16  1  0.12740901  0.62369648  0.87582299  1
  Fe  Fe17  1  0.62331243  0.62320420  0.37842496  1
  Fe  Fe18  1  0.62516401  0.62517444  0.12391345  1
  Fe  Fe19  1  0.12236008  0.37668716  0.12539480  1
  Fe  Fe20  1  0.37421642  0.37643755  0.87812899  1
  Fe  Fe21  1  0.37671585  0.37282791  0.62515477  1
  Fe  Fe22  1  0.62352844  0.37429714  0.37307943  1
  Fe  Fe23  1  0.87801961  0.87507614  0.62155004  1
  Fe  Fe24  1  0.87582767  0.62578214  0.62438340  1
  Fe  Fe25  1  0.00099243  0.24778009  0.49925476  1
  Fe  Fe26  1  0.87158824  0.87391048  0.87705743  1
  Fe  Fe27  1  0.12789441  0.12391881  0.62269239  1
  Fe  Fe28  1  0.74867731  0.25053390  0.50207873  1
  Fe  Fe29  1  0.74891092  0.49867764  0.50240154  1
  Fe  Fe30  1  -0.00288650  -0.00215084  -0.00020778  1
  Fe  Fe31  1  0.74850341  0.74980638  0.49918319  1
  Fe  Fe32  1  0.37098922  0.12538542  0.37306567  1
  Fe  Fe33  1  0.74734221  0.75110451  0.74904899  1
  Fe  Fe34  1  0.49953089  0.24620567  0.75361707  1
  Fe  Fe35  1  0.88009079  0.37405813  0.62788160  1
  Fe  Fe36  1  0.37643558  0.62439462  0.12190927  1
  Fe  Fe37  1  -0.00175500  0.25171294  -0.00055461  1
  Fe  Fe38  1  0.87513767  0.37226416  0.87166610  1
  Fe  Fe39  1  0.12426987  0.87327475  0.12802633  1
  Fe  Fe40  1  0.12460414  0.62439219  0.62517181  1
  Fe  Fe41  1  0.25008067  0.75080224  0.00088008  1
  Fe  Fe42  1  0.87377555  0.62536641  0.87411410  1
  Fe  Fe43  1  0.25047286  0.75217182  0.49974785  1
  Fe  Fe44  1  0.25130961  0.49762536  0.50157744  1
  Fe  Fe45  1  0.62676004  0.87676061  0.12068032  1
  Fe  Fe46  1  -0.00106417  0.00239113  0.75170500  1
  Fe  Fe47  1  0.87332836  0.37425881  0.37387738  1
  Fe  Fe48  1  0.87367569  0.62629832  0.12668379  1
  Fe  Fe49  1  0.00040463  0.74970403  0.75062035  1
  Fe  Fe50  1  0.37251834  0.87522060  0.37076926  1
  Fe  Fe51  1  0.50200595  0.75018200  0.25014883  1
  Fe  Fe52  1  0.37844897  0.87550320  0.62654519  1
  Fe  Fe53  1  0.62156711  0.37423368  0.62555917  1
  Fe  Fe54  1  0.12774635  0.12453406  0.87794186  1
  Fe  Fe55  1  0.49757083  0.00107084  0.49780548  1
  Fe  Fe56  1  0.12596353  0.62453458  0.37503628  1
  Fe  Fe57  1  -0.00058475  0.50096722  0.49920312  1
  Fe  Fe58  1  0.62762815  0.37202523  0.87417414  1
  Fe  Fe59  1  0.75513788  -0.00109323  0.24632798  1
  Fe  Fe60  1  0.37585580  0.87625397  0.87619317  1
  Fe  Fe61  1  0.24766959  0.25118476  0.74956532  1
  Fe  Fe62  1  -0.00052596  0.75047619  -0.00124610  1
  Fe  Fe63  1  0.12272201  0.12405681  0.12524141  1
  Fe  Fe64  1  0.50096904  0.00298696  0.75604309  1
  Fe  Fe65  1  0.24867495  0.25270593  0.00315150  1
  Fe  Fe66  1  0.74991005  0.49822222  0.00004082  1
  Fe  Fe67  1  0.37958723  0.62685566  0.62360658  1
  Fe  Fe68  1  -0.00106297  0.49998363  -0.00180885  1
  Fe  Fe69  1  0.37728903  0.62499173  0.37631191  1
  Fe  Fe70  1  0.75107220  0.24910549  0.24496197  1
  Fe  Fe71  1  -0.00354089  -0.00061167  0.25233849  1
  Fe  Fe72  1  0.50336412  0.24613805  -0.00105873  1
  Fe  Fe73  1  0.62678330  0.87762321  0.37385515  1
  Fe  Fe74  1  0.25183150  0.00081447  0.74939687  1
  Fe  Fe75  1  0.12398258  0.62600935  0.12555832  1
  Fe  Fe76  1  0.37904047  0.37607305  0.12485161  1
  Fe  Fe77  1  0.49995479  0.50196371  0.75109485  1
  Fe  Fe78  1  0.25105018  -0.00246238  0.00424158  1
  Fe  Fe79  1  0.12760780  0.37436697  0.37532156  1
  Fe  Fe80  1  0.25210858  0.74952367  0.75076947  1
  Fe  Fe81  1  0.87487377  0.12549674  0.62485374  1
  Fe  Fe82  1  0.62201464  0.37531563  0.12664743  1
  Fe  Fe83  1  0.37567314  0.37416645  0.37194083  1
  Fe  Fe84  1  0.75088726  0.00144630  0.50072841  1
  Fe  Fe85  1  -0.00126392  0.50053352  0.25190999  1
  Fe  Fe86  1  0.62118824  0.87422491  0.62549180  1
  Fe  Fe87  1  0.12603550  0.87629189  0.37528426  1
  Fe  Fe88  1  0.37561782  0.12498424  0.12481514  1
  Fe  Fe89  1  0.74873950  -0.00096138  0.75018756  1
  Co  Co90  1  0.49980232  0.75442631  0.49628184  1
  Co  Co91  1  0.25101575  0.74707880  0.24999431  1
  Co  Co92  1  0.87347905  0.87083364  0.12356611  1
  Co  Co93  1  0.49980679  0.50253617  0.25044433  1
  Co  Co94  1  0.37368672  0.62219009  0.87760628  1
  Co  Co95  1  0.00133088  0.74825115  0.49854075  1
  Co  Co96  1  0.62519609  0.12186006  0.12575426  1
  Co  Co97  1  0.87647875  0.37766646  0.12685067  1
  Co  Co98  1  0.87248604  0.62410989  0.37535264  1
  Co  Co99  1  0.00128006  0.50230299  0.75210602  1
  Co  Co100  1  0.12395219  0.37511578  0.87530159  1
  Co  Co101  1  0.24747008  0.49868365  0.00289090  1
  Co  Co102  1  0.87825710  0.12511021  0.12416255  1
  Co  Co103  1  0.62626391  0.87625504  0.87830611  1
  Co  Co104  1  0.74913306  0.25082996  0.74507073  1
  Co  Co105  1  0.74914537  0.74693726  -0.00111189  1
  Co  Co106  1  0.74972720  0.25228870  0.00603016  1
  Co  Co107  1  0.00400891  0.24494727  0.75073771  1
  Co  Co108  1  0.49994287  0.24688938  0.25029631  1
  Co  Co109  1  0.25167617  0.25207937  0.50149326  1
  Co  Co110  1  0.37616648  0.12546365  0.62570405  1
  Co  Co111  1  0.87401433  0.87473153  0.37882278  1
  Co  Co112  1  0.24954064  0.25126533  0.24601366  1
  Co  Co113  1  0.87129235  0.12745097  0.37423601  1
  Co  Co114  1  0.37646466  0.87277426  0.12495834  1
  Co  Co115  1  0.75216321  0.00305460  0.00153959  1
  Co  Co116  1  0.49969747  0.49641523  0.49993453  1
  Co  Co117  1  0.24971649  0.00060763  0.24612053  1
  Co  Co118  1  0.74778939  0.75009833  0.25201130  1
  Co  Co119  1  0.50435345  0.49964558  -0.00195057  1
  Co  Co120  1  0.50035291  0.74916293  0.75459956  1
  Co  Co121  1  0.63196141  0.12635557  0.87544319  1
  Co  Co122  1  0.36993215  0.12574761  0.87705974  1
  Co  Co123  1  -0.00029463  0.00392393  0.49715975  1
  Co  Co124  1  0.12158050  0.37566259  0.62491906  1
  Co  Co125  1  0.62114920  0.62703190  0.62292251  1
  Co  Co126  1  0.49924272  0.00370402  -0.00216398  1
  Co  Co127  1  0.25288989  -0.00238079  0.50090757  1
