# generated using pymatgen
data_Fe45Co19
_symmetry_space_group_name_H-M   'P 1'
_cell_length_a   11.41516573
_cell_length_b   11.41507912
_cell_length_c   11.41441156
_cell_angle_alpha   90.00907587
_cell_angle_beta   89.99757474
_cell_angle_gamma   89.99741162
_symmetry_Int_Tables_number   1
_chemical_formula_structural   Fe45Co19
_chemical_formula_sum   'Fe90 Co38'
_cell_volume   1487.35510405
_cell_formula_units_Z   2
loop_
 _symmetry_equiv_pos_site_id
 _symmetry_equiv_pos_as_xyz
  1  'x, y, z'
loop_
 _atom_site_type_symbol
 _atom_site_label
 _atom_site_symmetry_multiplicity
 _atom_site_fract_x
 _atom_site_fract_y
 _atom_site_fract_z
 _atom_site_occupancy
  Fe  Fe0  1  0.87533732  0.87512933  0.87349955  1
  Fe  Fe1  1  0.74985147  -0.00041417  0.74782641  1
  Fe  Fe2  1  0.62321001  0.62162619  0.37513498  1
  Fe  Fe3  1  0.62528396  0.87697963  0.87554538  1
  Fe  Fe4  1  0.00088271  0.75008300  -0.00224559  1
  Fe  Fe5  1  0.24509035  0.75382831  0.74921538  1
  Fe  Fe6  1  0.87433333  0.12457991  0.87332205  1
  Fe  Fe7  1  0.87290305  0.62629985  0.62644652  1
  Fe  Fe8  1  0.74923155  0.75039188  -0.00154837  1
  Fe  Fe9  1  0.00026255  0.74954573  0.49944207  1
  Fe  Fe10  1  0.12574565  0.12510063  0.62189489  1
  Fe  Fe11  1  0.62485486  0.12581246  0.87681567  1
  Fe  Fe12  1  0.49859854  0.00401117  0.74981350  1
  Fe  Fe13  1  0.37423485  0.37508331  0.12653805  1
  Fe  Fe14  1  0.50271255  0.74944205  0.74963620  1
  Fe  Fe15  1  -0.00124074  0.00198532  0.00235774  1
  Fe  Fe16  1  -0.00296711  0.00285703  0.49923190  1
  Fe  Fe17  1  0.87314803  0.37369535  0.62333302  1
  Fe  Fe18  1  0.24957634  0.24842454  0.75060378  1
  Fe  Fe19  1  0.12469227  0.37375504  0.62438206  1
  Fe  Fe20  1  0.37207634  0.12679040  0.12692251  1
  Fe  Fe21  1  0.37493094  0.12698174  0.62608094  1
  Fe  Fe22  1  0.62667385  0.12586727  0.62061269  1
  Fe  Fe23  1  0.75197489  0.24752320  0.49165010  1
  Fe  Fe24  1  0.62819307  0.62344652  0.62628170  1
  Fe  Fe25  1  0.62742373  0.37746329  0.12962525  1
  Fe  Fe26  1  -0.00048329  0.50007262  0.49943308  1
  Fe  Fe27  1  0.50089972  0.25088698  0.25143985  1
  Fe  Fe28  1  0.49795921  -0.00029139  0.00079214  1
  Fe  Fe29  1  0.37776003  0.37956805  0.37635594  1
  Fe  Fe30  1  -0.00388993  0.50489228  0.25258767  1
  Fe  Fe31  1  0.25255414  0.75096793  0.50016444  1
  Fe  Fe32  1  0.00065453  0.49932804  -0.00190791  1
  Fe  Fe33  1  0.25118623  0.00019169  0.00088923  1
  Fe  Fe34  1  0.12474527  0.62555953  0.62373443  1
  Fe  Fe35  1  0.75187644  0.74681086  0.25055152  1
  Fe  Fe36  1  0.49820987  -0.00032167  0.24997850  1
  Fe  Fe37  1  0.12759512  0.87437922  0.37505714  1
  Fe  Fe38  1  0.24998562  0.25262898  -0.00140901  1
  Fe  Fe39  1  0.62573366  0.87490634  0.12505448  1
  Fe  Fe40  1  0.87439658  0.87632179  0.37382303  1
  Fe  Fe41  1  0.74756371  0.75248805  0.50061963  1
  Fe  Fe42  1  0.37343482  0.87724419  0.87152311  1
  Fe  Fe43  1  0.87387101  0.62672794  0.87184068  1
  Fe  Fe44  1  -0.00328562  0.24743438  0.49725468  1
  Fe  Fe45  1  0.62528843  0.62438598  0.12535811  1
  Fe  Fe46  1  0.49981417  0.75037835  -0.00154269  1
  Fe  Fe47  1  0.24718296  0.49815648  0.74991233  1
  Fe  Fe48  1  0.50012352  0.25003558  0.00104768  1
  Fe  Fe49  1  0.75088782  0.24872164  0.00228872  1
  Fe  Fe50  1  0.74987730  0.50066777  -0.00100212  1
  Fe  Fe51  1  0.49844938  0.74801813  0.25094309  1
  Fe  Fe52  1  0.49991045  0.25515105  0.50098979  1
  Fe  Fe53  1  0.00267368  -0.00050412  0.74768580  1
  Fe  Fe54  1  0.24952264  0.74933375  -0.00198306  1
  Fe  Fe55  1  0.87592802  0.87403138  0.62512459  1
  Fe  Fe56  1  0.49632497  -0.00309084  0.50015658  1
  Fe  Fe57  1  0.12241328  0.37512111  0.37437296  1
  Fe  Fe58  1  0.25168372  0.25416238  0.49880431  1
  Fe  Fe59  1  0.37268313  0.87369832  0.12867783  1
  Fe  Fe60  1  0.37555272  0.62366186  0.87241613  1
  Fe  Fe61  1  0.37668842  0.62290526  0.37878985  1
  Fe  Fe62  1  0.24981470  0.50139535  0.25217691  1
  Fe  Fe63  1  -0.00030290  0.24984025  0.00191906  1
  Fe  Fe64  1  0.62280764  0.87597660  0.37585050  1
  Fe  Fe65  1  0.00686925  0.00409661  0.25009771  1
  Fe  Fe66  1  0.12316051  0.37455503  0.12820309  1
  Fe  Fe67  1  0.24895192  0.49808229  -0.00252683  1
  Fe  Fe68  1  0.87371891  0.12564818  0.12995595  1
  Fe  Fe69  1  0.62236943  0.87684224  0.62364894  1
  Fe  Fe70  1  -0.00103267  0.74719444  0.25105145  1
  Fe  Fe71  1  0.74687699  0.00202006  0.25219749  1
  Fe  Fe72  1  -0.00015356  0.49978970  0.74949148  1
  Fe  Fe73  1  0.12679668  0.87320400  0.12620806  1
  Fe  Fe74  1  0.62474638  0.12367766  0.12553353  1
  Fe  Fe75  1  0.50079809  0.50006402  -0.00055845  1
  Fe  Fe76  1  0.12570913  0.12402988  0.87671278  1
  Fe  Fe77  1  0.37833655  0.37235256  0.87189525  1
  Fe  Fe78  1  0.87427428  0.37321649  0.13130812  1
  Fe  Fe79  1  0.87411822  0.87602526  0.12670926  1
  Fe  Fe80  1  0.74828337  0.25136682  0.75032921  1
  Fe  Fe81  1  0.37397034  0.62496940  0.12384299  1
  Fe  Fe82  1  0.37398051  0.12465411  0.37437842  1
  Fe  Fe83  1  0.25370546  -0.00362719  0.50159286  1
  Fe  Fe84  1  0.75120160  0.49761118  0.49606807  1
  Fe  Fe85  1  0.12481944  0.62469515  0.12485128  1
  Fe  Fe86  1  0.87474128  0.37407286  0.87518564  1
  Fe  Fe87  1  0.37462265  0.62367298  0.62480530  1
  Fe  Fe88  1  0.00018408  0.24944114  0.74889920  1
  Fe  Fe89  1  0.50531514  0.49404032  0.74668716  1
  Co  Co90  1  0.12373953  0.37324787  0.87351515  1
  Co  Co91  1  0.62447488  0.37272523  0.87865904  1
  Co  Co92  1  0.50334455  0.25072508  0.74671680  1
  Co  Co93  1  0.37467384  0.12626107  0.87485816  1
  Co  Co94  1  0.00409930  0.24444028  0.25177764  1
  Co  Co95  1  0.61995788  0.12236068  0.37879394  1
  Co  Co96  1  0.74972335  0.49581160  0.75161923  1
  Co  Co97  1  0.12520798  0.62650771  0.37632150  1
  Co  Co98  1  0.37483910  0.87369449  0.37242150  1
  Co  Co99  1  0.49713468  0.50150746  0.24768214  1
  Co  Co100  1  0.87515943  0.12227230  0.37016335  1
  Co  Co101  1  0.12533983  0.62442992  0.87482204  1
  Co  Co102  1  0.37220095  0.37582398  0.62759394  1
  Co  Co103  1  0.87565034  0.62571449  0.12053070  1
  Co  Co104  1  0.62487198  0.62388719  0.87324626  1
  Co  Co105  1  0.50063386  0.74876598  0.50067359  1
  Co  Co106  1  0.74517891  0.24712039  0.25464316  1
  Co  Co107  1  0.75253977  -0.00048940  0.49999740  1
  Co  Co108  1  0.74826375  0.75341879  0.74914684  1
  Co  Co109  1  0.75169203  0.00061053  0.00050134  1
  Co  Co110  1  0.63169197  0.37138329  0.62045426  1
  Co  Co111  1  0.37784869  0.87251060  0.62839861  1
  Co  Co112  1  0.24827046  0.00007969  0.74645065  1
  Co  Co113  1  0.25079349  0.74600657  0.25162832  1
  Co  Co114  1  0.25022383  0.25222213  0.25319184  1
  Co  Co115  1  0.87333451  0.12612605  0.62599792  1
  Co  Co116  1  0.12931015  0.12878723  0.12201823  1
  Co  Co117  1  0.24813789  0.00223730  0.25032375  1
  Co  Co118  1  0.62347923  0.37927626  0.37208603  1
  Co  Co119  1  0.75493410  0.50430954  0.25172138  1
  Co  Co120  1  0.24793433  0.49898414  0.49970629  1
  Co  Co121  1  0.12973776  0.12501362  0.38070375  1
  Co  Co122  1  0.12305400  0.87608851  0.61995955  1
  Co  Co123  1  0.12501515  0.87822672  0.87766961  1
  Co  Co124  1  0.50161866  0.49834677  0.50651943  1
  Co  Co125  1  0.87709229  0.37307017  0.37045708  1
  Co  Co126  1  0.00328288  0.75079433  0.74983809  1
  Co  Co127  1  0.87404518  0.62787525  0.38043612  1
