# generated using pymatgen
data_Fe45Co19
_symmetry_space_group_name_H-M   'P 1'
_cell_length_a   11.41444551
_cell_length_b   11.41545609
_cell_length_c   11.41519536
_cell_angle_alpha   89.99701551
_cell_angle_beta   90.01036038
_cell_angle_gamma   90.00772218
_symmetry_Int_Tables_number   1
_chemical_formula_structural   Fe45Co19
_chemical_formula_sum   'Fe90 Co38'
_cell_volume   1487.41248836
_cell_formula_units_Z   2
loop_
 _symmetry_equiv_pos_site_id
 _symmetry_equiv_pos_as_xyz
  1  'x, y, z'
loop_
 _atom_site_type_symbol
 _atom_site_label
 _atom_site_symmetry_multiplicity
 _atom_site_fract_x
 _atom_site_fract_y
 _atom_site_fract_z
 _atom_site_occupancy
  Fe  Fe0  1  0.24898172  0.24834297  0.50558243  1
  Fe  Fe1  1  0.37434086  0.62469221  0.37450189  1
  Fe  Fe2  1  -0.00044567  0.74979602  0.75048431  1
  Fe  Fe3  1  -0.00059704  0.49979753  0.25295846  1
  Fe  Fe4  1  0.74948977  0.49997472  0.24932649  1
  Fe  Fe5  1  0.25022608  0.74993475  0.24714435  1
  Fe  Fe6  1  0.62636163  0.12915550  0.87664085  1
  Fe  Fe7  1  0.87305170  0.12734667  0.37636302  1
  Fe  Fe8  1  0.12129194  0.62517704  0.62253587  1
  Fe  Fe9  1  0.37377854  0.37425921  0.37519201  1
  Fe  Fe10  1  0.37382511  0.12693101  0.12381400  1
  Fe  Fe11  1  0.62530267  0.37414706  0.12260354  1
  Fe  Fe12  1  0.74839907  -0.00049520  0.74845045  1
  Fe  Fe13  1  0.49926817  0.49738637  0.75284622  1
  Fe  Fe14  1  0.24841539  0.75091898  0.00047006  1
  Fe  Fe15  1  0.12320077  0.87660758  0.62478915  1
  Fe  Fe16  1  -0.00087968  0.00299607  0.25204514  1
  Fe  Fe17  1  0.25125343  0.00168642  0.50152331  1
  Fe  Fe18  1  -0.00343826  0.50190926  0.74890228  1
  Fe  Fe19  1  0.36982778  0.37137401  0.87370789  1
  Fe  Fe20  1  0.62684180  0.62334568  0.87489852  1
  Fe  Fe21  1  0.74703804  0.74852549  0.50280532  1
  Fe  Fe22  1  0.00303270  0.24659610  0.75163098  1
  Fe  Fe23  1  0.87537230  0.87346773  0.62358056  1
  Fe  Fe24  1  0.25024278  0.75046884  0.50191044  1
  Fe  Fe25  1  0.62733308  0.12509841  0.37798142  1
  Fe  Fe26  1  0.62382887  0.87575390  0.37948649  1
  Fe  Fe27  1  0.37635319  0.87496502  0.37567743  1
  Fe  Fe28  1  0.24714844  0.24920064  0.24736682  1
  Fe  Fe29  1  0.00302286  0.24667036  0.25148970  1
  Fe  Fe30  1  0.50376764  0.00074242  0.75104570  1
  Fe  Fe31  1  0.24638942  0.49614355  0.00077287  1
  Fe  Fe32  1  0.12414446  0.87878258  0.12563102  1
  Fe  Fe33  1  0.25001642  0.00032158  0.74819463  1
  Fe  Fe34  1  0.12139507  0.37486365  0.62536199  1
  Fe  Fe35  1  0.49967593  0.25086300  0.74947445  1
  Fe  Fe36  1  0.75385326  0.50011180  0.74890469  1
  Fe  Fe37  1  0.74864912  0.25130128  0.74925021  1
  Fe  Fe38  1  0.00004187  0.75043885  0.25042011  1
  Fe  Fe39  1  0.87545708  0.87598372  0.12580577  1
  Fe  Fe40  1  0.37546218  0.62338016  0.12385043  1
  Fe  Fe41  1  0.37317150  0.62470954  0.87444556  1
  Fe  Fe42  1  0.37057436  0.12951373  0.87364749  1
  Fe  Fe43  1  0.12372876  0.87670412  0.87508453  1
  Fe  Fe44  1  -0.00158343  0.00114189  0.49895472  1
  Fe  Fe45  1  -0.00288900  0.00372714  -0.00190370  1
  Fe  Fe46  1  0.37262393  0.12593422  0.37479469  1
  Fe  Fe47  1  0.50146947  0.49969194  0.25112394  1
  Fe  Fe48  1  0.49938406  0.00192753  -0.00170754  1
  Fe  Fe49  1  0.37372685  0.37461633  0.12640587  1
  Fe  Fe50  1  0.87664248  0.37271077  0.87408336  1
  Fe  Fe51  1  0.49980413  0.49641764  -0.00260318  1
  Fe  Fe52  1  0.50113862  0.24822579  0.50154001  1
  Fe  Fe53  1  0.87418355  0.12833128  0.62334458  1
  Fe  Fe54  1  0.50111610  0.50109678  0.49811149  1
  Fe  Fe55  1  0.74837780  0.74785915  0.24806350  1
  Fe  Fe56  1  0.00344739  0.24780275  -0.00118780  1
  Fe  Fe57  1  0.25213204  -0.00106104  0.00113739  1
  Fe  Fe58  1  0.50175489  0.25022472  0.25007596  1
  Fe  Fe59  1  0.12640587  0.37409920  0.37540913  1
  Fe  Fe60  1  0.74814893  0.74950330  0.74758552  1
  Fe  Fe61  1  0.75197134  0.74732660  0.00205009  1
  Fe  Fe62  1  0.24876542  0.74981609  0.74938020  1
  Fe  Fe63  1  0.12175262  0.62365956  0.87670625  1
  Fe  Fe64  1  0.12748995  0.87764755  0.37393269  1
  Fe  Fe65  1  0.87314156  0.87372725  0.87516417  1
  Fe  Fe66  1  0.12089187  0.62184829  0.12404053  1
  Fe  Fe67  1  0.24929361  0.49946262  0.50083715  1
  Fe  Fe68  1  0.62635716  0.12710887  0.12339233  1
  Fe  Fe69  1  0.12460766  0.62475046  0.37680481  1
  Fe  Fe70  1  0.74848884  0.25108154  0.25053518  1
  Fe  Fe71  1  0.37921787  0.87629732  0.62438476  1
  Fe  Fe72  1  0.49958911  0.00063196  0.25019822  1
  Fe  Fe73  1  0.74981136  0.00039774  0.25068539  1
  Fe  Fe74  1  0.62400974  0.37564437  0.62474113  1
  Fe  Fe75  1  0.50187992  0.74867403  0.24931108  1
  Fe  Fe76  1  -0.00199902  0.00187238  0.75130217  1
  Fe  Fe77  1  0.37678814  0.62352592  0.62599415  1
  Fe  Fe78  1  0.50344616  0.75128301  0.74960259  1
  Fe  Fe79  1  0.24911872  0.49906058  0.74850255  1
  Fe  Fe80  1  0.75152858  0.49782333  0.50226407  1
  Fe  Fe81  1  0.87324703  0.87363774  0.37606023  1
  Fe  Fe82  1  0.75411103  0.49917027  -0.00031570  1
  Fe  Fe83  1  0.50055691  0.74970116  -0.00140053  1
  Fe  Fe84  1  0.62447717  0.87608134  0.12252013  1
  Fe  Fe85  1  0.87799756  0.37237669  0.12598944  1
  Fe  Fe86  1  0.37558256  0.87443179  0.87393394  1
  Fe  Fe87  1  0.87537325  0.62576619  0.37776696  1
  Fe  Fe88  1  0.75225756  0.00364050  -0.00030400  1
  Fe  Fe89  1  0.87511461  0.37281762  0.37713881  1
  Co  Co90  1  0.62275816  0.87787592  0.61999670  1
  Co  Co91  1  0.62748588  0.62409914  0.37515367  1
  Co  Co92  1  0.62402050  0.37519787  0.37575490  1
  Co  Co93  1  0.12284757  0.12291865  0.62539671  1
  Co  Co94  1  0.24821553  0.25143594  0.74477923  1
  Co  Co95  1  0.37600547  0.12394459  0.62840513  1
  Co  Co96  1  0.12368837  0.37571905  0.87097178  1
  Co  Co97  1  0.75314767  0.00072419  0.50111692  1
  Co  Co98  1  -0.00143471  0.49708985  0.49925231  1
  Co  Co99  1  0.00200633  0.75335254  0.49827888  1
  Co  Co100  1  -0.00020968  0.75230485  0.00077697  1
  Co  Co101  1  0.12129140  0.37657494  0.12846451  1
  Co  Co102  1  0.62750320  0.87491677  0.87806723  1
  Co  Co103  1  0.25363910  -0.00009819  0.24896463  1
  Co  Co104  1  0.87760552  0.37049227  0.62597082  1
  Co  Co105  1  0.87767814  0.62745088  0.62152438  1
  Co  Co106  1  0.87806757  0.62414771  0.12643257  1
  Co  Co107  1  0.49864416  0.00490721  0.49907837  1
  Co  Co108  1  0.00155939  0.24924311  0.49847960  1
  Co  Co109  1  0.24470972  0.25335195  0.00242735  1
  Co  Co110  1  0.87592822  0.62739076  0.87556940  1
  Co  Co111  1  0.62400985  0.62223630  0.12309483  1
  Co  Co112  1  0.62340860  0.62097072  0.62680497  1
  Co  Co113  1  0.37682406  0.37636014  0.62357180  1
  Co  Co114  1  0.13007633  0.12338236  0.87426485  1
  Co  Co115  1  0.49835638  0.25184100  -0.00093823  1
  Co  Co116  1  0.24942403  0.50074378  0.25024886  1
  Co  Co117  1  0.87274686  0.12679975  0.87262105  1
  Co  Co118  1  0.50025307  0.74655225  0.50078052  1
  Co  Co119  1  0.87481568  0.12692986  0.12776322  1
  Co  Co120  1  0.74895045  0.25320819  0.50012601  1
  Co  Co121  1  0.62769053  0.37411437  0.87539830  1
  Co  Co122  1  0.75308256  0.25072157  0.00025977  1
  Co  Co123  1  0.12797779  0.12370153  0.37568669  1
  Co  Co124  1  0.62731280  0.12602702  0.62428077  1
  Co  Co125  1  0.37779377  0.87397176  0.12459512  1
  Co  Co126  1  -0.00238757  0.49687220  -0.00131293  1
  Co  Co127  1  0.12556015  0.12112465  0.12484676  1
