# generated using pymatgen
data_Fe45Co19
_symmetry_space_group_name_H-M   'P 1'
_cell_length_a   11.41489128
_cell_length_b   11.41473149
_cell_length_c   11.41552642
_cell_angle_alpha   89.99861350
_cell_angle_beta   90.00675775
_cell_angle_gamma   90.00261069
_symmetry_Int_Tables_number   1
_chemical_formula_structural   Fe45Co19
_chemical_formula_sum   'Fe90 Co38'
_cell_volume   1487.41932247
_cell_formula_units_Z   2
loop_
 _symmetry_equiv_pos_site_id
 _symmetry_equiv_pos_as_xyz
  1  'x, y, z'
loop_
 _atom_site_type_symbol
 _atom_site_label
 _atom_site_symmetry_multiplicity
 _atom_site_fract_x
 _atom_site_fract_y
 _atom_site_fract_z
 _atom_site_occupancy
  Fe  Fe0  1  0.37807808  0.87598990  0.12362144  1
  Fe  Fe1  1  0.12507370  0.37373487  0.37620771  1
  Fe  Fe2  1  -0.00182369  0.50229377  -0.00110238  1
  Fe  Fe3  1  0.24962351  0.75440531  0.75205389  1
  Fe  Fe4  1  0.12170783  0.37414627  0.87600779  1
  Fe  Fe5  1  -0.00043919  0.24660850  0.00095628  1
  Fe  Fe6  1  0.12479629  0.12306149  0.62524134  1
  Fe  Fe7  1  0.74875910  0.25118069  0.25078919  1
  Fe  Fe8  1  0.25042153  -0.00177409  0.50010852  1
  Fe  Fe9  1  0.25120358  0.49409429  0.24741795  1
  Fe  Fe10  1  0.12396453  0.37442684  0.62418183  1
  Fe  Fe11  1  0.87594190  0.37496938  0.62383261  1
  Fe  Fe12  1  0.37692704  0.87546491  0.62634133  1
  Fe  Fe13  1  0.13185048  0.12472217  0.37221105  1
  Fe  Fe14  1  0.50277525  0.00005981  0.74913205  1
  Fe  Fe15  1  0.12574085  0.62293656  0.12518830  1
  Fe  Fe16  1  0.25057774  0.50117280  0.50128445  1
  Fe  Fe17  1  0.87600733  0.37509397  0.87510693  1
  Fe  Fe18  1  0.62232990  0.36968186  0.37846188  1
  Fe  Fe19  1  -0.00143996  0.24915060  0.74848941  1
  Fe  Fe20  1  0.62621297  0.62653288  0.37589836  1
  Fe  Fe21  1  0.75365980  0.75087092  0.00576809  1
  Fe  Fe22  1  0.75085458  0.50090096  0.00010116  1
  Fe  Fe23  1  0.37415309  0.62693670  0.62683884  1
  Fe  Fe24  1  0.87687223  0.87521342  0.87768397  1
  Fe  Fe25  1  0.63115091  0.12599132  0.62519251  1
  Fe  Fe26  1  0.50015335  0.24771441  0.74982063  1
  Fe  Fe27  1  0.75175103  0.49859803  0.49863368  1
  Fe  Fe28  1  0.75030600  0.25020836  -0.00127969  1
  Fe  Fe29  1  0.00133711  -0.00222812  0.75122250  1
  Fe  Fe30  1  0.24822494  0.75357035  0.24856984  1
  Fe  Fe31  1  0.75117672  -0.00187268  0.00132874  1
  Fe  Fe32  1  0.62077079  0.37332908  0.12258121  1
  Fe  Fe33  1  0.25192972  0.24864208  0.50270311  1
  Fe  Fe34  1  0.24990340  0.25073631  0.75160413  1
  Fe  Fe35  1  0.62467851  0.37306023  0.62353809  1
  Fe  Fe36  1  0.00172750  0.24781950  0.25083239  1
  Fe  Fe37  1  0.87713981  0.37622865  0.12727220  1
  Fe  Fe38  1  0.87633876  0.87697531  0.62337316  1
  Fe  Fe39  1  0.00133539  0.50119815  0.25234143  1
  Fe  Fe40  1  0.62525956  0.87609514  0.37448510  1
  Fe  Fe41  1  0.25024445  0.49668639  0.00093441  1
  Fe  Fe42  1  0.50066964  0.00287801  -0.00035698  1
  Fe  Fe43  1  -0.00031275  0.50061503  0.49941436  1
  Fe  Fe44  1  0.49918608  0.49829987  0.24983053  1
  Fe  Fe45  1  0.87255084  0.62713452  0.37313928  1
  Fe  Fe46  1  0.62389069  0.37505549  0.87562779  1
  Fe  Fe47  1  0.50064806  0.74983880  0.25108916  1
  Fe  Fe48  1  0.49822894  0.74756291  -0.00298295  1
  Fe  Fe49  1  0.49826195  0.00580123  0.25150459  1
  Fe  Fe50  1  0.37283725  0.62585725  0.37356674  1
  Fe  Fe51  1  0.24665777  -0.00400617  0.75171552  1
  Fe  Fe52  1  0.75029809  -0.00123914  0.49945769  1
  Fe  Fe53  1  0.87096087  0.12557694  0.37389996  1
  Fe  Fe54  1  0.12529242  0.12455241  0.87557532  1
  Fe  Fe55  1  0.24813578  0.49876634  0.75079660  1
  Fe  Fe56  1  0.00040055  0.75151183  0.49828844  1
  Fe  Fe57  1  0.49839716  0.00590843  0.49946242  1
  Fe  Fe58  1  0.62804600  0.62709865  0.87465786  1
  Fe  Fe59  1  0.75201478  0.75234206  0.74642613  1
  Fe  Fe60  1  0.75336592  0.50069703  0.74907571  1
  Fe  Fe61  1  0.62652498  0.12528000  0.12552268  1
  Fe  Fe62  1  0.12815768  0.62713431  0.37531300  1
  Fe  Fe63  1  0.62451605  0.87356383  0.87448633  1
  Fe  Fe64  1  0.74782982  0.49843040  0.25139631  1
  Fe  Fe65  1  0.12252660  0.62711467  0.87305994  1
  Fe  Fe66  1  0.37683259  0.37077514  0.37662465  1
  Fe  Fe67  1  0.25037489  0.75289406  -0.00046258  1
  Fe  Fe68  1  -0.00189762  0.24704380  0.49956348  1
  Fe  Fe69  1  0.24939830  -0.00213231  0.00004057  1
  Fe  Fe70  1  0.37397600  0.87497038  0.37574840  1
  Fe  Fe71  1  0.62372734  0.87590230  0.12625553  1
  Fe  Fe72  1  0.49856232  0.50112317  0.50046393  1
  Fe  Fe73  1  0.11897766  0.87864741  0.12574258  1
  Fe  Fe74  1  0.37597425  0.37378145  0.62527363  1
  Fe  Fe75  1  0.62980299  0.12406281  0.87234551  1
  Fe  Fe76  1  0.62707970  0.62762004  0.62305938  1
  Fe  Fe77  1  0.00066472  0.00060409  0.49642419  1
  Fe  Fe78  1  0.12252383  0.62747079  0.62695059  1
  Fe  Fe79  1  0.12878115  0.12431170  0.12648704  1
  Fe  Fe80  1  0.49971092  0.74985117  0.50012309  1
  Fe  Fe81  1  0.62461375  0.62486887  0.12530962  1
  Fe  Fe82  1  0.37457380  0.62425158  0.12482206  1
  Fe  Fe83  1  -0.00339152  0.74813041  0.00410217  1
  Fe  Fe84  1  0.87517817  0.87409321  0.36757565  1
  Fe  Fe85  1  0.50012788  0.50337512  0.75134732  1
  Fe  Fe86  1  0.37805520  0.37485166  0.87878619  1
  Fe  Fe87  1  0.87312019  0.12326881  0.87189998  1
  Fe  Fe88  1  0.87342056  0.12263971  0.12679869  1
  Fe  Fe89  1  0.37302361  0.12373555  0.87598550  1
  Co  Co90  1  0.87443942  0.12204552  0.62668535  1
  Co  Co91  1  0.50066744  0.50511962  -0.00147608  1
  Co  Co92  1  0.50023393  0.24557245  0.25063180  1
  Co  Co93  1  -0.00108387  0.49872729  0.74909228  1
  Co  Co94  1  -0.00214304  0.75416989  0.74861107  1
  Co  Co95  1  0.62849435  0.12701392  0.37800053  1
  Co  Co96  1  0.00226107  0.74748276  0.24855779  1
  Co  Co97  1  0.62218133  0.87515940  0.62318678  1
  Co  Co98  1  0.37811950  0.87760698  0.87487701  1
  Co  Co99  1  0.75121621  0.75352426  0.49926913  1
  Co  Co100  1  0.75191794  0.25293436  0.74989725  1
  Co  Co101  1  0.87385496  0.62099057  0.12880440  1
  Co  Co102  1  0.25041039  0.25743811  0.24526166  1
  Co  Co103  1  0.11819857  0.37584484  0.12414211  1
  Co  Co104  1  0.25058202  0.75017562  0.50141944  1
  Co  Co105  1  0.25161978  -0.00559318  0.24804350  1
  Co  Co106  1  0.00204054  0.00426688  0.25343741  1
  Co  Co107  1  0.24766786  0.25264654  0.00095018  1
  Co  Co108  1  0.74729382  -0.00010921  0.24938954  1
  Co  Co109  1  0.37091629  0.62486967  0.87534884  1
  Co  Co110  1  0.50273511  0.24375097  -0.00264836  1
  Co  Co111  1  0.37139640  0.12643309  0.12445301  1
  Co  Co112  1  0.49990801  0.74846163  0.75100810  1
  Co  Co113  1  0.75396834  0.25097367  0.50132427  1
  Co  Co114  1  0.37158578  0.12278659  0.62926238  1
  Co  Co115  1  0.49734095  0.24353226  0.50294036  1
  Co  Co116  1  0.87663820  0.37409974  0.37287063  1
  Co  Co117  1  0.38218984  0.37197441  0.11971859  1
  Co  Co118  1  0.87525828  0.62698912  0.87358566  1
  Co  Co119  1  0.74823071  0.75092809  0.24706373  1
  Co  Co120  1  0.87629205  0.62551489  0.62323982  1
  Co  Co121  1  0.12033535  0.87360822  0.87941663  1
  Co  Co122  1  0.12554258  0.87467543  0.37449053  1
  Co  Co123  1  -0.00154810  0.00407198  -0.00019998  1
  Co  Co124  1  0.36846555  0.12706236  0.37121099  1
  Co  Co125  1  0.75031290  -0.00544370  0.74988311  1
  Co  Co126  1  0.87851397  0.87908035  0.12941719  1
  Co  Co127  1  0.12439334  0.87507176  0.62262435  1
