# generated using pymatgen
data_Fe45Co19
_symmetry_space_group_name_H-M   'P 1'
_cell_length_a   11.41497403
_cell_length_b   11.41473866
_cell_length_c   11.41567267
_cell_angle_alpha   89.99385648
_cell_angle_beta   89.99263141
_cell_angle_gamma   90.00919556
_symmetry_Int_Tables_number   1
_chemical_formula_structural   Fe45Co19
_chemical_formula_sum   'Fe90 Co38'
_cell_volume   1487.45006877
_cell_formula_units_Z   2
loop_
 _symmetry_equiv_pos_site_id
 _symmetry_equiv_pos_as_xyz
  1  'x, y, z'
loop_
 _atom_site_type_symbol
 _atom_site_label
 _atom_site_symmetry_multiplicity
 _atom_site_fract_x
 _atom_site_fract_y
 _atom_site_fract_z
 _atom_site_occupancy
  Fe  Fe0  1  0.37275027  0.87481104  0.12439017  1
  Fe  Fe1  1  0.37640007  0.37486264  0.12497185  1
  Fe  Fe2  1  0.87506629  0.62308627  0.87362455  1
  Fe  Fe3  1  0.87602320  0.87746280  0.37678280  1
  Fe  Fe4  1  0.12547121  0.62531832  0.37769328  1
  Fe  Fe5  1  0.00337121  0.00112965  0.24596930  1
  Fe  Fe6  1  0.87070321  0.12477768  0.62696381  1
  Fe  Fe7  1  0.62328268  0.62539466  0.87496329  1
  Fe  Fe8  1  0.24553490  -0.00053390  0.00283532  1
  Fe  Fe9  1  0.87812960  0.12853448  0.87287621  1
  Fe  Fe10  1  0.74810306  0.25198409  0.25255645  1
  Fe  Fe11  1  0.50156125  0.00215944  0.75014324  1
  Fe  Fe12  1  -0.00117207  0.74788688  0.24949805  1
  Fe  Fe13  1  0.62500999  0.87623762  0.37546058  1
  Fe  Fe14  1  0.37651034  0.87738924  0.37500558  1
  Fe  Fe15  1  0.25081638  0.75035200  0.75209113  1
  Fe  Fe16  1  0.37817931  0.37565211  0.87447767  1
  Fe  Fe17  1  0.75129237  0.25193732  -0.00207539  1
  Fe  Fe18  1  0.87486232  0.37391920  0.62565452  1
  Fe  Fe19  1  0.12725241  0.12553524  0.62447299  1
  Fe  Fe20  1  0.37588599  0.87698658  0.87617713  1
  Fe  Fe21  1  0.74863504  0.00049622  0.25022341  1
  Fe  Fe22  1  0.25180106  0.50125772  -0.00158382  1
  Fe  Fe23  1  0.74779296  0.49781386  0.50013299  1
  Fe  Fe24  1  0.12651010  0.87369994  0.62282467  1
  Fe  Fe25  1  0.25438098  0.24954200  0.75093615  1
  Fe  Fe26  1  0.62326370  0.62279737  0.37441450  1
  Fe  Fe27  1  0.87560766  0.87531783  0.12367607  1
  Fe  Fe28  1  0.12263909  0.37418772  0.37548101  1
  Fe  Fe29  1  0.50072075  0.74902794  0.50140730  1
  Fe  Fe30  1  0.50353168  0.25039387  0.24747540  1
  Fe  Fe31  1  0.12264816  0.87438282  0.87601199  1
  Fe  Fe32  1  0.74910258  0.49714014  0.75107299  1
  Fe  Fe33  1  0.12776149  0.62609276  0.12411986  1
  Fe  Fe34  1  0.12452386  0.12467339  0.37408295  1
  Fe  Fe35  1  0.63001725  0.87617632  0.62565350  1
  Fe  Fe36  1  -0.00059947  0.00082704  0.74766511  1
  Fe  Fe37  1  0.37765951  0.62311696  0.37405863  1
  Fe  Fe38  1  0.62938952  0.62779496  0.62627123  1
  Fe  Fe39  1  0.62648186  0.87545807  0.12276380  1
  Fe  Fe40  1  0.87604793  0.12388315  0.37550427  1
  Fe  Fe41  1  0.25047364  0.24977565  0.25181652  1
  Fe  Fe42  1  0.62322903  0.12865724  0.87302119  1
  Fe  Fe43  1  0.49783723  0.74773977  0.00122167  1
  Fe  Fe44  1  0.12260719  0.12676773  0.87669020  1
  Fe  Fe45  1  0.50158072  0.00295199  0.00067102  1
  Fe  Fe46  1  0.37409510  0.87747519  0.62424454  1
  Fe  Fe47  1  0.87681346  0.87477081  0.87431461  1
  Fe  Fe48  1  0.74588948  0.49729901  0.24971719  1
  Fe  Fe49  1  0.49928473  0.49915378  0.74685117  1
  Fe  Fe50  1  0.87513437  0.37480862  0.12699255  1
  Fe  Fe51  1  0.12788393  0.37443610  0.62583554  1
  Fe  Fe52  1  0.50323755  0.00358975  0.50094157  1
  Fe  Fe53  1  0.00063343  0.50012621  0.24975735  1
  Fe  Fe54  1  0.87613609  0.12628360  0.12401153  1
  Fe  Fe55  1  0.25169478  0.49945867  0.49993331  1
  Fe  Fe56  1  0.50049221  0.74860087  0.24781440  1
  Fe  Fe57  1  0.25086142  0.00060408  0.49670854  1
  Fe  Fe58  1  0.75055820  0.75003237  0.25110302  1
  Fe  Fe59  1  0.25308953  0.24918730  0.49806522  1
  Fe  Fe60  1  0.62217123  0.37087628  0.62504863  1
  Fe  Fe61  1  0.12360630  0.37354196  0.87333744  1
  Fe  Fe62  1  0.50177564  0.00169666  0.24814284  1
  Fe  Fe63  1  0.12342618  0.87547736  0.37635236  1
  Fe  Fe64  1  0.24890422  0.00058401  0.75151104  1
  Fe  Fe65  1  0.87327807  0.62175213  0.37634208  1
  Fe  Fe66  1  0.12547333  0.62436236  0.87396475  1
  Fe  Fe67  1  0.25138381  0.49843308  0.25127727  1
  Fe  Fe68  1  0.74871467  0.24928963  0.49774675  1
  Fe  Fe69  1  -0.00064138  0.74879030  0.00159118  1
  Fe  Fe70  1  0.75000766  0.74935440  -0.00207285  1
  Fe  Fe71  1  0.37159811  0.62504537  0.62694531  1
  Fe  Fe72  1  0.37343314  0.12476201  0.12598150  1
  Fe  Fe73  1  -0.00084525  0.24926439  0.50009287  1
  Fe  Fe74  1  0.00014958  0.50051119  0.50242351  1
  Fe  Fe75  1  0.86940936  0.87540268  0.62422593  1
  Fe  Fe76  1  0.62075724  0.37283762  0.87600425  1
  Fe  Fe77  1  0.00038311  0.50021319  0.74714282  1
  Fe  Fe78  1  0.49952438  0.24506476  0.50316997  1
  Fe  Fe79  1  0.25158776  0.24998497  -0.00093259  1
  Fe  Fe80  1  0.75026318  0.00097803  -0.00401653  1
  Fe  Fe81  1  0.75037915  0.49907706  -0.00001087  1
  Fe  Fe82  1  0.49906272  0.50298156  0.00508630  1
  Fe  Fe83  1  -0.00182043  0.74748773  0.74607455  1
  Fe  Fe84  1  0.24970625  0.75168760  0.25169972  1
  Fe  Fe85  1  0.12446281  0.37262477  0.12593388  1
  Fe  Fe86  1  -0.00221991  0.74792279  0.50250253  1
  Fe  Fe87  1  0.38168627  0.37641562  0.37658688  1
  Fe  Fe88  1  -0.00063241  0.49780088  0.00091786  1
  Fe  Fe89  1  0.50077375  0.75185505  0.74960150  1
  Co  Co90  1  0.25093294  0.49832900  0.75148965  1
  Co  Co91  1  0.87580163  0.37642838  0.37533466  1
  Co  Co92  1  0.00091332  0.25006234  0.74733937  1
  Co  Co93  1  0.12460432  0.87089165  0.12434479  1
  Co  Co94  1  0.61962649  0.37571396  0.37795383  1
  Co  Co95  1  0.37710736  0.12439624  0.37277471  1
  Co  Co96  1  0.62585384  0.37304327  0.12135608  1
  Co  Co97  1  0.25283793  0.75040133  0.49838108  1
  Co  Co98  1  -0.00156443  0.25300244  0.00088286  1
  Co  Co99  1  0.37395981  0.12182466  0.87673628  1
  Co  Co100  1  0.62875756  0.12565735  0.62957888  1
  Co  Co101  1  0.74962152  -0.00058910  0.75549295  1
  Co  Co102  1  0.37236549  0.12156128  0.62481678  1
  Co  Co103  1  0.62779722  0.62716281  0.12481068  1
  Co  Co104  1  0.50223998  0.49965979  0.24469861  1
  Co  Co105  1  0.50038767  0.50401886  0.50528423  1
  Co  Co106  1  0.37083766  0.62588352  0.12724827  1
  Co  Co107  1  0.74969095  0.75115526  0.75430709  1
  Co  Co108  1  -0.00021850  0.00079327  0.50319347  1
  Co  Co109  1  0.25135886  0.74943029  -0.00364261  1
  Co  Co110  1  0.62412766  0.12534232  0.37314776  1
  Co  Co111  1  0.62223849  0.87411532  0.87698899  1
  Co  Co112  1  0.49485456  0.24784348  0.74856811  1
  Co  Co113  1  0.74963828  0.25393637  0.75201075  1
  Co  Co114  1  0.49821591  0.24745411  0.00113443  1
  Co  Co115  1  0.87336865  0.62386603  0.12554920  1
  Co  Co116  1  0.86959776  0.62443758  0.62515927  1
  Co  Co117  1  0.37444275  0.37485622  0.62352332  1
  Co  Co118  1  0.74778792  0.00226805  0.49786337  1
  Co  Co119  1  0.37736330  0.62427405  0.87219162  1
  Co  Co120  1  0.74939543  0.75040127  0.49589724  1
  Co  Co121  1  0.62800655  0.12544528  0.12394471  1
  Co  Co122  1  0.87737327  0.37553249  0.87298715  1
  Co  Co123  1  0.24715579  -0.00011322  0.24907519  1
  Co  Co124  1  0.00041277  0.00037331  0.00051702  1
  Co  Co125  1  -0.00090019  0.24974980  0.25123674  1
  Co  Co126  1  0.12429665  0.12969399  0.12386683  1
  Co  Co127  1  0.12947254  0.62493939  0.62485004  1
