# generated using pymatgen
data_Fe45Co19
_symmetry_space_group_name_H-M   'P 1'
_cell_length_a   11.41599674
_cell_length_b   11.41523149
_cell_length_c   11.41580774
_cell_angle_alpha   90.00351634
_cell_angle_beta   90.00305849
_cell_angle_gamma   90.00272681
_symmetry_Int_Tables_number   1
_chemical_formula_structural   Fe45Co19
_chemical_formula_sum   'Fe90 Co38'
_cell_volume   1487.66519659
_cell_formula_units_Z   2
loop_
 _symmetry_equiv_pos_site_id
 _symmetry_equiv_pos_as_xyz
  1  'x, y, z'
loop_
 _atom_site_type_symbol
 _atom_site_label
 _atom_site_symmetry_multiplicity
 _atom_site_fract_x
 _atom_site_fract_y
 _atom_site_fract_z
 _atom_site_occupancy
  Fe  Fe0  1  0.87645131  0.12506988  0.87304604  1
  Fe  Fe1  1  0.25077129  0.25151651  0.75353078  1
  Fe  Fe2  1  0.24907589  0.49970468  -0.00035981  1
  Fe  Fe3  1  0.62316636  0.12384071  0.12212668  1
  Fe  Fe4  1  0.00181936  0.74781836  0.74986114  1
  Fe  Fe5  1  0.37346608  0.87459019  0.62492793  1
  Fe  Fe6  1  0.87932661  0.62568979  0.87834256  1
  Fe  Fe7  1  0.50168300  0.75613950  0.00183358  1
  Fe  Fe8  1  0.37540299  0.12520859  0.87720227  1
  Fe  Fe9  1  -0.00058858  0.74865320  0.24799008  1
  Fe  Fe10  1  0.37619144  0.37370416  0.12717429  1
  Fe  Fe11  1  0.49843370  0.25251303  0.75096263  1
  Fe  Fe12  1  0.12593619  0.87279024  0.87565099  1
  Fe  Fe13  1  0.24947112  -0.00010656  0.75174114  1
  Fe  Fe14  1  0.00020760  0.75003830  0.49896198  1
  Fe  Fe15  1  0.24878730  0.25208592  -0.00078261  1
  Fe  Fe16  1  0.00061926  0.49955635  0.49981042  1
  Fe  Fe17  1  0.62109604  0.62598459  0.37473861  1
  Fe  Fe18  1  0.87631085  0.12292227  0.62472565  1
  Fe  Fe19  1  0.74462185  0.50087823  0.24775050  1
  Fe  Fe20  1  0.00079644  0.24909186  0.25028034  1
  Fe  Fe21  1  0.87440355  0.62448174  0.37278764  1
  Fe  Fe22  1  0.49970027  -0.00035356  0.24968755  1
  Fe  Fe23  1  0.75018240  0.75142886  0.00011769  1
  Fe  Fe24  1  0.87695499  0.37470164  0.87215642  1
  Fe  Fe25  1  0.12661205  0.87502990  0.37413509  1
  Fe  Fe26  1  0.37471652  0.87471067  0.12411432  1
  Fe  Fe27  1  0.49834113  -0.00178851  0.75164689  1
  Fe  Fe28  1  0.62274891  0.12499561  0.87598996  1
  Fe  Fe29  1  0.74936036  -0.00236044  -0.00320022  1
  Fe  Fe30  1  0.12492179  0.12382203  0.12361830  1
  Fe  Fe31  1  0.75090981  0.74882877  0.75112343  1
  Fe  Fe32  1  0.62383254  0.62634075  0.87629428  1
  Fe  Fe33  1  0.37807362  0.62410676  0.37158191  1
  Fe  Fe34  1  0.13030578  0.38158436  0.62892757  1
  Fe  Fe35  1  0.74963765  0.75054944  0.50017993  1
  Fe  Fe36  1  0.87349662  0.37558024  0.12805687  1
  Fe  Fe37  1  0.62503353  0.37578803  0.62596200  1
  Fe  Fe38  1  0.37588761  0.87345147  0.37573414  1
  Fe  Fe39  1  0.37229643  0.62136099  0.62348360  1
  Fe  Fe40  1  0.62344346  0.12522193  0.62372198  1
  Fe  Fe41  1  0.87333722  0.37582162  0.37350111  1
  Fe  Fe42  1  0.12540964  0.87604106  0.62337315  1
  Fe  Fe43  1  0.12580314  0.62362802  0.37490591  1
  Fe  Fe44  1  0.37735432  0.12686516  0.12377675  1
  Fe  Fe45  1  0.87516406  0.12543427  0.37720608  1
  Fe  Fe46  1  0.74919466  -0.00016845  0.25283016  1
  Fe  Fe47  1  0.00115574  0.25173171  -0.00034761  1
  Fe  Fe48  1  0.62170793  0.87333975  0.37657534  1
  Fe  Fe49  1  0.74930926  0.50064971  0.50047875  1
  Fe  Fe50  1  0.62390358  0.62414190  0.62543158  1
  Fe  Fe51  1  0.87349823  0.87578049  0.12663379  1
  Fe  Fe52  1  0.49820845  0.49708496  0.49967433  1
  Fe  Fe53  1  0.87471895  0.12442469  0.12503949  1
  Fe  Fe54  1  0.62256052  0.12581807  0.37876888  1
  Fe  Fe55  1  0.37624600  0.62706713  0.88059259  1
  Fe  Fe56  1  0.25093856  0.74826289  0.49992455  1
  Fe  Fe57  1  0.75130411  0.50161749  0.75154969  1
  Fe  Fe58  1  0.74966422  -0.00030870  0.75074392  1
  Fe  Fe59  1  0.00293048  0.24885401  0.75014160  1
  Fe  Fe60  1  0.25134454  0.25260233  0.49976783  1
  Fe  Fe61  1  0.75071191  0.50062392  0.00073756  1
  Fe  Fe62  1  0.87440376  0.37528200  0.62731666  1
  Fe  Fe63  1  0.49736209  0.49977599  0.75162370  1
  Fe  Fe64  1  0.62368920  0.87393427  0.62485835  1
  Fe  Fe65  1  -0.00043452  -0.00151671  -0.00269745  1
  Fe  Fe66  1  0.75058089  0.25014238  -0.00160303  1
  Fe  Fe67  1  0.50208861  0.49710706  0.00253482  1
  Fe  Fe68  1  0.74787706  0.74919582  0.24840374  1
  Fe  Fe69  1  0.12222381  0.62375744  0.12118901  1
  Fe  Fe70  1  0.12754962  0.37712766  0.37122703  1
  Fe  Fe71  1  0.37660995  0.12764140  0.37602614  1
  Fe  Fe72  1  0.12607395  0.87653378  0.12599589  1
  Fe  Fe73  1  0.74894207  0.25042942  0.50190725  1
  Fe  Fe74  1  0.00210367  0.25263656  0.50125663  1
  Fe  Fe75  1  0.25167282  -0.00138154  -0.00140335  1
  Fe  Fe76  1  0.37481482  0.12589018  0.62340438  1
  Fe  Fe77  1  0.25202709  0.74593932  0.24596183  1
  Fe  Fe78  1  0.37533842  0.37417718  0.36980667  1
  Fe  Fe79  1  0.87579026  0.62477457  0.62364372  1
  Fe  Fe80  1  0.49828164  0.74885422  0.74930781  1
  Fe  Fe81  1  -0.00070913  0.00052077  0.25238717  1
  Fe  Fe82  1  0.62525967  0.37453464  0.87502707  1
  Fe  Fe83  1  0.12613931  0.12444910  0.37620571  1
  Fe  Fe84  1  0.12519665  0.37564946  0.12795699  1
  Fe  Fe85  1  0.12612224  0.12267226  0.62368942  1
  Fe  Fe86  1  0.25211713  0.00190608  0.25068354  1
  Fe  Fe87  1  0.24813478  0.74422673  0.75208538  1
  Fe  Fe88  1  0.74630260  0.24983174  0.25019531  1
  Fe  Fe89  1  0.87660985  0.87738842  0.62479608  1
  Co  Co90  1  0.62457492  0.87348862  0.87224544  1
  Co  Co91  1  0.25189213  0.50630670  0.75763333  1
  Co  Co92  1  0.00044042  0.50137540  0.24973766  1
  Co  Co93  1  0.49814864  0.25367513  0.50192467  1
  Co  Co94  1  0.62655646  0.37193251  0.12188215  1
  Co  Co95  1  -0.00066578  0.50381307  0.74897614  1
  Co  Co96  1  0.49841720  -0.00111305  0.50123066  1
  Co  Co97  1  0.87445309  0.87311392  0.37341739  1
  Co  Co98  1  0.37505139  0.37574026  0.87679337  1
  Co  Co99  1  0.50461723  0.25031859  0.24906888  1
  Co  Co100  1  0.24905412  0.74977242  0.00228858  1
  Co  Co101  1  0.24869952  0.24702289  0.24860441  1
  Co  Co102  1  -0.00141790  0.75394552  0.00277426  1
  Co  Co103  1  0.87432331  0.62461276  0.12497506  1
  Co  Co104  1  0.49818806  0.74875046  0.50292739  1
  Co  Co105  1  0.87536332  0.87438471  0.87308660  1
  Co  Co106  1  0.62642482  0.87732753  0.12579107  1
  Co  Co107  1  0.12698691  0.12549776  0.87698058  1
  Co  Co108  1  0.12072993  0.62452347  0.88054880  1
  Co  Co109  1  0.37095131  0.37779023  0.62803481  1
  Co  Co110  1  0.00000103  -0.00085497  0.49748437  1
  Co  Co111  1  0.37917503  0.62485344  0.12124118  1
  Co  Co112  1  0.74977239  -0.00162180  0.49996270  1
  Co  Co113  1  0.37296536  0.87233878  0.87350355  1
  Co  Co114  1  0.50339115  0.49810548  0.24681336  1
  Co  Co115  1  0.49874837  -0.00373647  -0.00172991  1
  Co  Co116  1  0.62284948  0.62727295  0.12293252  1
  Co  Co117  1  0.12377994  0.37799829  0.87167618  1
  Co  Co118  1  0.74856587  0.24908886  0.75025068  1
  Co  Co119  1  0.49991963  0.25098261  -0.00083218  1
  Co  Co120  1  0.00247352  0.00054474  0.75233223  1
  Co  Co121  1  0.62557065  0.37543064  0.37732592  1
  Co  Co122  1  0.25228557  0.49937102  0.49515465  1
  Co  Co123  1  0.25112506  0.50434765  0.24646776  1
  Co  Co124  1  0.12721543  0.62153747  0.62217750  1
  Co  Co125  1  -0.00150255  0.49521143  0.00237329  1
  Co  Co126  1  0.49878636  0.75121140  0.24627875  1
  Co  Co127  1  0.25154963  -0.00032306  0.49893977  1
