# generated using pymatgen
data_Fe45Co19
_symmetry_space_group_name_H-M   'P 1'
_cell_length_a   11.41669275
_cell_length_b   11.41485003
_cell_length_c   11.41582388
_cell_angle_alpha   90.00211993
_cell_angle_beta   90.00505725
_cell_angle_gamma   89.99087407
_symmetry_Int_Tables_number   1
_chemical_formula_structural   Fe45Co19
_chemical_formula_sum   'Fe90 Co38'
_cell_volume   1487.70826521
_cell_formula_units_Z   2
loop_
 _symmetry_equiv_pos_site_id
 _symmetry_equiv_pos_as_xyz
  1  'x, y, z'
loop_
 _atom_site_type_symbol
 _atom_site_label
 _atom_site_symmetry_multiplicity
 _atom_site_fract_x
 _atom_site_fract_y
 _atom_site_fract_z
 _atom_site_occupancy
  Fe  Fe0  1  0.75134016  0.00003218  0.75000835  1
  Fe  Fe1  1  0.75318198  0.75282578  0.49785349  1
  Fe  Fe2  1  0.62231313  0.62737720  0.37638484  1
  Fe  Fe3  1  0.12482941  0.12916094  0.88138745  1
  Fe  Fe4  1  0.49946276  0.24384988  0.24969774  1
  Fe  Fe5  1  0.00337650  0.50066765  0.74937352  1
  Fe  Fe6  1  0.24591632  0.00052198  0.75404598  1
  Fe  Fe7  1  0.49738697  0.75012037  0.00171478  1
  Fe  Fe8  1  0.25170498  -0.00478774  0.49924731  1
  Fe  Fe9  1  0.75256487  0.25135875  0.74768307  1
  Fe  Fe10  1  0.87646923  0.87580476  0.62571398  1
  Fe  Fe11  1  0.00471622  0.49803574  0.49986685  1
  Fe  Fe12  1  0.87777310  0.62613632  0.88022213  1
  Fe  Fe13  1  0.87538523  0.37639517  0.12469059  1
  Fe  Fe14  1  0.87773097  0.87286458  0.87854481  1
  Fe  Fe15  1  -0.00052495  0.25136999  0.50201134  1
  Fe  Fe16  1  0.62455073  0.62612768  0.62293826  1
  Fe  Fe17  1  0.24731116  0.50108227  -0.00124761  1
  Fe  Fe18  1  0.00371452  0.00178640  0.24498592  1
  Fe  Fe19  1  0.12272238  0.37349564  0.87796936  1
  Fe  Fe20  1  0.37058940  0.62127337  0.62415178  1
  Fe  Fe21  1  0.74955552  0.75165375  0.25127910  1
  Fe  Fe22  1  0.25108780  0.25491306  0.49625419  1
  Fe  Fe23  1  0.00205901  0.00160944  0.75166379  1
  Fe  Fe24  1  0.87445444  0.62325485  0.62276084  1
  Fe  Fe25  1  0.62657399  0.62608856  0.12478550  1
  Fe  Fe26  1  -0.00073336  0.24881067  0.74804597  1
  Fe  Fe27  1  0.13126311  0.87521399  0.12143360  1
  Fe  Fe28  1  0.62163687  0.87742492  0.12291162  1
  Fe  Fe29  1  0.12597577  0.37187712  0.12458906  1
  Fe  Fe30  1  0.87657444  0.62597944  0.37379191  1
  Fe  Fe31  1  0.24930273  0.25113068  0.75258837  1
  Fe  Fe32  1  0.49696684  0.24508887  -0.00159845  1
  Fe  Fe33  1  0.87819864  0.37759386  0.87608100  1
  Fe  Fe34  1  0.12529502  0.12592845  0.37534662  1
  Fe  Fe35  1  0.12578384  0.87301592  0.62518369  1
  Fe  Fe36  1  0.49734516  0.75185794  0.24754983  1
  Fe  Fe37  1  0.74801316  0.50048418  0.74987413  1
  Fe  Fe38  1  0.74761463  0.00133837  -0.00124720  1
  Fe  Fe39  1  0.62078929  0.37075059  0.37558120  1
  Fe  Fe40  1  0.74560185  0.00222443  0.25127662  1
  Fe  Fe41  1  0.25177817  0.24791584  0.25067110  1
  Fe  Fe42  1  0.62212365  0.37470319  0.87520752  1
  Fe  Fe43  1  0.37552550  0.87671949  0.87571464  1
  Fe  Fe44  1  -0.00030120  -0.00110517  0.49995847  1
  Fe  Fe45  1  0.49388512  0.75463723  0.50250019  1
  Fe  Fe46  1  0.12662396  0.12610462  0.62327584  1
  Fe  Fe47  1  0.87575907  0.12283194  0.37350911  1
  Fe  Fe48  1  0.75330796  0.25113947  0.50124574  1
  Fe  Fe49  1  0.62045985  0.87626219  0.37563362  1
  Fe  Fe50  1  0.50075964  0.00316307  0.75111851  1
  Fe  Fe51  1  -0.00119227  0.75011010  0.24583646  1
  Fe  Fe52  1  0.24940032  0.49665797  0.25328076  1
  Fe  Fe53  1  0.75114048  0.74844472  0.75169390  1
  Fe  Fe54  1  0.74905958  0.24801954  0.25029464  1
  Fe  Fe55  1  0.87585538  0.12388823  0.87628056  1
  Fe  Fe56  1  0.74755147  0.49927949  0.25111145  1
  Fe  Fe57  1  0.75179483  0.24922434  0.00008708  1
  Fe  Fe58  1  0.74935643  0.49760224  0.49815249  1
  Fe  Fe59  1  0.50196464  0.50090692  0.24921731  1
  Fe  Fe60  1  0.87271285  0.87566079  0.12342206  1
  Fe  Fe61  1  0.37251654  0.62381210  0.12548485  1
  Fe  Fe62  1  0.37119961  0.11736324  0.12265887  1
  Fe  Fe63  1  0.62267747  0.62421704  0.87664940  1
  Fe  Fe64  1  -0.00094529  0.74836027  0.74755401  1
  Fe  Fe65  1  0.49881242  0.49703017  0.50065865  1
  Fe  Fe66  1  0.62444720  0.87415111  0.62698196  1
  Fe  Fe67  1  0.62412520  0.87496755  0.87442111  1
  Fe  Fe68  1  0.49881072  0.74787085  0.74960632  1
  Fe  Fe69  1  0.62254670  0.37199929  0.12419906  1
  Fe  Fe70  1  0.37381003  0.62433153  0.37626898  1
  Fe  Fe71  1  0.12254285  0.86974359  0.87829970  1
  Fe  Fe72  1  0.37714506  0.37787489  0.87499968  1
  Fe  Fe73  1  0.12344176  0.87240979  0.37576515  1
  Fe  Fe74  1  0.25096412  0.74864585  0.75168791  1
  Fe  Fe75  1  0.37607721  0.37600126  0.12584092  1
  Fe  Fe76  1  0.49961359  0.24988124  0.74886689  1
  Fe  Fe77  1  0.74848569  0.50004863  0.00089424  1
  Fe  Fe78  1  0.00101938  0.50280725  0.24614061  1
  Fe  Fe79  1  0.75148468  -0.00166002  0.49913845  1
  Fe  Fe80  1  0.25390036  0.75426398  0.25071108  1
  Fe  Fe81  1  0.37696680  0.12064570  0.37688113  1
  Fe  Fe82  1  0.13000884  0.62536395  0.62251310  1
  Fe  Fe83  1  -0.00030371  0.24500637  0.24517527  1
  Fe  Fe84  1  0.37142386  0.37761283  0.62685010  1
  Fe  Fe85  1  0.12696175  0.62817141  0.37535670  1
  Fe  Fe86  1  0.62505508  0.12602714  0.62285256  1
  Fe  Fe87  1  0.37633667  0.62179988  0.87518198  1
  Fe  Fe88  1  0.87834002  0.37522259  0.37316090  1
  Fe  Fe89  1  0.37225032  0.12330104  0.62596972  1
  Co  Co90  1  -0.00111458  0.75012677  0.50114458  1
  Co  Co91  1  0.37289920  0.87774690  0.63283992  1
  Co  Co92  1  0.00204461  0.74702608  0.00692530  1
  Co  Co93  1  -0.00384248  0.24866595  0.00346124  1
  Co  Co94  1  0.24624955  0.00021120  0.25314434  1
  Co  Co95  1  0.38001942  0.37480593  0.37082796  1
  Co  Co96  1  0.62549955  0.12617348  0.12221792  1
  Co  Co97  1  0.24758176  0.49375014  0.49408210  1
  Co  Co98  1  0.00190653  0.00049524  0.00224732  1
  Co  Co99  1  0.87695235  0.37796893  0.62627172  1
  Co  Co100  1  0.62367726  0.12604993  0.38102745  1
  Co  Co101  1  0.50322757  0.00323399  0.24969090  1
  Co  Co102  1  0.25531601  0.25240411  0.00007703  1
  Co  Co103  1  0.37262538  0.12445688  0.87258762  1
  Co  Co104  1  0.62807903  0.12781171  0.87244714  1
  Co  Co105  1  0.12224768  0.62852546  0.87432947  1
  Co  Co106  1  0.87179108  0.12182305  0.12454826  1
  Co  Co107  1  0.50139533  0.00376031  -0.00447018  1
  Co  Co108  1  0.50046595  0.50113964  0.00325034  1
  Co  Co109  1  0.87648949  0.12280553  0.62525767  1
  Co  Co110  1  0.62572928  0.37393938  0.62469576  1
  Co  Co111  1  0.24832306  -0.00056076  -0.00597473  1
  Co  Co112  1  0.13137852  0.62672344  0.12886795  1
  Co  Co113  1  0.87788122  0.87701927  0.37121112  1
  Co  Co114  1  0.13069820  0.12680109  0.12043877  1
  Co  Co115  1  0.86961084  0.62601210  0.12457327  1
  Co  Co116  1  0.25301091  0.74777880  -0.00167353  1
  Co  Co117  1  0.24702496  0.49964482  0.75497184  1
  Co  Co118  1  0.49736580  -0.00300134  0.50374363  1
  Co  Co119  1  0.37792242  0.87882480  0.37009240  1
  Co  Co120  1  0.25421569  0.75493480  0.49946809  1
  Co  Co121  1  0.37418369  0.88139199  0.12313462  1
  Co  Co122  1  0.12082110  0.37148031  0.36917813  1
  Co  Co123  1  0.74701218  0.75074145  -0.00086808  1
  Co  Co124  1  0.12740304  0.37321107  0.62742785  1
  Co  Co125  1  0.49523052  0.25118293  0.50288302  1
  Co  Co126  1  0.50178719  0.50024569  0.74697441  1
  Co  Co127  1  0.00373654  0.50347421  0.00457128  1
