# generated using pymatgen
data_Fe45Co19
_symmetry_space_group_name_H-M   'P 1'
_cell_length_a   11.41549166
_cell_length_b   11.41587818
_cell_length_c   11.41601017
_cell_angle_alpha   89.99816878
_cell_angle_beta   89.99731372
_cell_angle_gamma   89.99830331
_symmetry_Int_Tables_number   1
_chemical_formula_structural   Fe45Co19
_chemical_formula_sum   'Fe90 Co38'
_cell_volume   1487.71003678
_cell_formula_units_Z   2
loop_
 _symmetry_equiv_pos_site_id
 _symmetry_equiv_pos_as_xyz
  1  'x, y, z'
loop_
 _atom_site_type_symbol
 _atom_site_label
 _atom_site_symmetry_multiplicity
 _atom_site_fract_x
 _atom_site_fract_y
 _atom_site_fract_z
 _atom_site_occupancy
  Fe  Fe0  1  0.24900575  0.50020654  -0.00085840  1
  Fe  Fe1  1  -0.00074391  0.25056394  0.25038203  1
  Fe  Fe2  1  0.62596222  0.87643647  0.87346685  1
  Fe  Fe3  1  0.74800397  0.50100042  0.74610943  1
  Fe  Fe4  1  0.12433639  0.37638805  0.87444127  1
  Fe  Fe5  1  0.37310994  0.62477633  0.87679103  1
  Fe  Fe6  1  0.37311438  0.87464026  0.87458211  1
  Fe  Fe7  1  0.25065260  0.50208899  0.25182042  1
  Fe  Fe8  1  0.12551640  0.62589037  0.62292361  1
  Fe  Fe9  1  0.12954047  0.37184158  0.62483772  1
  Fe  Fe10  1  0.37163668  0.37258131  0.62676025  1
  Fe  Fe11  1  0.49967364  0.25094752  0.00124005  1
  Fe  Fe12  1  0.37296389  0.62587413  0.62417037  1
  Fe  Fe13  1  0.75486094  0.74897765  0.49915829  1
  Fe  Fe14  1  0.49738360  -0.00153020  0.50277135  1
  Fe  Fe15  1  0.50089545  -0.00325156  0.24964674  1
  Fe  Fe16  1  0.50020835  0.25115480  0.49995892  1
  Fe  Fe17  1  0.24711680  0.74861233  0.75181546  1
  Fe  Fe18  1  0.87517783  0.87217877  0.12566114  1
  Fe  Fe19  1  -0.00222684  0.74705746  0.25507082  1
  Fe  Fe20  1  0.49975149  0.74989968  0.75065181  1
  Fe  Fe21  1  0.75204209  0.50199614  0.00179694  1
  Fe  Fe22  1  0.50046470  -0.00124543  0.00109741  1
  Fe  Fe23  1  0.12606410  0.12443368  0.12737442  1
  Fe  Fe24  1  -0.00124344  0.24957436  0.00183189  1
  Fe  Fe25  1  0.25263152  0.74707764  0.25325881  1
  Fe  Fe26  1  0.49985078  0.00134556  0.74683151  1
  Fe  Fe27  1  0.62549272  0.62501345  0.87367324  1
  Fe  Fe28  1  0.87368711  0.37473732  0.87310965  1
  Fe  Fe29  1  0.24699964  -0.00407863  0.00200770  1
  Fe  Fe30  1  0.87598619  0.87713928  0.87351677  1
  Fe  Fe31  1  0.12288690  0.87546551  0.37745999  1
  Fe  Fe32  1  0.74921831  0.50116182  0.50359834  1
  Fe  Fe33  1  0.62604902  0.37495256  0.87276159  1
  Fe  Fe34  1  0.12492746  0.62254646  0.37877708  1
  Fe  Fe35  1  0.12556834  0.62735463  0.12345196  1
  Fe  Fe36  1  0.37458478  0.12428138  0.37456902  1
  Fe  Fe37  1  0.87328082  0.37257391  0.62550411  1
  Fe  Fe38  1  0.37529414  0.86861114  0.12306248  1
  Fe  Fe39  1  0.75173208  0.74916555  0.74913959  1
  Fe  Fe40  1  0.37560544  0.12404993  0.87610132  1
  Fe  Fe41  1  0.74943762  -0.00182468  0.25214321  1
  Fe  Fe42  1  0.62627447  0.12615399  0.12649640  1
  Fe  Fe43  1  -0.00048371  0.24830729  0.74957896  1
  Fe  Fe44  1  0.00166527  -0.00237040  0.00299470  1
  Fe  Fe45  1  0.37350256  0.37629881  0.12581742  1
  Fe  Fe46  1  -0.00168739  0.00365350  0.74462339  1
  Fe  Fe47  1  0.50017564  0.49944351  0.50451793  1
  Fe  Fe48  1  0.25157124  0.00222992  0.74686516  1
  Fe  Fe49  1  0.37572718  0.37705083  0.87194616  1
  Fe  Fe50  1  0.50071108  0.50027885  0.00062048  1
  Fe  Fe51  1  0.87739358  0.87446173  0.62275869  1
  Fe  Fe52  1  0.62548395  0.87392869  0.62404167  1
  Fe  Fe53  1  0.75239912  0.24731106  -0.00153253  1
  Fe  Fe54  1  0.24945892  0.00195500  0.50178997  1
  Fe  Fe55  1  0.37358745  0.12524773  0.12579578  1
  Fe  Fe56  1  0.87661590  0.12316710  0.37577977  1
  Fe  Fe57  1  0.75335625  0.50293089  0.24688615  1
  Fe  Fe58  1  0.50338450  0.24785884  0.74901379  1
  Fe  Fe59  1  0.62395668  0.62947028  0.12375924  1
  Fe  Fe60  1  0.75092378  0.00082076  -0.00040861  1
  Fe  Fe61  1  0.87642870  0.62459112  0.87459657  1
  Fe  Fe62  1  0.12444545  0.87389640  0.62321059  1
  Fe  Fe63  1  0.75139506  0.75029821  0.25387422  1
  Fe  Fe64  1  0.00032011  0.50038807  0.50235859  1
  Fe  Fe65  1  0.37515362  0.87411250  0.37655527  1
  Fe  Fe66  1  0.75171609  -0.00160156  0.49939965  1
  Fe  Fe67  1  0.12450966  0.37603266  0.12707539  1
  Fe  Fe68  1  0.00090446  0.74921053  0.74975775  1
  Fe  Fe69  1  0.50020789  0.25109547  0.25041817  1
  Fe  Fe70  1  0.75125215  0.00560744  0.74841842  1
  Fe  Fe71  1  0.74848360  0.25142116  0.49799244  1
  Fe  Fe72  1  0.62305913  0.12320252  0.37622162  1
  Fe  Fe73  1  0.25065908  -0.00296267  0.24909680  1
  Fe  Fe74  1  0.24944636  0.25039194  -0.00168525  1
  Fe  Fe75  1  0.00420632  0.24749783  0.49809591  1
  Fe  Fe76  1  -0.00275527  0.49947604  0.00341928  1
  Fe  Fe77  1  0.24873389  0.25182016  0.25374907  1
  Fe  Fe78  1  0.00367822  0.75358236  -0.00358234  1
  Fe  Fe79  1  0.49844537  0.50360449  0.24804873  1
  Fe  Fe80  1  0.62396372  0.62583330  0.37718464  1
  Fe  Fe81  1  -0.00082287  -0.00067608  0.24974074  1
  Fe  Fe82  1  0.62553427  0.37832621  0.37339954  1
  Fe  Fe83  1  0.62431360  0.87121364  0.12444637  1
  Fe  Fe84  1  0.49786665  0.75156426  0.49966361  1
  Fe  Fe85  1  0.87686233  0.37890592  0.37322877  1
  Fe  Fe86  1  0.62832728  0.37316673  0.12657362  1
  Fe  Fe87  1  0.00177287  0.49978312  0.74798055  1
  Fe  Fe88  1  0.12361423  0.12225013  0.87454398  1
  Fe  Fe89  1  0.37462287  0.37747038  0.37619542  1
  Co  Co90  1  0.75111082  0.24857866  0.25464150  1
  Co  Co91  1  0.87652104  0.63150136  0.12185479  1
  Co  Co92  1  0.62597209  0.37282975  0.62668068  1
  Co  Co93  1  0.37432569  0.12983730  0.62451884  1
  Co  Co94  1  0.12388986  0.87104227  0.13107000  1
  Co  Co95  1  0.12239995  0.62161792  0.87606578  1
  Co  Co96  1  -0.00264632  0.74811278  0.49892818  1
  Co  Co97  1  0.87344862  0.37293541  0.12692091  1
  Co  Co98  1  0.24812286  0.24880348  0.49494496  1
  Co  Co99  1  0.12574418  0.12109277  0.37135190  1
  Co  Co100  1  0.87362926  0.12872368  0.62104698  1
  Co  Co101  1  0.24982043  0.49804302  0.50074436  1
  Co  Co102  1  0.24863092  0.50113564  0.74950442  1
  Co  Co103  1  0.62319959  0.12405873  0.87636166  1
  Co  Co104  1  0.12222588  0.37923242  0.37440081  1
  Co  Co105  1  0.62431823  0.62967830  0.62326363  1
  Co  Co106  1  -0.00109453  0.50283030  0.24659673  1
  Co  Co107  1  0.24992087  0.75136267  0.49883748  1
  Co  Co108  1  0.49812698  0.74911035  0.25258617  1
  Co  Co109  1  0.87451460  0.12363296  0.12644230  1
  Co  Co110  1  0.24903506  0.24929838  0.75470475  1
  Co  Co111  1  0.50168386  0.75046401  -0.00416217  1
  Co  Co112  1  0.74915834  0.24595419  0.75081982  1
  Co  Co113  1  0.87884956  0.12385997  0.87577770  1
  Co  Co114  1  0.37327394  0.87217015  0.62633202  1
  Co  Co115  1  0.87880216  0.87716201  0.37644677  1
  Co  Co116  1  0.50051144  0.50190255  0.74735968  1
  Co  Co117  1  0.12452187  0.88037673  0.86842914  1
  Co  Co118  1  0.12802441  0.12718540  0.62620175  1
  Co  Co119  1  0.87423423  0.61961878  0.37708864  1
  Co  Co120  1  0.62368595  0.87296535  0.37820934  1
  Co  Co121  1  0.24447900  0.75336232  -0.00403603  1
  Co  Co122  1  0.62561497  0.12420181  0.62085562  1
  Co  Co123  1  0.37677046  0.62306420  0.37931589  1
  Co  Co124  1  0.00236732  0.00263428  0.50247232  1
  Co  Co125  1  0.37344451  0.62765882  0.12047209  1
  Co  Co126  1  0.75010539  0.75160170  -0.00360254  1
  Co  Co127  1  0.87639478  0.62399255  0.62676218  1
