# generated using pymatgen
data_Fe45Co19
_symmetry_space_group_name_H-M   'P 1'
_cell_length_a   11.41354739
_cell_length_b   11.41467666
_cell_length_c   11.41469512
_cell_angle_alpha   89.99034547
_cell_angle_beta   90.00837611
_cell_angle_gamma   90.00087632
_symmetry_Int_Tables_number   1
_chemical_formula_structural   Fe45Co19
_chemical_formula_sum   'Fe90 Co38'
_cell_volume   1487.12873565
_cell_formula_units_Z   2
loop_
 _symmetry_equiv_pos_site_id
 _symmetry_equiv_pos_as_xyz
  1  'x, y, z'
loop_
 _atom_site_type_symbol
 _atom_site_label
 _atom_site_symmetry_multiplicity
 _atom_site_fract_x
 _atom_site_fract_y
 _atom_site_fract_z
 _atom_site_occupancy
  Fe  Fe0  1  0.62624874  0.37725529  0.87515806  1
  Fe  Fe1  1  -0.00012528  0.74790653  0.00053697  1
  Fe  Fe2  1  0.87493856  0.37679197  0.37446782  1
  Fe  Fe3  1  0.25142352  0.25037978  -0.00243689  1
  Fe  Fe4  1  0.87536148  0.12192599  0.37405788  1
  Fe  Fe5  1  0.74947201  0.25074194  0.75055631  1
  Fe  Fe6  1  -0.00465745  0.74892815  0.49731566  1
  Fe  Fe7  1  0.37373340  0.37532110  0.37447564  1
  Fe  Fe8  1  0.25112782  0.00016676  0.49966401  1
  Fe  Fe9  1  0.50051168  0.49651338  0.74668383  1
  Fe  Fe10  1  0.37366889  0.87324838  0.87501954  1
  Fe  Fe11  1  0.75148775  0.00070302  -0.00002254  1
  Fe  Fe12  1  0.74860057  0.74691491  0.75259661  1
  Fe  Fe13  1  0.87470930  0.87301722  0.87541063  1
  Fe  Fe14  1  0.12407458  0.62284588  0.37941090  1
  Fe  Fe15  1  0.87445904  0.87248357  0.12621906  1
  Fe  Fe16  1  0.61880733  0.62504449  0.37267005  1
  Fe  Fe17  1  0.50101164  0.74839815  0.00255912  1
  Fe  Fe18  1  0.87513486  0.62546465  0.62559097  1
  Fe  Fe19  1  0.87244163  0.37613816  0.62559417  1
  Fe  Fe20  1  0.87272613  0.37672701  0.12450060  1
  Fe  Fe21  1  0.75240064  0.24922093  -0.00196203  1
  Fe  Fe22  1  0.87727804  0.12406613  0.12490911  1
  Fe  Fe23  1  0.62552395  0.87749585  0.37708188  1
  Fe  Fe24  1  0.74999196  0.50215457  0.49963658  1
  Fe  Fe25  1  0.25818490  0.74565229  0.49808440  1
  Fe  Fe26  1  0.87713269  0.37739943  0.87463851  1
  Fe  Fe27  1  0.37770732  0.12370129  0.37432935  1
  Fe  Fe28  1  0.49964588  0.25292179  0.74983784  1
  Fe  Fe29  1  0.12585906  0.87075778  0.87725792  1
  Fe  Fe30  1  0.12257770  0.37821339  0.87668811  1
  Fe  Fe31  1  0.88030831  0.12611457  0.87447787  1
  Fe  Fe32  1  0.12681187  0.37471641  0.12572085  1
  Fe  Fe33  1  0.00064520  -0.00350695  0.24993877  1
  Fe  Fe34  1  0.37386017  0.12689576  0.12502064  1
  Fe  Fe35  1  0.50030380  -0.00278386  0.74923092  1
  Fe  Fe36  1  0.12636294  0.87064239  0.62289801  1
  Fe  Fe37  1  -0.00162940  -0.00260697  0.50042954  1
  Fe  Fe38  1  0.00047147  0.50160769  0.25109044  1
  Fe  Fe39  1  0.87054324  0.87551461  0.62526718  1
  Fe  Fe40  1  0.62297851  0.12489679  0.87550184  1
  Fe  Fe41  1  0.50046373  0.25005729  0.50273174  1
  Fe  Fe42  1  0.12554636  0.87294882  0.37634032  1
  Fe  Fe43  1  0.49682526  0.25375063  -0.00037667  1
  Fe  Fe44  1  0.49855571  -0.00054673  -0.00025580  1
  Fe  Fe45  1  0.12426574  0.12588033  0.62503150  1
  Fe  Fe46  1  0.74872930  0.74857620  0.49768149  1
  Fe  Fe47  1  0.62690004  0.87377110  0.87738711  1
  Fe  Fe48  1  0.12637050  0.37798952  0.62001244  1
  Fe  Fe49  1  0.37348749  0.12496917  0.62744022  1
  Fe  Fe50  1  0.50237832  0.49883298  0.00478386  1
  Fe  Fe51  1  0.24994607  0.00022187  0.25091588  1
  Fe  Fe52  1  0.25169730  0.74931510  0.25200948  1
  Fe  Fe53  1  0.37854423  0.62366137  0.87346814  1
  Fe  Fe54  1  0.62485177  0.37406068  0.37765817  1
  Fe  Fe55  1  0.74732622  0.50526764  -0.00065790  1
  Fe  Fe56  1  0.50008448  0.25398940  0.24752324  1
  Fe  Fe57  1  0.50027565  -0.00366623  0.50409326  1
  Fe  Fe58  1  0.87871088  0.62410184  0.87454062  1
  Fe  Fe59  1  0.62705833  0.12243724  0.62634820  1
  Fe  Fe60  1  0.12106822  0.12580017  0.87640356  1
  Fe  Fe61  1  0.00100790  -0.00297915  0.74965838  1
  Fe  Fe62  1  0.87473076  0.12335168  0.62673510  1
  Fe  Fe63  1  0.37341024  0.87397644  0.12497421  1
  Fe  Fe64  1  0.25023840  0.50019734  0.25302322  1
  Fe  Fe65  1  0.00246383  0.50251505  0.74650454  1
  Fe  Fe66  1  0.37957792  0.62421154  0.13087000  1
  Fe  Fe67  1  -0.00095828  0.25182198  0.49962887  1
  Fe  Fe68  1  0.12422041  0.12588381  0.12388697  1
  Fe  Fe69  1  0.24985290  0.25024621  0.49676066  1
  Fe  Fe70  1  0.12484715  0.62652858  0.12422004  1
  Fe  Fe71  1  0.25034847  0.00040120  -0.00133373  1
  Fe  Fe72  1  0.50158396  -0.00247779  0.24752494  1
  Fe  Fe73  1  0.24852482  0.74563786  0.75000483  1
  Fe  Fe74  1  0.24906441  0.50322139  0.74698790  1
  Fe  Fe75  1  0.74889279  0.24698867  0.49957042  1
  Fe  Fe76  1  0.24890939  -0.00044820  0.75119097  1
  Fe  Fe77  1  0.62521576  0.12598375  0.12474588  1
  Fe  Fe78  1  0.24983210  0.25176190  0.75223227  1
  Fe  Fe79  1  0.12279103  0.12503396  0.37441219  1
  Fe  Fe80  1  0.74544699  0.49941604  0.25044656  1
  Fe  Fe81  1  0.49625296  0.50005159  0.50176537  1
  Fe  Fe82  1  0.12564179  0.87225156  0.12410304  1
  Fe  Fe83  1  0.00073511  0.25219547  0.25005571  1
  Fe  Fe84  1  0.87322950  0.62647281  0.12787164  1
  Fe  Fe85  1  0.74836150  0.24816496  0.25205410  1
  Fe  Fe86  1  0.74619377  0.75201630  0.25066018  1
  Fe  Fe87  1  0.62295782  0.62540804  0.62477806  1
  Fe  Fe88  1  0.50155932  0.75337340  0.74714963  1
  Fe  Fe89  1  0.25124776  0.50375063  -0.00029412  1
  Co  Co90  1  0.63050558  0.37220682  0.12198615  1
  Co  Co91  1  0.25676001  0.50349352  0.50012303  1
  Co  Co92  1  0.87264111  0.62453134  0.37130579  1
  Co  Co93  1  0.24949482  0.24896265  0.25280522  1
  Co  Co94  1  0.87341299  0.87529841  0.37279041  1
  Co  Co95  1  0.12382068  0.62663667  0.61869557  1
  Co  Co96  1  0.62348001  0.62684064  0.12963565  1
  Co  Co97  1  0.00033717  -0.00327541  0.00003198  1
  Co  Co98  1  0.37840536  0.62657454  0.62806287  1
  Co  Co99  1  0.25400639  0.74596903  0.00114573  1
  Co  Co100  1  0.50320856  0.49190024  0.24684010  1
  Co  Co101  1  0.37207228  0.37263707  0.62514245  1
  Co  Co102  1  0.62762830  0.87519665  0.12051824  1
  Co  Co103  1  0.74885169  0.00031685  0.24856921  1
  Co  Co104  1  0.74974126  0.50231231  0.75056905  1
  Co  Co105  1  0.37570859  0.12458536  0.87307032  1
  Co  Co106  1  -0.00041472  0.50156073  0.00360625  1
  Co  Co107  1  0.75035788  0.00112081  0.75460285  1
  Co  Co108  1  0.36947811  0.37565419  0.12476903  1
  Co  Co109  1  0.12425824  0.37837930  0.37712961  1
  Co  Co110  1  0.74954216  0.00220618  0.49732274  1
  Co  Co111  1  0.00040751  0.74975700  0.74919765  1
  Co  Co112  1  0.62099204  0.12387877  0.37367854  1
  Co  Co113  1  0.62753034  0.37630733  0.62390642  1
  Co  Co114  1  0.00249827  0.74782271  0.25220862  1
  Co  Co115  1  0.37495300  0.87719493  0.37455722  1
  Co  Co116  1  0.37057938  0.87457535  0.62658244  1
  Co  Co117  1  -0.00004117  0.25351550  0.00217969  1
  Co  Co118  1  0.74909627  0.74518361  -0.00167510  1
  Co  Co119  1  0.38262737  0.62396236  0.36879910  1
  Co  Co120  1  0.12327978  0.62578009  0.87681041  1
  Co  Co121  1  0.00122676  0.25291415  0.74800521  1
  Co  Co122  1  0.50154107  0.75691103  0.25024644  1
  Co  Co123  1  0.49852547  0.75329328  0.50110613  1
  Co  Co124  1  0.62034132  0.62414235  0.87234733  1
  Co  Co125  1  0.63143585  0.87472414  0.62548364  1
  Co  Co126  1  0.37506344  0.37962785  0.87453189  1
  Co  Co127  1  -0.00473365  0.50093607  0.49993932  1
