# generated using pymatgen
data_Fe45Co19
_symmetry_space_group_name_H-M   'P 1'
_cell_length_a   11.41450316
_cell_length_b   11.41623750
_cell_length_c   11.41524080
_cell_angle_alpha   89.99998961
_cell_angle_beta   89.99930408
_cell_angle_gamma   90.00853853
_symmetry_Int_Tables_number   1
_chemical_formula_structural   Fe45Co19
_chemical_formula_sum   'Fe90 Co38'
_cell_volume   1487.52776382
_cell_formula_units_Z   2
loop_
 _symmetry_equiv_pos_site_id
 _symmetry_equiv_pos_as_xyz
  1  'x, y, z'
loop_
 _atom_site_type_symbol
 _atom_site_label
 _atom_site_symmetry_multiplicity
 _atom_site_fract_x
 _atom_site_fract_y
 _atom_site_fract_z
 _atom_site_occupancy
  Fe  Fe0  1  0.12437873  0.12735628  0.62656953  1
  Fe  Fe1  1  0.62801562  0.62387599  0.37071673  1
  Fe  Fe2  1  -0.00017755  0.25196245  0.25083974  1
  Fe  Fe3  1  0.37595874  0.12906862  0.62453832  1
  Fe  Fe4  1  0.49808755  0.00079279  0.75073130  1
  Fe  Fe5  1  0.00266039  0.74718785  -0.00137675  1
  Fe  Fe6  1  0.87571784  0.37617789  0.87614891  1
  Fe  Fe7  1  0.12678194  0.62212663  0.87224853  1
  Fe  Fe8  1  0.74919271  0.75027572  0.00070669  1
  Fe  Fe9  1  0.62320304  0.87578840  0.87587982  1
  Fe  Fe10  1  0.25014479  0.25209517  0.49994864  1
  Fe  Fe11  1  0.87698639  0.87406190  0.37685294  1
  Fe  Fe12  1  0.87742403  0.12817527  0.62509804  1
  Fe  Fe13  1  0.87214810  0.62618834  0.12758199  1
  Fe  Fe14  1  0.37667772  0.37389074  0.37431587  1
  Fe  Fe15  1  0.49814704  0.74390949  0.00072856  1
  Fe  Fe16  1  0.49848999  0.74948234  0.24871274  1
  Fe  Fe17  1  0.87589932  0.12616479  0.12318553  1
  Fe  Fe18  1  0.37301389  0.12635942  0.87979807  1
  Fe  Fe19  1  0.62304580  0.87343346  0.62378699  1
  Fe  Fe20  1  0.37341063  0.62465993  0.62641221  1
  Fe  Fe21  1  0.74988464  0.74837144  0.49991097  1
  Fe  Fe22  1  0.00164278  0.00285371  0.49914102  1
  Fe  Fe23  1  0.00215009  -0.00096381  0.24950554  1
  Fe  Fe24  1  0.49886399  0.25094768  0.75377623  1
  Fe  Fe25  1  0.62608691  0.62283533  0.87449593  1
  Fe  Fe26  1  0.12211043  0.37406709  0.62697007  1
  Fe  Fe27  1  0.75102666  0.49870277  0.74848906  1
  Fe  Fe28  1  0.87401905  0.12560260  0.87640671  1
  Fe  Fe29  1  0.24857280  -0.00296883  0.24678396  1
  Fe  Fe30  1  0.24961509  -0.00153002  0.74897344  1
  Fe  Fe31  1  0.50198796  0.00467178  0.00235713  1
  Fe  Fe32  1  0.12698884  0.12624109  0.37206845  1
  Fe  Fe33  1  0.37380929  0.87494359  0.87706944  1
  Fe  Fe34  1  0.24917418  0.74823974  0.00132571  1
  Fe  Fe35  1  0.49873592  0.00247162  0.49821376  1
  Fe  Fe36  1  0.25056409  0.25305743  0.75300572  1
  Fe  Fe37  1  0.25029544  0.00116513  0.50177010  1
  Fe  Fe38  1  0.49953586  0.74817564  0.75164787  1
  Fe  Fe39  1  0.87923283  0.62745303  0.62635383  1
  Fe  Fe40  1  0.12641422  0.12509986  0.87660867  1
  Fe  Fe41  1  0.87972402  0.87188912  0.62418427  1
  Fe  Fe42  1  0.49824626  0.50189420  0.24353975  1
  Fe  Fe43  1  0.24650086  0.75219537  0.74834659  1
  Fe  Fe44  1  0.37488049  0.87334321  0.62306753  1
  Fe  Fe45  1  -0.00173141  0.49936405  0.25136687  1
  Fe  Fe46  1  0.75219418  0.25420173  0.24980502  1
  Fe  Fe47  1  0.87678757  0.87407446  0.87623327  1
  Fe  Fe48  1  0.00323180  0.25095369  -0.00191054  1
  Fe  Fe49  1  0.00189997  -0.00156042  0.75264670  1
  Fe  Fe50  1  0.00146080  0.50204852  0.49838957  1
  Fe  Fe51  1  0.75016018  0.00062936  0.50094150  1
  Fe  Fe52  1  0.62392168  0.87463741  0.12543164  1
  Fe  Fe53  1  0.74904506  0.74993763  0.74991010  1
  Fe  Fe54  1  0.74678323  0.49819788  0.00363766  1
  Fe  Fe55  1  0.87626464  0.37472568  0.12331206  1
  Fe  Fe56  1  0.62329518  0.37609631  0.37183156  1
  Fe  Fe57  1  0.62465594  0.12442311  0.37212612  1
  Fe  Fe58  1  0.37297036  0.87457889  0.37639439  1
  Fe  Fe59  1  0.75165868  -0.00303830  0.24984036  1
  Fe  Fe60  1  0.74964471  0.25178818  0.75257263  1
  Fe  Fe61  1  0.37538081  0.87499762  0.12384030  1
  Fe  Fe62  1  0.62385397  0.87497376  0.37516950  1
  Fe  Fe63  1  0.87380791  0.62441612  0.87456624  1
  Fe  Fe64  1  0.25028739  0.25429452  0.24323796  1
  Fe  Fe65  1  0.37330471  0.12557849  0.37279892  1
  Fe  Fe66  1  0.24995080  0.49954567  0.50067906  1
  Fe  Fe67  1  0.12852655  0.62280939  0.13078934  1
  Fe  Fe68  1  0.87888393  0.87416828  0.12315062  1
  Fe  Fe69  1  0.62154548  0.37546236  0.62464612  1
  Fe  Fe70  1  0.74992478  0.00050031  0.00062396  1
  Fe  Fe71  1  0.49860979  0.74593092  0.49871820  1
  Fe  Fe72  1  0.75032469  -0.00094942  0.74908672  1
  Fe  Fe73  1  0.87228234  0.62437618  0.37217354  1
  Fe  Fe74  1  0.62321445  0.12690670  0.62562433  1
  Fe  Fe75  1  0.49787688  0.49972588  0.75168032  1
  Fe  Fe76  1  0.24649301  0.00053366  0.00304233  1
  Fe  Fe77  1  0.87915721  0.37211558  0.62340336  1
  Fe  Fe78  1  0.75038251  0.49944611  0.50017457  1
  Fe  Fe79  1  0.12395277  0.37584806  0.37347647  1
  Fe  Fe80  1  0.74858523  0.25120697  0.49794791  1
  Fe  Fe81  1  0.00107526  0.50170163  -0.00004473  1
  Fe  Fe82  1  0.49821345  0.24617059  0.24486720  1
  Fe  Fe83  1  0.87523593  0.12651371  0.37516836  1
  Fe  Fe84  1  0.36853018  0.62536414  0.37021031  1
  Fe  Fe85  1  0.00361756  0.75070885  0.25253853  1
  Fe  Fe86  1  0.25090447  0.49661245  0.74934271  1
  Fe  Fe87  1  0.25082902  0.49851334  0.00341319  1
  Fe  Fe88  1  0.49822858  0.50128442  0.49924187  1
  Fe  Fe89  1  0.37775509  0.37475058  0.88379951  1
  Co  Co90  1  0.50536769  0.24307216  0.00167297  1
  Co  Co91  1  0.12526661  0.37839629  0.87579316  1
  Co  Co92  1  0.25341745  0.49148846  0.24787501  1
  Co  Co93  1  0.13077549  0.62193053  0.36960633  1
  Co  Co94  1  0.62197172  0.37796683  0.87700788  1
  Co  Co95  1  -0.00213085  0.49943005  0.75143383  1
  Co  Co96  1  0.62187442  0.37393234  0.12430614  1
  Co  Co97  1  0.00374376  0.74539130  0.49462722  1
  Co  Co98  1  0.75128981  0.49533313  0.24742842  1
  Co  Co99  1  0.75102412  0.75472749  0.25015061  1
  Co  Co100  1  0.62388354  0.62331007  0.62584086  1
  Co  Co101  1  0.12661192  0.87684610  0.37928353  1
  Co  Co102  1  0.36881463  0.62550431  0.12889157  1
  Co  Co103  1  0.12209823  0.87492852  0.62129834  1
  Co  Co104  1  0.37126816  0.12482919  0.12293297  1
  Co  Co105  1  0.12300457  0.62355703  0.62786779  1
  Co  Co106  1  0.12122753  0.37760948  0.12519563  1
  Co  Co107  1  0.00065815  0.00164791  -0.00181753  1
  Co  Co108  1  0.00332949  0.75093309  0.75523398  1
  Co  Co109  1  0.12699410  0.87575983  0.87799238  1
  Co  Co110  1  0.00269416  0.24898096  0.49715960  1
  Co  Co111  1  0.12178134  0.87445344  0.12188314  1
  Co  Co112  1  0.00107098  0.25032881  0.75510722  1
  Co  Co113  1  0.49818414  0.00037650  0.24917042  1
  Co  Co114  1  0.63080944  0.12463609  0.12879349  1
  Co  Co115  1  0.62675922  0.12337458  0.87283578  1
  Co  Co116  1  0.24515632  0.25258137  0.00307612  1
  Co  Co117  1  0.62968369  0.62697810  0.12807108  1
  Co  Co118  1  0.38022409  0.37350569  0.11793310  1
  Co  Co119  1  0.50025003  0.24946902  0.49730804  1
  Co  Co120  1  0.37675174  0.37411573  0.62405258  1
  Co  Co121  1  0.87633823  0.37579806  0.37737023  1
  Co  Co122  1  0.24771769  0.75650944  0.24898322  1
  Co  Co123  1  0.50069834  0.50840880  0.00351997  1
  Co  Co124  1  0.74771674  0.25143412  -0.00137553  1
  Co  Co125  1  0.12235525  0.12606692  0.12609559  1
  Co  Co126  1  0.37141704  0.62393971  0.87291575  1
  Co  Co127  1  0.24765427  0.74609130  0.50114736  1
