# generated using pymatgen
data_Fe45Co19
_symmetry_space_group_name_H-M   'P 1'
_cell_length_a   11.41548453
_cell_length_b   11.41523280
_cell_length_c   11.41484810
_cell_angle_alpha   89.99409075
_cell_angle_beta   89.99079527
_cell_angle_gamma   90.00837228
_symmetry_Int_Tables_number   1
_chemical_formula_structural   Fe45Co19
_chemical_formula_sum   'Fe90 Co38'
_cell_volume   1487.47353204
_cell_formula_units_Z   2
loop_
 _symmetry_equiv_pos_site_id
 _symmetry_equiv_pos_as_xyz
  1  'x, y, z'
loop_
 _atom_site_type_symbol
 _atom_site_label
 _atom_site_symmetry_multiplicity
 _atom_site_fract_x
 _atom_site_fract_y
 _atom_site_fract_z
 _atom_site_occupancy
  Fe  Fe0  1  0.00389104  0.25139327  0.50456231  1
  Fe  Fe1  1  0.00280232  0.49844889  0.50219715  1
  Fe  Fe2  1  0.62684659  0.87660114  0.87545355  1
  Fe  Fe3  1  0.00009469  0.25044913  0.24924971  1
  Fe  Fe4  1  0.37256261  0.87645035  0.12233399  1
  Fe  Fe5  1  0.12496197  0.62485393  0.37532691  1
  Fe  Fe6  1  0.62197720  0.12281039  0.37873785  1
  Fe  Fe7  1  0.37664780  0.12710953  0.37766904  1
  Fe  Fe8  1  0.24498198  0.25345081  0.49855163  1
  Fe  Fe9  1  0.24882353  0.74779323  -0.00060465  1
  Fe  Fe10  1  0.74999853  0.74816155  0.25358649  1
  Fe  Fe11  1  0.12594482  0.12240843  0.12480674  1
  Fe  Fe12  1  0.62553949  0.62457093  0.87126284  1
  Fe  Fe13  1  0.00078238  0.74872662  0.50171555  1
  Fe  Fe14  1  0.12235359  0.62377090  0.87390260  1
  Fe  Fe15  1  0.24943517  0.24832296  -0.00234650  1
  Fe  Fe16  1  0.25276281  0.50183989  0.75053734  1
  Fe  Fe17  1  0.75113332  0.00001458  0.50056588  1
  Fe  Fe18  1  0.00152259  0.75150468  0.24755750  1
  Fe  Fe19  1  0.87724309  0.37437323  0.37769769  1
  Fe  Fe20  1  0.37436121  0.62438564  0.37784984  1
  Fe  Fe21  1  0.87680675  0.87390170  0.37557091  1
  Fe  Fe22  1  0.25123153  0.00162053  0.75006000  1
  Fe  Fe23  1  0.87251597  0.87719899  0.87962304  1
  Fe  Fe24  1  0.62328698  0.12470111  0.12704398  1
  Fe  Fe25  1  0.74883183  0.25058629  0.25217748  1
  Fe  Fe26  1  0.74726748  0.25057691  0.50074787  1
  Fe  Fe27  1  0.50205908  0.00111461  0.74681281  1
  Fe  Fe28  1  0.74723851  0.24672291  0.00084631  1
  Fe  Fe29  1  0.24848265  -0.00085681  0.25273467  1
  Fe  Fe30  1  0.00189833  0.00056225  0.50218124  1
  Fe  Fe31  1  0.25118469  0.74767414  0.75046123  1
  Fe  Fe32  1  0.50067123  0.50135248  0.50245244  1
  Fe  Fe33  1  0.50115126  0.24922671  0.74537998  1
  Fe  Fe34  1  0.12202499  0.12588935  0.86876866  1
  Fe  Fe35  1  0.49795324  0.50259957  0.74712071  1
  Fe  Fe36  1  0.50148891  0.74934839  0.50010267  1
  Fe  Fe37  1  -0.00203391  0.50011067  0.24896637  1
  Fe  Fe38  1  0.75131937  0.50274183  -0.00309335  1
  Fe  Fe39  1  -0.00550385  0.49371134  0.75230713  1
  Fe  Fe40  1  0.25081817  0.49872475  0.25272839  1
  Fe  Fe41  1  0.87438065  0.12301304  0.87162308  1
  Fe  Fe42  1  0.49751283  0.74813463  0.74905464  1
  Fe  Fe43  1  0.00044222  -0.00249169  0.24800581  1
  Fe  Fe44  1  0.75021583  0.25105809  0.74618838  1
  Fe  Fe45  1  0.49967078  -0.00231112  0.25243126  1
  Fe  Fe46  1  0.37523230  0.12439889  0.12560831  1
  Fe  Fe47  1  0.37472118  0.87513832  0.87596702  1
  Fe  Fe48  1  0.12489484  0.37586951  0.12429835  1
  Fe  Fe49  1  0.37533524  0.37480435  0.87446470  1
  Fe  Fe50  1  0.50262822  0.25122954  0.00100346  1
  Fe  Fe51  1  0.24713866  0.75091872  0.24991778  1
  Fe  Fe52  1  0.12671857  0.87755653  0.87689170  1
  Fe  Fe53  1  -0.00126568  0.49806631  -0.00255642  1
  Fe  Fe54  1  0.37435607  0.37444902  0.12531910  1
  Fe  Fe55  1  0.74880101  0.50231494  0.50058143  1
  Fe  Fe56  1  0.00105330  0.75195635  0.00269297  1
  Fe  Fe57  1  0.62265862  0.37765186  0.37486681  1
  Fe  Fe58  1  0.75029217  0.74663220  0.49777387  1
  Fe  Fe59  1  0.62629609  0.37505542  0.87221367  1
  Fe  Fe60  1  0.50108861  0.74920349  -0.00058181  1
  Fe  Fe61  1  0.37870802  0.12587331  0.87454504  1
  Fe  Fe62  1  0.37442876  0.12580164  0.62092034  1
  Fe  Fe63  1  0.62835339  0.87446889  0.12493389  1
  Fe  Fe64  1  0.87286759  0.37340050  0.12306685  1
  Fe  Fe65  1  -0.00129568  0.75410204  0.74931523  1
  Fe  Fe66  1  0.87449271  0.62440863  0.62677870  1
  Fe  Fe67  1  0.75275644  0.75087072  0.75064989  1
  Fe  Fe68  1  0.87489673  0.62719933  0.12397105  1
  Fe  Fe69  1  0.12647142  0.62292666  0.62675487  1
  Fe  Fe70  1  0.50219421  0.00071937  -0.00054668  1
  Fe  Fe71  1  0.62520830  0.62368806  0.12690380  1
  Fe  Fe72  1  0.62677016  0.87410037  0.62355522  1
  Fe  Fe73  1  0.37305591  0.37514879  0.62298672  1
  Fe  Fe74  1  0.37363217  0.87327673  0.62456344  1
  Fe  Fe75  1  0.00109373  0.24998919  -0.00267655  1
  Fe  Fe76  1  0.87525616  0.12412183  0.12495068  1
  Fe  Fe77  1  0.87667733  0.12396425  0.62745516  1
  Fe  Fe78  1  0.50079142  0.49949041  0.00112847  1
  Fe  Fe79  1  0.12663551  0.87574291  0.62458115  1
  Fe  Fe80  1  0.37408742  0.87358463  0.37718348  1
  Fe  Fe81  1  0.50081149  0.25309009  0.25071430  1
  Fe  Fe82  1  0.37437160  0.62551227  0.12468692  1
  Fe  Fe83  1  0.75185246  0.50014490  0.25171062  1
  Fe  Fe84  1  0.87802234  0.12626891  0.37613260  1
  Fe  Fe85  1  0.24881051  0.25151021  0.25284549  1
  Fe  Fe86  1  0.24902040  0.50055775  -0.00154132  1
  Fe  Fe87  1  0.50102185  0.75013000  0.25146399  1
  Fe  Fe88  1  0.75070845  0.00075417  0.25099923  1
  Fe  Fe89  1  0.24735349  0.00027937  0.49877626  1
  Co  Co90  1  0.75505634  0.49995958  0.75177480  1
  Co  Co91  1  0.62691633  0.87610252  0.37684992  1
  Co  Co92  1  0.62793776  0.37702262  0.12526405  1
  Co  Co93  1  0.37582689  0.62496651  0.87720632  1
  Co  Co94  1  0.12262576  0.12526928  0.37446682  1
  Co  Co95  1  0.62184472  0.62218473  0.37422841  1
  Co  Co96  1  0.12404818  0.12571989  0.63001848  1
  Co  Co97  1  0.74970951  -0.00182369  0.74784798  1
  Co  Co98  1  0.87007901  0.37048835  0.87849012  1
  Co  Co99  1  0.12876018  0.87849079  0.12198540  1
  Co  Co100  1  0.24783684  0.75010810  0.50047857  1
  Co  Co101  1  0.49874351  -0.00323323  0.50142156  1
  Co  Co102  1  0.62559368  0.12257784  0.62279343  1
  Co  Co103  1  0.12472833  0.62257544  0.12470533  1
  Co  Co104  1  0.37225510  0.62586213  0.62084775  1
  Co  Co105  1  0.24692049  0.49615295  0.49813495  1
  Co  Co106  1  0.87287352  0.37589958  0.62061865  1
  Co  Co107  1  0.25076304  0.00491847  -0.00374388  1
  Co  Co108  1  0.62564003  0.12623949  0.87131675  1
  Co  Co109  1  0.87851365  0.62436310  0.37611500  1
  Co  Co110  1  -0.00149189  -0.00503963  0.74927040  1
  Co  Co111  1  -0.00476721  0.25522477  0.74905308  1
  Co  Co112  1  0.12825475  0.37410260  0.87195417  1
  Co  Co113  1  0.74871145  0.74643131  -0.00151373  1
  Co  Co114  1  0.37840997  0.37430874  0.37710328  1
  Co  Co115  1  0.25420241  0.24830078  0.75001739  1
  Co  Co116  1  0.12221313  0.87411571  0.37670635  1
  Co  Co117  1  -0.00104356  0.00144855  -0.00062974  1
  Co  Co118  1  0.62614975  0.37850353  0.62740443  1
  Co  Co119  1  0.49725132  0.49961767  0.24799331  1
  Co  Co120  1  0.12787356  0.37508818  0.63188302  1
  Co  Co121  1  0.87103520  0.87417201  0.12425466  1
  Co  Co122  1  0.74857197  0.00408051  0.00142375  1
  Co  Co123  1  0.87398739  0.87412559  0.62149293  1
  Co  Co124  1  0.87846565  0.62888062  0.87373155  1
  Co  Co125  1  0.62763840  0.62658529  0.62812600  1
  Co  Co126  1  0.12006295  0.37520437  0.37217256  1
  Co  Co127  1  0.50321611  0.25228279  0.50255730  1
