# generated using pymatgen
data_Fe45Co19
_symmetry_space_group_name_H-M   'P 1'
_cell_length_a   11.41439402
_cell_length_b   11.41493707
_cell_length_c   11.41721356
_cell_angle_alpha   90.00636416
_cell_angle_beta   89.99165956
_cell_angle_gamma   90.00100493
_symmetry_Int_Tables_number   1
_chemical_formula_structural   Fe45Co19
_chemical_formula_sum   'Fe90 Co38'
_cell_volume   1487.60112783
_cell_formula_units_Z   2
loop_
 _symmetry_equiv_pos_site_id
 _symmetry_equiv_pos_as_xyz
  1  'x, y, z'
loop_
 _atom_site_type_symbol
 _atom_site_label
 _atom_site_symmetry_multiplicity
 _atom_site_fract_x
 _atom_site_fract_y
 _atom_site_fract_z
 _atom_site_occupancy
  Fe  Fe0  1  0.12611972  0.62452570  0.87763438  1
  Fe  Fe1  1  0.00150685  0.74857641  0.75029954  1
  Fe  Fe2  1  0.24737051  0.75003179  0.24840498  1
  Fe  Fe3  1  0.74934520  0.74947159  0.25000741  1
  Fe  Fe4  1  0.74952976  0.75082404  -0.00105650  1
  Fe  Fe5  1  0.37938064  0.87448780  0.37025413  1
  Fe  Fe6  1  0.00063255  0.00872864  0.74981543  1
  Fe  Fe7  1  0.37577952  0.37569225  0.87633477  1
  Fe  Fe8  1  0.87932508  0.37307558  0.62923185  1
  Fe  Fe9  1  0.37108211  0.37261560  0.62401597  1
  Fe  Fe10  1  0.62162575  0.87736098  0.87447130  1
  Fe  Fe11  1  0.87692735  0.87753238  0.12519561  1
  Fe  Fe12  1  0.74949972  0.74981286  0.75158456  1
  Fe  Fe13  1  0.62305730  0.12329150  0.62561318  1
  Fe  Fe14  1  0.37425384  0.62229805  0.87643166  1
  Fe  Fe15  1  0.75170156  0.00093994  -0.00075174  1
  Fe  Fe16  1  0.37580312  0.87307446  0.87699584  1
  Fe  Fe17  1  0.49985927  0.50076489  0.24856812  1
  Fe  Fe18  1  0.49938543  0.74737337  0.00149680  1
  Fe  Fe19  1  0.12559814  0.87710479  0.62553837  1
  Fe  Fe20  1  0.75109228  0.49548193  -0.00165905  1
  Fe  Fe21  1  0.62691885  0.12733035  0.12343511  1
  Fe  Fe22  1  0.24959412  0.75048089  0.75142727  1
  Fe  Fe23  1  0.49743126  0.74636729  0.74956778  1
  Fe  Fe24  1  0.87725638  0.87709443  0.87440672  1
  Fe  Fe25  1  0.37584119  0.12539100  0.37399875  1
  Fe  Fe26  1  0.37238775  0.12711934  0.62464190  1
  Fe  Fe27  1  0.87656457  0.87607194  0.37376803  1
  Fe  Fe28  1  0.37070766  0.62477776  0.12432642  1
  Fe  Fe29  1  0.62745026  0.62124732  0.12454371  1
  Fe  Fe30  1  0.62413021  0.37635566  0.62733537  1
  Fe  Fe31  1  0.87555142  0.62463689  0.37386774  1
  Fe  Fe32  1  0.00355173  0.24740145  0.50401786  1
  Fe  Fe33  1  0.50072503  0.24899571  0.49817664  1
  Fe  Fe34  1  0.12521716  0.87930735  0.12112825  1
  Fe  Fe35  1  0.87381550  0.12527158  0.37544353  1
  Fe  Fe36  1  0.24717877  0.25244235  0.24926701  1
  Fe  Fe37  1  0.50384954  0.24970015  0.25164092  1
  Fe  Fe38  1  0.49737250  0.50019075  0.50256677  1
  Fe  Fe39  1  0.62301168  0.61889150  0.87344585  1
  Fe  Fe40  1  0.12392459  0.87936717  0.87723294  1
  Fe  Fe41  1  0.25156059  -0.00050193  0.24820885  1
  Fe  Fe42  1  0.74969924  0.00161547  0.24993708  1
  Fe  Fe43  1  0.87866903  0.37446247  0.37460871  1
  Fe  Fe44  1  0.87572300  0.62434694  0.87464184  1
  Fe  Fe45  1  0.75045670  0.00296072  0.75212587  1
  Fe  Fe46  1  0.61952983  0.87723006  0.37201252  1
  Fe  Fe47  1  0.00047232  0.75074959  0.00013252  1
  Fe  Fe48  1  0.00253198  0.24516135  0.24726249  1
  Fe  Fe49  1  0.37613683  0.87443891  0.62570269  1
  Fe  Fe50  1  0.37531311  0.37475964  0.37351817  1
  Fe  Fe51  1  0.87596984  0.87656048  0.62696706  1
  Fe  Fe52  1  0.00213455  0.75004193  0.24831309  1
  Fe  Fe53  1  0.87508243  0.62422704  0.12508608  1
  Fe  Fe54  1  0.74818864  0.24931736  0.75263346  1
  Fe  Fe55  1  0.62154900  0.87474734  0.12647995  1
  Fe  Fe56  1  0.75256108  0.49734338  0.50083584  1
  Fe  Fe57  1  0.24794883  0.49694075  0.75049151  1
  Fe  Fe58  1  0.62146962  0.87712661  0.62736273  1
  Fe  Fe59  1  0.49630914  0.00075516  0.00271174  1
  Fe  Fe60  1  0.24702833  0.49547379  0.00205179  1
  Fe  Fe61  1  0.74882678  0.25273302  -0.00331431  1
  Fe  Fe62  1  0.62525761  0.62224421  0.62758898  1
  Fe  Fe63  1  0.49830150  0.74829274  0.50025976  1
  Fe  Fe64  1  0.88239883  0.37190915  0.87033977  1
  Fe  Fe65  1  0.25280700  -0.00131820  0.49826054  1
  Fe  Fe66  1  0.49920572  0.25037962  0.75134724  1
  Fe  Fe67  1  0.24712808  0.49587587  0.49638393  1
  Fe  Fe68  1  0.62669620  0.62123755  0.37500336  1
  Fe  Fe69  1  0.00143943  0.49929773  -0.00025159  1
  Fe  Fe70  1  0.74876734  0.75175004  0.49978793  1
  Fe  Fe71  1  0.37286009  0.12836621  0.87754135  1
  Fe  Fe72  1  0.00477892  0.50122892  0.25037041  1
  Fe  Fe73  1  0.37188980  0.12840426  0.12365163  1
  Fe  Fe74  1  0.87482922  0.62528534  0.62633840  1
  Fe  Fe75  1  0.12402827  0.87516795  0.37519367  1
  Fe  Fe76  1  0.50205090  0.25322426  -0.00085801  1
  Fe  Fe77  1  0.00038214  0.00322755  0.50101988  1
  Fe  Fe78  1  0.37528705  0.37496302  0.12662715  1
  Fe  Fe79  1  0.00313110  0.49950033  0.50066838  1
  Fe  Fe80  1  0.00410973  0.24375338  0.00197283  1
  Fe  Fe81  1  0.87705778  0.37338930  0.12581088  1
  Fe  Fe82  1  0.74748687  0.25335822  0.25278993  1
  Fe  Fe83  1  0.12892211  0.62644762  0.62217647  1
  Fe  Fe84  1  0.00018260  0.75054802  0.50046155  1
  Fe  Fe85  1  0.74790750  0.25173621  0.49876884  1
  Fe  Fe86  1  0.25227499  0.00092472  0.75237216  1
  Fe  Fe87  1  0.37049661  0.62506939  0.37483985  1
  Fe  Fe88  1  0.12693278  0.12501011  0.37513940  1
  Fe  Fe89  1  0.74865250  -0.00091460  0.49978255  1
  Co  Co90  1  0.12601633  0.62496599  0.12256914  1
  Co  Co91  1  0.62450082  0.37491835  0.12568858  1
  Co  Co92  1  0.87082002  0.12604655  0.62337584  1
  Co  Co93  1  0.49861934  0.00537095  0.24506271  1
  Co  Co94  1  0.24960451  0.75137477  -0.00068756  1
  Co  Co95  1  0.75410476  0.49768626  0.75162590  1
  Co  Co96  1  0.49441223  0.49874277  0.74637920  1
  Co  Co97  1  0.13348289  0.12474740  0.62365932  1
  Co  Co98  1  0.00539757  0.24204847  0.74643486  1
  Co  Co99  1  -0.00260103  0.00603448  0.00034886  1
  Co  Co100  1  0.13071147  0.12450409  0.87859016  1
  Co  Co101  1  0.12024421  0.37259964  0.87388604  1
  Co  Co102  1  0.49679435  0.00106249  0.50025563  1
  Co  Co103  1  0.25012731  0.25049350  0.49605760  1
  Co  Co104  1  0.25546555  -0.00160616  0.00031954  1
  Co  Co105  1  0.49920183  0.49893427  0.00344431  1
  Co  Co106  1  0.75219013  0.49651226  0.24925940  1
  Co  Co107  1  0.50083204  0.74360920  0.24908811  1
  Co  Co108  1  0.00109029  0.00318778  0.24956420  1
  Co  Co109  1  0.87077289  0.12633961  0.12647543  1
  Co  Co110  1  0.25198361  0.75537451  0.49877814  1
  Co  Co111  1  0.00371354  0.50276771  0.74830428  1
  Co  Co112  1  0.24645107  0.49757560  0.25015433  1
  Co  Co113  1  0.12286344  0.37134973  0.37406329  1
  Co  Co114  1  0.24745484  0.25544199  0.00085221  1
  Co  Co115  1  0.62483121  0.12271252  0.37574420  1
  Co  Co116  1  0.62257924  0.12341923  0.87650062  1
  Co  Co117  1  0.12279373  0.37433822  0.12563731  1
  Co  Co118  1  0.12681994  0.62759460  0.37687762  1
  Co  Co119  1  0.62159082  0.37884920  0.87246335  1
  Co  Co120  1  0.24872539  0.25195883  0.75346998  1
  Co  Co121  1  0.12655307  0.37282579  0.62553589  1
  Co  Co122  1  0.13054150  0.12178841  0.12279769  1
  Co  Co123  1  0.87489635  0.12838190  0.87524181  1
  Co  Co124  1  0.36871363  0.62475162  0.62337584  1
  Co  Co125  1  0.49522014  0.00255376  0.75169195  1
  Co  Co126  1  0.37608772  0.87111863  0.12737174  1
  Co  Co127  1  0.62261383  0.37927072  0.37592043  1
