# generated using pymatgen
data_Fe45Co19
_symmetry_space_group_name_H-M   'P 1'
_cell_length_a   11.41529291
_cell_length_b   11.41455201
_cell_length_c   11.41443390
_cell_angle_alpha   90.00769978
_cell_angle_beta   89.99839179
_cell_angle_gamma   90.00168439
_symmetry_Int_Tables_number   1
_chemical_formula_structural   Fe45Co19
_chemical_formula_sum   'Fe90 Co38'
_cell_volume   1487.30591027
_cell_formula_units_Z   2
loop_
 _symmetry_equiv_pos_site_id
 _symmetry_equiv_pos_as_xyz
  1  'x, y, z'
loop_
 _atom_site_type_symbol
 _atom_site_label
 _atom_site_symmetry_multiplicity
 _atom_site_fract_x
 _atom_site_fract_y
 _atom_site_fract_z
 _atom_site_occupancy
  Fe  Fe0  1  0.37575157  0.87566210  0.87531172  1
  Fe  Fe1  1  0.50262572  0.50061092  0.24935519  1
  Fe  Fe2  1  -0.00310998  0.24674848  0.74763045  1
  Fe  Fe3  1  0.74932214  0.49870807  0.74964572  1
  Fe  Fe4  1  0.87453659  0.12124506  0.12500120  1
  Fe  Fe5  1  0.12517986  0.87516706  0.62520451  1
  Fe  Fe6  1  -0.00273152  0.75371718  0.25015619  1
  Fe  Fe7  1  0.12409512  0.12612196  0.37507025  1
  Fe  Fe8  1  0.12296272  0.62873822  0.37425293  1
  Fe  Fe9  1  0.74654521  -0.00098089  -0.00397570  1
  Fe  Fe10  1  0.49858400  0.24846945  0.24953017  1
  Fe  Fe11  1  0.75001689  0.49993016  -0.00003750  1
  Fe  Fe12  1  0.37386856  0.37521009  0.12534671  1
  Fe  Fe13  1  0.62706870  0.37157172  0.37534251  1
  Fe  Fe14  1  0.75292394  0.75281675  -0.00193404  1
  Fe  Fe15  1  0.37656739  0.12127721  0.12573461  1
  Fe  Fe16  1  0.00057225  0.00301464  0.50173030  1
  Fe  Fe17  1  0.25101837  0.24966723  0.75029141  1
  Fe  Fe18  1  0.37487858  0.62691250  0.37074864  1
  Fe  Fe19  1  0.12534629  0.62733735  0.87711975  1
  Fe  Fe20  1  0.62662113  0.62810632  0.87489347  1
  Fe  Fe21  1  0.37362120  0.37537091  0.37301425  1
  Fe  Fe22  1  0.87800608  0.37497293  0.12107213  1
  Fe  Fe23  1  0.50274448  0.00201014  0.49896667  1
  Fe  Fe24  1  0.24827838  0.50056213  0.49988202  1
  Fe  Fe25  1  0.62654883  0.37184005  0.12413427  1
  Fe  Fe26  1  0.87629770  0.62421935  0.12397945  1
  Fe  Fe27  1  0.24885075  0.24886640  0.00288475  1
  Fe  Fe28  1  0.12191422  0.12384201  0.12594960  1
  Fe  Fe29  1  0.12328223  0.87517147  0.87598754  1
  Fe  Fe30  1  0.75216206  0.75101507  0.50177292  1
  Fe  Fe31  1  0.24976565  0.00046957  0.49922258  1
  Fe  Fe32  1  0.87559837  0.88091561  0.62683940  1
  Fe  Fe33  1  0.75167327  0.75327851  0.75041197  1
  Fe  Fe34  1  0.12508301  0.37099924  0.37475229  1
  Fe  Fe35  1  0.49959994  0.24652316  0.49839144  1
  Fe  Fe36  1  0.62744008  0.62892033  0.12681858  1
  Fe  Fe37  1  0.49907573  0.74947266  0.74900452  1
  Fe  Fe38  1  -0.00125301  0.24840478  0.24829686  1
  Fe  Fe39  1  0.24988735  0.75087734  0.49945857  1
  Fe  Fe40  1  0.50184195  0.50151249  0.49963715  1
  Fe  Fe41  1  -0.00541727  0.24639946  0.50387877  1
  Fe  Fe42  1  0.50174559  0.50068633  0.75051321  1
  Fe  Fe43  1  0.37576221  0.37524036  0.62518746  1
  Fe  Fe44  1  0.00112132  0.49873689  0.24990991  1
  Fe  Fe45  1  0.24785977  -0.00080112  0.00116511  1
  Fe  Fe46  1  0.12298147  0.62720469  0.62344128  1
  Fe  Fe47  1  0.12528042  0.12493748  0.87404499  1
  Fe  Fe48  1  0.50068210  0.74962722  0.49980447  1
  Fe  Fe49  1  -0.00296468  0.75092569  -0.00105997  1
  Fe  Fe50  1  0.50606169  -0.00292695  0.25118643  1
  Fe  Fe51  1  0.87681090  0.62274455  0.62416668  1
  Fe  Fe52  1  0.87255735  0.12110434  0.87126424  1
  Fe  Fe53  1  0.25292870  0.24820381  0.49835712  1
  Fe  Fe54  1  0.87462162  0.87866752  0.37664849  1
  Fe  Fe55  1  -0.00161019  0.75192986  0.75037264  1
  Fe  Fe56  1  0.87607422  0.37491127  0.87742674  1
  Fe  Fe57  1  0.50172483  0.50057508  0.00104445  1
  Fe  Fe58  1  0.37396948  0.37521682  0.87677991  1
  Fe  Fe59  1  0.74752879  -0.00091005  0.25165737  1
  Fe  Fe60  1  0.87486335  0.37383251  0.37736766  1
  Fe  Fe61  1  0.24993906  -0.00057457  0.75038485  1
  Fe  Fe62  1  0.50438676  0.00105367  -0.00309134  1
  Fe  Fe63  1  0.37344665  0.62494974  0.62541712  1
  Fe  Fe64  1  0.12363840  0.87440449  0.37411331  1
  Fe  Fe65  1  0.25161039  0.75174968  0.00612565  1
  Fe  Fe66  1  0.75132484  0.24854401  0.24889392  1
  Fe  Fe67  1  0.24580587  0.50013922  0.24709187  1
  Fe  Fe68  1  0.75114827  0.49983181  0.24949840  1
  Fe  Fe69  1  0.62573795  0.37097432  0.62385131  1
  Fe  Fe70  1  0.62336610  0.87670905  0.62580782  1
  Fe  Fe71  1  0.12236511  0.37281283  0.87764532  1
  Fe  Fe72  1  0.00022686  0.50061314  0.75149282  1
  Fe  Fe73  1  0.37489511  0.87564199  0.62634054  1
  Fe  Fe74  1  0.24852887  0.49993717  0.74989578  1
  Fe  Fe75  1  0.74692273  0.00496377  0.49778848  1
  Fe  Fe76  1  0.50082779  0.24672996  -0.00042979  1
  Fe  Fe77  1  0.74899513  0.49949067  0.50061096  1
  Fe  Fe78  1  0.37380858  0.62484083  0.87599247  1
  Fe  Fe79  1  0.62698149  0.37136866  0.87629151  1
  Fe  Fe80  1  0.49774654  0.75074751  0.00503159  1
  Fe  Fe81  1  0.87630874  0.62513162  0.37726831  1
  Fe  Fe82  1  0.37435167  0.12350915  0.62573435  1
  Fe  Fe83  1  0.37532178  0.87508956  0.37255239  1
  Fe  Fe84  1  0.62744537  0.62981885  0.37270047  1
  Fe  Fe85  1  0.24677055  0.50007569  0.00313973  1
  Fe  Fe86  1  0.24732120  -0.00106096  0.24947856  1
  Fe  Fe87  1  0.12338966  0.37302276  0.62403002  1
  Fe  Fe88  1  0.87584794  0.87910986  0.12350771  1
  Fe  Fe89  1  0.49874936  0.24627622  0.75245507  1
  Co  Co90  1  0.87546218  0.12433528  0.37290565  1
  Co  Co91  1  0.49962128  0.75318109  0.24767661  1
  Co  Co92  1  0.25074106  0.24747177  0.24760673  1
  Co  Co93  1  0.12033794  0.87555985  0.12391626  1
  Co  Co94  1  0.00252251  0.49817956  0.49787820  1
  Co  Co95  1  0.37154740  0.12387682  0.87687300  1
  Co  Co96  1  0.75265623  0.24741582  0.00078491  1
  Co  Co97  1  0.00030692  0.00264175  -0.00218069  1
  Co  Co98  1  -0.00214678  0.24443393  -0.00085013  1
  Co  Co99  1  0.75553904  0.75261430  0.25004003  1
  Co  Co100  1  0.74448390  -0.00614088  0.75479773  1
  Co  Co101  1  0.62574782  0.12842863  0.37337900  1
  Co  Co102  1  0.87862104  0.87945477  0.87399668  1
  Co  Co103  1  0.62720695  0.62645337  0.62605625  1
  Co  Co104  1  0.87572108  0.37856794  0.62343740  1
  Co  Co105  1  0.24946497  0.75096261  0.75051610  1
  Co  Co106  1  0.75345240  0.24679439  0.50130057  1
  Co  Co107  1  0.00023490  -0.00070483  0.25169080  1
  Co  Co108  1  0.62601120  0.12482116  0.12554147  1
  Co  Co109  1  0.12795629  0.12599708  0.62403982  1
  Co  Co110  1  0.62812851  0.87344008  0.12399195  1
  Co  Co111  1  0.62071932  0.87036138  0.87513584  1
  Co  Co112  1  0.86940227  0.11875548  0.62990459  1
  Co  Co113  1  0.37568234  0.12134791  0.37257819  1
  Co  Co114  1  0.37539593  0.62253363  0.12761689  1
  Co  Co115  1  0.49956998  0.00259637  0.75290530  1
  Co  Co116  1  0.62734095  0.12565172  0.62861165  1
  Co  Co117  1  0.62913626  0.12857707  0.87187297  1
  Co  Co118  1  0.75399495  0.25368956  0.74883748  1
  Co  Co119  1  0.87286091  0.62404283  0.87377571  1
  Co  Co120  1  0.00049438  0.50176544  -0.00145254  1
  Co  Co121  1  0.37642142  0.88098752  0.12624990  1
  Co  Co122  1  0.62704498  0.87128889  0.37590524  1
  Co  Co123  1  0.12149102  0.37235825  0.12340730  1
  Co  Co124  1  0.00467339  0.00127133  0.74888306  1
  Co  Co125  1  0.12098991  0.62817867  0.12534615  1
  Co  Co126  1  0.24992691  0.75279664  0.24648342  1
  Co  Co127  1  -0.00161399  0.75451065  0.50086881  1
