# generated using pymatgen
data_Fe45Co19
_symmetry_space_group_name_H-M   'P 1'
_cell_length_a   11.41520729
_cell_length_b   11.41482597
_cell_length_c   11.41492743
_cell_angle_alpha   90.00376822
_cell_angle_beta   89.99360640
_cell_angle_gamma   89.99552051
_symmetry_Int_Tables_number   1
_chemical_formula_structural   Fe45Co19
_chemical_formula_sum   'Fe90 Co38'
_cell_volume   1487.39475823
_cell_formula_units_Z   2
loop_
 _symmetry_equiv_pos_site_id
 _symmetry_equiv_pos_as_xyz
  1  'x, y, z'
loop_
 _atom_site_type_symbol
 _atom_site_label
 _atom_site_symmetry_multiplicity
 _atom_site_fract_x
 _atom_site_fract_y
 _atom_site_fract_z
 _atom_site_occupancy
  Fe  Fe0  1  0.12641990  0.12427802  0.87677146  1
  Fe  Fe1  1  0.37728808  0.87988178  0.87235216  1
  Fe  Fe2  1  0.49844799  0.50069484  0.24712718  1
  Fe  Fe3  1  0.74708285  0.25053257  0.24919873  1
  Fe  Fe4  1  -0.00238045  -0.00216217  0.00030021  1
  Fe  Fe5  1  0.62430884  0.88074521  0.87756740  1
  Fe  Fe6  1  0.12407724  0.12427060  0.12272097  1
  Fe  Fe7  1  0.12432745  0.87553966  0.87622942  1
  Fe  Fe8  1  0.37504352  0.87350706  0.37674556  1
  Fe  Fe9  1  0.12477238  0.62317561  0.87516055  1
  Fe  Fe10  1  0.62352617  0.62642362  0.62318942  1
  Fe  Fe11  1  0.62239199  0.37072664  0.62537723  1
  Fe  Fe12  1  0.87379610  0.37285053  0.62539459  1
  Fe  Fe13  1  0.12530185  0.87364256  0.12598949  1
  Fe  Fe14  1  0.49918632  0.49917848  0.49955552  1
  Fe  Fe15  1  0.37776202  0.37148669  0.62862788  1
  Fe  Fe16  1  0.25108485  0.74615085  0.25103687  1
  Fe  Fe17  1  0.50100182  0.49907960  0.75008398  1
  Fe  Fe18  1  0.00117199  0.75017560  0.74999098  1
  Fe  Fe19  1  0.00176451  0.00167287  0.49979359  1
  Fe  Fe20  1  0.87509201  0.87623963  0.37562530  1
  Fe  Fe21  1  0.12663675  0.87526898  0.62243607  1
  Fe  Fe22  1  0.87127925  0.37708488  0.87572436  1
  Fe  Fe23  1  0.12791306  0.37524037  0.37397784  1
  Fe  Fe24  1  0.75044501  0.24919237  0.49971020  1
  Fe  Fe25  1  0.87496407  0.87528148  0.62543020  1
  Fe  Fe26  1  0.25159036  0.75090056  -0.00128350  1
  Fe  Fe27  1  0.62473784  0.37471664  0.12004480  1
  Fe  Fe28  1  0.25032461  0.00122109  0.25047385  1
  Fe  Fe29  1  0.25260647  0.49859069  0.50078639  1
  Fe  Fe30  1  -0.00298713  0.50217598  0.00054514  1
  Fe  Fe31  1  0.24923502  0.74994464  0.74920742  1
  Fe  Fe32  1  0.87499510  0.87271170  0.12717780  1
  Fe  Fe33  1  0.49581305  0.24623192  0.49760918  1
  Fe  Fe34  1  0.62428576  0.87344922  0.12416530  1
  Fe  Fe35  1  0.00181514  0.25002602  0.25025216  1
  Fe  Fe36  1  0.37653093  0.62741390  0.62278358  1
  Fe  Fe37  1  0.37511543  0.87235869  0.12736572  1
  Fe  Fe38  1  0.62505068  0.62270428  0.37425400  1
  Fe  Fe39  1  0.25283581  0.49929466  0.00338421  1
  Fe  Fe40  1  0.50150957  0.75293949  0.74943988  1
  Fe  Fe41  1  0.62381908  0.87813134  0.37755662  1
  Fe  Fe42  1  0.12614122  0.37634596  0.12468106  1
  Fe  Fe43  1  0.00111866  0.74840774  0.25086529  1
  Fe  Fe44  1  0.12903918  0.12653309  0.37676157  1
  Fe  Fe45  1  0.87315154  0.37591124  0.37456037  1
  Fe  Fe46  1  0.74836053  0.74895713  0.49829372  1
  Fe  Fe47  1  0.00058249  0.24998435  0.75213590  1
  Fe  Fe48  1  0.12965253  0.12631073  0.62413677  1
  Fe  Fe49  1  0.00017114  0.24992204  0.50031800  1
  Fe  Fe50  1  0.12851986  0.62334570  0.37616699  1
  Fe  Fe51  1  0.25048046  0.50074112  0.74866381  1
  Fe  Fe52  1  0.37324724  0.37146429  0.36794139  1
  Fe  Fe53  1  0.87489157  0.12643885  0.12523819  1
  Fe  Fe54  1  0.37560109  0.62459168  0.87443461  1
  Fe  Fe55  1  0.00127418  0.00099304  0.74952222  1
  Fe  Fe56  1  0.87290399  0.37550337  0.12503353  1
  Fe  Fe57  1  0.00145161  0.74815190  0.49931346  1
  Fe  Fe58  1  0.50058580  0.74812018  0.25211891  1
  Fe  Fe59  1  0.00101567  0.50111465  0.24921767  1
  Fe  Fe60  1  0.62458876  0.12519765  0.12059270  1
  Fe  Fe61  1  0.49914565  0.25088520  -0.00779885  1
  Fe  Fe62  1  0.87295108  0.12219074  0.87574143  1
  Fe  Fe63  1  0.74809884  0.75136418  0.75140511  1
  Fe  Fe64  1  -0.00118496  0.49983566  0.50090849  1
  Fe  Fe65  1  0.25276883  0.25094002  -0.00205186  1
  Fe  Fe66  1  0.87459435  0.62546107  0.62574913  1
  Fe  Fe67  1  0.74795997  0.49994455  0.74742154  1
  Fe  Fe68  1  0.49863488  0.50020755  0.00147896  1
  Fe  Fe69  1  0.00168969  0.00041338  0.25140455  1
  Fe  Fe70  1  0.62455074  0.62331385  0.87581786  1
  Fe  Fe71  1  0.49723171  0.00375636  0.50243029  1
  Fe  Fe72  1  0.12582886  0.37402093  0.62571435  1
  Fe  Fe73  1  0.87044251  0.62245988  0.37217526  1
  Fe  Fe74  1  0.62508774  0.37491729  0.37660710  1
  Fe  Fe75  1  0.87371446  0.12539762  0.37439405  1
  Fe  Fe76  1  0.37705611  0.12990505  0.12716483  1
  Fe  Fe77  1  0.74669542  0.00144296  0.74720359  1
  Fe  Fe78  1  0.49999567  0.00295263  0.24983920  1
  Fe  Fe79  1  0.00056243  0.49858214  0.74985729  1
  Fe  Fe80  1  -0.00129976  0.25167729  -0.00145019  1
  Fe  Fe81  1  0.75195581  0.74798451  -0.00113397  1
  Fe  Fe82  1  0.49959484  0.75088985  -0.00092611  1
  Fe  Fe83  1  0.74953808  0.00290440  0.50354530  1
  Fe  Fe84  1  0.74861997  -0.00006046  0.24811458  1
  Fe  Fe85  1  -0.00351190  0.74807828  -0.00084584  1
  Fe  Fe86  1  0.25259153  0.25054216  0.75409927  1
  Fe  Fe87  1  0.25325109  -0.00053989  0.00107307  1
  Fe  Fe88  1  0.37473155  0.87514610  0.62414735  1
  Fe  Fe89  1  0.74548553  0.24717984  0.75419891  1
  Co  Co90  1  0.50695370  0.24882267  0.25099083  1
  Co  Co91  1  0.24742731  -0.00182990  0.75077146  1
  Co  Co92  1  0.75320492  -0.00215392  0.00381588  1
  Co  Co93  1  0.62553758  0.87376815  0.62214374  1
  Co  Co94  1  0.87183422  0.62554873  0.13051254  1
  Co  Co95  1  0.62190232  0.13091558  0.62383914  1
  Co  Co96  1  0.75145068  0.50465903  0.00150771  1
  Co  Co97  1  0.12598885  0.87336616  0.37400254  1
  Co  Co98  1  0.37306863  0.12546307  0.62901557  1
  Co  Co99  1  0.87535708  0.12630125  0.62604629  1
  Co  Co100  1  0.74565414  0.49588429  0.24786723  1
  Co  Co101  1  0.49482643  -0.00148152  0.00497176  1
  Co  Co102  1  0.37681875  0.62776318  0.12299259  1
  Co  Co103  1  0.50410563  0.00056529  0.74445507  1
  Co  Co104  1  0.74692778  0.75334039  0.25243193  1
  Co  Co105  1  0.37683231  0.11930576  0.87233718  1
  Co  Co106  1  0.50107225  0.24879044  0.75797297  1
  Co  Co107  1  0.74888019  0.49937116  0.50263154  1
  Co  Co108  1  0.24493254  0.24895002  0.24652889  1
  Co  Co109  1  0.37569291  0.62501356  0.37748974  1
  Co  Co110  1  0.50188812  0.74999609  0.49935194  1
  Co  Co111  1  0.25356214  0.25276895  0.50096234  1
  Co  Co112  1  0.37296093  0.12810749  0.37113063  1
  Co  Co113  1  0.62650676  0.12301539  0.37676415  1
  Co  Co114  1  0.87407306  0.87685154  0.87225858  1
  Co  Co115  1  0.12551823  0.62634531  0.12319408  1
  Co  Co116  1  0.37704485  0.36989101  0.12739865  1
  Co  Co117  1  0.24893157  0.74944752  0.50116433  1
  Co  Co118  1  0.37492756  0.37941647  0.87405123  1
  Co  Co119  1  0.25329416  0.50226649  0.24664383  1
  Co  Co120  1  0.62354642  0.11724504  0.87954955  1
  Co  Co121  1  0.12583167  0.37714651  0.87627176  1
  Co  Co122  1  0.25228976  -0.00040502  0.49763642  1
  Co  Co123  1  0.12511432  0.62294060  0.62488776  1
  Co  Co124  1  0.87511807  0.62357111  0.87082088  1
  Co  Co125  1  0.74960252  0.24913868  -0.00228643  1
  Co  Co126  1  0.62476409  0.62737005  0.12560680  1
  Co  Co127  1  0.62701605  0.37972638  0.87610836  1
