# generated using pymatgen
data_Fe45Co19
_symmetry_space_group_name_H-M   'P 1'
_cell_length_a   11.41444520
_cell_length_b   11.41473248
_cell_length_c   11.41434076
_cell_angle_alpha   90.01206945
_cell_angle_beta   89.99210679
_cell_angle_gamma   90.00482014
_symmetry_Int_Tables_number   1
_chemical_formula_structural   Fe45Co19
_chemical_formula_sum   'Fe90 Co38'
_cell_volume   1487.20680393
_cell_formula_units_Z   2
loop_
 _symmetry_equiv_pos_site_id
 _symmetry_equiv_pos_as_xyz
  1  'x, y, z'
loop_
 _atom_site_type_symbol
 _atom_site_label
 _atom_site_symmetry_multiplicity
 _atom_site_fract_x
 _atom_site_fract_y
 _atom_site_fract_z
 _atom_site_occupancy
  Fe  Fe0  1  0.37627146  0.86934533  0.87229525  1
  Fe  Fe1  1  0.74796426  0.25082051  0.50453464  1
  Fe  Fe2  1  -0.00118820  -0.00180726  0.25048279  1
  Fe  Fe3  1  0.37411931  0.87470235  0.37448723  1
  Fe  Fe4  1  0.25242440  0.25003214  0.75032028  1
  Fe  Fe5  1  0.37598175  0.62505483  0.37614299  1
  Fe  Fe6  1  0.87214075  0.37568227  0.12794649  1
  Fe  Fe7  1  0.49935143  0.25378337  -0.00147690  1
  Fe  Fe8  1  0.87255533  0.87360778  0.62556506  1
  Fe  Fe9  1  0.25318220  0.50015181  -0.00138208  1
  Fe  Fe10  1  0.12216968  0.87331756  0.12207950  1
  Fe  Fe11  1  0.50087075  0.25190173  0.25143516  1
  Fe  Fe12  1  0.37474811  0.12714460  0.87545646  1
  Fe  Fe13  1  0.37816734  0.12288372  0.62567536  1
  Fe  Fe14  1  0.00056883  0.00123610  0.75283638  1
  Fe  Fe15  1  0.62608185  0.62369298  0.12390704  1
  Fe  Fe16  1  0.49865078  0.24957951  0.49866071  1
  Fe  Fe17  1  0.37681611  0.37688095  0.62549819  1
  Fe  Fe18  1  0.12578582  0.87461438  0.37586795  1
  Fe  Fe19  1  0.37750050  0.62546798  0.12297716  1
  Fe  Fe20  1  0.24998984  -0.00142053  0.75277763  1
  Fe  Fe21  1  0.49699062  0.50282052  0.75318539  1
  Fe  Fe22  1  0.86995319  0.87457324  0.37676741  1
  Fe  Fe23  1  0.00064673  0.25014764  0.75183559  1
  Fe  Fe24  1  -0.00029991  0.25062729  -0.00280286  1
  Fe  Fe25  1  -0.00176884  -0.00152534  0.50139713  1
  Fe  Fe26  1  0.87401226  0.12620403  0.12471930  1
  Fe  Fe27  1  0.62160558  0.12276934  0.62670051  1
  Fe  Fe28  1  0.62397365  0.37545833  0.87324470  1
  Fe  Fe29  1  0.62221800  0.62343450  0.62346896  1
  Fe  Fe30  1  0.24934578  0.50170081  0.50242778  1
  Fe  Fe31  1  0.74999020  0.25096466  -0.00120808  1
  Fe  Fe32  1  0.25184301  0.50693276  0.74774498  1
  Fe  Fe33  1  0.87457428  0.12695216  0.62797922  1
  Fe  Fe34  1  0.62616698  0.87432371  0.12394203  1
  Fe  Fe35  1  0.87811736  0.62489232  0.62441972  1
  Fe  Fe36  1  0.25037865  -0.00155688  0.24802432  1
  Fe  Fe37  1  -0.00079370  0.50091592  0.25059601  1
  Fe  Fe38  1  0.62478232  0.12610129  0.12537937  1
  Fe  Fe39  1  0.62590384  0.12637490  0.87370602  1
  Fe  Fe40  1  0.12377230  0.37651266  0.12298642  1
  Fe  Fe41  1  0.00086444  0.25228040  0.50172185  1
  Fe  Fe42  1  0.12816718  0.37629047  0.87529034  1
  Fe  Fe43  1  0.87555489  0.87282151  0.12289139  1
  Fe  Fe44  1  0.62700741  0.37572713  0.37504659  1
  Fe  Fe45  1  0.50368448  0.75397981  0.49997580  1
  Fe  Fe46  1  0.62663356  0.62455851  0.87689221  1
  Fe  Fe47  1  0.00260128  0.49957455  0.74926981  1
  Fe  Fe48  1  0.87707513  0.62680467  0.37677487  1
  Fe  Fe49  1  0.87259086  0.12398162  0.37585008  1
  Fe  Fe50  1  0.50180020  0.49926528  0.24897712  1
  Fe  Fe51  1  0.12575197  0.12564097  0.12365440  1
  Fe  Fe52  1  0.12113963  0.62414874  0.12259541  1
  Fe  Fe53  1  0.87259769  0.37452080  0.37525020  1
  Fe  Fe54  1  0.37902239  0.87231532  0.62946718  1
  Fe  Fe55  1  0.12499469  0.87446108  0.62704635  1
  Fe  Fe56  1  0.12214425  0.62688635  0.37855241  1
  Fe  Fe57  1  0.74580542  0.74974247  0.74892594  1
  Fe  Fe58  1  0.87256814  0.87400321  0.87494973  1
  Fe  Fe59  1  0.24917114  0.74900603  0.24798633  1
  Fe  Fe60  1  0.00038475  0.00288049  -0.00420230  1
  Fe  Fe61  1  0.37539566  0.12479384  0.12522027  1
  Fe  Fe62  1  0.12579805  0.12376039  0.37550352  1
  Fe  Fe63  1  0.75130563  0.50026454  0.50131980  1
  Fe  Fe64  1  0.25004309  0.50233758  0.24987593  1
  Fe  Fe65  1  0.62651103  0.12025432  0.37491404  1
  Fe  Fe66  1  0.25188998  0.25055330  0.25042777  1
  Fe  Fe67  1  0.12504145  0.12543728  0.62584541  1
  Fe  Fe68  1  0.62497185  0.62619518  0.37451412  1
  Fe  Fe69  1  0.24904197  0.74935187  -0.00115594  1
  Fe  Fe70  1  0.75239863  0.50120705  0.00150006  1
  Fe  Fe71  1  0.00267712  0.74846793  0.75211511  1
  Fe  Fe72  1  0.49962525  -0.00169616  -0.00242520  1
  Fe  Fe73  1  -0.00443578  0.74379148  -0.00380730  1
  Fe  Fe74  1  0.12637581  0.37546600  0.37569376  1
  Fe  Fe75  1  0.25009946  0.74937961  0.50387381  1
  Fe  Fe76  1  0.25256685  0.25007808  0.49893775  1
  Fe  Fe77  1  0.49961179  0.49929910  0.49868309  1
  Fe  Fe78  1  0.50267840  0.74974569  -0.00142581  1
  Fe  Fe79  1  0.24977319  -0.00130620  -0.00205063  1
  Fe  Fe80  1  0.74845808  0.49805242  0.74600233  1
  Fe  Fe81  1  0.74795805  0.00012991  0.75081724  1
  Fe  Fe82  1  0.37672623  0.37626669  0.12539388  1
  Fe  Fe83  1  0.74966378  -0.00000284  -0.00023763  1
  Fe  Fe84  1  0.50006961  -0.00304097  0.25076974  1
  Fe  Fe85  1  0.75065408  0.74923076  0.24874197  1
  Fe  Fe86  1  -0.00061062  0.24959194  0.25035741  1
  Fe  Fe87  1  0.87282087  0.37544105  0.87155935  1
  Fe  Fe88  1  0.25256798  -0.00000348  0.50146860  1
  Fe  Fe89  1  0.49994342  0.75186750  0.24998475  1
  Co  Co90  1  0.37990821  0.62757857  0.62309101  1
  Co  Co91  1  0.49889219  -0.00289683  0.49841551  1
  Co  Co92  1  0.24695568  0.74543782  0.74826309  1
  Co  Co93  1  0.61989848  0.37677902  0.62512609  1
  Co  Co94  1  0.74771540  0.74752055  0.50331003  1
  Co  Co95  1  0.62787567  0.37570769  0.12500719  1
  Co  Co96  1  0.37606542  0.62975615  0.87693425  1
  Co  Co97  1  0.50035389  -0.00052415  0.75430382  1
  Co  Co98  1  0.74850525  0.24819664  0.25112690  1
  Co  Co99  1  0.11983001  0.62613763  0.62152994  1
  Co  Co100  1  0.37528907  0.12267975  0.37298434  1
  Co  Co101  1  -0.00088731  0.75488847  0.50053129  1
  Co  Co102  1  0.49918244  0.25024363  0.75071604  1
  Co  Co103  1  0.87572160  0.37479657  0.62643909  1
  Co  Co104  1  0.37479000  0.37833754  0.37473179  1
  Co  Co105  1  0.12725254  0.12709011  0.87516889  1
  Co  Co106  1  0.62360979  0.87826886  0.62558689  1
  Co  Co107  1  0.87227919  0.62316938  0.86894965  1
  Co  Co108  1  0.12766239  0.37416246  0.62682719  1
  Co  Co109  1  0.75217988  0.74706562  -0.00031611  1
  Co  Co110  1  0.87538619  0.62395623  0.12809664  1
  Co  Co111  1  0.87135053  0.12581862  0.87313562  1
  Co  Co112  1  0.74952876  0.50236321  0.25177632  1
  Co  Co113  1  0.50612929  0.74785714  0.75069680  1
  Co  Co114  1  0.74681915  0.25158018  0.74714812  1
  Co  Co115  1  0.75042954  0.00103855  0.50453433  1
  Co  Co116  1  0.62666550  0.87411893  0.87639776  1
  Co  Co117  1  0.63010436  0.87668461  0.37475635  1
  Co  Co118  1  0.50048922  0.49874313  -0.00144108  1
  Co  Co119  1  -0.00529339  0.49967442  -0.00156473  1
  Co  Co120  1  -0.00031352  0.49607722  0.50032309  1
  Co  Co121  1  0.37521858  0.87405698  0.12290593  1
  Co  Co122  1  0.12543076  0.62252066  0.87756789  1
  Co  Co123  1  0.12382736  0.87274696  0.87561604  1
  Co  Co124  1  0.00009004  0.75130752  0.25125540  1
  Co  Co125  1  0.25135145  0.25179702  0.00142911  1
  Co  Co126  1  0.75155435  -0.00017548  0.24567325  1
  Co  Co127  1  0.37340695  0.37633940  0.87303211  1
