# generated using pymatgen
data_Fe45Co19
_symmetry_space_group_name_H-M   'P 1'
_cell_length_a   11.41610291
_cell_length_b   11.41465842
_cell_length_c   11.41585221
_cell_angle_alpha   90.00509397
_cell_angle_beta   90.00473231
_cell_angle_gamma   89.99288868
_symmetry_Int_Tables_number   1
_chemical_formula_structural   Fe45Co19
_chemical_formula_sum   'Fe90 Co38'
_cell_volume   1487.61012576
_cell_formula_units_Z   2
loop_
 _symmetry_equiv_pos_site_id
 _symmetry_equiv_pos_as_xyz
  1  'x, y, z'
loop_
 _atom_site_type_symbol
 _atom_site_label
 _atom_site_symmetry_multiplicity
 _atom_site_fract_x
 _atom_site_fract_y
 _atom_site_fract_z
 _atom_site_occupancy
  Fe  Fe0  1  0.12627765  0.12567619  0.87443995  1
  Fe  Fe1  1  0.87595986  0.86820755  0.12225896  1
  Fe  Fe2  1  0.62127094  0.87729102  0.62353247  1
  Fe  Fe3  1  0.25001030  0.49820216  0.24953770  1
  Fe  Fe4  1  0.87825061  0.37523050  0.12561817  1
  Fe  Fe5  1  0.74983795  0.25020160  0.00248773  1
  Fe  Fe6  1  0.62670009  0.87504988  0.87601268  1
  Fe  Fe7  1  0.75032332  0.00084055  0.24674184  1
  Fe  Fe8  1  0.00118457  0.74710470  0.74878495  1
  Fe  Fe9  1  0.25017522  0.00052464  0.00000532  1
  Fe  Fe10  1  0.74891985  0.50047505  0.74906057  1
  Fe  Fe11  1  0.50027807  0.24992713  -0.00603769  1
  Fe  Fe12  1  0.62433482  0.62538284  0.62431246  1
  Fe  Fe13  1  0.37224449  0.62404734  0.62406244  1
  Fe  Fe14  1  0.50128151  -0.00099189  0.25159152  1
  Fe  Fe15  1  0.12532884  0.87618317  0.87310192  1
  Fe  Fe16  1  0.87705697  0.62073439  0.37685651  1
  Fe  Fe17  1  0.38020672  0.12273229  0.63073189  1
  Fe  Fe18  1  0.49965128  0.74904106  0.75107106  1
  Fe  Fe19  1  0.87345520  0.12494058  0.87641885  1
  Fe  Fe20  1  0.12255218  0.12549856  0.62504283  1
  Fe  Fe21  1  0.25089379  0.75109913  0.74787756  1
  Fe  Fe22  1  0.50024932  0.75098200  0.25275387  1
  Fe  Fe23  1  0.87560614  0.37459298  0.62597267  1
  Fe  Fe24  1  0.87455008  0.87609450  0.37562766  1
  Fe  Fe25  1  0.75043980  0.49890434  0.50247850  1
  Fe  Fe26  1  0.49734736  0.49830034  0.75146210  1
  Fe  Fe27  1  0.75052101  0.50398126  0.24580239  1
  Fe  Fe28  1  0.50044797  0.25059310  0.25132924  1
  Fe  Fe29  1  0.49905358  0.49955437  0.25074190  1
  Fe  Fe30  1  0.12576755  0.62362691  0.38203524  1
  Fe  Fe31  1  0.00317286  0.50134088  0.74476046  1
  Fe  Fe32  1  0.24876351  0.00154529  0.24737004  1
  Fe  Fe33  1  0.74652747  0.24971148  0.75005614  1
  Fe  Fe34  1  -0.00007937  0.74832330  0.25283623  1
  Fe  Fe35  1  0.49970114  0.49972509  0.49878946  1
  Fe  Fe36  1  0.74790622  0.74999313  0.74981754  1
  Fe  Fe37  1  0.37441405  0.37475681  0.37616334  1
  Fe  Fe38  1  0.25299125  -0.00232910  0.50382250  1
  Fe  Fe39  1  0.25086992  0.25436326  0.74879542  1
  Fe  Fe40  1  0.25262649  0.25103201  0.50280360  1
  Fe  Fe41  1  0.75005155  0.00085407  0.00327449  1
  Fe  Fe42  1  0.74982525  0.50405950  0.00252028  1
  Fe  Fe43  1  0.37352647  0.12336943  0.37400999  1
  Fe  Fe44  1  0.13091144  0.62026244  0.87272105  1
  Fe  Fe45  1  0.87779147  0.87492884  0.62597159  1
  Fe  Fe46  1  0.00181530  0.50047114  -0.00005097  1
  Fe  Fe47  1  0.12580915  0.12359582  0.37723690  1
  Fe  Fe48  1  0.12156974  0.12687230  0.12350827  1
  Fe  Fe49  1  -0.00372469  0.25004049  0.49709196  1
  Fe  Fe50  1  0.37387214  0.87470032  0.12615952  1
  Fe  Fe51  1  0.62640512  0.87081873  0.12551815  1
  Fe  Fe52  1  0.87470921  0.87226353  0.87590404  1
  Fe  Fe53  1  0.37118465  0.62490645  0.37714516  1
  Fe  Fe54  1  0.62646924  0.12354520  0.37556058  1
  Fe  Fe55  1  0.37381275  0.87756151  0.87162429  1
  Fe  Fe56  1  0.24849337  0.74921313  0.25119991  1
  Fe  Fe57  1  0.62371542  0.62335020  0.87504819  1
  Fe  Fe58  1  0.49859603  0.74924615  -0.00261037  1
  Fe  Fe59  1  0.87612979  0.12463125  0.62500572  1
  Fe  Fe60  1  0.00002065  0.25021224  0.75335202  1
  Fe  Fe61  1  0.49614164  0.75408325  0.49810662  1
  Fe  Fe62  1  0.49978516  0.00161927  -0.00272465  1
  Fe  Fe63  1  0.87547207  0.62594999  0.87452682  1
  Fe  Fe64  1  0.37468496  0.62557320  0.12502527  1
  Fe  Fe65  1  0.74909835  0.00036150  0.74891509  1
  Fe  Fe66  1  0.12448390  0.62587771  0.12415492  1
  Fe  Fe67  1  0.74986420  0.00101603  0.50135920  1
  Fe  Fe68  1  0.12593099  0.87514849  0.37775420  1
  Fe  Fe69  1  0.37704365  0.12695480  0.12408140  1
  Fe  Fe70  1  0.24968300  0.25114354  0.24958719  1
  Fe  Fe71  1  0.75056167  0.25093449  0.49983745  1
  Fe  Fe72  1  0.62564952  0.62642114  0.37546919  1
  Fe  Fe73  1  0.49675287  0.49969713  -0.00094987  1
  Fe  Fe74  1  -0.00057848  0.00077669  0.25015811  1
  Fe  Fe75  1  0.12272455  0.37683159  0.37830455  1
  Fe  Fe76  1  0.62263316  0.37551556  0.12426594  1
  Fe  Fe77  1  0.75146955  0.74950323  0.50039061  1
  Fe  Fe78  1  -0.00205273  0.24896563  0.25316526  1
  Fe  Fe79  1  0.12340654  0.37395601  0.12478676  1
  Fe  Fe80  1  0.12201175  0.87421090  0.62437038  1
  Fe  Fe81  1  0.75126265  0.24876086  0.24870449  1
  Fe  Fe82  1  0.24993509  0.25260094  -0.00053954  1
  Fe  Fe83  1  0.50074146  0.24792455  0.49990936  1
  Fe  Fe84  1  0.87492403  0.37672952  0.87509438  1
  Fe  Fe85  1  0.00001432  -0.00009014  -0.00180053  1
  Fe  Fe86  1  0.62715860  0.37565432  0.37431236  1
  Fe  Fe87  1  0.12394441  0.87349075  0.12447311  1
  Fe  Fe88  1  0.25014941  0.75001464  -0.00124081  1
  Fe  Fe89  1  0.62197209  0.37400680  0.62663987  1
  Co  Co90  1  0.37132143  0.37670732  0.87404379  1
  Co  Co91  1  0.37954693  0.87877825  0.63119474  1
  Co  Co92  1  0.24974496  0.49488545  0.74238451  1
  Co  Co93  1  0.50284361  0.25018379  0.75565173  1
  Co  Co94  1  0.62292647  0.12414600  0.62391720  1
  Co  Co95  1  0.37069551  0.12435915  0.87238301  1
  Co  Co96  1  0.62146657  0.12603214  0.12442308  1
  Co  Co97  1  0.38126894  0.37342684  0.62479959  1
  Co  Co98  1  0.00031459  0.00067319  0.50005813  1
  Co  Co99  1  0.74707524  0.74499086  -0.00134003  1
  Co  Co100  1  0.25051628  0.49440040  0.50323981  1
  Co  Co101  1  0.87981740  0.62944608  0.12188999  1
  Co  Co102  1  0.12141541  0.37119852  0.62287343  1
  Co  Co103  1  0.49678839  -0.00126854  0.49655583  1
  Co  Co104  1  0.25083756  0.49835036  0.00422161  1
  Co  Co105  1  0.87313347  0.12282498  0.37502509  1
  Co  Co106  1  0.37136382  0.87674328  0.37024730  1
  Co  Co107  1  0.37641403  0.37303510  0.12504961  1
  Co  Co108  1  0.63044767  0.12473574  0.87644575  1
  Co  Co109  1  0.12604476  0.37809396  0.87401807  1
  Co  Co110  1  0.75230748  0.74579362  0.25083527  1
  Co  Co111  1  0.24616161  -0.00036887  0.74757775  1
  Co  Co112  1  0.62037097  0.62690903  0.12517707  1
  Co  Co113  1  -0.00307666  0.74847340  0.50079429  1
  Co  Co114  1  0.00519654  0.74853556  -0.00477653  1
  Co  Co115  1  0.25448313  0.75623402  0.50171326  1
  Co  Co116  1  0.13006264  0.62720315  0.62045078  1
  Co  Co117  1  0.00017870  0.25125668  -0.00373366  1
  Co  Co118  1  0.62833595  0.87467151  0.37539607  1
  Co  Co119  1  0.00223626  0.50159718  0.24835372  1
  Co  Co120  1  0.87193863  0.62570870  0.62687555  1
  Co  Co121  1  -0.00070690  0.00153900  0.75193163  1
  Co  Co122  1  0.50505173  0.00273008  0.75579541  1
  Co  Co123  1  0.87450321  0.37950609  0.37341880  1
  Co  Co124  1  -0.00130909  0.50018704  0.50637532  1
  Co  Co125  1  0.62758871  0.37783725  0.87593767  1
  Co  Co126  1  0.87888281  0.12613174  0.12434642  1
  Co  Co127  1  0.37088827  0.62328646  0.87319305  1
