# generated using pymatgen
data_Fe45Co19
_symmetry_space_group_name_H-M   'P 1'
_cell_length_a   11.41544946
_cell_length_b   11.41488433
_cell_length_c   11.41620786
_cell_angle_alpha   89.99489891
_cell_angle_beta   89.99134376
_cell_angle_gamma   89.98806685
_symmetry_Int_Tables_number   1
_chemical_formula_structural   Fe45Co19
_chemical_formula_sum   'Fe90 Co38'
_cell_volume   1487.60072633
_cell_formula_units_Z   2
loop_
 _symmetry_equiv_pos_site_id
 _symmetry_equiv_pos_as_xyz
  1  'x, y, z'
loop_
 _atom_site_type_symbol
 _atom_site_label
 _atom_site_symmetry_multiplicity
 _atom_site_fract_x
 _atom_site_fract_y
 _atom_site_fract_z
 _atom_site_occupancy
  Fe  Fe0  1  0.12242126  0.87470698  0.37675154  1
  Fe  Fe1  1  0.24967513  0.25082977  0.00194562  1
  Fe  Fe2  1  0.12402827  0.87738763  0.87678797  1
  Fe  Fe3  1  0.87138416  0.12363601  0.87612924  1
  Fe  Fe4  1  0.62667261  0.12478113  0.12327516  1
  Fe  Fe5  1  -0.00144546  0.00172054  0.50097763  1
  Fe  Fe6  1  0.87494828  0.37747577  0.87681906  1
  Fe  Fe7  1  0.00074039  0.50262343  0.24776572  1
  Fe  Fe8  1  0.62381670  0.87391135  0.12157176  1
  Fe  Fe9  1  0.62673052  0.87553313  0.87562905  1
  Fe  Fe10  1  0.24919972  -0.00051965  0.74770489  1
  Fe  Fe11  1  0.24957964  0.49858263  0.24802571  1
  Fe  Fe12  1  0.87390222  0.87494947  0.87630327  1
  Fe  Fe13  1  0.87615599  0.87217009  0.62446530  1
  Fe  Fe14  1  0.87682920  0.87020927  0.37701478  1
  Fe  Fe15  1  0.50352855  0.49941918  0.24881701  1
  Fe  Fe16  1  0.25005806  0.75110713  0.50138440  1
  Fe  Fe17  1  0.00047632  0.25014673  -0.00199612  1
  Fe  Fe18  1  -0.00131854  0.74709161  0.00048121  1
  Fe  Fe19  1  0.24986840  0.49678771  0.74727636  1
  Fe  Fe20  1  0.37490359  0.87687435  0.87603382  1
  Fe  Fe21  1  0.25240662  0.24922602  0.50030135  1
  Fe  Fe22  1  -0.00184808  -0.00116066  0.24907775  1
  Fe  Fe23  1  0.62744425  0.62643494  0.62785002  1
  Fe  Fe24  1  0.50014957  0.74832934  -0.00140844  1
  Fe  Fe25  1  0.50134403  0.00216742  0.75191524  1
  Fe  Fe26  1  0.24798587  0.25266700  0.74967276  1
  Fe  Fe27  1  0.37971099  0.37280781  0.62481525  1
  Fe  Fe28  1  0.12654663  0.12359311  0.37486712  1
  Fe  Fe29  1  0.37333416  0.12384096  0.87384888  1
  Fe  Fe30  1  0.50051212  0.74871201  0.74899256  1
  Fe  Fe31  1  0.62469153  0.12655327  0.62587038  1
  Fe  Fe32  1  0.50204929  0.50205854  0.00036201  1
  Fe  Fe33  1  -0.00009293  0.24854273  0.25283529  1
  Fe  Fe34  1  0.87968541  0.37038544  0.62473591  1
  Fe  Fe35  1  0.12417637  0.87512472  0.12171268  1
  Fe  Fe36  1  0.12548791  0.12314616  0.87637529  1
  Fe  Fe37  1  0.00145150  0.49720218  0.74923196  1
  Fe  Fe38  1  0.63026944  0.62309654  0.37264288  1
  Fe  Fe39  1  0.62146869  0.37310575  0.62402058  1
  Fe  Fe40  1  0.37352808  0.62310354  0.87293724  1
  Fe  Fe41  1  0.37873976  0.12239269  0.12623692  1
  Fe  Fe42  1  0.12608953  0.62554468  0.62535725  1
  Fe  Fe43  1  0.74918691  -0.00369967  0.24908288  1
  Fe  Fe44  1  0.25039538  0.49917681  0.50131414  1
  Fe  Fe45  1  0.49945111  0.50437877  0.50171806  1
  Fe  Fe46  1  0.87561184  0.37326932  0.12500124  1
  Fe  Fe47  1  0.00157201  0.75064728  0.75029733  1
  Fe  Fe48  1  0.87383311  0.62797355  0.62721261  1
  Fe  Fe49  1  0.12347880  0.12405778  0.12442067  1
  Fe  Fe50  1  0.37604855  0.62653240  0.12621749  1
  Fe  Fe51  1  0.62863325  0.62346717  0.87172156  1
  Fe  Fe52  1  0.12470036  0.37488423  0.37512721  1
  Fe  Fe53  1  0.87231218  0.12592807  0.12421369  1
  Fe  Fe54  1  0.50441771  0.24734166  0.25663346  1
  Fe  Fe55  1  0.87226555  0.62395079  0.87240091  1
  Fe  Fe56  1  0.37859852  0.87430355  0.62385843  1
  Fe  Fe57  1  0.87342735  0.87312069  0.12271869  1
  Fe  Fe58  1  0.12309631  0.62699526  0.37427420  1
  Fe  Fe59  1  0.62347823  0.87649923  0.37972933  1
  Fe  Fe60  1  0.37581050  0.37616816  0.87423438  1
  Fe  Fe61  1  0.75004678  -0.00147900  0.74743958  1
  Fe  Fe62  1  0.86947097  0.62802722  0.12985801  1
  Fe  Fe63  1  0.37459329  0.62573459  0.37423812  1
  Fe  Fe64  1  0.12070423  0.12863214  0.62494038  1
  Fe  Fe65  1  0.38024919  0.37274589  0.12595951  1
  Fe  Fe66  1  0.62587632  0.37731006  0.87409994  1
  Fe  Fe67  1  0.75267839  0.50116678  0.50163878  1
  Fe  Fe68  1  0.75154142  -0.00130928  0.50368301  1
  Fe  Fe69  1  0.12490995  0.62141871  0.87714020  1
  Fe  Fe70  1  0.24927083  0.75178971  0.24887657  1
  Fe  Fe71  1  0.74656010  0.25351037  0.25165438  1
  Fe  Fe72  1  -0.00177149  0.00146672  0.74907444  1
  Fe  Fe73  1  0.25113528  -0.00239022  0.24706624  1
  Fe  Fe74  1  0.87390023  0.37814677  0.37315709  1
  Fe  Fe75  1  -0.00110273  0.50165029  0.49958896  1
  Fe  Fe76  1  0.25161288  0.75091043  0.00012275  1
  Fe  Fe77  1  0.25108537  0.00131046  0.50279487  1
  Fe  Fe78  1  0.50147911  0.75165068  0.25145612  1
  Fe  Fe79  1  0.24920448  0.75181966  0.74938792  1
  Fe  Fe80  1  0.87123940  0.12387155  0.37487467  1
  Fe  Fe81  1  0.24973438  0.25119713  0.24847209  1
  Fe  Fe82  1  0.74993818  0.25116296  0.49865946  1
  Fe  Fe83  1  0.50246078  0.24721360  -0.00468010  1
  Fe  Fe84  1  0.25008001  0.49743550  0.00401478  1
  Fe  Fe85  1  0.49742257  0.00702285  0.49818582  1
  Fe  Fe86  1  0.74842077  0.50003692  0.00415776  1
  Fe  Fe87  1  0.37779621  0.37483220  0.37555006  1
  Fe  Fe88  1  0.37676149  0.87632378  0.37565106  1
  Fe  Fe89  1  0.75011631  0.25117718  0.75082556  1
  Co  Co90  1  0.00121557  0.75056694  0.24702274  1
  Co  Co91  1  0.12130481  0.37126425  0.62258243  1
  Co  Co92  1  -0.00021289  0.74740388  0.50206566  1
  Co  Co93  1  -0.00077728  0.25038420  0.75635874  1
  Co  Co94  1  -0.00227980  0.00108751  0.00097890  1
  Co  Co95  1  -0.00376961  0.50279726  0.00375466  1
  Co  Co96  1  0.62036046  0.87677468  0.62205832  1
  Co  Co97  1  0.62585309  0.62815525  0.12715927  1
  Co  Co98  1  0.62152363  0.37126899  0.12298851  1
  Co  Co99  1  0.62421869  0.37859597  0.37964887  1
  Co  Co100  1  0.49942651  0.24507751  0.49530405  1
  Co  Co101  1  0.12783601  0.62564187  0.12382365  1
  Co  Co102  1  0.74665907  0.75567868  0.25304915  1
  Co  Co103  1  0.74957717  0.25243363  -0.00150844  1
  Co  Co104  1  0.50313516  0.00007682  0.25071815  1
  Co  Co105  1  -0.00176832  0.24857219  0.49309351  1
  Co  Co106  1  0.12334650  0.87609894  0.62473607  1
  Co  Co107  1  0.49957165  0.50118769  0.74898248  1
  Co  Co108  1  0.37664751  0.12719300  0.62916416  1
  Co  Co109  1  0.74894604  0.74872730  0.50081066  1
  Co  Co110  1  0.63000502  0.12315688  0.87437534  1
  Co  Co111  1  0.87536326  0.12855183  0.62468854  1
  Co  Co112  1  0.12190983  0.37434813  0.12477430  1
  Co  Co113  1  0.63120847  0.12175685  0.37636794  1
  Co  Co114  1  0.37272236  0.62698597  0.62645995  1
  Co  Co115  1  0.37810602  0.87497251  0.12441734  1
  Co  Co116  1  0.74711485  0.49516467  0.24580576  1
  Co  Co117  1  0.75121624  0.49582637  0.74651193  1
  Co  Co118  1  0.37085944  0.12364046  0.37063433  1
  Co  Co119  1  0.87291243  0.62659335  0.37084146  1
  Co  Co120  1  0.12460999  0.37837818  0.87817330  1
  Co  Co121  1  0.50061132  0.00118458  -0.00244025  1
  Co  Co122  1  0.50182723  0.24983978  0.75458298  1
  Co  Co123  1  0.25231887  0.00067651  0.00184589  1
  Co  Co124  1  0.74994974  0.74816706  -0.00192578  1
  Co  Co125  1  0.74861395  0.75414997  0.74838738  1
  Co  Co126  1  0.74938188  -0.00105979  0.00104639  1
  Co  Co127  1  0.50143701  0.74500100  0.49918306  1
