# generated using pymatgen
data_Fe45Co19
_symmetry_space_group_name_H-M   'P 1'
_cell_length_a   11.41411856
_cell_length_b   11.41593506
_cell_length_c   11.41444687
_cell_angle_alpha   89.99893886
_cell_angle_beta   90.00678511
_cell_angle_gamma   89.99747229
_symmetry_Int_Tables_number   1
_chemical_formula_structural   Fe45Co19
_chemical_formula_sum   'Fe90 Co38'
_cell_volume   1487.33478851
_cell_formula_units_Z   2
loop_
 _symmetry_equiv_pos_site_id
 _symmetry_equiv_pos_as_xyz
  1  'x, y, z'
loop_
 _atom_site_type_symbol
 _atom_site_label
 _atom_site_symmetry_multiplicity
 _atom_site_fract_x
 _atom_site_fract_y
 _atom_site_fract_z
 _atom_site_occupancy
  Fe  Fe0  1  0.25052746  0.74996606  0.75083186  1
  Fe  Fe1  1  0.00410525  0.49798858  0.00040522  1
  Fe  Fe2  1  0.62357951  0.62524553  0.62583350  1
  Fe  Fe3  1  0.74947265  0.49807042  0.25049585  1
  Fe  Fe4  1  0.62223811  0.37273041  0.87430349  1
  Fe  Fe5  1  0.74826743  0.49763616  0.75041235  1
  Fe  Fe6  1  0.12402650  0.87479002  0.62568982  1
  Fe  Fe7  1  0.62257054  0.87549571  0.37289464  1
  Fe  Fe8  1  0.50167374  0.00319312  0.00282704  1
  Fe  Fe9  1  0.25137224  0.49747344  0.75328441  1
  Fe  Fe10  1  0.37530547  0.37414677  0.62534673  1
  Fe  Fe11  1  0.25461144  0.50021257  0.25228580  1
  Fe  Fe12  1  0.87475281  0.87357197  0.12377598  1
  Fe  Fe13  1  -0.00027085  0.00143385  -0.00122724  1
  Fe  Fe14  1  0.75283946  0.74853676  0.75305532  1
  Fe  Fe15  1  0.24875790  -0.00108833  -0.00069946  1
  Fe  Fe16  1  0.62755245  0.12601149  0.37698325  1
  Fe  Fe17  1  -0.00219249  0.74687397  -0.00406598  1
  Fe  Fe18  1  0.12330541  0.12777723  0.87580676  1
  Fe  Fe19  1  0.37409043  0.12625588  0.87504393  1
  Fe  Fe20  1  0.62497328  0.37422454  0.62500377  1
  Fe  Fe21  1  0.87486713  0.62131006  0.62272643  1
  Fe  Fe22  1  0.12634043  0.62599729  0.37525948  1
  Fe  Fe23  1  0.12196105  0.37578206  0.62496308  1
  Fe  Fe24  1  0.12661317  0.62532226  0.62520150  1
  Fe  Fe25  1  0.62401051  0.62536788  0.87444625  1
  Fe  Fe26  1  0.50088798  0.00280050  0.74729593  1
  Fe  Fe27  1  0.62504758  0.87438674  0.87435420  1
  Fe  Fe28  1  -0.00058592  0.25309894  0.24750070  1
  Fe  Fe29  1  0.12875387  0.62485300  0.12389435  1
  Fe  Fe30  1  0.49915505  0.24768290  0.00240236  1
  Fe  Fe31  1  0.50140073  0.00406508  0.24680209  1
  Fe  Fe32  1  0.00092295  0.74909443  0.50087244  1
  Fe  Fe33  1  0.49954332  0.49821462  0.00125060  1
  Fe  Fe34  1  0.12389966  0.12463790  0.62296306  1
  Fe  Fe35  1  0.24967514  0.25092954  0.75076660  1
  Fe  Fe36  1  0.62597774  0.87443202  0.62539885  1
  Fe  Fe37  1  0.87486117  0.12628808  0.12400972  1
  Fe  Fe38  1  0.62427818  0.62539989  0.12555074  1
  Fe  Fe39  1  0.37559917  0.62465715  0.62557604  1
  Fe  Fe40  1  0.74925453  0.74933187  0.49871330  1
  Fe  Fe41  1  -0.00048253  0.49996900  0.24907885  1
  Fe  Fe42  1  0.49971115  0.00265541  0.50277275  1
  Fe  Fe43  1  0.37144094  0.37220545  0.12573715  1
  Fe  Fe44  1  0.25128811  0.75150251  -0.00160860  1
  Fe  Fe45  1  0.74983283  -0.00002325  0.24844783  1
  Fe  Fe46  1  0.75193453  -0.00168171  0.49983163  1
  Fe  Fe47  1  0.37266091  0.87632498  0.62401978  1
  Fe  Fe48  1  0.37720324  0.87685024  0.87401158  1
  Fe  Fe49  1  0.61994666  0.62221978  0.37396886  1
  Fe  Fe50  1  0.87706035  0.37557831  0.87637970  1
  Fe  Fe51  1  0.74892886  0.74906398  0.24903532  1
  Fe  Fe52  1  0.87812063  0.87418947  0.62859901  1
  Fe  Fe53  1  0.25001776  0.49650480  -0.00350977  1
  Fe  Fe54  1  0.62703937  0.12670423  0.87390834  1
  Fe  Fe55  1  0.12052550  0.87328516  0.87170318  1
  Fe  Fe56  1  0.00133060  0.50327134  0.75282924  1
  Fe  Fe57  1  0.12104223  0.12367025  0.37578578  1
  Fe  Fe58  1  0.62195628  0.37637916  0.37554568  1
  Fe  Fe59  1  -0.00094585  0.74783511  0.24916764  1
  Fe  Fe60  1  0.24849648  0.00043254  0.25006433  1
  Fe  Fe61  1  0.49956640  0.24847775  0.50198762  1
  Fe  Fe62  1  -0.00289549  0.24865499  0.74927093  1
  Fe  Fe63  1  0.25544305  0.74954610  0.25274769  1
  Fe  Fe64  1  0.75087641  0.00142436  0.75103502  1
  Fe  Fe65  1  0.24726818  0.25244406  -0.00072233  1
  Fe  Fe66  1  0.24919041  0.24983667  0.49875548  1
  Fe  Fe67  1  0.50079098  0.75058006  0.00126929  1
  Fe  Fe68  1  0.37649343  0.62444586  0.87477671  1
  Fe  Fe69  1  0.75297772  0.25248501  0.25161384  1
  Fe  Fe70  1  0.49848842  0.24873677  0.24844752  1
  Fe  Fe71  1  0.62593941  0.37286587  0.12621849  1
  Fe  Fe72  1  0.49758864  0.75096441  0.49922920  1
  Fe  Fe73  1  0.75150531  0.25203098  -0.00105240  1
  Fe  Fe74  1  0.87683829  0.87475980  0.37374104  1
  Fe  Fe75  1  0.75416970  0.25484161  0.50086986  1
  Fe  Fe76  1  0.25154547  0.49952470  0.49867495  1
  Fe  Fe77  1  0.24858463  0.00152338  0.75023256  1
  Fe  Fe78  1  0.50055882  0.24779668  0.74799170  1
  Fe  Fe79  1  0.12452247  0.87551326  0.37657018  1
  Fe  Fe80  1  0.74947859  -0.00121467  0.00019265  1
  Fe  Fe81  1  0.87366356  0.12526832  0.62474147  1
  Fe  Fe82  1  0.87211868  0.62171858  0.12111656  1
  Fe  Fe83  1  0.37403814  0.12482335  0.37525583  1
  Fe  Fe84  1  0.87742976  0.12449917  0.37498050  1
  Fe  Fe85  1  0.12368872  0.37529332  0.37436150  1
  Fe  Fe86  1  0.37667378  0.87610751  0.12612308  1
  Fe  Fe87  1  0.12547795  0.12602157  0.12537729  1
  Fe  Fe88  1  0.12338466  0.87219712  0.12513199  1
  Fe  Fe89  1  0.87428178  0.62225085  0.37716269  1
  Co  Co90  1  0.74433076  0.49726351  -0.00108373  1
  Co  Co91  1  -0.00165067  0.74407129  0.75112206  1
  Co  Co92  1  0.37980707  0.62170845  0.37699606  1
  Co  Co93  1  0.50012360  0.49851717  0.75023994  1
  Co  Co94  1  0.74631675  0.49909630  0.49989207  1
  Co  Co95  1  0.63045098  0.12622927  0.62405138  1
  Co  Co96  1  0.87363464  0.37781060  0.12294840  1
  Co  Co97  1  0.24906770  0.00195463  0.50005718  1
  Co  Co98  1  0.37721245  0.37333072  0.37633131  1
  Co  Co99  1  0.49943279  0.49870688  0.50381652  1
  Co  Co100  1  0.49709973  0.49705231  0.24566750  1
  Co  Co101  1  -0.00153056  0.25097148  0.50029779  1
  Co  Co102  1  0.37236608  0.12630799  0.62611881  1
  Co  Co103  1  0.00358429  0.50140851  0.49774644  1
  Co  Co104  1  0.87232132  0.62008860  0.87828755  1
  Co  Co105  1  0.62458038  0.87361657  0.12677761  1
  Co  Co106  1  0.87400683  0.12719506  0.87692083  1
  Co  Co107  1  0.87719374  0.37928248  0.37692612  1
  Co  Co108  1  0.49672659  0.74882088  0.24965075  1
  Co  Co109  1  0.37299949  0.62478703  0.12217434  1
  Co  Co110  1  0.00057471  0.00490742  0.75049583  1
  Co  Co111  1  0.24823899  0.24873679  0.25332616  1
  Co  Co112  1  0.37669730  0.87958974  0.37432319  1
  Co  Co113  1  0.00175581  0.25205281  0.00383305  1
  Co  Co114  1  0.25172144  0.74918279  0.49795368  1
  Co  Co115  1  0.00030380  -0.00080748  0.24784707  1
  Co  Co116  1  0.87878538  0.38040951  0.62489657  1
  Co  Co117  1  0.62979727  0.12814346  0.12530809  1
  Co  Co118  1  0.74933688  0.75123688  -0.00148736  1
  Co  Co119  1  0.37798253  0.37163867  0.87458057  1
  Co  Co120  1  0.36999437  0.12583052  0.12407979  1
  Co  Co121  1  0.12198032  0.37311365  0.87242486  1
  Co  Co122  1  0.12865429  0.62568055  0.87592230  1
  Co  Co123  1  0.87697578  0.87644031  0.87322819  1
  Co  Co124  1  0.12862239  0.37736220  0.12821771  1
  Co  Co125  1  0.49893472  0.75141421  0.74945510  1
  Co  Co126  1  0.75229460  0.25372546  0.74935801  1
  Co  Co127  1  -0.00154265  -0.00142973  0.50119428  1
