# generated using pymatgen
data_Fe45Co19
_symmetry_space_group_name_H-M   'P 1'
_cell_length_a   11.41658307
_cell_length_b   11.41466016
_cell_length_c   11.41470573
_cell_angle_alpha   89.99429076
_cell_angle_beta   89.99460313
_cell_angle_gamma   90.00939802
_symmetry_Int_Tables_number   1
_chemical_formula_structural   Fe45Co19
_chemical_formula_sum   'Fe90 Co38'
_cell_volume   1487.52350545
_cell_formula_units_Z   2
loop_
 _symmetry_equiv_pos_site_id
 _symmetry_equiv_pos_as_xyz
  1  'x, y, z'
loop_
 _atom_site_type_symbol
 _atom_site_label
 _atom_site_symmetry_multiplicity
 _atom_site_fract_x
 _atom_site_fract_y
 _atom_site_fract_z
 _atom_site_occupancy
  Fe  Fe0  1  0.74945866  0.75163410  0.50009766  1
  Fe  Fe1  1  0.25207595  0.24923526  0.24834235  1
  Fe  Fe2  1  0.12357818  0.37613819  0.62527465  1
  Fe  Fe3  1  0.74857093  0.24840813  0.24746435  1
  Fe  Fe4  1  0.50138016  0.75016291  0.50012159  1
  Fe  Fe5  1  0.50099604  0.50129286  0.75111959  1
  Fe  Fe6  1  0.87342010  0.12425336  0.87563397  1
  Fe  Fe7  1  0.75332155  0.50318723  0.74953787  1
  Fe  Fe8  1  0.37479963  0.12587225  0.37638626  1
  Fe  Fe9  1  0.62424238  0.62401122  0.12384006  1
  Fe  Fe10  1  0.87405532  0.87306734  0.87511406  1
  Fe  Fe11  1  0.00161256  -0.00062328  0.49494500  1
  Fe  Fe12  1  0.87621417  0.12241122  0.12719994  1
  Fe  Fe13  1  0.74871712  0.25104850  0.00129308  1
  Fe  Fe14  1  0.62017682  0.12072147  0.12263416  1
  Fe  Fe15  1  -0.00029087  0.49869959  0.24979111  1
  Fe  Fe16  1  0.87346867  0.37367542  0.37394624  1
  Fe  Fe17  1  0.37723985  0.87588709  0.62629510  1
  Fe  Fe18  1  0.87439900  0.87511739  0.62511957  1
  Fe  Fe19  1  0.62584633  0.62481018  0.37538736  1
  Fe  Fe20  1  0.12766173  0.37404570  0.37410114  1
  Fe  Fe21  1  -0.00232321  0.74907410  0.75004507  1
  Fe  Fe22  1  0.50390929  0.24770116  0.75524366  1
  Fe  Fe23  1  0.24734372  -0.00164073  0.50069649  1
  Fe  Fe24  1  0.37074174  0.87439433  0.87717011  1
  Fe  Fe25  1  -0.00045401  0.25068630  0.75124153  1
  Fe  Fe26  1  0.12403674  0.12445605  0.62419106  1
  Fe  Fe27  1  0.37442057  0.62690001  0.87378821  1
  Fe  Fe28  1  0.62704124  0.62361855  0.87743008  1
  Fe  Fe29  1  0.74871113  0.24949304  0.75128303  1
  Fe  Fe30  1  0.24898455  0.49833623  0.75188793  1
  Fe  Fe31  1  0.37545637  0.37490814  0.37674940  1
  Fe  Fe32  1  0.75075412  0.49974046  0.24857016  1
  Fe  Fe33  1  0.62189960  0.37745548  0.12113935  1
  Fe  Fe34  1  0.49888755  0.24898568  0.24872701  1
  Fe  Fe35  1  0.12486115  0.12635637  0.87535247  1
  Fe  Fe36  1  0.24849281  0.75220925  0.50319170  1
  Fe  Fe37  1  0.12352451  0.12327001  0.12606553  1
  Fe  Fe38  1  0.37695273  0.37382658  0.87734017  1
  Fe  Fe39  1  0.75212800  0.75005658  0.00271849  1
  Fe  Fe40  1  0.37641079  0.12528702  0.62567264  1
  Fe  Fe41  1  -0.00169041  0.49867080  -0.00058374  1
  Fe  Fe42  1  0.37808909  0.37403289  0.62399359  1
  Fe  Fe43  1  0.24806656  -0.00089230  0.75049517  1
  Fe  Fe44  1  0.12597656  0.62727783  0.37292385  1
  Fe  Fe45  1  -0.00011604  0.75279572  0.49849605  1
  Fe  Fe46  1  0.37611454  0.62408271  0.12662397  1
  Fe  Fe47  1  0.25108087  0.75226097  0.24595596  1
  Fe  Fe48  1  0.37380418  0.62602410  0.37392427  1
  Fe  Fe49  1  0.49880599  0.75254915  0.00168720  1
  Fe  Fe50  1  0.87013484  0.87771034  0.36897547  1
  Fe  Fe51  1  0.74753670  0.24823747  0.49993589  1
  Fe  Fe52  1  0.62370898  0.37665461  0.62409280  1
  Fe  Fe53  1  0.87423641  0.62534551  0.37480723  1
  Fe  Fe54  1  0.37938313  0.11902852  0.12126881  1
  Fe  Fe55  1  0.50158367  0.75094463  0.75017894  1
  Fe  Fe56  1  0.12389209  0.62535724  0.62666005  1
  Fe  Fe57  1  -0.00028299  0.24781744  0.25206150  1
  Fe  Fe58  1  0.50411951  0.00087977  0.49741299  1
  Fe  Fe59  1  0.74917243  -0.00022341  0.74867773  1
  Fe  Fe60  1  0.00029074  -0.00092245  0.75181975  1
  Fe  Fe61  1  0.49924671  0.50036916  0.25122659  1
  Fe  Fe62  1  0.87581875  0.62466696  0.12419281  1
  Fe  Fe63  1  0.24907213  0.25048032  0.75036746  1
  Fe  Fe64  1  0.62322121  0.37512898  0.37598085  1
  Fe  Fe65  1  0.12365900  0.62638099  0.87555210  1
  Fe  Fe66  1  0.00011029  -0.00339417  0.00158040  1
  Fe  Fe67  1  0.25116840  0.50051499  0.49908767  1
  Fe  Fe68  1  0.37427392  0.62572636  0.62638894  1
  Fe  Fe69  1  0.62681768  0.62584949  0.62354119  1
  Fe  Fe70  1  0.87379303  0.37603267  0.87597769  1
  Fe  Fe71  1  0.50247904  0.00109651  0.75420620  1
  Fe  Fe72  1  0.00086887  0.24768277  0.49742857  1
  Fe  Fe73  1  -0.00108851  0.75440282  0.24709046  1
  Fe  Fe74  1  0.37477250  0.87396929  0.37544138  1
  Fe  Fe75  1  0.24933419  -0.00120602  0.24957023  1
  Fe  Fe76  1  0.74999536  -0.00181820  0.00164191  1
  Fe  Fe77  1  0.50095539  0.75409717  0.24840582  1
  Fe  Fe78  1  0.25127047  0.50183545  0.00025398  1
  Fe  Fe79  1  0.12530245  0.37481794  0.12418740  1
  Fe  Fe80  1  0.12424470  0.62534950  0.12515891  1
  Fe  Fe81  1  -0.00160284  0.25005172  -0.00029268  1
  Fe  Fe82  1  0.37671131  0.37655993  0.12280060  1
  Fe  Fe83  1  0.87570727  0.37574759  0.62425718  1
  Fe  Fe84  1  -0.00125000  0.50102937  0.49945895  1
  Fe  Fe85  1  0.12691643  0.87140536  0.87801649  1
  Fe  Fe86  1  0.25163471  0.24708524  0.00068416  1
  Fe  Fe87  1  0.87534534  0.12417223  0.62415042  1
  Fe  Fe88  1  0.62773498  0.87325317  0.87477036  1
  Fe  Fe89  1  0.74608782  0.00187560  0.49865946  1
  Co  Co90  1  0.25021754  0.25072860  0.50182463  1
  Co  Co91  1  0.75357755  0.49985449  0.00275916  1
  Co  Co92  1  0.87657314  0.37326250  0.12621188  1
  Co  Co93  1  0.87558630  0.62613906  0.87750134  1
  Co  Co94  1  0.49880914  0.50250398  0.49948829  1
  Co  Co95  1  0.12812902  0.12575502  0.37438701  1
  Co  Co96  1  -0.00253676  0.75301741  0.00303303  1
  Co  Co97  1  0.74576186  0.00477977  0.24950623  1
  Co  Co98  1  0.49720900  0.50268299  -0.00084210  1
  Co  Co99  1  0.25034044  0.49935919  0.24960912  1
  Co  Co100  1  0.74958084  0.74583301  0.24759095  1
  Co  Co101  1  0.62774711  0.87292942  0.37186044  1
  Co  Co102  1  0.75048152  0.74858438  0.74963114  1
  Co  Co103  1  0.50145948  -0.00336288  -0.00575081  1
  Co  Co104  1  0.12802837  0.87493530  0.12295091  1
  Co  Co105  1  0.50138206  0.24802820  0.50012997  1
  Co  Co106  1  0.50165132  0.24770609  -0.00309883  1
  Co  Co107  1  0.87145785  0.87750006  0.12918377  1
  Co  Co108  1  0.12717213  0.87279115  0.37228099  1
  Co  Co109  1  0.62636657  0.37947490  0.87715069  1
  Co  Co110  1  0.87521919  0.62741410  0.62233434  1
  Co  Co111  1  -0.00223936  0.50032414  0.75103340  1
  Co  Co112  1  0.62334532  0.12809747  0.37259934  1
  Co  Co113  1  0.37527932  0.87954512  0.12246938  1
  Co  Co114  1  0.25245301  0.74675847  0.00307297  1
  Co  Co115  1  0.87300257  0.12413171  0.37369170  1
  Co  Co116  1  0.62429257  0.87507782  0.62590530  1
  Co  Co117  1  0.24899490  0.75157519  0.74820448  1
  Co  Co118  1  0.62579546  0.87652798  0.12668328  1
  Co  Co119  1  0.12499959  0.37426935  0.87811591  1
  Co  Co120  1  0.62423632  0.12479830  0.62717051  1
  Co  Co121  1  0.12216331  0.87497562  0.62621499  1
  Co  Co122  1  0.37338961  0.12464390  0.87499936  1
  Co  Co123  1  0.62968742  0.12335712  0.87715630  1
  Co  Co124  1  0.24712590  0.00235595  -0.00094584  1
  Co  Co125  1  0.00245352  -0.00171221  0.25098242  1
  Co  Co126  1  0.75098950  0.49932500  0.49961319  1
  Co  Co127  1  0.50058630  -0.00293314  0.25394897  1
