# generated using pymatgen
data_Fe45Co19
_symmetry_space_group_name_H-M   'P 1'
_cell_length_a   11.41351909
_cell_length_b   11.41483209
_cell_length_c   11.41761182
_cell_angle_alpha   89.99311430
_cell_angle_beta   90.00025196
_cell_angle_gamma   89.98635767
_symmetry_Int_Tables_number   1
_chemical_formula_structural   Fe45Co19
_chemical_formula_sum   'Fe90 Co38'
_cell_volume   1487.52528081
_cell_formula_units_Z   2
loop_
 _symmetry_equiv_pos_site_id
 _symmetry_equiv_pos_as_xyz
  1  'x, y, z'
loop_
 _atom_site_type_symbol
 _atom_site_label
 _atom_site_symmetry_multiplicity
 _atom_site_fract_x
 _atom_site_fract_y
 _atom_site_fract_z
 _atom_site_occupancy
  Fe  Fe0  1  -0.00014520  0.25069618  0.25006072  1
  Fe  Fe1  1  0.12338035  0.37631310  0.37695082  1
  Fe  Fe2  1  0.00104141  0.75288417  -0.00070636  1
  Fe  Fe3  1  0.25075630  0.75187664  0.49891889  1
  Fe  Fe4  1  0.62296794  0.62659385  0.37360195  1
  Fe  Fe5  1  0.49869427  0.74995165  -0.00044671  1
  Fe  Fe6  1  0.87514556  0.62749979  0.62628225  1
  Fe  Fe7  1  0.75008585  0.24866228  0.49843130  1
  Fe  Fe8  1  0.49753202  0.50012209  0.50251505  1
  Fe  Fe9  1  0.74879962  0.50169308  0.00086089  1
  Fe  Fe10  1  0.37774877  0.12087223  0.37701554  1
  Fe  Fe11  1  0.12427987  0.62656903  0.87538363  1
  Fe  Fe12  1  0.87828304  0.37726154  0.37615968  1
  Fe  Fe13  1  0.74820403  -0.00013043  0.49901916  1
  Fe  Fe14  1  0.37476128  0.87759157  0.87379756  1
  Fe  Fe15  1  0.75068909  0.24928930  0.00088326  1
  Fe  Fe16  1  0.49859820  0.50062685  0.24774436  1
  Fe  Fe17  1  0.24860615  -0.00055472  0.50155189  1
  Fe  Fe18  1  0.25175731  0.24886352  0.25123624  1
  Fe  Fe19  1  0.49914487  0.50025820  0.00266855  1
  Fe  Fe20  1  0.37637161  0.87852125  0.62746223  1
  Fe  Fe21  1  0.25177310  0.24710303  0.50041424  1
  Fe  Fe22  1  0.74742654  0.75202854  0.75170077  1
  Fe  Fe23  1  0.87768529  0.12375974  0.12323464  1
  Fe  Fe24  1  0.24579341  0.50572353  0.25055921  1
  Fe  Fe25  1  0.87854928  0.12104401  0.37539991  1
  Fe  Fe26  1  0.74949868  0.00032673  0.24948856  1
  Fe  Fe27  1  0.24715001  -0.00107735  -0.00154250  1
  Fe  Fe28  1  0.12516334  0.12486235  0.12674368  1
  Fe  Fe29  1  0.50211875  -0.00022236  -0.00104879  1
  Fe  Fe30  1  0.37532972  0.12256565  0.12349618  1
  Fe  Fe31  1  0.12469701  0.62865752  0.62419551  1
  Fe  Fe32  1  0.50014826  0.75277564  0.50214762  1
  Fe  Fe33  1  -0.00208195  0.75364486  0.49822150  1
  Fe  Fe34  1  0.12156762  0.12252435  0.62682329  1
  Fe  Fe35  1  0.37177730  0.62762471  0.12499028  1
  Fe  Fe36  1  0.62141732  0.12404316  0.37440243  1
  Fe  Fe37  1  0.25562920  0.24393433  0.74848993  1
  Fe  Fe38  1  0.87938920  0.12228165  0.87665420  1
  Fe  Fe39  1  0.12649410  0.37409859  0.12578447  1
  Fe  Fe40  1  0.00127885  0.49873454  0.00085302  1
  Fe  Fe41  1  0.87493344  0.87714213  0.12561393  1
  Fe  Fe42  1  0.00053117  0.75487544  0.75095881  1
  Fe  Fe43  1  0.62445676  0.37564143  0.37519332  1
  Fe  Fe44  1  0.24944993  0.75202499  0.75138774  1
  Fe  Fe45  1  0.87757085  0.62436977  0.12569433  1
  Fe  Fe46  1  0.75011175  0.50254237  0.50119413  1
  Fe  Fe47  1  0.62283931  0.37203431  0.62473581  1
  Fe  Fe48  1  0.12327185  0.12212415  0.37388111  1
  Fe  Fe49  1  0.75032782  0.49938372  0.74975952  1
  Fe  Fe50  1  0.25079107  0.24916402  -0.00002777  1
  Fe  Fe51  1  0.25329380  -0.00318235  0.24983155  1
  Fe  Fe52  1  0.62665827  0.87456707  0.37504619  1
  Fe  Fe53  1  0.87801138  0.12320241  0.62447484  1
  Fe  Fe54  1  0.87307448  0.87849386  0.87799125  1
  Fe  Fe55  1  0.37607290  0.37252107  0.87499760  1
  Fe  Fe56  1  0.62257366  0.12770003  0.87647617  1
  Fe  Fe57  1  0.87575225  0.37347780  0.87603689  1
  Fe  Fe58  1  0.12219011  0.12227335  0.87242466  1
  Fe  Fe59  1  0.74945259  0.74843847  0.00068825  1
  Fe  Fe60  1  0.62346861  0.12467842  0.12634934  1
  Fe  Fe61  1  0.62537131  0.62778366  0.62576482  1
  Fe  Fe62  1  0.12579756  0.37142726  0.62507948  1
  Fe  Fe63  1  0.12606769  0.37253298  0.87253180  1
  Fe  Fe64  1  0.62412072  0.62568527  0.87442514  1
  Fe  Fe65  1  0.87587659  0.62544272  0.87404260  1
  Fe  Fe66  1  0.62202323  0.37338672  0.87429230  1
  Fe  Fe67  1  0.74651660  0.00002350  0.75202373  1
  Fe  Fe68  1  0.24988935  0.50220752  0.50190062  1
  Fe  Fe69  1  0.75210268  0.24945300  0.25112739  1
  Fe  Fe70  1  0.37505899  0.62666502  0.37637848  1
  Fe  Fe71  1  0.87113679  0.87601937  0.62279855  1
  Fe  Fe72  1  0.37570939  0.62596821  0.87211522  1
  Fe  Fe73  1  0.25076706  0.50098873  0.74771717  1
  Fe  Fe74  1  0.61975101  0.12495333  0.62317837  1
  Fe  Fe75  1  0.49703160  0.24978601  0.24932591  1
  Fe  Fe76  1  0.49529427  0.75486206  0.24865002  1
  Fe  Fe77  1  0.75215194  0.74979076  0.25112072  1
  Fe  Fe78  1  0.75059751  0.24846496  0.74985437  1
  Fe  Fe79  1  0.62565820  0.37450396  0.12569387  1
  Fe  Fe80  1  0.62557505  0.87502743  0.12371037  1
  Fe  Fe81  1  0.87640398  0.37271372  0.62361242  1
  Fe  Fe82  1  0.49755960  0.50029227  0.74678751  1
  Fe  Fe83  1  0.00112818  0.49902257  0.74822511  1
  Fe  Fe84  1  0.12887422  0.87017843  0.12609788  1
  Fe  Fe85  1  0.75032127  0.50106882  0.24856674  1
  Fe  Fe86  1  0.37311952  0.37667869  0.37424098  1
  Fe  Fe87  1  0.12444251  0.87513950  0.37312975  1
  Fe  Fe88  1  0.87900163  0.62296606  0.37447403  1
  Fe  Fe89  1  0.25019615  0.50135710  -0.00051877  1
  Co  Co90  1  0.50264066  0.00108625  0.75340312  1
  Co  Co91  1  0.00261563  0.24952693  0.00049966  1
  Co  Co92  1  0.49821429  0.25113630  0.00398133  1
  Co  Co93  1  0.12672307  0.87472750  0.62475212  1
  Co  Co94  1  -0.00101775  -0.00534258  0.74937628  1
  Co  Co95  1  0.00179894  -0.00195284  0.24760992  1
  Co  Co96  1  0.50266263  -0.00480923  0.49833760  1
  Co  Co97  1  0.37311736  0.62943454  0.62541460  1
  Co  Co98  1  0.49570520  0.24642263  0.74937873  1
  Co  Co99  1  0.74802416  0.00216687  0.00031360  1
  Co  Co100  1  0.00400975  0.50050075  0.24681332  1
  Co  Co101  1  -0.00115898  0.25024711  0.75022436  1
  Co  Co102  1  0.62680076  0.87512939  0.62466313  1
  Co  Co103  1  0.50151213  0.75234103  0.74969715  1
  Co  Co104  1  0.87431321  0.87855912  0.37414638  1
  Co  Co105  1  0.62374612  0.62758082  0.12676956  1
  Co  Co106  1  0.25053963  0.00236235  0.74921290  1
  Co  Co107  1  0.12264693  0.62692156  0.37851851  1
  Co  Co108  1  0.37309898  0.37272906  0.62506040  1
  Co  Co109  1  0.75066986  0.74816278  0.49673899  1
  Co  Co110  1  0.25151280  0.74976126  -0.00457401  1
  Co  Co111  1  0.00450887  -0.00225486  0.00229959  1
  Co  Co112  1  0.00137942  -0.00287347  0.50060088  1
  Co  Co113  1  0.49736988  0.25246042  0.49727729  1
  Co  Co114  1  0.37110136  0.37642789  0.12685126  1
  Co  Co115  1  0.37969321  0.11934848  0.62074055  1
  Co  Co116  1  0.37389411  0.87679179  0.37788327  1
  Co  Co117  1  0.25171899  0.74910334  0.25315213  1
  Co  Co118  1  0.87442709  0.37467868  0.12425127  1
  Co  Co119  1  0.12625752  0.62968430  0.12136431  1
  Co  Co120  1  0.00093873  0.50066564  0.50514861  1
  Co  Co121  1  0.12668988  0.87610107  0.87411529  1
  Co  Co122  1  0.00047374  0.75009213  0.25068132  1
  Co  Co123  1  0.49864474  -0.00327202  0.24930539  1
  Co  Co124  1  0.37512417  0.12307317  0.87939310  1
  Co  Co125  1  0.00107146  0.24794265  0.49883618  1
  Co  Co126  1  0.37280010  0.87622541  0.12041360  1
  Co  Co127  1  0.62584738  0.87335730  0.87789505  1
