# generated using pymatgen
data_Fe45Co19
_symmetry_space_group_name_H-M   'P 1'
_cell_length_a   11.41539169
_cell_length_b   11.41423935
_cell_length_c   11.41631936
_cell_angle_alpha   90.00716785
_cell_angle_beta   89.99895004
_cell_angle_gamma   89.99244158
_symmetry_Int_Tables_number   1
_chemical_formula_structural   Fe45Co19
_chemical_formula_sum   'Fe90 Co38'
_cell_volume   1487.52370378
_cell_formula_units_Z   2
loop_
 _symmetry_equiv_pos_site_id
 _symmetry_equiv_pos_as_xyz
  1  'x, y, z'
loop_
 _atom_site_type_symbol
 _atom_site_label
 _atom_site_symmetry_multiplicity
 _atom_site_fract_x
 _atom_site_fract_y
 _atom_site_fract_z
 _atom_site_occupancy
  Fe  Fe0  1  0.87478748  0.62590543  0.62547159  1
  Fe  Fe1  1  0.87246165  0.62241930  0.37730031  1
  Fe  Fe2  1  0.12110963  0.87505598  0.12723865  1
  Fe  Fe3  1  0.00195348  0.24794863  0.74988268  1
  Fe  Fe4  1  0.62990350  0.62887960  0.88013202  1
  Fe  Fe5  1  0.25105580  0.75170932  0.50085212  1
  Fe  Fe6  1  0.12491926  0.37501961  0.37300544  1
  Fe  Fe7  1  0.00198177  0.25147863  -0.00105755  1
  Fe  Fe8  1  0.87439551  0.62206178  0.12108563  1
  Fe  Fe9  1  0.86721438  0.12818492  0.37799607  1
  Fe  Fe10  1  0.87286469  0.87534684  0.37250035  1
  Fe  Fe11  1  0.00175958  0.50188279  0.24922630  1
  Fe  Fe12  1  0.00213400  0.50309747  0.75169707  1
  Fe  Fe13  1  0.50103799  0.25147980  0.50035560  1
  Fe  Fe14  1  0.74976551  0.74676801  0.24825019  1
  Fe  Fe15  1  0.49898615  0.74863523  0.75459370  1
  Fe  Fe16  1  0.75144897  0.49431592  0.50367088  1
  Fe  Fe17  1  0.49908431  0.24975436  0.00069257  1
  Fe  Fe18  1  0.24991946  -0.00075772  0.25086736  1
  Fe  Fe19  1  0.25043708  0.50168977  0.75066304  1
  Fe  Fe20  1  -0.00071651  -0.00144340  0.49658110  1
  Fe  Fe21  1  0.50429807  0.24600809  0.24774682  1
  Fe  Fe22  1  0.74917355  0.50016892  0.24870397  1
  Fe  Fe23  1  0.00041656  0.00247698  0.25265749  1
  Fe  Fe24  1  0.25187281  0.25040812  0.25057571  1
  Fe  Fe25  1  0.25385468  0.49886916  0.49665800  1
  Fe  Fe26  1  -0.00263120  0.25271243  0.49981971  1
  Fe  Fe27  1  0.50197406  0.50259220  -0.00064686  1
  Fe  Fe28  1  0.50005753  0.50545566  0.25156975  1
  Fe  Fe29  1  0.87334915  0.12377079  0.87601163  1
  Fe  Fe30  1  0.37179242  0.37418603  0.87641733  1
  Fe  Fe31  1  -0.00431877  0.75358789  0.00120352  1
  Fe  Fe32  1  0.49875293  0.50403504  0.75333490  1
  Fe  Fe33  1  -0.00235150  0.74831514  0.25162515  1
  Fe  Fe34  1  0.87647787  0.37584481  0.87316832  1
  Fe  Fe35  1  0.62406045  0.37395004  0.87360531  1
  Fe  Fe36  1  0.87233963  0.12234658  0.62208906  1
  Fe  Fe37  1  -0.00189448  0.49854136  0.50043658  1
  Fe  Fe38  1  0.24932754  -0.00165883  0.49946406  1
  Fe  Fe39  1  0.74874776  0.25066804  0.74708726  1
  Fe  Fe40  1  0.62710054  0.12329772  0.87763898  1
  Fe  Fe41  1  0.49789297  0.50187949  0.49745499  1
  Fe  Fe42  1  0.12687329  0.12622673  0.37680483  1
  Fe  Fe43  1  0.50219590  0.74334376  0.24766584  1
  Fe  Fe44  1  0.37442529  0.12468066  0.62245203  1
  Fe  Fe45  1  0.74963331  0.25279250  0.00161411  1
  Fe  Fe46  1  0.37475098  0.12398595  0.12383329  1
  Fe  Fe47  1  0.49918937  0.24770349  0.75059215  1
  Fe  Fe48  1  0.24866261  -0.00255654  0.00086339  1
  Fe  Fe49  1  0.12788059  0.12663802  0.87626572  1
  Fe  Fe50  1  0.74895877  0.49899677  0.74974802  1
  Fe  Fe51  1  0.37513204  0.37759811  0.12735654  1
  Fe  Fe52  1  0.37628768  0.87244724  0.37250118  1
  Fe  Fe53  1  0.12203347  0.87501767  0.87430455  1
  Fe  Fe54  1  0.12653249  0.62445486  0.62301731  1
  Fe  Fe55  1  0.12121657  0.87492269  0.62511171  1
  Fe  Fe56  1  0.62856296  0.12281973  0.62193624  1
  Fe  Fe57  1  0.24963106  0.74727072  0.24721596  1
  Fe  Fe58  1  0.24906177  0.74943457  0.75056673  1
  Fe  Fe59  1  0.50158115  0.00086574  0.75163373  1
  Fe  Fe60  1  0.49874637  -0.00353930  -0.00171158  1
  Fe  Fe61  1  -0.00328014  0.24771198  0.25162216  1
  Fe  Fe62  1  0.87435849  0.12319126  0.12339302  1
  Fe  Fe63  1  -0.00086121  0.75027552  0.49885509  1
  Fe  Fe64  1  0.75170862  0.75547877  0.74971832  1
  Fe  Fe65  1  0.87715025  0.37581127  0.12514247  1
  Fe  Fe66  1  0.87444917  0.62477176  0.87681749  1
  Fe  Fe67  1  0.12543665  0.12636292  0.12476716  1
  Fe  Fe68  1  0.74555246  0.00335358  0.25149368  1
  Fe  Fe69  1  0.50334585  0.00282415  0.25107527  1
  Fe  Fe70  1  0.62551215  0.87338602  0.12439444  1
  Fe  Fe71  1  0.50389784  -0.00264327  0.49633953  1
  Fe  Fe72  1  0.12671306  0.62575523  0.37499290  1
  Fe  Fe73  1  0.12602504  0.37425643  0.62679978  1
  Fe  Fe74  1  0.62423868  0.62491138  0.62518170  1
  Fe  Fe75  1  0.74853549  0.75465977  0.50129550  1
  Fe  Fe76  1  0.75358212  -0.00628743  -0.00159541  1
  Fe  Fe77  1  0.24917371  0.00117333  0.74760381  1
  Fe  Fe78  1  0.62722664  0.37317905  0.37450854  1
  Fe  Fe79  1  -0.00054687  0.00290463  0.74989102  1
  Fe  Fe80  1  0.50143398  0.74886733  0.49862996  1
  Fe  Fe81  1  0.37754981  0.87372590  0.62754010  1
  Fe  Fe82  1  0.37563841  0.37550452  0.62630613  1
  Fe  Fe83  1  0.37060669  0.62666126  0.88119326  1
  Fe  Fe84  1  0.24308662  0.49769716  0.00589216  1
  Fe  Fe85  1  0.37594163  0.12570996  0.37578515  1
  Fe  Fe86  1  0.62426690  0.37732516  0.12427499  1
  Fe  Fe87  1  0.37616913  0.87253928  0.12439908  1
  Fe  Fe88  1  0.37248612  0.12498085  0.87653614  1
  Fe  Fe89  1  0.12380512  0.62669972  0.87947633  1
  Co  Co90  1  0.25179139  0.24774196  0.74737517  1
  Co  Co91  1  0.00249140  0.49724279  -0.00070143  1
  Co  Co92  1  0.87957849  0.87583849  0.87052394  1
  Co  Co93  1  0.37235649  0.62797401  0.37382538  1
  Co  Co94  1  0.12293443  0.12542201  0.62164996  1
  Co  Co95  1  0.75581465  0.75572834  0.00167523  1
  Co  Co96  1  0.87953100  0.87622038  0.62534045  1
  Co  Co97  1  0.12560600  0.87327158  0.37338303  1
  Co  Co98  1  0.62884360  0.13017894  0.37989009  1
  Co  Co99  1  0.00083202  0.74606622  0.74925664  1
  Co  Co100  1  0.62502728  0.87483932  0.87586477  1
  Co  Co101  1  0.75052067  -0.00250818  0.74969104  1
  Co  Co102  1  0.62095747  0.87475761  0.62811466  1
  Co  Co103  1  0.37583491  0.62604717  0.62475511  1
  Co  Co104  1  0.25069812  0.25140787  0.00265912  1
  Co  Co105  1  0.75200094  0.25833365  0.50585054  1
  Co  Co106  1  0.24832312  0.50198101  0.24883359  1
  Co  Co107  1  0.62386752  0.87120490  0.36970739  1
  Co  Co108  1  0.74766369  0.24899421  0.24401089  1
  Co  Co109  1  0.12691047  0.37308689  0.87177767  1
  Co  Co110  1  0.00081225  0.00016437  0.00043991  1
  Co  Co111  1  0.61869320  0.37818321  0.62801730  1
  Co  Co112  1  0.62835543  0.62510782  0.11954828  1
  Co  Co113  1  0.37362590  0.62373903  0.12127584  1
  Co  Co114  1  0.12157713  0.62925184  0.12413874  1
  Co  Co115  1  0.49978382  0.75009992  -0.00092176  1
  Co  Co116  1  0.37773504  0.37254539  0.37150758  1
  Co  Co117  1  0.62583004  0.12123064  0.11778733  1
  Co  Co118  1  0.75053332  0.49597108  -0.00173215  1
  Co  Co119  1  0.12254652  0.37098353  0.12967233  1
  Co  Co120  1  0.88010874  0.37613547  0.63198515  1
  Co  Co121  1  0.25017506  0.25138603  0.49971372  1
  Co  Co122  1  0.37352615  0.87556742  0.87313022  1
  Co  Co123  1  0.24807411  0.75399522  0.00078610  1
  Co  Co124  1  0.74718354  -0.00683075  0.49891778  1
  Co  Co125  1  0.87584369  0.87925485  0.13154203  1
  Co  Co126  1  0.62926194  0.62328656  0.37856847  1
  Co  Co127  1  0.87339604  0.37532043  0.37041151  1
