# generated using pymatgen
data_Fe45Co19
_symmetry_space_group_name_H-M   'P 1'
_cell_length_a   11.41486319
_cell_length_b   11.41550225
_cell_length_c   11.41573692
_cell_angle_alpha   89.99744322
_cell_angle_beta   89.99688041
_cell_angle_gamma   89.99707701
_symmetry_Int_Tables_number   1
_chemical_formula_structural   Fe45Co19
_chemical_formula_sum   'Fe90 Co38'
_cell_volume   1487.54353462
_cell_formula_units_Z   2
loop_
 _symmetry_equiv_pos_site_id
 _symmetry_equiv_pos_as_xyz
  1  'x, y, z'
loop_
 _atom_site_type_symbol
 _atom_site_label
 _atom_site_symmetry_multiplicity
 _atom_site_fract_x
 _atom_site_fract_y
 _atom_site_fract_z
 _atom_site_occupancy
  Fe  Fe0  1  0.62200633  0.12951617  0.87561909  1
  Fe  Fe1  1  -0.00062140  0.50262969  0.49864157  1
  Fe  Fe2  1  0.50230765  0.50283398  0.50088002  1
  Fe  Fe3  1  0.75148386  0.49853214  0.00012443  1
  Fe  Fe4  1  0.24905997  0.00000891  0.74952525  1
  Fe  Fe5  1  0.50069927  -0.00201294  0.24984911  1
  Fe  Fe6  1  0.00095844  -0.00064158  0.74854276  1
  Fe  Fe7  1  0.50092120  0.25104563  0.25299370  1
  Fe  Fe8  1  0.49964741  0.74768476  0.49918467  1
  Fe  Fe9  1  0.12506142  0.12547400  0.37563578  1
  Fe  Fe10  1  0.50452055  0.50203097  0.74936627  1
  Fe  Fe11  1  0.87668404  0.62367410  0.62672862  1
  Fe  Fe12  1  0.24510473  0.50448729  0.24580892  1
  Fe  Fe13  1  0.12487723  0.62180853  0.87914952  1
  Fe  Fe14  1  0.12443335  0.87012621  0.37579106  1
  Fe  Fe15  1  0.62710902  0.87458371  0.37445990  1
  Fe  Fe16  1  0.37373871  0.62453202  0.37366901  1
  Fe  Fe17  1  0.49860293  0.75174118  -0.00393215  1
  Fe  Fe18  1  0.87685086  0.37559353  0.12742004  1
  Fe  Fe19  1  -0.00238528  -0.00212745  0.50330565  1
  Fe  Fe20  1  0.24826355  0.50195603  0.74866579  1
  Fe  Fe21  1  0.50098987  -0.00123474  0.50046360  1
  Fe  Fe22  1  0.37366840  0.12427595  0.37409281  1
  Fe  Fe23  1  0.12742758  0.12736358  0.12705910  1
  Fe  Fe24  1  0.50067069  0.74781337  0.75353876  1
  Fe  Fe25  1  0.00022655  0.25299719  0.25214037  1
  Fe  Fe26  1  0.25050897  0.25026090  0.50103143  1
  Fe  Fe27  1  0.37750371  0.37561269  0.87311899  1
  Fe  Fe28  1  0.24990410  0.74555555  0.74782297  1
  Fe  Fe29  1  -0.00141121  0.25145287  0.74821866  1
  Fe  Fe30  1  0.12283937  0.37788374  0.87793982  1
  Fe  Fe31  1  0.37540290  0.87174835  0.62575037  1
  Fe  Fe32  1  0.37611673  0.12657911  0.87460691  1
  Fe  Fe33  1  0.37587479  0.37772342  0.62368188  1
  Fe  Fe34  1  0.24874389  -0.00170841  0.50003181  1
  Fe  Fe35  1  0.50023453  0.74991796  0.25097328  1
  Fe  Fe36  1  0.00108207  0.74810994  0.75097269  1
  Fe  Fe37  1  0.37411511  0.12526701  0.62431972  1
  Fe  Fe38  1  0.37247044  0.87273501  0.37479557  1
  Fe  Fe39  1  0.25174095  0.25180733  0.00040017  1
  Fe  Fe40  1  0.74893150  0.49793020  0.75006037  1
  Fe  Fe41  1  0.12793651  0.87312722  0.87720549  1
  Fe  Fe42  1  0.74985697  0.74800030  0.75252980  1
  Fe  Fe43  1  0.87385945  0.12287771  0.37496752  1
  Fe  Fe44  1  0.74710103  0.25140002  0.25332559  1
  Fe  Fe45  1  0.24914124  0.25160748  0.74822436  1
  Fe  Fe46  1  0.75172881  0.25310100  0.75019216  1
  Fe  Fe47  1  0.12263073  0.37709568  0.62439447  1
  Fe  Fe48  1  0.37348205  0.37723236  0.12777122  1
  Fe  Fe49  1  0.62650294  0.37378179  0.62192344  1
  Fe  Fe50  1  0.12392372  0.87049277  0.62285882  1
  Fe  Fe51  1  0.87494020  0.62187554  0.87555110  1
  Fe  Fe52  1  -0.00297689  0.25046449  0.50063750  1
  Fe  Fe53  1  0.62651799  0.12677944  0.62338077  1
  Fe  Fe54  1  0.50394639  0.50128564  0.25023849  1
  Fe  Fe55  1  0.50054767  -0.00107168  0.75114924  1
  Fe  Fe56  1  0.75130202  -0.00145788  0.50171021  1
  Fe  Fe57  1  -0.00354347  0.74999342  0.00062596  1
  Fe  Fe58  1  0.75033579  0.25214857  -0.00123621  1
  Fe  Fe59  1  0.00245944  -0.00146468  0.24864621  1
  Fe  Fe60  1  0.12748356  0.37435392  0.37540778  1
  Fe  Fe61  1  0.62369529  0.12600013  0.12523326  1
  Fe  Fe62  1  0.50067147  -0.00290526  -0.00176840  1
  Fe  Fe63  1  0.87436057  0.87630725  0.87432829  1
  Fe  Fe64  1  0.87359158  0.87766055  0.12475079  1
  Fe  Fe65  1  0.86975366  0.38111689  0.37525166  1
  Fe  Fe66  1  0.00225046  0.00005240  0.00064747  1
  Fe  Fe67  1  0.62645663  0.87098147  0.62588911  1
  Fe  Fe68  1  0.62449560  0.62839265  0.12125794  1
  Fe  Fe69  1  0.74896526  0.00064118  0.75076452  1
  Fe  Fe70  1  0.37264621  0.12357238  0.12657710  1
  Fe  Fe71  1  0.12142423  0.63171657  0.37401541  1
  Fe  Fe72  1  0.50153113  0.25061040  0.49705108  1
  Fe  Fe73  1  0.74727341  -0.00066692  -0.00105887  1
  Fe  Fe74  1  0.62360193  0.37421331  0.12389508  1
  Fe  Fe75  1  0.25351867  0.74452474  0.00218301  1
  Fe  Fe76  1  0.37379342  0.37865849  0.37373767  1
  Fe  Fe77  1  0.87433027  0.12550080  0.12608285  1
  Fe  Fe78  1  0.62926330  0.62369013  0.37552723  1
  Fe  Fe79  1  0.12480443  0.12544834  0.87411005  1
  Fe  Fe80  1  0.12747721  0.87231981  0.12449717  1
  Fe  Fe81  1  -0.00104130  0.25059724  0.00046955  1
  Fe  Fe82  1  0.87885067  0.62152348  0.12933428  1
  Fe  Fe83  1  0.49946837  0.49928866  -0.00208519  1
  Fe  Fe84  1  0.74760530  -0.00062677  0.24888212  1
  Fe  Fe85  1  0.37311820  0.87514899  0.12531243  1
  Fe  Fe86  1  0.87594026  0.12490235  0.87495723  1
  Fe  Fe87  1  0.24850807  0.50519810  0.50154586  1
  Fe  Fe88  1  0.75301928  0.74991246  0.24947019  1
  Fe  Fe89  1  0.75620701  0.74866444  0.49790211  1
  Co  Co90  1  0.12396263  0.12570795  0.62398591  1
  Co  Co91  1  0.62783530  0.87237036  0.87479614  1
  Co  Co92  1  0.37107901  0.87421736  0.87372168  1
  Co  Co93  1  0.25205233  0.50042738  0.00260047  1
  Co  Co94  1  0.24815662  -0.00219894  0.25226717  1
  Co  Co95  1  0.75036757  0.24981485  0.49699042  1
  Co  Co96  1  0.25250498  0.74738368  0.50133522  1
  Co  Co97  1  0.49998439  0.25030527  0.74586062  1
  Co  Co98  1  0.87516390  0.87917173  0.37272433  1
  Co  Co99  1  0.11960620  0.62624080  0.12275109  1
  Co  Co100  1  0.25106436  0.74688469  0.24723257  1
  Co  Co101  1  0.75539014  0.74919133  0.00125952  1
  Co  Co102  1  0.62685493  0.62476922  0.87884439  1
  Co  Co103  1  0.24951260  0.00193401  -0.00067220  1
  Co  Co104  1  0.74551010  0.50055934  0.24548685  1
  Co  Co105  1  0.87418596  0.12588511  0.62524712  1
  Co  Co106  1  -0.00818841  0.74976425  0.49933338  1
  Co  Co107  1  -0.00259447  0.49928946  0.00133811  1
  Co  Co108  1  0.62283805  0.37332647  0.87602613  1
  Co  Co109  1  0.87502350  0.61922187  0.36977918  1
  Co  Co110  1  0.87757578  0.37570118  0.87496760  1
  Co  Co111  1  0.62633719  0.62869866  0.62487039  1
  Co  Co112  1  0.87646225  0.37696005  0.62288679  1
  Co  Co113  1  0.12461185  0.37461269  0.12225564  1
  Co  Co114  1  0.74986290  0.50380415  0.50413913  1
  Co  Co115  1  0.12157476  0.62653320  0.62270785  1
  Co  Co116  1  0.25036569  0.25116857  0.25054887  1
  Co  Co117  1  0.87406992  0.87357641  0.63004113  1
  Co  Co118  1  0.00034027  0.50105122  0.75038467  1
  Co  Co119  1  0.62551719  0.87149831  0.12453370  1
  Co  Co120  1  0.49693698  0.25088469  0.00328340  1
  Co  Co121  1  0.00614994  0.49630829  0.25189464  1
  Co  Co122  1  0.38007859  0.62412101  0.12526233  1
  Co  Co123  1  -0.00382470  0.75317454  0.24912795  1
  Co  Co124  1  0.62668544  0.37939965  0.37712292  1
  Co  Co125  1  0.37533078  0.62233493  0.87336323  1
  Co  Co126  1  0.37701577  0.62431296  0.62611158  1
  Co  Co127  1  0.62547816  0.12195810  0.37487686  1
