# generated using pymatgen
data_Fe45Co19
_symmetry_space_group_name_H-M   'P 1'
_cell_length_a   11.41482269
_cell_length_b   11.41599549
_cell_length_c   11.41477259
_cell_angle_alpha   89.99330100
_cell_angle_beta   89.99939088
_cell_angle_gamma   90.00634569
_symmetry_Int_Tables_number   1
_chemical_formula_structural   Fe45Co19
_chemical_formula_sum   'Fe90 Co38'
_cell_volume   1487.47685386
_cell_formula_units_Z   2
loop_
 _symmetry_equiv_pos_site_id
 _symmetry_equiv_pos_as_xyz
  1  'x, y, z'
loop_
 _atom_site_type_symbol
 _atom_site_label
 _atom_site_symmetry_multiplicity
 _atom_site_fract_x
 _atom_site_fract_y
 _atom_site_fract_z
 _atom_site_occupancy
  Fe  Fe0  1  -0.00188682  0.00106208  0.24784283  1
  Fe  Fe1  1  0.62383009  0.37753328  0.87187596  1
  Fe  Fe2  1  0.12425385  0.62433776  0.62714076  1
  Fe  Fe3  1  0.00142368  0.24958230  0.75104470  1
  Fe  Fe4  1  0.37523756  0.87396133  0.37391134  1
  Fe  Fe5  1  0.12554798  0.87642734  0.62489653  1
  Fe  Fe6  1  0.25012211  0.75023377  0.50032637  1
  Fe  Fe7  1  0.62400534  0.12215902  0.12203081  1
  Fe  Fe8  1  0.62464715  0.12228248  0.87610678  1
  Fe  Fe9  1  0.25027780  -0.00105970  0.24682487  1
  Fe  Fe10  1  0.00059034  0.00217469  0.74907666  1
  Fe  Fe11  1  0.49732605  -0.00074742  0.75069844  1
  Fe  Fe12  1  0.87427544  0.87653355  0.37378024  1
  Fe  Fe13  1  0.37519959  0.37494211  0.37294676  1
  Fe  Fe14  1  0.62459585  0.62493502  0.12311123  1
  Fe  Fe15  1  0.87381617  0.37568038  0.37533831  1
  Fe  Fe16  1  0.75005254  0.25021219  0.50134197  1
  Fe  Fe17  1  0.12547434  0.12629456  0.12397758  1
  Fe  Fe18  1  0.62466545  0.62405832  0.37590593  1
  Fe  Fe19  1  0.87603108  0.87474306  0.62666831  1
  Fe  Fe20  1  0.50184876  0.74810152  0.24942724  1
  Fe  Fe21  1  0.37726902  0.62636053  0.12050340  1
  Fe  Fe22  1  -0.00079837  0.74750304  0.25052929  1
  Fe  Fe23  1  0.49984834  0.50124404  0.50081785  1
  Fe  Fe24  1  0.62639157  0.87681874  0.37397396  1
  Fe  Fe25  1  0.00222314  0.50264530  -0.00301360  1
  Fe  Fe26  1  0.62443679  0.12591842  0.62568974  1
  Fe  Fe27  1  0.00202330  0.25152505  0.24942865  1
  Fe  Fe28  1  0.50031406  0.74898586  0.75376780  1
  Fe  Fe29  1  0.62362395  0.37608945  0.37394432  1
  Fe  Fe30  1  0.74743148  0.24913926  0.24873310  1
  Fe  Fe31  1  0.00199576  0.25241664  -0.00161496  1
  Fe  Fe32  1  0.13080533  0.12258307  0.62529238  1
  Fe  Fe33  1  0.62833522  0.62158202  0.87120250  1
  Fe  Fe34  1  0.12486221  0.87698534  0.37563809  1
  Fe  Fe35  1  0.74795724  0.50077073  0.50568561  1
  Fe  Fe36  1  0.25066578  -0.00231255  -0.00019951  1
  Fe  Fe37  1  0.62523035  0.12249029  0.37657682  1
  Fe  Fe38  1  0.12257807  0.87300226  0.87709248  1
  Fe  Fe39  1  0.12831000  0.62388621  0.37371669  1
  Fe  Fe40  1  0.37542373  0.37699771  0.87647063  1
  Fe  Fe41  1  0.49675186  -0.00122664  0.50168386  1
  Fe  Fe42  1  0.37412042  0.37510349  0.62447607  1
  Fe  Fe43  1  0.49815022  0.24903105  0.49983876  1
  Fe  Fe44  1  0.37670351  0.12783262  0.12407692  1
  Fe  Fe45  1  0.25123242  0.50097815  0.75119062  1
  Fe  Fe46  1  0.87529674  0.62563652  0.12278658  1
  Fe  Fe47  1  0.00121418  0.50079560  0.49980864  1
  Fe  Fe48  1  -0.00386489  0.50118550  0.75454375  1
  Fe  Fe49  1  0.38041476  0.37400052  0.12502198  1
  Fe  Fe50  1  0.87335974  0.62359232  0.37674203  1
  Fe  Fe51  1  0.50077293  0.00007576  0.24857671  1
  Fe  Fe52  1  0.12637382  0.37582365  0.62696763  1
  Fe  Fe53  1  0.25063866  0.74920266  0.24804664  1
  Fe  Fe54  1  0.49923712  0.74986670  0.49938857  1
  Fe  Fe55  1  0.12735742  0.12387994  0.37602346  1
  Fe  Fe56  1  0.25106505  0.75093967  0.75231667  1
  Fe  Fe57  1  0.12231432  0.87094041  0.12272962  1
  Fe  Fe58  1  0.74920683  0.49954288  0.24817679  1
  Fe  Fe59  1  0.37591186  0.87257036  0.87814494  1
  Fe  Fe60  1  -0.00001647  0.50057487  0.24988439  1
  Fe  Fe61  1  0.49825676  0.25071996  0.75119446  1
  Fe  Fe62  1  0.87616900  0.37351895  0.12349506  1
  Fe  Fe63  1  0.87556767  0.12465726  0.37471355  1
  Fe  Fe64  1  0.62488632  0.87841515  0.87696794  1
  Fe  Fe65  1  0.74956575  0.25210679  0.75022380  1
  Fe  Fe66  1  0.87569745  0.37425232  0.62573793  1
  Fe  Fe67  1  0.25197001  0.50082431  0.24751527  1
  Fe  Fe68  1  0.24924370  0.25328026  0.00067393  1
  Fe  Fe69  1  0.75027629  0.74860535  0.50292342  1
  Fe  Fe70  1  0.75107541  0.75511614  -0.00142849  1
  Fe  Fe71  1  0.12864177  0.37533999  0.37483141  1
  Fe  Fe72  1  -0.00007312  0.74901209  0.49915752  1
  Fe  Fe73  1  0.12785403  0.12570878  0.87529232  1
  Fe  Fe74  1  0.74684805  0.25121708  0.00009063  1
  Fe  Fe75  1  0.74875205  0.75049515  0.24891821  1
  Fe  Fe76  1  0.37083477  0.12275265  0.62722353  1
  Fe  Fe77  1  0.37862819  0.87182393  0.12129215  1
  Fe  Fe78  1  0.37635984  0.62641425  0.62566282  1
  Fe  Fe79  1  0.75263264  0.00048572  0.50219357  1
  Fe  Fe80  1  0.62343784  0.87353572  0.62588010  1
  Fe  Fe81  1  0.74842510  0.49634216  0.00101996  1
  Fe  Fe82  1  -0.00424319  -0.00035136  0.00134853  1
  Fe  Fe83  1  0.24740007  0.50167489  -0.00009977  1
  Fe  Fe84  1  0.37312351  0.12592825  0.87565815  1
  Fe  Fe85  1  -0.00401089  0.74693145  0.75363117  1
  Fe  Fe86  1  0.75056731  -0.00071358  0.74967422  1
  Fe  Fe87  1  0.00141085  0.24846057  0.50176232  1
  Fe  Fe88  1  0.37261790  0.12571370  0.37277580  1
  Fe  Fe89  1  0.87392715  0.12550603  0.87516526  1
  Co  Co90  1  0.49696473  0.00108185  -0.00080175  1
  Co  Co91  1  0.87404312  0.37421755  0.87649237  1
  Co  Co92  1  0.50519317  0.74708175  -0.00368085  1
  Co  Co93  1  0.12633892  0.37565648  0.87351328  1
  Co  Co94  1  0.87320038  0.12668627  0.62783498  1
  Co  Co95  1  0.25014318  0.50096485  0.50135458  1
  Co  Co96  1  0.75158226  0.49800418  0.74502304  1
  Co  Co97  1  0.50331282  0.24818431  0.25060160  1
  Co  Co98  1  0.62159103  0.37504045  0.12731277  1
  Co  Co99  1  0.62235757  0.62694671  0.62781760  1
  Co  Co100  1  0.62289655  0.87722972  0.12374524  1
  Co  Co101  1  -0.00132505  0.00130411  0.50193058  1
  Co  Co102  1  0.25020806  0.25009497  0.49998605  1
  Co  Co103  1  0.86832127  0.62296925  0.87677878  1
  Co  Co104  1  0.12416852  0.62682978  0.12538476  1
  Co  Co105  1  0.25221204  -0.00214392  0.49891372  1
  Co  Co106  1  0.75047290  0.75130371  0.75072501  1
  Co  Co107  1  0.87547655  0.13012817  0.12360333  1
  Co  Co108  1  0.87604252  0.62483677  0.62509774  1
  Co  Co109  1  0.37518805  0.87330643  0.62661550  1
  Co  Co110  1  0.25027634  -0.00435521  0.75441647  1
  Co  Co111  1  0.50019249  0.50342654  0.24937094  1
  Co  Co112  1  0.75470493  -0.00184195  0.00196641  1
  Co  Co113  1  0.12649664  0.62680938  0.87401801  1
  Co  Co114  1  0.12378235  0.37702537  0.12485703  1
  Co  Co115  1  0.25055143  0.25211048  0.75093270  1
  Co  Co116  1  0.62254260  0.37252548  0.62564146  1
  Co  Co117  1  -0.00348108  0.74720111  -0.00258039  1
  Co  Co118  1  0.37399382  0.62517818  0.37568145  1
  Co  Co119  1  0.24885266  0.25116458  0.24801664  1
  Co  Co120  1  0.87666161  0.87750727  0.87243623  1
  Co  Co121  1  0.24872385  0.74886069  -0.00125493  1
  Co  Co122  1  0.37472323  0.62363007  0.87657841  1
  Co  Co123  1  0.50256244  0.25089296  -0.00267857  1
  Co  Co124  1  0.50291924  0.50062730  -0.00145736  1
  Co  Co125  1  0.75083375  0.00166812  0.24658864  1
  Co  Co126  1  0.87636788  0.87222987  0.12754050  1
  Co  Co127  1  0.49856313  0.49941735  0.74924972  1
