# generated using pymatgen
data_Fe45Co19
_symmetry_space_group_name_H-M   'P 1'
_cell_length_a   11.41661625
_cell_length_b   11.41550881
_cell_length_c   11.41647533
_cell_angle_alpha   90.00573476
_cell_angle_beta   90.00669244
_cell_angle_gamma   89.99035591
_symmetry_Int_Tables_number   1
_chemical_formula_structural   Fe45Co19
_chemical_formula_sum   'Fe90 Co38'
_cell_volume   1487.86904373
_cell_formula_units_Z   2
loop_
 _symmetry_equiv_pos_site_id
 _symmetry_equiv_pos_as_xyz
  1  'x, y, z'
loop_
 _atom_site_type_symbol
 _atom_site_label
 _atom_site_symmetry_multiplicity
 _atom_site_fract_x
 _atom_site_fract_y
 _atom_site_fract_z
 _atom_site_occupancy
  Fe  Fe0  1  0.62550379  0.87438850  0.62266485  1
  Fe  Fe1  1  0.62610540  0.87725669  0.87680945  1
  Fe  Fe2  1  0.12384403  0.37272421  0.12319062  1
  Fe  Fe3  1  0.74834462  0.24861888  -0.00196395  1
  Fe  Fe4  1  0.25154399  0.75066232  0.74898985  1
  Fe  Fe5  1  0.00028578  0.50048998  -0.00077159  1
  Fe  Fe6  1  0.12348741  0.62589590  0.87202637  1
  Fe  Fe7  1  -0.00185639  0.00103897  0.50147879  1
  Fe  Fe8  1  0.37657837  0.12435118  0.62744519  1
  Fe  Fe9  1  0.50112747  0.75238389  0.25317991  1
  Fe  Fe10  1  0.50253194  0.49926615  0.74986363  1
  Fe  Fe11  1  0.75164626  0.74900014  0.49990835  1
  Fe  Fe12  1  0.12443520  0.12650494  0.37626289  1
  Fe  Fe13  1  0.62281314  0.62838193  0.12322300  1
  Fe  Fe14  1  0.25114476  0.49981745  0.00079172  1
  Fe  Fe15  1  0.49857563  -0.00106616  0.49878214  1
  Fe  Fe16  1  0.62098438  0.37250429  0.12057580  1
  Fe  Fe17  1  0.00042256  0.49932318  0.24950911  1
  Fe  Fe18  1  0.87496429  0.87321173  0.37509426  1
  Fe  Fe19  1  0.62465779  0.12582377  0.62547145  1
  Fe  Fe20  1  0.62386984  0.87251443  0.12362264  1
  Fe  Fe21  1  0.12607718  0.87365838  0.37704327  1
  Fe  Fe22  1  0.49844959  0.75020789  0.49843752  1
  Fe  Fe23  1  0.37694037  0.37531897  0.62795969  1
  Fe  Fe24  1  0.25129775  0.00246545  0.24863110  1
  Fe  Fe25  1  0.49822490  -0.00016563  0.25249650  1
  Fe  Fe26  1  0.87317538  0.12277681  0.87375182  1
  Fe  Fe27  1  0.37567413  0.62359436  0.87385322  1
  Fe  Fe28  1  0.12225012  0.62599108  0.62897866  1
  Fe  Fe29  1  0.12710976  0.37576673  0.62778030  1
  Fe  Fe30  1  0.75167644  0.00297482  0.50061099  1
  Fe  Fe31  1  0.12248423  0.12598996  0.62576683  1
  Fe  Fe32  1  0.37828097  0.37055944  0.12248410  1
  Fe  Fe33  1  0.50000672  0.25011787  0.49891448  1
  Fe  Fe34  1  0.62348464  0.62499787  0.87551292  1
  Fe  Fe35  1  0.12655032  0.62455548  0.37435476  1
  Fe  Fe36  1  0.12327995  0.87274933  0.12374260  1
  Fe  Fe37  1  0.49913588  0.75366544  0.75222497  1
  Fe  Fe38  1  0.62445942  0.12501640  0.37480047  1
  Fe  Fe39  1  0.75116398  -0.00265571  0.74661714  1
  Fe  Fe40  1  0.37492794  0.87502944  0.62453573  1
  Fe  Fe41  1  0.37651442  0.87613100  0.12423234  1
  Fe  Fe42  1  0.00023565  0.25058698  0.75190122  1
  Fe  Fe43  1  0.62546833  0.37453058  0.37583465  1
  Fe  Fe44  1  0.87683307  0.12896534  0.37576361  1
  Fe  Fe45  1  0.12295509  0.12817634  0.12237236  1
  Fe  Fe46  1  0.74916893  -0.00044354  0.00262912  1
  Fe  Fe47  1  0.00006952  0.49975203  0.50243896  1
  Fe  Fe48  1  -0.00074872  -0.00415035  0.75082141  1
  Fe  Fe49  1  0.37217700  0.88368755  0.87435466  1
  Fe  Fe50  1  0.37293056  0.62536209  0.37364964  1
  Fe  Fe51  1  0.49965061  0.49911276  0.24909756  1
  Fe  Fe52  1  0.37547152  0.62649282  0.12535409  1
  Fe  Fe53  1  0.50154536  0.24606786  0.75687498  1
  Fe  Fe54  1  0.62602166  0.62521095  0.37389660  1
  Fe  Fe55  1  0.24911718  0.75103219  0.25055627  1
  Fe  Fe56  1  0.25043168  0.24909617  0.50241989  1
  Fe  Fe57  1  0.75060719  -0.00087810  0.24979039  1
  Fe  Fe58  1  0.74969332  0.25045673  0.25003748  1
  Fe  Fe59  1  0.87498658  0.37285951  0.37597409  1
  Fe  Fe60  1  0.12666559  0.37500235  0.37501290  1
  Fe  Fe61  1  0.74627865  0.25196714  0.75050798  1
  Fe  Fe62  1  0.37649030  0.37681532  0.87606832  1
  Fe  Fe63  1  0.49924772  0.50115189  0.50144385  1
  Fe  Fe64  1  0.62464608  0.62589867  0.62672612  1
  Fe  Fe65  1  0.74885737  0.49936705  0.24716782  1
  Fe  Fe66  1  0.87619175  0.62896300  0.12503969  1
  Fe  Fe67  1  0.25223492  0.50301800  0.50460692  1
  Fe  Fe68  1  0.87772714  0.12718943  0.12353647  1
  Fe  Fe69  1  0.74906456  0.50256573  0.00006957  1
  Fe  Fe70  1  0.62155060  0.12712994  0.12554021  1
  Fe  Fe71  1  0.87302768  0.37652591  0.87512100  1
  Fe  Fe72  1  0.25185340  0.24861705  0.75243023  1
  Fe  Fe73  1  0.75301650  0.75132933  0.75025504  1
  Fe  Fe74  1  0.74845303  0.49970815  0.50319047  1
  Fe  Fe75  1  0.87576529  0.87082543  0.12299146  1
  Fe  Fe76  1  0.12885584  0.12191270  0.87569893  1
  Fe  Fe77  1  0.12337940  0.87174595  0.62378301  1
  Fe  Fe78  1  -0.00022913  -0.00011893  0.24979353  1
  Fe  Fe79  1  0.87704130  0.37263539  0.12309289  1
  Fe  Fe80  1  0.25167825  0.75174428  -0.00196281  1
  Fe  Fe81  1  0.87481115  0.62539020  0.37359931  1
  Fe  Fe82  1  0.87300563  0.37400091  0.62564361  1
  Fe  Fe83  1  0.00145580  -0.00225807  -0.00242691  1
  Fe  Fe84  1  0.12519505  0.62570691  0.12440396  1
  Fe  Fe85  1  0.25104662  0.24869062  0.24886526  1
  Fe  Fe86  1  0.12641417  0.37658562  0.87502173  1
  Fe  Fe87  1  0.25131720  0.00089927  0.50147989  1
  Fe  Fe88  1  0.87666685  0.62506723  0.87230008  1
  Fe  Fe89  1  0.37322687  0.37526611  0.37477957  1
  Co  Co90  1  0.37856234  0.62523158  0.62852271  1
  Co  Co91  1  0.25105209  0.49807452  0.24669483  1
  Co  Co92  1  0.74895552  0.24873246  0.50112373  1
  Co  Co93  1  0.49994769  0.24286237  -0.00877162  1
  Co  Co94  1  0.24662422  -0.00073698  0.74321508  1
  Co  Co95  1  0.12916943  0.87510325  0.87399634  1
  Co  Co96  1  0.63036559  0.11949634  0.87366095  1
  Co  Co97  1  0.36953981  0.11581647  0.87416471  1
  Co  Co98  1  -0.00365691  0.75500754  0.75092579  1
  Co  Co99  1  0.49968502  0.25025685  0.25341066  1
  Co  Co100  1  0.00173277  0.75084252  -0.00336443  1
  Co  Co101  1  0.74730400  0.49974994  0.74959503  1
  Co  Co102  1  0.62441893  0.37832243  0.87892051  1
  Co  Co103  1  0.50300212  -0.00007567  0.74896013  1
  Co  Co104  1  0.87243971  0.87615287  0.87872302  1
  Co  Co105  1  0.62255440  0.37407474  0.62561006  1
  Co  Co106  1  0.25220900  0.24958191  -0.00236422  1
  Co  Co107  1  0.49686747  0.75300635  -0.00387598  1
  Co  Co108  1  0.00093325  0.75002053  0.25130258  1
  Co  Co109  1  0.25148794  0.50076594  0.74988748  1
  Co  Co110  1  0.74886956  0.75101825  0.25014622  1
  Co  Co111  1  0.87503509  0.62390583  0.62742765  1
  Co  Co112  1  0.87476027  0.87524058  0.62195895  1
  Co  Co113  1  0.50185267  0.00247135  -0.00099186  1
  Co  Co114  1  0.25074048  0.74677514  0.50263075  1
  Co  Co115  1  0.37816848  0.12667786  0.12351073  1
  Co  Co116  1  0.62707989  0.87649931  0.37670968  1
  Co  Co117  1  -0.00104237  0.74740450  0.49997395  1
  Co  Co118  1  0.24825718  -0.00030085  0.00585839  1
  Co  Co119  1  0.37372408  0.12517344  0.37567281  1
  Co  Co120  1  0.87586221  0.12693813  0.62832938  1
  Co  Co121  1  0.00086614  0.25071843  0.25128472  1
  Co  Co122  1  0.00112271  0.25197016  0.50232434  1
  Co  Co123  1  -0.00116074  0.49719146  0.74922322  1
  Co  Co124  1  -0.00041283  0.24916818  -0.00552492  1
  Co  Co125  1  0.49878027  0.50267583  0.00113462  1
  Co  Co126  1  0.37127188  0.87471530  0.37583119  1
  Co  Co127  1  0.74930625  0.74837294  -0.00226814  1
