# generated using pymatgen
data_Fe45Co19
_symmetry_space_group_name_H-M   'P 1'
_cell_length_a   11.41468789
_cell_length_b   11.41391690
_cell_length_c   11.41328593
_cell_angle_alpha   89.99813606
_cell_angle_beta   89.99380932
_cell_angle_gamma   89.99661857
_symmetry_Int_Tables_number   1
_chemical_formula_structural   Fe45Co19
_chemical_formula_sum   'Fe90 Co38'
_cell_volume   1486.99477088
_cell_formula_units_Z   2
loop_
 _symmetry_equiv_pos_site_id
 _symmetry_equiv_pos_as_xyz
  1  'x, y, z'
loop_
 _atom_site_type_symbol
 _atom_site_label
 _atom_site_symmetry_multiplicity
 _atom_site_fract_x
 _atom_site_fract_y
 _atom_site_fract_z
 _atom_site_occupancy
  Fe  Fe0  1  0.37347851  0.62397814  0.37582286  1
  Fe  Fe1  1  0.62597209  0.37699514  0.37732020  1
  Fe  Fe2  1  0.62415177  0.87457808  0.12460629  1
  Fe  Fe3  1  0.87686081  0.12053562  0.62240556  1
  Fe  Fe4  1  0.25079799  0.50211060  0.50372387  1
  Fe  Fe5  1  0.74976958  0.75159319  0.74836070  1
  Fe  Fe6  1  -0.00035757  0.24784039  0.00048541  1
  Fe  Fe7  1  0.37354256  0.87229088  0.62668519  1
  Fe  Fe8  1  -0.00120889  0.74977620  0.24973515  1
  Fe  Fe9  1  0.75117077  0.50085929  0.25113345  1
  Fe  Fe10  1  0.74996947  -0.00033258  0.25191633  1
  Fe  Fe11  1  0.37330552  0.87345697  0.87334064  1
  Fe  Fe12  1  0.87448043  0.37529589  0.62677723  1
  Fe  Fe13  1  0.37302420  0.37732343  0.12697858  1
  Fe  Fe14  1  0.37348210  0.87574473  0.37397171  1
  Fe  Fe15  1  0.62609471  0.12465804  0.12512910  1
  Fe  Fe16  1  0.50016441  0.74890053  0.24979644  1
  Fe  Fe17  1  0.62371050  0.87427711  0.87377596  1
  Fe  Fe18  1  0.37388369  0.12484809  0.62638477  1
  Fe  Fe19  1  0.12691287  0.62446652  0.12146254  1
  Fe  Fe20  1  0.00023276  0.24915147  0.25018880  1
  Fe  Fe21  1  0.62366209  0.12360656  0.62354459  1
  Fe  Fe22  1  0.12603137  0.12449524  0.37772429  1
  Fe  Fe23  1  0.37248944  0.62539161  0.12376429  1
  Fe  Fe24  1  0.87818423  0.62631580  0.62987029  1
  Fe  Fe25  1  0.25014238  0.75095194  0.24900181  1
  Fe  Fe26  1  0.87527494  0.12235253  0.37801394  1
  Fe  Fe27  1  0.75032093  0.24961525  0.24969308  1
  Fe  Fe28  1  0.37363706  0.12345164  0.12572866  1
  Fe  Fe29  1  0.24864244  0.25014383  0.25050926  1
  Fe  Fe30  1  0.49807181  0.74992398  -0.00078624  1
  Fe  Fe31  1  0.50004728  -0.00034942  0.25050393  1
  Fe  Fe32  1  0.49915859  -0.00105076  -0.00090973  1
  Fe  Fe33  1  0.50000697  0.49966504  0.25169204  1
  Fe  Fe34  1  0.12607859  0.87418441  0.37477842  1
  Fe  Fe35  1  0.62496065  0.37304656  0.87333613  1
  Fe  Fe36  1  0.62347889  0.12508988  0.87478861  1
  Fe  Fe37  1  0.37313921  0.12514438  0.87412788  1
  Fe  Fe38  1  0.00221546  0.24781162  0.74902375  1
  Fe  Fe39  1  0.87477100  0.37577753  0.37586193  1
  Fe  Fe40  1  0.50065282  0.25213081  0.25044815  1
  Fe  Fe41  1  0.37732100  0.37881765  0.62780969  1
  Fe  Fe42  1  0.87547045  0.37496438  0.12458677  1
  Fe  Fe43  1  0.24946700  0.25161112  -0.00069687  1
  Fe  Fe44  1  0.12491113  0.12297652  0.12368624  1
  Fe  Fe45  1  0.24743779  0.24985732  0.74911717  1
  Fe  Fe46  1  0.49856719  0.49924871  -0.00234501  1
  Fe  Fe47  1  0.75107108  0.24864691  0.00070154  1
  Fe  Fe48  1  0.75408674  0.49848833  -0.00470711  1
  Fe  Fe49  1  -0.00172038  0.49939472  0.50180227  1
  Fe  Fe50  1  0.75020622  0.24826547  0.74944341  1
  Fe  Fe51  1  0.74781031  -0.00058749  0.74857414  1
  Fe  Fe52  1  0.49939258  0.25166232  0.49976900  1
  Fe  Fe53  1  0.12515359  0.62619500  0.37863094  1
  Fe  Fe54  1  0.12495744  0.37868575  0.12399765  1
  Fe  Fe55  1  -0.00127543  0.75555336  0.50227951  1
  Fe  Fe56  1  0.12657214  0.37686095  0.37679194  1
  Fe  Fe57  1  0.24791788  -0.00155978  0.50223396  1
  Fe  Fe58  1  0.12671787  0.87641609  0.87366576  1
  Fe  Fe59  1  0.00113948  0.50197520  0.25032056  1
  Fe  Fe60  1  0.12208414  0.37721935  0.87473620  1
  Fe  Fe61  1  0.50126341  -0.00078821  0.50028429  1
  Fe  Fe62  1  0.74952365  0.24864065  0.50020220  1
  Fe  Fe63  1  0.75292357  0.75347155  0.50386096  1
  Fe  Fe64  1  0.37517394  0.37556081  0.87142322  1
  Fe  Fe65  1  0.00081122  0.00013975  0.25081314  1
  Fe  Fe66  1  0.49808953  0.74910930  0.50103512  1
  Fe  Fe67  1  0.00060533  0.75120830  -0.00214321  1
  Fe  Fe68  1  0.62814479  0.62627564  0.37690960  1
  Fe  Fe69  1  0.62638487  0.62629133  0.87442903  1
  Fe  Fe70  1  0.25107313  0.25218718  0.50183291  1
  Fe  Fe71  1  0.87603991  0.87722283  0.12415770  1
  Fe  Fe72  1  0.75097812  0.75218703  -0.00021767  1
  Fe  Fe73  1  0.87409650  0.62547960  0.12322433  1
  Fe  Fe74  1  0.62727406  0.87283376  0.37649606  1
  Fe  Fe75  1  0.12282132  0.62110544  0.87506566  1
  Fe  Fe76  1  0.00083408  0.24996303  0.50061831  1
  Fe  Fe77  1  0.87637471  0.12269130  0.87651147  1
  Fe  Fe78  1  0.37432822  0.12463817  0.37454948  1
  Fe  Fe79  1  0.87390214  0.62740018  0.37601347  1
  Fe  Fe80  1  0.62312110  0.62388065  0.62589262  1
  Fe  Fe81  1  0.49952997  0.25078292  0.00109987  1
  Fe  Fe82  1  0.62539043  0.37833920  0.62605357  1
  Fe  Fe83  1  0.24910832  -0.00325242  0.00188835  1
  Fe  Fe84  1  0.00623786  0.00095303  0.74846140  1
  Fe  Fe85  1  0.87573667  0.87607906  0.87263732  1
  Fe  Fe86  1  0.62628098  0.62302693  0.12346424  1
  Fe  Fe87  1  0.24708572  0.74596845  0.74754152  1
  Fe  Fe88  1  0.37334512  0.62431045  0.87223027  1
  Fe  Fe89  1  0.49862618  -0.00066621  0.74961108  1
  Co  Co90  1  0.74861983  -0.00218639  0.50068497  1
  Co  Co91  1  0.62435433  0.12610271  0.37546143  1
  Co  Co92  1  0.62616968  0.37717896  0.12374740  1
  Co  Co93  1  0.87744522  0.37054041  0.87361537  1
  Co  Co94  1  -0.00402536  0.50087020  -0.00107200  1
  Co  Co95  1  0.50259782  0.50187121  0.75226203  1
  Co  Co96  1  0.12724888  0.87251425  0.62569038  1
  Co  Co97  1  0.24830233  -0.00107486  0.24884068  1
  Co  Co98  1  0.12580321  0.12619119  0.62269230  1
  Co  Co99  1  0.00292899  -0.00349856  0.50033162  1
  Co  Co100  1  0.00351541  0.75143962  0.75166097  1
  Co  Co101  1  0.49863430  0.50070084  0.49860660  1
  Co  Co102  1  0.49979144  0.74991597  0.75056980  1
  Co  Co103  1  0.12297929  0.37517532  0.62467501  1
  Co  Co104  1  0.87379282  0.87530890  0.37446132  1
  Co  Co105  1  0.24811774  0.50260276  0.25115130  1
  Co  Co106  1  0.37249992  0.37548618  0.37441894  1
  Co  Co107  1  0.25194084  0.49864762  -0.00234243  1
  Co  Co108  1  0.24646529  0.50061186  0.74697723  1
  Co  Co109  1  0.62221506  0.87366185  0.62481319  1
  Co  Co110  1  0.87500141  0.12259252  0.12397091  1
  Co  Co111  1  0.87779730  0.87867848  0.62890910  1
  Co  Co112  1  0.24851244  0.75095475  -0.00195340  1
  Co  Co113  1  0.75065805  0.75021926  0.24761544  1
  Co  Co114  1  0.37540682  0.87336346  0.12498921  1
  Co  Co115  1  0.12343323  0.87303100  0.12601787  1
  Co  Co116  1  0.25195670  0.74933937  0.50055789  1
  Co  Co117  1  0.75277703  0.50235316  0.50203724  1
  Co  Co118  1  0.75204602  0.50020462  0.75268698  1
  Co  Co119  1  0.50036718  0.24863506  0.74869872  1
  Co  Co120  1  0.12085634  0.62622199  0.62268916  1
  Co  Co121  1  -0.00188705  0.49892805  0.74962204  1
  Co  Co122  1  0.00238880  -0.00145837  -0.00135681  1
  Co  Co123  1  0.87618937  0.62909553  0.87228818  1
  Co  Co124  1  0.24919572  0.00128517  0.74852089  1
  Co  Co125  1  0.74873685  -0.00073159  -0.00155658  1
  Co  Co126  1  0.37704909  0.62456637  0.62748798  1
  Co  Co127  1  0.12732014  0.12488343  0.87646919  1
