# generated using pymatgen
data_Fe45Co19
_symmetry_space_group_name_H-M   'P 1'
_cell_length_a   11.41596797
_cell_length_b   11.41428680
_cell_length_c   11.41551826
_cell_angle_alpha   89.99768184
_cell_angle_beta   89.99897489
_cell_angle_gamma   89.99255315
_symmetry_Int_Tables_number   1
_chemical_formula_structural   Fe45Co19
_chemical_formula_sum   'Fe90 Co38'
_cell_volume   1487.50060606
_cell_formula_units_Z   2
loop_
 _symmetry_equiv_pos_site_id
 _symmetry_equiv_pos_as_xyz
  1  'x, y, z'
loop_
 _atom_site_type_symbol
 _atom_site_label
 _atom_site_symmetry_multiplicity
 _atom_site_fract_x
 _atom_site_fract_y
 _atom_site_fract_z
 _atom_site_occupancy
  Fe  Fe0  1  0.62476478  0.87504755  0.62775428  1
  Fe  Fe1  1  0.25003563  0.49852998  0.74723127  1
  Fe  Fe2  1  -0.00038691  -0.00104386  -0.00187022  1
  Fe  Fe3  1  0.62633946  0.37827253  0.88098518  1
  Fe  Fe4  1  0.12561341  0.12479114  0.37702511  1
  Fe  Fe5  1  0.24724095  0.24978074  0.74705377  1
  Fe  Fe6  1  0.87288474  0.12608545  0.62540038  1
  Fe  Fe7  1  0.87640268  0.37410890  0.37395127  1
  Fe  Fe8  1  0.50028855  0.74838772  0.25078546  1
  Fe  Fe9  1  0.75067541  0.75022737  0.75019898  1
  Fe  Fe10  1  0.37458246  0.87419415  0.12427849  1
  Fe  Fe11  1  0.49776018  0.74812905  0.75339893  1
  Fe  Fe12  1  0.87148432  0.62807846  0.37712255  1
  Fe  Fe13  1  0.24999196  0.25332714  0.50338880  1
  Fe  Fe14  1  0.75031151  -0.00215666  0.50054590  1
  Fe  Fe15  1  0.87269634  0.12668071  0.37581463  1
  Fe  Fe16  1  -0.00186908  -0.00029787  0.74999970  1
  Fe  Fe17  1  0.50198848  0.00157543  0.75280912  1
  Fe  Fe18  1  0.00195112  0.74977077  0.25397984  1
  Fe  Fe19  1  0.37462248  0.12738330  0.37504841  1
  Fe  Fe20  1  0.12436490  0.37622905  0.87249864  1
  Fe  Fe21  1  0.49750318  0.49656889  0.49910857  1
  Fe  Fe22  1  0.62516930  0.37681939  0.62683990  1
  Fe  Fe23  1  0.50142239  0.00159932  0.24955073  1
  Fe  Fe24  1  0.00065010  0.74919327  0.74884221  1
  Fe  Fe25  1  0.37412063  0.12528877  0.87547646  1
  Fe  Fe26  1  -0.00221635  -0.00366858  0.49869438  1
  Fe  Fe27  1  0.37671013  0.87430549  0.62668705  1
  Fe  Fe28  1  0.62703862  0.12735269  0.37599213  1
  Fe  Fe29  1  0.12503232  0.87402598  0.62363960  1
  Fe  Fe30  1  0.50189346  0.74902199  0.49874066  1
  Fe  Fe31  1  0.24931793  0.00013217  0.00082009  1
  Fe  Fe32  1  0.75113174  0.49814920  0.24615437  1
  Fe  Fe33  1  0.62580809  0.87403316  0.37404946  1
  Fe  Fe34  1  0.12475333  0.37451873  0.37469387  1
  Fe  Fe35  1  0.24963095  0.00053264  0.74866849  1
  Fe  Fe36  1  0.74978543  0.49807708  0.50039430  1
  Fe  Fe37  1  0.49911206  0.50091031  0.24881189  1
  Fe  Fe38  1  0.00057629  0.25097021  0.74676245  1
  Fe  Fe39  1  0.37461842  0.87465001  0.37370416  1
  Fe  Fe40  1  0.62380661  0.12757828  0.12008594  1
  Fe  Fe41  1  0.74771384  0.74873070  0.25062624  1
  Fe  Fe42  1  0.87417646  0.37641041  0.87659088  1
  Fe  Fe43  1  0.24848610  0.24717048  0.24700437  1
  Fe  Fe44  1  0.12407716  0.12557245  0.87472657  1
  Fe  Fe45  1  0.11960205  0.37649875  0.12911961  1
  Fe  Fe46  1  0.50129584  0.00179073  0.49997008  1
  Fe  Fe47  1  0.12714601  0.62431570  0.62293390  1
  Fe  Fe48  1  0.62414871  0.62318200  0.12375439  1
  Fe  Fe49  1  0.87877976  0.62440093  0.12628349  1
  Fe  Fe50  1  0.00011817  0.25039501  0.00008725  1
  Fe  Fe51  1  0.75127968  0.74837708  -0.00057616  1
  Fe  Fe52  1  0.50035010  0.24916436  0.24765816  1
  Fe  Fe53  1  0.00315248  0.50270116  -0.00075303  1
  Fe  Fe54  1  -0.00011728  0.00040558  0.25244467  1
  Fe  Fe55  1  0.24916738  0.25057234  0.00217208  1
  Fe  Fe56  1  0.25130249  -0.00120564  0.50085646  1
  Fe  Fe57  1  0.37361024  0.62424931  0.37654127  1
  Fe  Fe58  1  0.87346293  0.62606621  0.62284544  1
  Fe  Fe59  1  0.24883700  0.50038315  0.25053736  1
  Fe  Fe60  1  0.12617872  0.87346652  0.87244820  1
  Fe  Fe61  1  0.00029361  0.25054170  0.50220727  1
  Fe  Fe62  1  0.24966347  0.00208853  0.24909875  1
  Fe  Fe63  1  0.87555372  0.87309166  0.12501318  1
  Fe  Fe64  1  0.37618608  0.37610802  0.12479261  1
  Fe  Fe65  1  0.62724561  0.62214794  0.87589277  1
  Fe  Fe66  1  0.49783427  0.74899564  -0.00289417  1
  Fe  Fe67  1  0.62426382  0.37592050  0.37234632  1
  Fe  Fe68  1  0.74942389  0.25094135  0.75161724  1
  Fe  Fe69  1  0.00477312  0.74757976  -0.00134809  1
  Fe  Fe70  1  0.12559821  0.87380554  0.12777161  1
  Fe  Fe71  1  0.50009369  -0.00045379  -0.00303631  1
  Fe  Fe72  1  0.62488905  0.87368633  0.12216330  1
  Fe  Fe73  1  0.50078189  0.25128783  0.50091957  1
  Fe  Fe74  1  0.75223095  0.00088713  -0.00356344  1
  Fe  Fe75  1  0.87796955  0.12589215  0.12379958  1
  Fe  Fe76  1  0.50252831  0.25038407  0.75177037  1
  Fe  Fe77  1  0.36817946  0.62294965  0.87714886  1
  Fe  Fe78  1  0.74971674  0.00036199  0.24829883  1
  Fe  Fe79  1  0.37441539  0.62277118  0.62393748  1
  Fe  Fe80  1  0.62472937  0.62238165  0.62542963  1
  Fe  Fe81  1  -0.00242340  0.49965334  0.74788556  1
  Fe  Fe82  1  0.37625925  0.12689693  0.62569410  1
  Fe  Fe83  1  0.12899361  0.62755622  0.37832187  1
  Fe  Fe84  1  0.87529415  0.62466469  0.87474766  1
  Fe  Fe85  1  0.75135647  0.25316438  0.24469297  1
  Fe  Fe86  1  0.36985071  0.62558478  0.12224066  1
  Fe  Fe87  1  0.75118382  0.00000505  0.75391946  1
  Fe  Fe88  1  -0.00034425  0.49988443  0.49958371  1
  Fe  Fe89  1  0.37389808  0.37688014  0.87500523  1
  Co  Co90  1  0.75384325  0.25201888  0.00284193  1
  Co  Co91  1  0.25223975  0.75248616  0.50159639  1
  Co  Co92  1  0.37702190  0.12360242  0.12366325  1
  Co  Co93  1  0.87756282  0.12775147  0.87415447  1
  Co  Co94  1  0.62125884  0.37627338  0.12116644  1
  Co  Co95  1  -0.00029411  0.24583944  0.25185339  1
  Co  Co96  1  0.49951846  0.50091455  0.75352534  1
  Co  Co97  1  0.87363632  0.87383556  0.62604990  1
  Co  Co98  1  0.49782550  0.50266699  -0.00120714  1
  Co  Co99  1  0.25247494  0.49591559  0.49970116  1
  Co  Co100  1  0.12400775  0.37874672  0.62493634  1
  Co  Co101  1  0.00052302  0.50506402  0.25574505  1
  Co  Co102  1  0.12366609  0.12285747  0.62354335  1
  Co  Co103  1  0.37651550  0.37452223  0.62865798  1
  Co  Co104  1  0.75162443  0.49917360  0.75047908  1
  Co  Co105  1  0.24617536  0.75111676  -0.00110818  1
  Co  Co106  1  0.62527531  0.12717586  0.87806185  1
  Co  Co107  1  0.75349789  0.50038570  0.00426265  1
  Co  Co108  1  0.12767814  0.62272036  0.87082613  1
  Co  Co109  1  0.88288369  0.37753929  0.12619598  1
  Co  Co110  1  0.87172711  0.87236628  0.37287696  1
  Co  Co111  1  0.00008149  0.75207652  0.49948499  1
  Co  Co112  1  0.87621392  0.87133167  0.87578688  1
  Co  Co113  1  0.25141465  0.74981863  0.25065993  1
  Co  Co114  1  0.25120826  0.75001857  0.74855808  1
  Co  Co115  1  0.24496670  0.49648384  0.00214225  1
  Co  Co116  1  0.87407955  0.37424524  0.62422919  1
  Co  Co117  1  0.12593012  0.62498851  0.12782810  1
  Co  Co118  1  0.12191576  0.12430941  0.12322579  1
  Co  Co119  1  0.12742960  0.87490516  0.37472797  1
  Co  Co120  1  0.62607180  0.87298738  0.87560213  1
  Co  Co121  1  0.37300557  0.87630536  0.87489156  1
  Co  Co122  1  0.49614810  0.25125919  -0.00151119  1
  Co  Co123  1  0.62727212  0.12464413  0.62530393  1
  Co  Co124  1  0.74866924  0.25296121  0.50022278  1
  Co  Co125  1  0.37452382  0.37274822  0.37108897  1
  Co  Co126  1  0.74622379  0.75134344  0.50111000  1
  Co  Co127  1  0.62536907  0.62113478  0.37498126  1
