# generated using pymatgen
data_Fe45Co19
_symmetry_space_group_name_H-M   'P 1'
_cell_length_a   11.41563812
_cell_length_b   11.41636047
_cell_length_c   11.41743917
_cell_angle_alpha   90.00185821
_cell_angle_beta   90.00260050
_cell_angle_gamma   90.00151570
_symmetry_Int_Tables_number   1
_chemical_formula_structural   Fe45Co19
_chemical_formula_sum   'Fe90 Co38'
_cell_volume   1487.97821103
_cell_formula_units_Z   2
loop_
 _symmetry_equiv_pos_site_id
 _symmetry_equiv_pos_as_xyz
  1  'x, y, z'
loop_
 _atom_site_type_symbol
 _atom_site_label
 _atom_site_symmetry_multiplicity
 _atom_site_fract_x
 _atom_site_fract_y
 _atom_site_fract_z
 _atom_site_occupancy
  Fe  Fe0  1  0.25011373  0.75255128  0.74886490  1
  Fe  Fe1  1  -0.00152238  -0.00020339  0.25107165  1
  Fe  Fe2  1  0.25315547  -0.00150095  0.74775782  1
  Fe  Fe3  1  -0.00563837  -0.00050180  0.74725065  1
  Fe  Fe4  1  0.75199654  0.00148970  0.74738649  1
  Fe  Fe5  1  -0.00164319  0.75299112  0.75097813  1
  Fe  Fe6  1  0.87378985  0.37203776  0.62551818  1
  Fe  Fe7  1  0.37393989  0.12601793  0.12446392  1
  Fe  Fe8  1  0.24955641  0.49714568  0.24683688  1
  Fe  Fe9  1  0.00199485  0.24920507  0.74914175  1
  Fe  Fe10  1  0.75065192  0.49906883  0.24860931  1
  Fe  Fe11  1  0.87426687  0.62599322  0.87392730  1
  Fe  Fe12  1  0.62416623  0.37784608  0.37371149  1
  Fe  Fe13  1  0.62359894  0.87668568  0.62453389  1
  Fe  Fe14  1  0.49775668  0.00222795  -0.00047125  1
  Fe  Fe15  1  0.49969373  0.00070825  0.25057729  1
  Fe  Fe16  1  0.37541059  0.37561791  0.37435733  1
  Fe  Fe17  1  0.87554440  0.62711640  0.12407583  1
  Fe  Fe18  1  -0.00126117  0.50052472  -0.00105900  1
  Fe  Fe19  1  0.37833247  0.37124163  0.62553708  1
  Fe  Fe20  1  0.24687715  0.24971258  0.50034939  1
  Fe  Fe21  1  0.87387641  0.62428997  0.37542282  1
  Fe  Fe22  1  0.37797541  0.87431876  0.62123452  1
  Fe  Fe23  1  0.74737593  0.24808015  0.75124283  1
  Fe  Fe24  1  0.25161462  0.25083176  -0.00167624  1
  Fe  Fe25  1  0.74927872  0.25042528  0.24967769  1
  Fe  Fe26  1  0.62587359  0.37533069  0.87431308  1
  Fe  Fe27  1  0.87653187  0.37273078  0.12399052  1
  Fe  Fe28  1  -0.00222416  0.49799653  0.74955418  1
  Fe  Fe29  1  0.62337517  0.37375646  0.12356200  1
  Fe  Fe30  1  0.62303070  0.87454317  0.37466309  1
  Fe  Fe31  1  0.12616669  0.62458119  0.87334263  1
  Fe  Fe32  1  0.49904552  0.50509877  0.24550209  1
  Fe  Fe33  1  0.00220318  0.25150417  0.25176114  1
  Fe  Fe34  1  0.37310438  0.62547119  0.87583231  1
  Fe  Fe35  1  0.37940932  0.12732653  0.62404278  1
  Fe  Fe36  1  0.37401016  0.12547948  0.37614878  1
  Fe  Fe37  1  0.49977274  0.00226997  0.75244726  1
  Fe  Fe38  1  0.75028383  0.75010452  -0.00113306  1
  Fe  Fe39  1  0.37404349  0.87575060  0.87673577  1
  Fe  Fe40  1  0.24748863  0.25288747  0.24956731  1
  Fe  Fe41  1  0.12457448  0.62413632  0.37598675  1
  Fe  Fe42  1  0.87729121  0.87401130  0.38019517  1
  Fe  Fe43  1  0.24995210  0.49968947  0.50181050  1
  Fe  Fe44  1  0.12646473  0.11941152  0.87391394  1
  Fe  Fe45  1  0.75224259  -0.00054885  0.24930641  1
  Fe  Fe46  1  0.50146255  0.24809128  0.25273845  1
  Fe  Fe47  1  0.74666993  0.50030715  0.50327362  1
  Fe  Fe48  1  0.62714461  0.87902095  0.87686747  1
  Fe  Fe49  1  -0.00212397  0.24610108  -0.00167112  1
  Fe  Fe50  1  0.74446958  0.24831205  0.49947768  1
  Fe  Fe51  1  0.37554908  0.87310867  0.12524329  1
  Fe  Fe52  1  0.25106636  0.49710917  0.00268723  1
  Fe  Fe53  1  0.12156191  0.87503071  0.37820414  1
  Fe  Fe54  1  0.50044918  0.75157033  0.75142967  1
  Fe  Fe55  1  0.25106181  0.49861892  0.74851056  1
  Fe  Fe56  1  0.74665207  0.74799407  0.50110135  1
  Fe  Fe57  1  0.24935855  0.00072778  0.50032914  1
  Fe  Fe58  1  0.49769707  0.50171162  0.00220717  1
  Fe  Fe59  1  0.00047597  0.49856662  0.24960585  1
  Fe  Fe60  1  0.24995471  -0.00177341  0.24943330  1
  Fe  Fe61  1  0.00001090  0.49978605  0.50265563  1
  Fe  Fe62  1  0.24838170  0.75185042  0.25135201  1
  Fe  Fe63  1  0.25101806  0.25083970  0.75130137  1
  Fe  Fe64  1  0.37834052  0.87207164  0.37658153  1
  Fe  Fe65  1  0.62631058  0.12552430  0.12421475  1
  Fe  Fe66  1  0.50309643  0.50102642  0.50221803  1
  Fe  Fe67  1  0.74951743  0.75022406  0.24977961  1
  Fe  Fe68  1  0.12449331  0.12244710  0.12481405  1
  Fe  Fe69  1  0.87495000  0.12617428  0.37554208  1
  Fe  Fe70  1  0.12212881  0.87568906  0.62306158  1
  Fe  Fe71  1  0.12503588  0.62574845  0.62600906  1
  Fe  Fe72  1  0.37639077  0.62785859  0.62471895  1
  Fe  Fe73  1  0.74997094  0.75295695  0.75077546  1
  Fe  Fe74  1  0.75232829  0.49720977  -0.00136234  1
  Fe  Fe75  1  0.24491274  0.75496877  -0.00130899  1
  Fe  Fe76  1  0.87240148  0.62631955  0.62692173  1
  Fe  Fe77  1  0.12448415  0.37610038  0.87517073  1
  Fe  Fe78  1  0.50115185  0.74865425  0.00124925  1
  Fe  Fe79  1  0.49838808  0.24837096  -0.00536211  1
  Fe  Fe80  1  0.12370451  0.62804742  0.12532471  1
  Fe  Fe81  1  0.62593340  0.62388506  0.87411247  1
  Fe  Fe82  1  0.50064557  0.49941414  0.74903768  1
  Fe  Fe83  1  0.87593385  0.37401039  0.37779098  1
  Fe  Fe84  1  0.62537998  0.87581302  0.12387167  1
  Fe  Fe85  1  0.87954388  0.87215392  0.12282420  1
  Fe  Fe86  1  0.74915312  0.00316355  0.50167264  1
  Fe  Fe87  1  0.37626425  0.62769420  0.37563774  1
  Fe  Fe88  1  0.75605166  0.00418030  0.00146420  1
  Fe  Fe89  1  0.00515899  0.24716074  0.50139528  1
  Co  Co90  1  0.50348928  0.25009002  0.49538498  1
  Co  Co91  1  0.12053855  0.87554912  0.12749304  1
  Co  Co92  1  0.62719058  0.12172178  0.37280692  1
  Co  Co93  1  0.75152810  0.49788429  0.75016371  1
  Co  Co94  1  0.12423110  0.88093869  0.87072384  1
  Co  Co95  1  0.12504014  0.37714515  0.37695201  1
  Co  Co96  1  0.50051997  0.00185976  0.49740354  1
  Co  Co97  1  0.12580672  0.37604686  0.62565714  1
  Co  Co98  1  0.24925356  -0.00307365  0.00273410  1
  Co  Co99  1  0.12672427  0.12204565  0.62880561  1
  Co  Co100  1  0.37007337  0.62898078  0.12355338  1
  Co  Co101  1  0.87599930  0.37206399  0.87315260  1
  Co  Co102  1  0.50217978  0.74819234  0.24641848  1
  Co  Co103  1  0.12245377  0.37337199  0.12202378  1
  Co  Co104  1  0.37069770  0.12156008  0.87494652  1
  Co  Co105  1  0.37809478  0.37186802  0.12587288  1
  Co  Co106  1  0.12555189  0.12347737  0.37275243  1
  Co  Co107  1  0.24869597  0.75071826  0.50069727  1
  Co  Co108  1  -0.00013196  0.74600643  0.50092517  1
  Co  Co109  1  0.87452166  0.12501749  0.87227795  1
  Co  Co110  1  0.50015117  0.24762894  0.75641700  1
  Co  Co111  1  0.62575950  0.62604866  0.63003104  1
  Co  Co112  1  0.87405311  0.12854868  0.62367177  1
  Co  Co113  1  0.50371284  0.74818198  0.50167003  1
  Co  Co114  1  0.00296469  0.75109433  -0.00472360  1
  Co  Co115  1  -0.00141177  0.00044311  -0.00062811  1
  Co  Co116  1  0.62877479  0.12171532  0.87678046  1
  Co  Co117  1  0.62493186  0.62497192  0.37259788  1
  Co  Co118  1  -0.00011813  0.00458497  0.50141291  1
  Co  Co119  1  0.87423086  0.87387069  0.62046973  1
  Co  Co120  1  0.37477080  0.37861281  0.87391148  1
  Co  Co121  1  0.75185132  0.24990461  0.00014201  1
  Co  Co122  1  -0.00165162  0.74901370  0.25303153  1
  Co  Co123  1  0.62384976  0.37176648  0.62780735  1
  Co  Co124  1  0.87324958  0.87632733  0.87653174  1
  Co  Co125  1  0.62952201  0.62460901  0.12350095  1
  Co  Co126  1  0.87658002  0.12658037  0.12855448  1
  Co  Co127  1  0.62024826  0.12533946  0.62631095  1
