# generated using pymatgen
data_Fe45Co19
_symmetry_space_group_name_H-M   'P 1'
_cell_length_a   11.41534141
_cell_length_b   11.41450099
_cell_length_c   11.41484149
_cell_angle_alpha   90.01869429
_cell_angle_beta   90.00643909
_cell_angle_gamma   89.99858496
_symmetry_Int_Tables_number   1
_chemical_formula_structural   Fe45Co19
_chemical_formula_sum   'Fe90 Co38'
_cell_volume   1487.35861881
_cell_formula_units_Z   2
loop_
 _symmetry_equiv_pos_site_id
 _symmetry_equiv_pos_as_xyz
  1  'x, y, z'
loop_
 _atom_site_type_symbol
 _atom_site_label
 _atom_site_symmetry_multiplicity
 _atom_site_fract_x
 _atom_site_fract_y
 _atom_site_fract_z
 _atom_site_occupancy
  Fe  Fe0  1  0.12761793  0.62700445  0.87552542  1
  Fe  Fe1  1  0.24985205  0.74642400  0.24730077  1
  Fe  Fe2  1  0.37776018  0.62646726  0.37939982  1
  Fe  Fe3  1  0.37207716  0.37629199  0.87526071  1
  Fe  Fe4  1  0.62543481  0.87482608  0.87601540  1
  Fe  Fe5  1  0.00212048  0.25089525  0.00040937  1
  Fe  Fe6  1  0.37521635  0.12454809  0.12501517  1
  Fe  Fe7  1  0.37158838  0.11997905  0.87159694  1
  Fe  Fe8  1  0.12400282  0.37443685  0.62461826  1
  Fe  Fe9  1  0.75020298  0.50051497  0.74991176  1
  Fe  Fe10  1  0.00017420  0.49983294  0.75242122  1
  Fe  Fe11  1  0.12528024  0.62494176  0.37435168  1
  Fe  Fe12  1  0.62406810  0.62629925  0.12552210  1
  Fe  Fe13  1  0.25046413  0.24799633  0.74809720  1
  Fe  Fe14  1  0.50044362  0.25113737  0.50102875  1
  Fe  Fe15  1  0.49944665  0.49999855  0.25253443  1
  Fe  Fe16  1  0.74989292  -0.00127218  0.74941805  1
  Fe  Fe17  1  0.12742010  0.87424968  0.87544795  1
  Fe  Fe18  1  0.49848246  0.24754701  0.75111622  1
  Fe  Fe19  1  0.62389674  0.87471324  0.62533650  1
  Fe  Fe20  1  0.75118597  0.25057014  0.74781281  1
  Fe  Fe21  1  0.37467065  0.87853722  0.62507267  1
  Fe  Fe22  1  0.37065162  0.37238815  0.37281939  1
  Fe  Fe23  1  0.86758342  0.12654761  0.37795292  1
  Fe  Fe24  1  0.24885622  0.50305979  0.00441133  1
  Fe  Fe25  1  0.50075480  -0.00006641  -0.00041985  1
  Fe  Fe26  1  0.24710500  0.00039907  0.00127951  1
  Fe  Fe27  1  0.87743073  0.12577854  0.87409306  1
  Fe  Fe28  1  0.87677774  0.62498919  0.62335804  1
  Fe  Fe29  1  0.75175061  0.25036722  0.00087461  1
  Fe  Fe30  1  0.75142419  0.74988339  0.74750094  1
  Fe  Fe31  1  -0.00209356  0.25244245  0.25297129  1
  Fe  Fe32  1  0.00019678  0.25056337  0.49859375  1
  Fe  Fe33  1  0.75134567  0.75279500  0.50190794  1
  Fe  Fe34  1  0.87528676  0.87775296  0.37737978  1
  Fe  Fe35  1  0.49988554  0.00010073  0.49891265  1
  Fe  Fe36  1  0.62662970  0.12368726  0.87662550  1
  Fe  Fe37  1  0.75076177  0.75308784  0.24831173  1
  Fe  Fe38  1  0.25088368  0.49940410  0.49964572  1
  Fe  Fe39  1  0.75190052  0.49730384  0.24815684  1
  Fe  Fe40  1  0.37206423  0.87391944  0.37527022  1
  Fe  Fe41  1  0.00018956  0.49820546  -0.00140783  1
  Fe  Fe42  1  0.12721927  0.12465226  0.62288075  1
  Fe  Fe43  1  0.50104356  0.75027200  0.25134415  1
  Fe  Fe44  1  0.87677328  0.37598448  0.62526375  1
  Fe  Fe45  1  0.75097361  0.49845789  -0.00028137  1
  Fe  Fe46  1  0.37748963  0.37634426  0.62615846  1
  Fe  Fe47  1  0.62508005  0.62598064  0.37745227  1
  Fe  Fe48  1  0.49664961  0.74881882  0.75217438  1
  Fe  Fe49  1  0.62543970  0.87618780  0.37519553  1
  Fe  Fe50  1  0.24806530  0.24787181  0.00230808  1
  Fe  Fe51  1  0.12962360  0.12909755  0.37598716  1
  Fe  Fe52  1  0.87545066  0.87582337  0.87357443  1
  Fe  Fe53  1  0.37350036  0.12711142  0.37714325  1
  Fe  Fe54  1  0.75191693  0.75300844  0.00267104  1
  Fe  Fe55  1  0.00031478  0.75146025  0.00098179  1
  Fe  Fe56  1  0.87228588  0.62335286  0.37641612  1
  Fe  Fe57  1  0.61982366  0.62451227  0.62259944  1
  Fe  Fe58  1  0.25214778  0.75101735  0.74739292  1
  Fe  Fe59  1  0.24915667  0.00165763  0.25078817  1
  Fe  Fe60  1  0.00099533  0.49818661  0.49592712  1
  Fe  Fe61  1  0.37565116  0.87404385  0.12475258  1
  Fe  Fe62  1  0.25016710  0.50162530  0.74784613  1
  Fe  Fe63  1  0.87478031  0.12165664  0.62251788  1
  Fe  Fe64  1  0.49779446  0.24926213  -0.00223290  1
  Fe  Fe65  1  0.50188995  0.24703515  0.24991306  1
  Fe  Fe66  1  -0.00148726  0.74996243  0.25274063  1
  Fe  Fe67  1  0.62611393  0.37490568  0.87311862  1
  Fe  Fe68  1  0.87442006  0.62540757  0.87540845  1
  Fe  Fe69  1  0.12540290  0.37252868  0.87307378  1
  Fe  Fe70  1  0.12529905  0.37767973  0.13199260  1
  Fe  Fe71  1  0.00098744  0.00041855  -0.00076375  1
  Fe  Fe72  1  0.87759863  0.62367913  0.12555199  1
  Fe  Fe73  1  0.87572244  0.12389510  0.12535860  1
  Fe  Fe74  1  0.50189436  0.00216306  0.24991908  1
  Fe  Fe75  1  0.49895239  0.50332924  0.75360806  1
  Fe  Fe76  1  0.00196636  0.00158835  0.25522396  1
  Fe  Fe77  1  0.62858390  0.37093526  0.37400104  1
  Fe  Fe78  1  0.74623560  0.00059921  0.24564997  1
  Fe  Fe79  1  -0.00053746  0.75041059  0.74876413  1
  Fe  Fe80  1  0.37456509  0.37576434  0.12715174  1
  Fe  Fe81  1  0.12330685  0.87515151  0.12821276  1
  Fe  Fe82  1  0.49712048  0.74891449  -0.00368792  1
  Fe  Fe83  1  0.62383433  0.37294577  0.12484397  1
  Fe  Fe84  1  0.00291610  0.00046210  0.74886716  1
  Fe  Fe85  1  0.12424466  0.62630455  0.62317479  1
  Fe  Fe86  1  0.62424418  0.12419954  0.62333944  1
  Fe  Fe87  1  0.12199144  0.87476345  0.61723043  1
  Fe  Fe88  1  0.50031921  0.50166383  -0.00192366  1
  Fe  Fe89  1  0.74702784  0.49682604  0.50221739  1
  Co  Co90  1  0.00240439  0.00349242  0.49540068  1
  Co  Co91  1  0.87926399  0.87802304  0.12779725  1
  Co  Co92  1  0.25386300  0.50587028  0.25044766  1
  Co  Co93  1  0.49992123  0.75473490  0.49980496  1
  Co  Co94  1  0.38010056  0.62575003  0.12459858  1
  Co  Co95  1  0.74986226  0.24901052  0.24616545  1
  Co  Co96  1  0.12504425  0.12649488  0.87343997  1
  Co  Co97  1  0.62781916  0.12562931  0.37780908  1
  Co  Co98  1  0.87082073  0.37283952  0.37798458  1
  Co  Co99  1  0.25140633  0.25176678  0.50424308  1
  Co  Co100  1  0.50052277  0.49416611  0.49548902  1
  Co  Co101  1  0.62105746  0.37629830  0.62965641  1
  Co  Co102  1  0.62137107  0.87378836  0.12317950  1
  Co  Co103  1  0.25009755  0.00027637  0.49795372  1
  Co  Co104  1  0.50350680  -0.00006031  0.75014250  1
  Co  Co105  1  0.74807424  -0.00380107  0.50202482  1
  Co  Co106  1  0.25031552  0.24699571  0.24571411  1
  Co  Co107  1  0.11918089  0.62377628  0.12689241  1
  Co  Co108  1  0.12712110  0.87224955  0.37564414  1
  Co  Co109  1  0.74799112  0.25285611  0.50568665  1
  Co  Co110  1  0.62790697  0.62645650  0.87551760  1
  Co  Co111  1  0.37545948  0.12165520  0.62573539  1
  Co  Co112  1  0.87600714  0.37345025  0.87268416  1
  Co  Co113  1  0.75167373  -0.00154614  0.00125999  1
  Co  Co114  1  -0.00383684  0.49767120  0.25504135  1
  Co  Co115  1  0.37326069  0.87881831  0.87446247  1
  Co  Co116  1  0.00033955  0.24838249  0.74649908  1
  Co  Co117  1  0.24972271  0.74983894  0.00310079  1
  Co  Co118  1  0.12185975  0.12424773  0.12769353  1
  Co  Co119  1  0.87659393  0.37444471  0.12484716  1
  Co  Co120  1  0.62446201  0.12603129  0.12200867  1
  Co  Co121  1  0.36940508  0.62431905  0.87549207  1
  Co  Co122  1  0.25104664  0.74892754  0.50171324  1
  Co  Co123  1  0.37890073  0.62307529  0.62156696  1
  Co  Co124  1  0.24477472  -0.00190836  0.74713100  1
  Co  Co125  1  0.12972701  0.37415740  0.37211194  1
  Co  Co126  1  -0.00255711  0.74805333  0.49653213  1
  Co  Co127  1  0.87987031  0.87730089  0.62322969  1
