# generated using pymatgen
data_Fe45Co19
_symmetry_space_group_name_H-M   'P 1'
_cell_length_a   11.41574022
_cell_length_b   11.41438139
_cell_length_c   11.41461234
_cell_angle_alpha   89.99625289
_cell_angle_beta   89.99489117
_cell_angle_gamma   90.00601680
_symmetry_Int_Tables_number   1
_chemical_formula_structural   Fe45Co19
_chemical_formula_sum   'Fe90 Co38'
_cell_volume   1487.36520831
_cell_formula_units_Z   2
loop_
 _symmetry_equiv_pos_site_id
 _symmetry_equiv_pos_as_xyz
  1  'x, y, z'
loop_
 _atom_site_type_symbol
 _atom_site_label
 _atom_site_symmetry_multiplicity
 _atom_site_fract_x
 _atom_site_fract_y
 _atom_site_fract_z
 _atom_site_occupancy
  Fe  Fe0  1  0.62717493  0.37101354  0.12396132  1
  Fe  Fe1  1  0.62222904  0.36965056  0.62189875  1
  Fe  Fe2  1  0.50320607  0.74929977  0.75047331  1
  Fe  Fe3  1  0.50270487  0.75186722  0.49686265  1
  Fe  Fe4  1  0.87287047  0.62001110  0.37099409  1
  Fe  Fe5  1  0.12507079  0.37530841  0.87563818  1
  Fe  Fe6  1  0.25263631  0.50008013  0.50089091  1
  Fe  Fe7  1  0.62204132  0.12431009  0.37859201  1
  Fe  Fe8  1  0.49977845  0.24727747  0.25001543  1
  Fe  Fe9  1  0.37605453  0.37514990  0.37345786  1
  Fe  Fe10  1  -0.00128951  0.49917221  0.49976153  1
  Fe  Fe11  1  -0.00261256  -0.00025520  0.50974444  1
  Fe  Fe12  1  0.74824723  0.75135255  0.25135614  1
  Fe  Fe13  1  0.24908286  0.24849031  0.25115472  1
  Fe  Fe14  1  0.49809605  0.24808225  -0.00037109  1
  Fe  Fe15  1  0.25289524  0.00229439  0.50294081  1
  Fe  Fe16  1  0.37547524  0.87497567  0.62659425  1
  Fe  Fe17  1  0.75242422  0.24777084  0.25331870  1
  Fe  Fe18  1  -0.00297943  0.49905886  -0.00018285  1
  Fe  Fe19  1  0.25052552  0.00040453  0.00102316  1
  Fe  Fe20  1  0.75486934  0.50368865  -0.00019629  1
  Fe  Fe21  1  0.00006151  0.75398039  0.74598940  1
  Fe  Fe22  1  0.62697161  0.62630145  0.12443317  1
  Fe  Fe23  1  0.24776911  0.49928504  0.24917398  1
  Fe  Fe24  1  0.50415626  0.49842347  0.24976506  1
  Fe  Fe25  1  0.12464503  0.62575822  0.37589348  1
  Fe  Fe26  1  0.50064057  0.75115493  0.00033052  1
  Fe  Fe27  1  -0.00457010  0.74931797  0.00012274  1
  Fe  Fe28  1  0.74621900  0.24812051  0.75073427  1
  Fe  Fe29  1  0.37739949  0.62351276  0.62603639  1
  Fe  Fe30  1  0.24633393  -0.00009371  0.74647242  1
  Fe  Fe31  1  0.74983378  0.74851955  0.49633625  1
  Fe  Fe32  1  -0.00078398  0.25140913  0.25471459  1
  Fe  Fe33  1  -0.00102189  0.49772371  0.74920213  1
  Fe  Fe34  1  0.24724768  0.00067614  0.24993242  1
  Fe  Fe35  1  -0.00330748  0.00137117  -0.00034359  1
  Fe  Fe36  1  0.12411811  0.87444777  0.12389754  1
  Fe  Fe37  1  0.12462043  0.62624016  0.62396530  1
  Fe  Fe38  1  0.87441910  0.87842071  0.37726625  1
  Fe  Fe39  1  0.87303253  0.37336168  0.62520937  1
  Fe  Fe40  1  0.12255410  0.62515413  0.87347747  1
  Fe  Fe41  1  0.25578158  0.24853915  0.50215638  1
  Fe  Fe42  1  0.74801177  0.50025708  0.75032713  1
  Fe  Fe43  1  0.12335429  0.62607524  0.12578053  1
  Fe  Fe44  1  0.75133468  0.00411219  0.24875298  1
  Fe  Fe45  1  0.50232962  0.49893268  0.49802184  1
  Fe  Fe46  1  0.87290290  0.62568478  0.62548863  1
  Fe  Fe47  1  0.75452703  0.24889063  0.49653403  1
  Fe  Fe48  1  0.37385661  0.87461482  0.12712310  1
  Fe  Fe49  1  0.74673197  0.74755742  0.75298792  1
  Fe  Fe50  1  0.37506390  0.37743598  0.87347193  1
  Fe  Fe51  1  0.62716899  0.37579432  0.87859876  1
  Fe  Fe52  1  0.50112183  0.00107216  0.24789108  1
  Fe  Fe53  1  0.74687335  0.49780209  0.49804343  1
  Fe  Fe54  1  0.62548671  0.12280689  0.87939000  1
  Fe  Fe55  1  0.25296483  0.25114363  0.74824090  1
  Fe  Fe56  1  0.12260355  0.12425447  0.87328681  1
  Fe  Fe57  1  0.37502829  0.62807820  0.12851341  1
  Fe  Fe58  1  0.12664217  0.37382747  0.62334943  1
  Fe  Fe59  1  -0.00000185  0.25146213  0.74923087  1
  Fe  Fe60  1  0.12519439  0.37413819  0.37780951  1
  Fe  Fe61  1  0.62725671  0.87393711  0.62319583  1
  Fe  Fe62  1  0.87334415  0.87495685  0.12462734  1
  Fe  Fe63  1  0.37566843  0.12267392  0.87372679  1
  Fe  Fe64  1  0.87666403  0.37463887  0.12821653  1
  Fe  Fe65  1  -0.00021060  0.75080562  0.25334089  1
  Fe  Fe66  1  0.75523238  0.24630797  0.00061931  1
  Fe  Fe67  1  0.12335666  0.87545391  0.38031859  1
  Fe  Fe68  1  0.25099554  0.74965788  -0.00061613  1
  Fe  Fe69  1  0.62824009  0.87809023  0.12155195  1
  Fe  Fe70  1  0.24851580  0.50012616  0.00099945  1
  Fe  Fe71  1  0.50395541  0.49829927  0.74930005  1
  Fe  Fe72  1  0.12187800  0.12776210  0.12337321  1
  Fe  Fe73  1  0.37652866  0.62304392  0.87358739  1
  Fe  Fe74  1  0.24934489  0.74920154  0.75017594  1
  Fe  Fe75  1  0.87213345  0.87750398  0.87176440  1
  Fe  Fe76  1  0.87630390  0.12246273  0.86971166  1
  Fe  Fe77  1  0.37391399  0.37301165  0.12614429  1
  Fe  Fe78  1  0.12218070  0.12447039  0.38017585  1
  Fe  Fe79  1  0.37613181  0.87670508  0.87402768  1
  Fe  Fe80  1  0.49989756  0.49966576  0.00258486  1
  Fe  Fe81  1  0.00020286  -0.00042912  0.24957616  1
  Fe  Fe82  1  0.62737512  0.87777930  0.87904629  1
  Fe  Fe83  1  0.25022698  0.24966753  -0.00025189  1
  Fe  Fe84  1  0.75098238  0.00343859  0.50495510  1
  Fe  Fe85  1  0.12392401  0.87571115  0.87499010  1
  Fe  Fe86  1  0.50546323  0.00192039  0.74793333  1
  Fe  Fe87  1  0.37795605  0.62756321  0.37104522  1
  Fe  Fe88  1  0.37572738  0.87526532  0.37182860  1
  Fe  Fe89  1  0.25216886  0.74926726  0.49871476  1
  Co  Co90  1  0.00151582  -0.00325231  0.74438143  1
  Co  Co91  1  0.62518274  0.62452753  0.37326921  1
  Co  Co92  1  0.24559283  0.75174219  0.25140841  1
  Co  Co93  1  0.87856534  0.12087975  0.37736045  1
  Co  Co94  1  0.62517839  0.62575595  0.62292759  1
  Co  Co95  1  0.87497944  0.37981360  0.37259730  1
  Co  Co96  1  -0.00351515  0.25033828  -0.00366116  1
  Co  Co97  1  0.37978852  0.12426293  0.62823871  1
  Co  Co98  1  0.49798030  0.00071485  0.00252993  1
  Co  Co99  1  0.86897019  0.87178227  0.62626992  1
  Co  Co100  1  0.50175032  0.25018974  0.75477568  1
  Co  Co101  1  0.12295807  0.37162555  0.12354776  1
  Co  Co102  1  0.62365990  0.37004282  0.37546032  1
  Co  Co103  1  0.49888125  -0.00313099  0.50173997  1
  Co  Co104  1  0.75473510  0.00378796  0.00139487  1
  Co  Co105  1  0.37604594  0.12198548  0.37349850  1
  Co  Co106  1  0.74600353  0.00309176  0.74610349  1
  Co  Co107  1  0.62556796  0.12635518  0.12382467  1
  Co  Co108  1  0.87540920  0.12870016  0.62892878  1
  Co  Co109  1  0.87242726  0.37430686  0.87333439  1
  Co  Co110  1  0.12767294  0.87174020  0.62050961  1
  Co  Co111  1  0.87715307  0.62628445  0.87034937  1
  Co  Co112  1  0.75192825  0.74749322  -0.00158483  1
  Co  Co113  1  -0.00467232  0.74822604  0.49844584  1
  Co  Co114  1  0.49275138  0.24991569  0.49862643  1
  Co  Co115  1  0.87937884  0.12721320  0.12732368  1
  Co  Co116  1  0.62344025  0.62265754  0.87735100  1
  Co  Co117  1  0.12438749  0.12896734  0.62426688  1
  Co  Co118  1  0.87516675  0.62455529  0.13061926  1
  Co  Co119  1  0.74428203  0.49691955  0.24896447  1
  Co  Co120  1  0.62793901  0.88099892  0.37572727  1
  Co  Co121  1  0.00466585  0.49869384  0.25052073  1
  Co  Co122  1  0.37802349  0.37714184  0.62719900  1
  Co  Co123  1  0.24814055  0.50037534  0.74919704  1
  Co  Co124  1  0.37273542  0.12547146  0.12557843  1
  Co  Co125  1  0.62155796  0.13004786  0.61968944  1
  Co  Co126  1  -0.00410888  0.25267214  0.49939274  1
  Co  Co127  1  0.50670613  0.75357990  0.24969403  1
