# generated using pymatgen
data_Fe45Co19
_symmetry_space_group_name_H-M   'P 1'
_cell_length_a   11.41462374
_cell_length_b   11.41411455
_cell_length_c   11.41660784
_cell_angle_alpha   89.98998799
_cell_angle_beta   90.00385404
_cell_angle_gamma   90.01741202
_symmetry_Int_Tables_number   1
_chemical_formula_structural   Fe45Co19
_chemical_formula_sum   'Fe90 Co38'
_cell_volume   1487.44488652
_cell_formula_units_Z   2
loop_
 _symmetry_equiv_pos_site_id
 _symmetry_equiv_pos_as_xyz
  1  'x, y, z'
loop_
 _atom_site_type_symbol
 _atom_site_label
 _atom_site_symmetry_multiplicity
 _atom_site_fract_x
 _atom_site_fract_y
 _atom_site_fract_z
 _atom_site_occupancy
  Fe  Fe0  1  0.63128122  0.37910534  0.37177935  1
  Fe  Fe1  1  0.38020722  0.62750845  0.62538120  1
  Fe  Fe2  1  0.49720267  0.49736185  0.00017208  1
  Fe  Fe3  1  0.12059074  0.12664580  0.62170936  1
  Fe  Fe4  1  0.12359154  0.87600039  0.12598612  1
  Fe  Fe5  1  0.74993376  0.50030684  0.75064977  1
  Fe  Fe6  1  0.74988242  0.00221331  0.75074773  1
  Fe  Fe7  1  -0.00554311  0.49485096  0.49969015  1
  Fe  Fe8  1  0.62631102  0.87586351  0.87613517  1
  Fe  Fe9  1  0.49867256  0.25228537  0.00112934  1
  Fe  Fe10  1  0.25124472  -0.00098183  0.00181173  1
  Fe  Fe11  1  0.25015701  0.74880174  0.50090538  1
  Fe  Fe12  1  0.12393962  0.12340508  0.87748452  1
  Fe  Fe13  1  0.75056442  0.24936846  0.24633646  1
  Fe  Fe14  1  0.62484131  0.12688734  0.62456770  1
  Fe  Fe15  1  0.75328455  0.25480538  0.50098724  1
  Fe  Fe16  1  0.50205106  -0.00009897  0.49802053  1
  Fe  Fe17  1  0.37308495  0.62736176  0.87463184  1
  Fe  Fe18  1  0.12176699  0.87249506  0.62642055  1
  Fe  Fe19  1  0.24869898  0.00340403  0.24913905  1
  Fe  Fe20  1  0.50309894  0.50043340  0.49901914  1
  Fe  Fe21  1  0.62385573  0.62448045  0.12351281  1
  Fe  Fe22  1  0.25109745  0.49885517  0.00028014  1
  Fe  Fe23  1  0.62520380  0.37366597  0.87717683  1
  Fe  Fe24  1  0.25071363  0.50269414  0.74848629  1
  Fe  Fe25  1  0.74508422  0.74524414  0.49904822  1
  Fe  Fe26  1  0.24752642  0.74740198  0.25067249  1
  Fe  Fe27  1  0.87314370  0.87530088  0.37491222  1
  Fe  Fe28  1  0.49923888  0.25097121  0.75128420  1
  Fe  Fe29  1  0.25019858  0.24909285  0.24910164  1
  Fe  Fe30  1  0.49918731  0.49782036  0.24814361  1
  Fe  Fe31  1  0.74973441  0.00135179  0.00041284  1
  Fe  Fe32  1  0.12489050  0.37656271  0.12507973  1
  Fe  Fe33  1  0.62564255  0.37572651  0.62661202  1
  Fe  Fe34  1  0.87128409  0.62116368  0.37455297  1
  Fe  Fe35  1  -0.00080409  0.00169196  0.25095137  1
  Fe  Fe36  1  0.37623624  0.12476649  0.87591832  1
  Fe  Fe37  1  0.87735071  0.12679450  0.87831713  1
  Fe  Fe38  1  0.49973453  0.25284061  0.25040596  1
  Fe  Fe39  1  0.00163963  0.24926582  0.25063375  1
  Fe  Fe40  1  0.62398458  0.87235355  0.62522265  1
  Fe  Fe41  1  0.87400431  0.62387509  0.62511855  1
  Fe  Fe42  1  -0.00183820  0.50023258  0.24739550  1
  Fe  Fe43  1  0.37837866  0.87108990  0.62623066  1
  Fe  Fe44  1  0.24996269  0.25260585  0.50008817  1
  Fe  Fe45  1  0.87427924  0.87500788  0.12382933  1
  Fe  Fe46  1  0.37505102  0.12601660  0.37517225  1
  Fe  Fe47  1  0.00018605  0.50617509  0.75513296  1
  Fe  Fe48  1  0.25044832  0.24967285  0.74885657  1
  Fe  Fe49  1  0.37389308  0.87445644  0.37343550  1
  Fe  Fe50  1  0.50143313  0.00062082  0.25028612  1
  Fe  Fe51  1  0.87655787  0.12601234  0.37757066  1
  Fe  Fe52  1  0.62698273  0.62405510  0.87764995  1
  Fe  Fe53  1  0.49948196  0.49898060  0.75231839  1
  Fe  Fe54  1  0.37516915  0.62348611  0.37400364  1
  Fe  Fe55  1  0.87586454  0.87080406  0.87603844  1
  Fe  Fe56  1  0.87450289  0.87330317  0.62473293  1
  Fe  Fe57  1  0.37679058  0.12654631  0.62393426  1
  Fe  Fe58  1  0.12387693  0.87598840  0.37495586  1
  Fe  Fe59  1  0.37380831  0.62490876  0.12590331  1
  Fe  Fe60  1  0.49871484  -0.00291313  0.00178077  1
  Fe  Fe61  1  0.74949828  0.74750989  0.24715537  1
  Fe  Fe62  1  0.62416531  0.12498043  0.12382013  1
  Fe  Fe63  1  0.74903965  0.00162451  0.49959321  1
  Fe  Fe64  1  0.50057099  0.25345809  0.49745458  1
  Fe  Fe65  1  0.75184217  0.49572147  0.00346475  1
  Fe  Fe66  1  0.12450359  0.87134648  0.87245557  1
  Fe  Fe67  1  0.12425162  0.62386718  0.12228141  1
  Fe  Fe68  1  0.25082415  0.75259195  0.00159609  1
  Fe  Fe69  1  0.12586228  0.37622123  0.37331602  1
  Fe  Fe70  1  0.12135778  0.37589480  0.62751329  1
  Fe  Fe71  1  -0.00144682  0.74982963  0.49968471  1
  Fe  Fe72  1  0.74864382  0.74776951  0.75130026  1
  Fe  Fe73  1  0.74962352  0.24833050  0.75264192  1
  Fe  Fe74  1  0.62827701  0.87564070  0.37184458  1
  Fe  Fe75  1  -0.00045927  0.74828432  0.24968544  1
  Fe  Fe76  1  0.49947446  0.75304287  0.00028484  1
  Fe  Fe77  1  0.87658692  0.62626598  0.11949507  1
  Fe  Fe78  1  0.50058600  -0.00038472  0.75055604  1
  Fe  Fe79  1  0.24904530  -0.00053548  0.50130037  1
  Fe  Fe80  1  0.12601795  0.37623470  0.87385281  1
  Fe  Fe81  1  0.87838883  0.12773865  0.62361386  1
  Fe  Fe82  1  0.25007210  0.24947504  0.00201268  1
  Fe  Fe83  1  -0.00160386  0.00043382  0.75038739  1
  Fe  Fe84  1  0.87878452  0.12676817  0.12086935  1
  Fe  Fe85  1  0.25171170  0.49909397  0.50133895  1
  Fe  Fe86  1  0.87658368  0.37325625  0.87600717  1
  Fe  Fe87  1  0.50118278  0.75053979  0.24977314  1
  Fe  Fe88  1  0.25045709  0.00014836  0.74856364  1
  Fe  Fe89  1  0.12313954  0.62247212  0.37769869  1
  Co  Co90  1  0.37649002  0.37557924  0.62561274  1
  Co  Co91  1  0.37291280  0.37374517  0.87460479  1
  Co  Co92  1  0.62402368  0.37438110  0.12475413  1
  Co  Co93  1  0.50213240  0.75002162  0.75597820  1
  Co  Co94  1  0.74887306  0.25023124  -0.00019576  1
  Co  Co95  1  0.37384958  0.37723648  0.37362269  1
  Co  Co96  1  0.00020999  -0.00287805  -0.00120692  1
  Co  Co97  1  0.62774368  0.61986655  0.37023762  1
  Co  Co98  1  0.62673105  0.12761150  0.37509776  1
  Co  Co99  1  -0.00162181  0.25661289  0.49707319  1
  Co  Co100  1  -0.00037184  -0.00167976  0.49981548  1
  Co  Co101  1  0.87135496  0.62668662  0.87982303  1
  Co  Co102  1  0.37351863  0.87493120  0.12861589  1
  Co  Co103  1  0.87052204  0.37746436  0.36929419  1
  Co  Co104  1  0.87748670  0.37440361  0.63273782  1
  Co  Co105  1  0.75008450  0.49887342  0.50426323  1
  Co  Co106  1  0.12446092  0.12523035  0.37800508  1
  Co  Co107  1  0.37261701  0.37549664  0.12598108  1
  Co  Co108  1  0.00451150  0.25270668  -0.00125000  1
  Co  Co109  1  0.62258384  0.62541306  0.62822391  1
  Co  Co110  1  0.12292279  0.12354933  0.12309078  1
  Co  Co111  1  0.87883426  0.37140906  0.12351017  1
  Co  Co112  1  0.24870634  0.74705823  0.74605931  1
  Co  Co113  1  -0.00002524  0.49963395  -0.00249818  1
  Co  Co114  1  0.74700698  0.75127385  0.00188395  1
  Co  Co115  1  0.62201026  0.12453058  0.87675520  1
  Co  Co116  1  0.12192695  0.62275796  0.62068928  1
  Co  Co117  1  0.37700047  0.12533611  0.12543036  1
  Co  Co118  1  0.75265187  0.50123969  0.24094737  1
  Co  Co119  1  0.12886222  0.62776078  0.87814499  1
  Co  Co120  1  0.00191868  0.24738554  0.75360613  1
  Co  Co121  1  0.62758348  0.87682699  0.12698878  1
  Co  Co122  1  0.75248139  0.00444335  0.24912211  1
  Co  Co123  1  0.50302524  0.74902704  0.49436901  1
  Co  Co124  1  -0.00093574  0.74464718  0.75064984  1
  Co  Co125  1  0.37270595  0.87498064  0.87316648  1
  Co  Co126  1  0.00192803  0.74988091  -0.00023686  1
  Co  Co127  1  0.24894866  0.50171186  0.24980836  1
