# generated using pymatgen
data_Fe45Co19
_symmetry_space_group_name_H-M   'P 1'
_cell_length_a   11.41439381
_cell_length_b   11.41427578
_cell_length_c   11.41513323
_cell_angle_alpha   90.00391406
_cell_angle_beta   90.00319788
_cell_angle_gamma   90.00243881
_symmetry_Int_Tables_number   1
_chemical_formula_structural   Fe45Co19
_chemical_formula_sum   'Fe90 Co38'
_cell_volume   1487.24389891
_cell_formula_units_Z   2
loop_
 _symmetry_equiv_pos_site_id
 _symmetry_equiv_pos_as_xyz
  1  'x, y, z'
loop_
 _atom_site_type_symbol
 _atom_site_label
 _atom_site_symmetry_multiplicity
 _atom_site_fract_x
 _atom_site_fract_y
 _atom_site_fract_z
 _atom_site_occupancy
  Fe  Fe0  1  0.49867531  0.75006889  0.75029245  1
  Fe  Fe1  1  0.24597612  0.50145583  0.24859625  1
  Fe  Fe2  1  0.62494339  0.62500714  0.87585585  1
  Fe  Fe3  1  0.87585584  0.62383875  0.62395871  1
  Fe  Fe4  1  0.62542165  0.37409392  0.87651775  1
  Fe  Fe5  1  0.12485544  0.62675465  0.37877271  1
  Fe  Fe6  1  0.75382797  0.24735669  0.50037211  1
  Fe  Fe7  1  0.00135414  -0.00003943  -0.00083449  1
  Fe  Fe8  1  0.12403815  0.12583282  0.87533678  1
  Fe  Fe9  1  0.62530709  0.62567743  0.37602891  1
  Fe  Fe10  1  0.37412953  0.37603233  0.87509779  1
  Fe  Fe11  1  0.62365270  0.12674440  0.12444955  1
  Fe  Fe12  1  0.12061098  0.37347051  0.12467768  1
  Fe  Fe13  1  -0.00312558  0.25068480  0.49957107  1
  Fe  Fe14  1  0.62651847  0.37498115  0.12316994  1
  Fe  Fe15  1  0.87649080  0.62352882  0.37458532  1
  Fe  Fe16  1  0.49824920  0.50076571  0.00028548  1
  Fe  Fe17  1  0.87436148  0.62046750  0.12777276  1
  Fe  Fe18  1  0.74904551  0.75012084  0.25091756  1
  Fe  Fe19  1  0.37192407  0.62564595  0.62651123  1
  Fe  Fe20  1  0.12203486  0.62956014  0.87740706  1
  Fe  Fe21  1  0.12388922  0.37371626  0.87553635  1
  Fe  Fe22  1  0.24653406  0.50202547  0.74991354  1
  Fe  Fe23  1  0.62369798  0.87648091  0.62429739  1
  Fe  Fe24  1  0.49929565  -0.00004748  0.00260293  1
  Fe  Fe25  1  0.62410301  0.87649087  0.37638746  1
  Fe  Fe26  1  0.12506529  0.62739352  0.62062538  1
  Fe  Fe27  1  -0.00355324  0.49890338  -0.00051904  1
  Fe  Fe28  1  0.37251610  0.87476301  0.87388315  1
  Fe  Fe29  1  0.24614425  -0.00172312  0.74984033  1
  Fe  Fe30  1  0.49504867  0.00268805  0.49815651  1
  Fe  Fe31  1  0.00142441  0.49880932  0.74626207  1
  Fe  Fe32  1  0.49762258  0.74860563  -0.00000147  1
  Fe  Fe33  1  0.12590351  0.12675828  0.62350041  1
  Fe  Fe34  1  0.87593904  0.87730958  0.37369376  1
  Fe  Fe35  1  0.87507778  0.87532534  0.12701692  1
  Fe  Fe36  1  0.25180821  0.74706345  0.00195557  1
  Fe  Fe37  1  0.62296145  0.12499475  0.87662777  1
  Fe  Fe38  1  0.75133569  0.25106064  0.25057154  1
  Fe  Fe39  1  0.24986852  0.00142545  0.00085038  1
  Fe  Fe40  1  0.87673976  0.37807360  0.37219022  1
  Fe  Fe41  1  0.87660003  0.87849890  0.62532926  1
  Fe  Fe42  1  0.62521337  0.12346631  0.37452154  1
  Fe  Fe43  1  0.75157482  0.50103695  0.49884586  1
  Fe  Fe44  1  0.50261335  0.49819024  0.25096673  1
  Fe  Fe45  1  0.87795868  0.12756148  0.12706724  1
  Fe  Fe46  1  0.37259310  0.62621568  0.37168819  1
  Fe  Fe47  1  0.25029018  0.24929939  0.00149945  1
  Fe  Fe48  1  -0.00000087  0.00132804  0.49938509  1
  Fe  Fe49  1  0.25045093  0.24996530  0.75091615  1
  Fe  Fe50  1  0.74895833  0.00067209  0.74994072  1
  Fe  Fe51  1  0.75386604  0.74786144  -0.00057127  1
  Fe  Fe52  1  0.62604312  0.62428783  0.62448479  1
  Fe  Fe53  1  0.87821107  0.12497190  0.87292021  1
  Fe  Fe54  1  0.75190107  -0.00018705  0.00050512  1
  Fe  Fe55  1  0.49800537  0.74849620  0.50097810  1
  Fe  Fe56  1  -0.00080945  0.25182960  0.74694310  1
  Fe  Fe57  1  0.74740778  -0.00023124  0.24847828  1
  Fe  Fe58  1  0.12511180  0.87372608  0.62072969  1
  Fe  Fe59  1  0.62546725  0.37521244  0.37794237  1
  Fe  Fe60  1  0.12647252  0.12494235  0.37489522  1
  Fe  Fe61  1  0.12482852  0.12634750  0.12678826  1
  Fe  Fe62  1  0.37241502  0.37599495  0.62530163  1
  Fe  Fe63  1  0.12608989  0.37648914  0.37880112  1
  Fe  Fe64  1  0.62386670  0.12369913  0.62410351  1
  Fe  Fe65  1  0.87954975  0.87373698  0.87324340  1
  Fe  Fe66  1  0.00160671  0.00115176  0.25057975  1
  Fe  Fe67  1  0.75188699  0.74965557  0.74920107  1
  Fe  Fe68  1  0.37571109  0.12811052  0.13173119  1
  Fe  Fe69  1  0.62509550  0.87466576  0.87675621  1
  Fe  Fe70  1  0.75188025  0.75195863  0.49983765  1
  Fe  Fe71  1  0.25095454  0.50133066  0.00097224  1
  Fe  Fe72  1  0.37598646  0.12411563  0.87380367  1
  Fe  Fe73  1  0.49916850  0.24991409  0.74929034  1
  Fe  Fe74  1  0.49509270  0.24903475  0.49748853  1
  Fe  Fe75  1  0.25458655  0.24850734  0.49754676  1
  Fe  Fe76  1  0.62607155  0.37539762  0.62277385  1
  Fe  Fe77  1  0.50189979  0.75158135  0.24931365  1
  Fe  Fe78  1  0.00244403  0.74800182  0.24900794  1
  Fe  Fe79  1  0.49996673  0.49984603  0.74961311  1
  Fe  Fe80  1  0.49639288  0.50041522  0.49938422  1
  Fe  Fe81  1  0.75091241  0.24888076  0.74845149  1
  Fe  Fe82  1  0.37523066  0.37378247  0.12831565  1
  Fe  Fe83  1  0.37310883  0.87643781  0.62479131  1
  Fe  Fe84  1  0.37465938  0.87318918  0.12826191  1
  Fe  Fe85  1  0.62642403  0.62474108  0.12417724  1
  Fe  Fe86  1  0.12496956  0.87363440  0.12396290  1
  Fe  Fe87  1  0.75489425  0.25275604  0.00005704  1
  Fe  Fe88  1  0.75134065  0.49997738  0.75243451  1
  Fe  Fe89  1  0.24942459  -0.00449192  0.25425152  1
  Co  Co90  1  0.75002498  -0.00079232  0.50084307  1
  Co  Co91  1  0.12160787  0.87339663  0.37616589  1
  Co  Co92  1  -0.00028209  0.24931169  0.00000473  1
  Co  Co93  1  0.00534752  -0.00152052  0.75049667  1
  Co  Co94  1  0.37574903  0.62437038  0.12942322  1
  Co  Co95  1  0.87933844  0.62590356  0.87289364  1
  Co  Co96  1  0.37702172  0.87338503  0.37414400  1
  Co  Co97  1  0.12395710  0.62560373  0.12065355  1
  Co  Co98  1  0.25149288  0.75252008  0.49780364  1
  Co  Co99  1  -0.00320130  0.75084816  0.49962874  1
  Co  Co100  1  0.74696359  0.49896893  0.25099955  1
  Co  Co101  1  0.49749461  0.25006228  0.00045070  1
  Co  Co102  1  0.00531367  0.50203490  0.25139140  1
  Co  Co103  1  0.87673785  0.37364939  0.87249034  1
  Co  Co104  1  0.50006511  -0.00101217  0.75084518  1
  Co  Co105  1  0.75281135  0.49911561  -0.00169067  1
  Co  Co106  1  0.37367692  0.62422561  0.87317990  1
  Co  Co107  1  0.87807073  0.37612535  0.12932058  1
  Co  Co108  1  0.00145442  0.75005573  0.74625048  1
  Co  Co109  1  -0.00368996  0.75061022  0.00466290  1
  Co  Co110  1  0.37247618  0.37706206  0.37171316  1
  Co  Co111  1  0.37395237  0.12503712  0.36764395  1
  Co  Co112  1  0.87389451  0.12169754  0.37388008  1
  Co  Co113  1  0.25079813  0.00025378  0.49769029  1
  Co  Co114  1  0.87244278  0.37610860  0.62476200  1
  Co  Co115  1  0.50232819  -0.00188425  0.24783062  1
  Co  Co116  1  0.62659145  0.87244757  0.12182661  1
  Co  Co117  1  0.24559188  0.74997917  0.25019850  1
  Co  Co118  1  0.87669146  0.12199442  0.62595488  1
  Co  Co119  1  0.12852866  0.37213176  0.62220342  1
  Co  Co120  1  0.50380235  0.25299063  0.25310307  1
  Co  Co121  1  0.25196044  0.50174364  0.50024987  1
  Co  Co122  1  0.12476866  0.87031973  0.87948041  1
  Co  Co123  1  0.24717974  0.75010804  0.74924749  1
  Co  Co124  1  0.00072497  0.24969910  0.25414858  1
  Co  Co125  1  0.24522386  0.25353290  0.25024852  1
  Co  Co126  1  0.37300577  0.12370884  0.62744487  1
  Co  Co127  1  0.00012809  0.49803579  0.50197505  1
