# generated using pymatgen
data_Fe45Co19
_symmetry_space_group_name_H-M   'P 1'
_cell_length_a   11.41476530
_cell_length_b   11.41449312
_cell_length_c   11.41536017
_cell_angle_alpha   90.00363137
_cell_angle_beta   89.99865154
_cell_angle_gamma   90.00229347
_symmetry_Int_Tables_number   1
_chemical_formula_structural   Fe45Co19
_chemical_formula_sum   'Fe90 Co38'
_cell_volume   1487.35019289
_cell_formula_units_Z   2
loop_
 _symmetry_equiv_pos_site_id
 _symmetry_equiv_pos_as_xyz
  1  'x, y, z'
loop_
 _atom_site_type_symbol
 _atom_site_label
 _atom_site_symmetry_multiplicity
 _atom_site_fract_x
 _atom_site_fract_y
 _atom_site_fract_z
 _atom_site_occupancy
  Fe  Fe0  1  -0.00365835  -0.00505883  0.75034089  1
  Fe  Fe1  1  0.87457714  0.12606781  0.37264311  1
  Fe  Fe2  1  0.62546828  0.37449252  0.37719033  1
  Fe  Fe3  1  0.49928007  0.49799899  0.50078871  1
  Fe  Fe4  1  0.12250296  0.12209064  0.12681571  1
  Fe  Fe5  1  0.87638635  0.12512332  0.62619793  1
  Fe  Fe6  1  0.49862711  0.00079305  -0.00029657  1
  Fe  Fe7  1  0.12262961  0.12438927  0.37439212  1
  Fe  Fe8  1  0.12640135  0.87452361  0.62186876  1
  Fe  Fe9  1  0.50230425  0.00089389  0.25445104  1
  Fe  Fe10  1  0.87468332  0.12655199  0.87525749  1
  Fe  Fe11  1  0.74878777  0.25446634  0.00070973  1
  Fe  Fe12  1  0.75216982  -0.00185867  0.74933691  1
  Fe  Fe13  1  0.24797122  0.24685643  0.50010546  1
  Fe  Fe14  1  0.24890388  0.50263523  0.49949255  1
  Fe  Fe15  1  0.37240458  0.87503118  0.62026418  1
  Fe  Fe16  1  0.75143645  -0.00015026  0.00102194  1
  Fe  Fe17  1  0.24689787  0.24769953  -0.00149741  1
  Fe  Fe18  1  0.50015668  -0.00303963  0.74966334  1
  Fe  Fe19  1  0.50220997  0.75285158  0.74880975  1
  Fe  Fe20  1  -0.00109370  0.25085886  0.50150865  1
  Fe  Fe21  1  0.37345895  0.37307842  0.62345556  1
  Fe  Fe22  1  0.25234967  0.00212344  0.25361857  1
  Fe  Fe23  1  0.62651237  0.12312950  0.62255249  1
  Fe  Fe24  1  -0.00056010  0.25237171  0.75108169  1
  Fe  Fe25  1  0.25026844  0.75081754  0.00055683  1
  Fe  Fe26  1  0.24870586  0.74851458  0.25090322  1
  Fe  Fe27  1  0.37457157  0.12414791  0.87234834  1
  Fe  Fe28  1  0.24951562  0.75119542  0.75029042  1
  Fe  Fe29  1  0.62587973  0.12544278  0.87455599  1
  Fe  Fe30  1  0.87472987  0.62923438  0.87374498  1
  Fe  Fe31  1  0.37702329  0.62605105  0.12660796  1
  Fe  Fe32  1  0.37770922  0.62637619  0.37443039  1
  Fe  Fe33  1  0.49838572  0.00290822  0.49460579  1
  Fe  Fe34  1  0.24635417  0.24860329  0.75159178  1
  Fe  Fe35  1  -0.00426464  -0.00338623  0.49794156  1
  Fe  Fe36  1  0.12343335  0.62447063  0.12506599  1
  Fe  Fe37  1  0.50574771  0.75357961  0.25260443  1
  Fe  Fe38  1  0.49908652  0.49836786  0.74953995  1
  Fe  Fe39  1  0.87399589  0.87444231  0.12754701  1
  Fe  Fe40  1  -0.00165207  0.49791814  0.74835153  1
  Fe  Fe41  1  0.12297064  0.12122949  0.62583128  1
  Fe  Fe42  1  0.50309798  0.25058931  0.74881248  1
  Fe  Fe43  1  0.75099834  0.24848838  0.50149569  1
  Fe  Fe44  1  0.37388457  0.12393867  0.62455518  1
  Fe  Fe45  1  0.63051946  0.87609409  0.61869074  1
  Fe  Fe46  1  0.37462409  0.62673240  0.62352089  1
  Fe  Fe47  1  0.12469721  0.87777581  0.12696412  1
  Fe  Fe48  1  -0.00087731  0.25018227  0.00054667  1
  Fe  Fe49  1  0.75481334  0.50487211  0.49887006  1
  Fe  Fe50  1  0.74919981  0.74901435  0.00308983  1
  Fe  Fe51  1  0.12494705  0.37676807  0.62441191  1
  Fe  Fe52  1  0.25138173  0.49991005  0.00029647  1
  Fe  Fe53  1  0.25058178  0.50092850  0.75014540  1
  Fe  Fe54  1  0.62452557  0.62401947  0.62500615  1
  Fe  Fe55  1  0.11937320  0.62371518  0.37582496  1
  Fe  Fe56  1  0.24911444  0.49913143  0.25039609  1
  Fe  Fe57  1  0.75107750  0.50118105  0.25106893  1
  Fe  Fe58  1  0.87913664  0.63174065  0.62619346  1
  Fe  Fe59  1  0.37644082  0.12813092  0.12801420  1
  Fe  Fe60  1  0.37676252  0.87478177  0.12742853  1
  Fe  Fe61  1  0.62618348  0.62418803  0.87485540  1
  Fe  Fe62  1  0.50152058  0.49696683  -0.00108340  1
  Fe  Fe63  1  0.25215080  0.00110577  -0.00076177  1
  Fe  Fe64  1  0.75259166  0.50112907  0.75005395  1
  Fe  Fe65  1  0.12395981  0.37645341  0.12350777  1
  Fe  Fe66  1  0.49935702  0.49655878  0.25055236  1
  Fe  Fe67  1  0.87647493  0.62549278  0.12949843  1
  Fe  Fe68  1  0.74906732  0.00018350  0.24995085  1
  Fe  Fe69  1  -0.00410847  0.49907554  -0.00058678  1
  Fe  Fe70  1  0.62690686  0.87499102  0.87699809  1
  Fe  Fe71  1  0.12387527  0.62387087  0.87393372  1
  Fe  Fe72  1  0.62857965  0.37560528  0.62491121  1
  Fe  Fe73  1  0.37664148  0.62705714  0.87503789  1
  Fe  Fe74  1  0.37531058  0.37259146  0.87546839  1
  Fe  Fe75  1  0.12258055  0.37542759  0.37614019  1
  Fe  Fe76  1  0.86942815  0.86971623  0.37499174  1
  Fe  Fe77  1  0.62435957  0.62168082  0.12586913  1
  Fe  Fe78  1  -0.00032177  0.25049707  0.24739250  1
  Fe  Fe79  1  0.74955292  0.25207875  0.24864105  1
  Fe  Fe80  1  0.12664541  0.87576321  0.37547774  1
  Fe  Fe81  1  0.87775709  0.37721044  0.37545998  1
  Fe  Fe82  1  0.50104634  0.75112113  0.00073412  1
  Fe  Fe83  1  0.62518599  0.12594157  0.12525676  1
  Fe  Fe84  1  -0.00312488  -0.00004800  0.00050221  1
  Fe  Fe85  1  0.12595465  0.87776379  0.87656942  1
  Fe  Fe86  1  0.37596859  0.37066973  0.12575374  1
  Fe  Fe87  1  0.50350840  0.74997310  0.49781444  1
  Fe  Fe88  1  0.37473402  0.36952450  0.37512414  1
  Fe  Fe89  1  0.00011160  0.75178749  0.00080608  1
  Co  Co90  1  0.87504603  0.37642838  0.12626953  1
  Co  Co91  1  0.00169011  0.75506355  0.75208498  1
  Co  Co92  1  0.12282745  0.62628256  0.62697679  1
  Co  Co93  1  0.00226926  0.75328386  0.24996957  1
  Co  Co94  1  -0.00222607  0.50063526  0.50414923  1
  Co  Co95  1  0.62201255  0.62165222  0.37454463  1
  Co  Co96  1  0.24779093  0.74584643  0.49780603  1
  Co  Co97  1  0.37497456  0.13080961  0.37384269  1
  Co  Co98  1  0.87365265  0.12525525  0.12548338  1
  Co  Co99  1  0.25025735  0.00342881  0.49713137  1
  Co  Co100  1  0.87102242  0.87033351  0.62202260  1
  Co  Co101  1  0.50224057  0.24903230  0.50229103  1
  Co  Co102  1  0.37438890  0.87259458  0.37569016  1
  Co  Co103  1  0.87239171  0.37348240  0.62459066  1
  Co  Co104  1  0.62828759  0.12601147  0.37591842  1
  Co  Co105  1  0.50448862  0.24907592  0.25107782  1
  Co  Co106  1  0.74691506  0.75209725  0.74906988  1
  Co  Co107  1  -0.00362372  -0.00135046  0.25264764  1
  Co  Co108  1  0.00175998  0.49815966  0.24850474  1
  Co  Co109  1  0.62498933  0.37671091  0.12591905  1
  Co  Co110  1  0.63084331  0.87741866  0.37969151  1
  Co  Co111  1  0.88045640  0.62638935  0.37088335  1
  Co  Co112  1  0.62787675  0.37669641  0.87175653  1
  Co  Co113  1  0.75585608  0.00385920  0.50045778  1
  Co  Co114  1  0.00010334  0.75253750  0.49812708  1
  Co  Co115  1  0.12344437  0.37730396  0.87549048  1
  Co  Co116  1  0.74920333  0.24702333  0.74831165  1
  Co  Co117  1  0.62471437  0.87755604  0.12370831  1
  Co  Co118  1  0.12215465  0.12165760  0.87361792  1
  Co  Co119  1  0.74940021  0.74136211  0.49742700  1
  Co  Co120  1  0.25030110  -0.00187823  0.74934780  1
  Co  Co121  1  0.87259152  0.37340331  0.87387609  1
  Co  Co122  1  0.24511058  0.25031247  0.24927318  1
  Co  Co123  1  0.75202055  0.50026252  0.00044587  1
  Co  Co124  1  0.50262008  0.24984452  -0.00154640  1
  Co  Co125  1  0.74544386  0.74778634  0.24960124  1
  Co  Co126  1  0.87190652  0.87321706  0.87746306  1
  Co  Co127  1  0.37533297  0.87420996  0.87558583  1
