# generated using pymatgen
data_Fe45Co19
_symmetry_space_group_name_H-M   'P 1'
_cell_length_a   11.41425401
_cell_length_b   11.41297418
_cell_length_c   11.41551598
_cell_angle_alpha   90.00467272
_cell_angle_beta   90.00913710
_cell_angle_gamma   89.99716013
_symmetry_Int_Tables_number   1
_chemical_formula_structural   Fe45Co19
_chemical_formula_sum   'Fe90 Co38'
_cell_volume   1487.10593407
_cell_formula_units_Z   2
loop_
 _symmetry_equiv_pos_site_id
 _symmetry_equiv_pos_as_xyz
  1  'x, y, z'
loop_
 _atom_site_type_symbol
 _atom_site_label
 _atom_site_symmetry_multiplicity
 _atom_site_fract_x
 _atom_site_fract_y
 _atom_site_fract_z
 _atom_site_occupancy
  Fe  Fe0  1  0.00042368  0.75294505  -0.00253023  1
  Fe  Fe1  1  0.12322781  0.87874419  0.12462350  1
  Fe  Fe2  1  0.24837511  0.49988507  0.00039428  1
  Fe  Fe3  1  0.62592837  0.87600764  0.37785416  1
  Fe  Fe4  1  0.37326631  0.63010270  0.87776019  1
  Fe  Fe5  1  0.12879119  0.87725324  0.87582987  1
  Fe  Fe6  1  0.75169685  0.49972349  0.25004130  1
  Fe  Fe7  1  0.00006747  0.49873092  0.24977365  1
  Fe  Fe8  1  0.13050379  0.88004597  0.37768446  1
  Fe  Fe9  1  0.12478006  0.12014717  0.37349428  1
  Fe  Fe10  1  0.24734423  0.75059106  0.74891473  1
  Fe  Fe11  1  0.62472698  0.37381576  0.12500535  1
  Fe  Fe12  1  0.49888629  0.75094846  0.50040930  1
  Fe  Fe13  1  0.12625775  0.37293109  0.87440294  1
  Fe  Fe14  1  0.24953149  0.24841326  0.00176284  1
  Fe  Fe15  1  0.87632589  0.62694732  0.62727952  1
  Fe  Fe16  1  0.75403925  -0.00207615  0.50468943  1
  Fe  Fe17  1  0.74685143  0.24370909  0.00122424  1
  Fe  Fe18  1  0.24971352  0.50085972  0.50126275  1
  Fe  Fe19  1  0.87520670  0.62726006  0.37551969  1
  Fe  Fe20  1  0.62412430  0.37580286  0.62554459  1
  Fe  Fe21  1  0.37764260  0.12626816  0.12812245  1
  Fe  Fe22  1  0.75110057  0.50050472  0.50166237  1
  Fe  Fe23  1  0.75136223  0.24818884  0.50024487  1
  Fe  Fe24  1  0.37616726  0.37370112  0.12424275  1
  Fe  Fe25  1  0.24800316  0.50181331  0.74982211  1
  Fe  Fe26  1  0.24645592  0.24407252  0.74641501  1
  Fe  Fe27  1  0.00121854  0.00347080  0.75571486  1
  Fe  Fe28  1  0.37500917  0.62786339  0.12192923  1
  Fe  Fe29  1  0.74978190  0.24671552  0.74902926  1
  Fe  Fe30  1  0.37349527  0.37213882  0.87391929  1
  Fe  Fe31  1  0.37521529  0.12535025  0.87167870  1
  Fe  Fe32  1  0.00130896  0.24770193  -0.00216149  1
  Fe  Fe33  1  0.50148062  0.75314120  0.75358415  1
  Fe  Fe34  1  0.74997972  0.75223310  0.24950882  1
  Fe  Fe35  1  0.62148911  0.12213527  0.62715757  1
  Fe  Fe36  1  0.25060143  0.24256605  0.50317209  1
  Fe  Fe37  1  0.24964328  0.75263986  0.24835013  1
  Fe  Fe38  1  0.49989499  0.50001376  0.75185053  1
  Fe  Fe39  1  -0.00080120  0.75537144  0.25117073  1
  Fe  Fe40  1  0.87346554  0.37141833  0.87456906  1
  Fe  Fe41  1  0.62624983  0.87812802  0.12271577  1
  Fe  Fe42  1  0.24730215  0.24962562  0.24754134  1
  Fe  Fe43  1  0.49891345  0.49957252  0.25089304  1
  Fe  Fe44  1  0.37508720  0.37306745  0.62576686  1
  Fe  Fe45  1  0.00144851  0.75328828  0.50059666  1
  Fe  Fe46  1  0.87576078  0.62760060  0.12457837  1
  Fe  Fe47  1  0.49393859  0.00152720  0.49651748  1
  Fe  Fe48  1  -0.00158445  0.24701156  0.49627876  1
  Fe  Fe49  1  0.62625838  0.12353684  0.37325659  1
  Fe  Fe50  1  0.62410915  0.62434172  0.62696583  1
  Fe  Fe51  1  0.12329498  0.37257872  0.62465004  1
  Fe  Fe52  1  0.25072954  0.00113855  -0.00035020  1
  Fe  Fe53  1  0.37590369  0.87337742  0.12158684  1
  Fe  Fe54  1  0.87945445  0.12375672  0.62681224  1
  Fe  Fe55  1  0.87852852  0.12132201  0.12419991  1
  Fe  Fe56  1  -0.00078102  0.50027097  0.50051380  1
  Fe  Fe57  1  0.75255136  0.24902183  0.24998546  1
  Fe  Fe58  1  0.00416760  0.75089906  0.75114986  1
  Fe  Fe59  1  0.49903148  -0.00346735  0.75304555  1
  Fe  Fe60  1  0.49714629  -0.00171740  0.25226107  1
  Fe  Fe61  1  0.37424026  0.37233057  0.37621648  1
  Fe  Fe62  1  0.50345986  0.24651410  -0.00132275  1
  Fe  Fe63  1  0.75486763  -0.00251317  0.24917737  1
  Fe  Fe64  1  0.49888925  0.24769307  0.50009877  1
  Fe  Fe65  1  0.12589534  0.62656931  0.37646964  1
  Fe  Fe66  1  0.37382185  0.62696070  0.37623575  1
  Fe  Fe67  1  0.74722419  0.75665052  0.74838746  1
  Fe  Fe68  1  0.87336633  0.62696982  0.87228762  1
  Fe  Fe69  1  0.50076788  0.00129928  -0.00165075  1
  Fe  Fe70  1  0.12440654  0.37315677  0.37472077  1
  Fe  Fe71  1  0.87732050  0.37307444  0.12486063  1
  Fe  Fe72  1  0.62536196  0.37505103  0.37611169  1
  Fe  Fe73  1  0.62501655  0.62480589  0.12345046  1
  Fe  Fe74  1  0.62463386  0.62499420  0.37691521  1
  Fe  Fe75  1  0.12594165  0.88206103  0.62230779  1
  Fe  Fe76  1  0.74839774  0.75247521  -0.00201199  1
  Fe  Fe77  1  0.00045661  0.49929321  0.75067403  1
  Fe  Fe78  1  0.24917891  0.49889020  0.24878102  1
  Fe  Fe79  1  0.87647817  0.37303358  0.62534590  1
  Fe  Fe80  1  0.75059841  0.75298214  0.50441960  1
  Fe  Fe81  1  0.50123702  0.50113307  -0.00261779  1
  Fe  Fe82  1  0.37389677  0.62593648  0.62465652  1
  Fe  Fe83  1  0.62691959  0.37375711  0.87375861  1
  Fe  Fe84  1  -0.00010384  0.49973279  -0.00173047  1
  Fe  Fe85  1  0.12400688  0.62550628  0.12366061  1
  Fe  Fe86  1  0.37267515  0.87664273  0.62479682  1
  Fe  Fe87  1  0.12127847  0.12168913  0.12623267  1
  Fe  Fe88  1  0.75062851  0.50061844  -0.00163954  1
  Fe  Fe89  1  0.50080290  0.75150792  0.24951007  1
  Co  Co90  1  0.87238043  0.12302106  0.37484046  1
  Co  Co91  1  0.62568022  0.12103718  0.87011843  1
  Co  Co92  1  0.62757075  0.62579905  0.87251666  1
  Co  Co93  1  0.00106428  0.24809384  0.75208611  1
  Co  Co94  1  0.50234110  0.25199360  0.75056370  1
  Co  Co95  1  0.11925015  0.12054278  0.62164118  1
  Co  Co96  1  -0.00386903  -0.00425482  0.25275953  1
  Co  Co97  1  0.24853141  0.00291398  0.74960886  1
  Co  Co98  1  0.75128093  0.49797006  0.74916945  1
  Co  Co99  1  0.50229611  0.25198487  0.25086237  1
  Co  Co100  1  0.37410155  0.12863376  0.36952098  1
  Co  Co101  1  0.75121177  -0.00076435  0.74527887  1
  Co  Co102  1  0.87151036  0.87237539  0.37737702  1
  Co  Co103  1  0.25629540  0.00617906  0.50147781  1
  Co  Co104  1  0.87482803  0.87557077  0.12050995  1
  Co  Co105  1  0.24543833  0.75249375  0.00163278  1
  Co  Co106  1  0.87505066  0.37570995  0.37480960  1
  Co  Co107  1  0.12410998  0.62441317  0.62352809  1
  Co  Co108  1  0.49897607  0.49965527  0.50119217  1
  Co  Co109  1  0.25321860  -0.00085048  0.24768342  1
  Co  Co110  1  0.88141736  0.87585216  0.62947549  1
  Co  Co111  1  0.37195156  0.87401131  0.87671499  1
  Co  Co112  1  0.12787738  0.12634997  0.87766462  1
  Co  Co113  1  0.50494445  0.75208177  -0.00183707  1
  Co  Co114  1  0.87248807  0.12396015  0.87507429  1
  Co  Co115  1  0.37190196  0.87246540  0.37650133  1
  Co  Co116  1  0.00052721  -0.00158757  -0.00454897  1
  Co  Co117  1  0.62838556  0.88018615  0.87662964  1
  Co  Co118  1  -0.00110824  0.24773597  0.25185664  1
  Co  Co119  1  0.12259965  0.37400635  0.12400705  1
  Co  Co120  1  0.37984917  0.12388122  0.63097156  1
  Co  Co121  1  0.62015659  0.87844454  0.62255534  1
  Co  Co122  1  -0.00434851  -0.00146938  0.49551128  1
  Co  Co123  1  0.12537498  0.62451814  0.87680714  1
  Co  Co124  1  0.24864551  0.75132754  0.50291783  1
  Co  Co125  1  0.62411214  0.12172857  0.13044855  1
  Co  Co126  1  0.87269601  0.87639376  0.87360577  1
  Co  Co127  1  0.74950380  0.00380344  0.00047623  1
