# generated using pymatgen
data_Fe45Co19
_symmetry_space_group_name_H-M   'P 1'
_cell_length_a   11.41502661
_cell_length_b   11.41410226
_cell_length_c   11.41549276
_cell_angle_alpha   90.00683723
_cell_angle_beta   89.99875728
_cell_angle_gamma   90.00976219
_symmetry_Int_Tables_number   1
_chemical_formula_structural   Fe45Co19
_chemical_formula_sum   'Fe90 Co38'
_cell_volume   1487.35055686
_cell_formula_units_Z   2
loop_
 _symmetry_equiv_pos_site_id
 _symmetry_equiv_pos_as_xyz
  1  'x, y, z'
loop_
 _atom_site_type_symbol
 _atom_site_label
 _atom_site_symmetry_multiplicity
 _atom_site_fract_x
 _atom_site_fract_y
 _atom_site_fract_z
 _atom_site_occupancy
  Fe  Fe0  1  0.25240817  0.00114009  0.74711822  1
  Fe  Fe1  1  0.00122698  0.49996587  0.50403652  1
  Fe  Fe2  1  0.75266181  0.24995366  0.49784275  1
  Fe  Fe3  1  0.12749206  0.37593462  0.12150879  1
  Fe  Fe4  1  0.49941511  0.24983552  0.24962297  1
  Fe  Fe5  1  0.74961937  0.50086739  0.75182345  1
  Fe  Fe6  1  0.12347496  0.12439632  0.12314470  1
  Fe  Fe7  1  0.12203020  0.37383250  0.37612902  1
  Fe  Fe8  1  0.49945590  0.75062235  0.24941525  1
  Fe  Fe9  1  0.37088858  0.87120083  0.62437220  1
  Fe  Fe10  1  0.62634188  0.12551065  0.12454053  1
  Fe  Fe11  1  -0.00042959  0.00027035  0.24851349  1
  Fe  Fe12  1  0.12428477  0.87356274  0.12437485  1
  Fe  Fe13  1  0.62343650  0.12578861  0.62538006  1
  Fe  Fe14  1  -0.00258035  0.24830051  0.50126043  1
  Fe  Fe15  1  0.75190516  0.49939716  0.49871678  1
  Fe  Fe16  1  0.24790040  0.75037817  0.25144684  1
  Fe  Fe17  1  0.87610694  0.87486800  0.12228663  1
  Fe  Fe18  1  0.49909147  0.49928759  0.00124511  1
  Fe  Fe19  1  -0.00008125  0.50068636  0.74891277  1
  Fe  Fe20  1  0.87778556  0.62535088  0.37627284  1
  Fe  Fe21  1  0.12413383  0.87735525  0.87285167  1
  Fe  Fe22  1  0.87282764  0.62941777  0.62532241  1
  Fe  Fe23  1  0.62770052  0.37677171  0.12708384  1
  Fe  Fe24  1  0.62532526  0.87602652  0.37531667  1
  Fe  Fe25  1  0.62756216  0.62270981  0.12633560  1
  Fe  Fe26  1  0.12742507  0.62945422  0.62710599  1
  Fe  Fe27  1  0.12379854  0.12338827  0.62464961  1
  Fe  Fe28  1  0.49837186  0.24925753  0.00192731  1
  Fe  Fe29  1  0.37069269  0.37692960  0.12459116  1
  Fe  Fe30  1  0.87501912  0.87298657  0.87495124  1
  Fe  Fe31  1  0.24831690  0.74809743  -0.00258144  1
  Fe  Fe32  1  0.37428719  0.37542029  0.37433617  1
  Fe  Fe33  1  0.37448885  0.62327097  0.37327173  1
  Fe  Fe34  1  0.00113861  0.24892251  0.75064642  1
  Fe  Fe35  1  0.12184552  0.12307330  0.37626361  1
  Fe  Fe36  1  0.62420794  0.37592135  0.87542541  1
  Fe  Fe37  1  0.62387845  0.62532867  0.87707450  1
  Fe  Fe38  1  0.75025304  0.00169664  -0.00303251  1
  Fe  Fe39  1  0.37367601  0.62637897  0.62694848  1
  Fe  Fe40  1  0.37063552  0.62264715  0.12629561  1
  Fe  Fe41  1  0.37397918  0.12415403  0.37434145  1
  Fe  Fe42  1  0.49991018  0.74961764  0.00221729  1
  Fe  Fe43  1  0.75397042  0.00132583  0.50185864  1
  Fe  Fe44  1  0.75226505  0.74972414  0.25029508  1
  Fe  Fe45  1  -0.00224334  -0.00259757  0.74589764  1
  Fe  Fe46  1  0.37451504  0.37507011  0.62504650  1
  Fe  Fe47  1  0.87592690  0.62649772  0.87715056  1
  Fe  Fe48  1  0.75005411  0.24855139  0.75201003  1
  Fe  Fe49  1  0.74857670  0.00094655  0.75225321  1
  Fe  Fe50  1  0.50000072  0.75002010  0.49822041  1
  Fe  Fe51  1  0.12220847  0.62453184  0.87561618  1
  Fe  Fe52  1  0.49670592  0.00085950  0.50313789  1
  Fe  Fe53  1  0.12582942  0.87809927  0.37740183  1
  Fe  Fe54  1  0.24867425  0.24811406  0.24812918  1
  Fe  Fe55  1  0.49984620  0.49914276  0.50053891  1
  Fe  Fe56  1  0.62597793  0.87546671  0.12426782  1
  Fe  Fe57  1  0.62640652  0.62600824  0.62454453  1
  Fe  Fe58  1  0.00064260  0.75506845  0.50398073  1
  Fe  Fe59  1  0.24819235  0.50041697  0.50029737  1
  Fe  Fe60  1  0.87536846  0.87593575  0.37613197  1
  Fe  Fe61  1  0.87545297  0.37426297  0.62593473  1
  Fe  Fe62  1  0.75104340  0.24809116  -0.00280762  1
  Fe  Fe63  1  0.24833629  0.24893094  0.75060640  1
  Fe  Fe64  1  0.75474600  0.24916752  0.25253020  1
  Fe  Fe65  1  0.00101411  0.49898554  0.24734957  1
  Fe  Fe66  1  0.75188157  0.00092234  0.24950172  1
  Fe  Fe67  1  0.50126011  0.75151850  0.75073817  1
  Fe  Fe68  1  0.00094497  0.24656572  -0.00144221  1
  Fe  Fe69  1  0.50133132  0.00164216  -0.00035281  1
  Fe  Fe70  1  0.62529105  0.62325559  0.37209663  1
  Fe  Fe71  1  0.12534548  0.37538177  0.87607788  1
  Fe  Fe72  1  0.25019553  0.50059579  0.75156313  1
  Fe  Fe73  1  0.50023623  0.25019553  0.74959143  1
  Fe  Fe74  1  0.24848249  0.00225947  0.00043406  1
  Fe  Fe75  1  0.12270642  0.62592880  0.37411454  1
  Fe  Fe76  1  0.49941540  0.00069780  0.24911598  1
  Fe  Fe77  1  0.62796098  0.87341990  0.62484051  1
  Fe  Fe78  1  0.37643247  0.87509730  0.87577877  1
  Fe  Fe79  1  0.87538176  0.37408576  0.12376778  1
  Fe  Fe80  1  0.37305754  0.87679678  0.12548996  1
  Fe  Fe81  1  0.87785653  0.62678458  0.12174290  1
  Fe  Fe82  1  0.62510608  0.12405511  0.37605912  1
  Fe  Fe83  1  0.87685137  0.37500291  0.87487845  1
  Fe  Fe84  1  0.62575700  0.37762746  0.37292377  1
  Fe  Fe85  1  0.37243831  0.87717065  0.37457935  1
  Fe  Fe86  1  0.37606435  0.12460748  0.87472506  1
  Fe  Fe87  1  0.24988759  0.24834602  0.50144895  1
  Fe  Fe88  1  0.62472575  0.37477701  0.62439761  1
  Fe  Fe89  1  0.37442237  0.37609647  0.87548222  1
  Co  Co90  1  0.62325541  0.87449227  0.87653357  1
  Co  Co91  1  0.24548757  0.49906234  0.25252736  1
  Co  Co92  1  0.25134934  0.00254661  0.50274623  1
  Co  Co93  1  0.49924652  -0.00267601  0.74749400  1
  Co  Co94  1  0.00024559  0.75117541  0.74945383  1
  Co  Co95  1  0.49852542  0.49856454  0.24834672  1
  Co  Co96  1  -0.00248115  -0.00351218  0.50544978  1
  Co  Co97  1  0.74813477  0.74856745  0.75452814  1
  Co  Co98  1  0.24917392  0.74868001  0.49618546  1
  Co  Co99  1  0.74944414  0.74978638  0.49579059  1
  Co  Co100  1  0.37925697  0.62530393  0.87413448  1
  Co  Co101  1  0.86912713  0.87064385  0.62732953  1
  Co  Co102  1  0.24738734  0.00123899  0.24836392  1
  Co  Co103  1  -0.00039484  0.75237329  0.25023634  1
  Co  Co104  1  -0.00001246  0.24987984  0.24710134  1
  Co  Co105  1  0.24976948  0.50339848  -0.00378505  1
  Co  Co106  1  0.74955532  0.75053064  0.00043446  1
  Co  Co107  1  0.00271356  0.75150777  -0.00219664  1
  Co  Co108  1  0.87841939  0.12303558  0.37443940  1
  Co  Co109  1  0.62156521  0.12555766  0.87448840  1
  Co  Co110  1  0.87468669  0.12701334  0.62701969  1
  Co  Co111  1  0.12479028  0.37383250  0.62537877  1
  Co  Co112  1  0.24989020  0.74942435  0.75618148  1
  Co  Co113  1  0.12532880  0.62601847  0.12526067  1
  Co  Co114  1  0.24940570  0.24610135  -0.00088431  1
  Co  Co115  1  0.12433889  0.12187541  0.87272181  1
  Co  Co116  1  0.13019519  0.87339688  0.62582144  1
  Co  Co117  1  0.75631812  0.50120278  0.25014028  1
  Co  Co118  1  0.37515192  0.12307514  0.12496059  1
  Co  Co119  1  0.50140010  0.49992658  0.74906250  1
  Co  Co120  1  0.37632881  0.12870054  0.62633584  1
  Co  Co121  1  -0.00010646  0.00037764  -0.00011051  1
  Co  Co122  1  0.87984513  0.37643605  0.37603170  1
  Co  Co123  1  0.87744202  0.12434960  0.87389732  1
  Co  Co124  1  0.50030476  0.25043656  0.49811821  1
  Co  Co125  1  0.75106903  0.49888032  -0.00122275  1
  Co  Co126  1  0.00061016  0.49900724  0.00049467  1
  Co  Co127  1  0.87478008  0.12436125  0.12393956  1
