# generated using pymatgen
data_Fe45Co19
_symmetry_space_group_name_H-M   'P 1'
_cell_length_a   11.41645652
_cell_length_b   11.41393214
_cell_length_c   11.41480486
_cell_angle_alpha   89.98416463
_cell_angle_beta   89.99716917
_cell_angle_gamma   89.99214047
_symmetry_Int_Tables_number   1
_chemical_formula_structural   Fe45Co19
_chemical_formula_sum   'Fe90 Co38'
_cell_volume   1487.42502354
_cell_formula_units_Z   2
loop_
 _symmetry_equiv_pos_site_id
 _symmetry_equiv_pos_as_xyz
  1  'x, y, z'
loop_
 _atom_site_type_symbol
 _atom_site_label
 _atom_site_symmetry_multiplicity
 _atom_site_fract_x
 _atom_site_fract_y
 _atom_site_fract_z
 _atom_site_occupancy
  Fe  Fe0  1  0.50036602  0.75034611  -0.00077955  1
  Fe  Fe1  1  0.24879307  0.00062042  0.74721409  1
  Fe  Fe2  1  0.49903966  0.24935155  -0.00069808  1
  Fe  Fe3  1  0.87321564  0.87356712  0.12727333  1
  Fe  Fe4  1  0.62708053  0.87327558  0.12475949  1
  Fe  Fe5  1  0.12505844  0.87732424  0.12365769  1
  Fe  Fe6  1  0.87463682  0.37568183  0.87380495  1
  Fe  Fe7  1  0.12417570  0.62539819  0.12643768  1
  Fe  Fe8  1  0.12386961  0.12954696  0.62301421  1
  Fe  Fe9  1  0.62511509  0.87465046  0.62328300  1
  Fe  Fe10  1  0.37481560  0.87754698  0.87540390  1
  Fe  Fe11  1  0.75009322  0.00050611  0.25208880  1
  Fe  Fe12  1  0.49855174  0.49961615  0.00098551  1
  Fe  Fe13  1  0.87522046  0.62348536  0.37464409  1
  Fe  Fe14  1  0.12738620  0.87655473  0.37906467  1
  Fe  Fe15  1  0.75149118  0.74889429  0.74896840  1
  Fe  Fe16  1  0.37695400  0.12597603  0.62486914  1
  Fe  Fe17  1  0.24723892  0.24472975  0.00121566  1
  Fe  Fe18  1  0.25443254  0.25013143  0.49778778  1
  Fe  Fe19  1  0.12173559  0.87975782  0.87454230  1
  Fe  Fe20  1  -0.00118329  0.49946311  0.00239338  1
  Fe  Fe21  1  0.12524858  0.87322980  0.62189508  1
  Fe  Fe22  1  0.25044274  0.50175832  -0.00035309  1
  Fe  Fe23  1  -0.00005872  0.49783806  0.74593728  1
  Fe  Fe24  1  0.62416232  0.12971861  0.62157652  1
  Fe  Fe25  1  -0.00125062  0.74972120  0.74704004  1
  Fe  Fe26  1  0.12674219  0.37677690  0.87381258  1
  Fe  Fe27  1  0.12450762  0.37431386  0.12563204  1
  Fe  Fe28  1  0.74703733  0.25367723  0.74967618  1
  Fe  Fe29  1  0.49928088  0.75141788  0.25270290  1
  Fe  Fe30  1  0.24846335  0.49955796  0.24924673  1
  Fe  Fe31  1  0.87640587  0.12678472  0.12809880  1
  Fe  Fe32  1  0.75176196  0.00299275  0.49911832  1
  Fe  Fe33  1  0.74867917  0.25194223  0.25161470  1
  Fe  Fe34  1  0.87776548  0.12372166  0.87159365  1
  Fe  Fe35  1  0.25056238  0.74941330  0.75016669  1
  Fe  Fe36  1  0.00352327  0.24978994  0.25354740  1
  Fe  Fe37  1  0.24906581  0.25038301  0.75017730  1
  Fe  Fe38  1  -0.00094724  0.49676194  0.50195106  1
  Fe  Fe39  1  0.12516325  0.62425454  0.37604456  1
  Fe  Fe40  1  0.50152815  0.49696535  0.74931584  1
  Fe  Fe41  1  0.37502367  0.12325334  0.87624146  1
  Fe  Fe42  1  0.37225911  0.87658398  0.38073589  1
  Fe  Fe43  1  0.12401080  0.62488905  0.62440260  1
  Fe  Fe44  1  0.75087928  0.00149636  0.74674735  1
  Fe  Fe45  1  0.62747335  0.62668654  0.12692404  1
  Fe  Fe46  1  0.87489603  0.37360635  0.37330633  1
  Fe  Fe47  1  0.62230561  0.12561198  0.12601537  1
  Fe  Fe48  1  0.62771191  0.87559480  0.87533631  1
  Fe  Fe49  1  -0.00176403  0.75029749  0.00032628  1
  Fe  Fe50  1  0.37705037  0.62554560  0.62565532  1
  Fe  Fe51  1  0.50123640  -0.00032623  0.74908925  1
  Fe  Fe52  1  0.87596312  0.87382416  0.62090950  1
  Fe  Fe53  1  0.24938147  0.74944888  -0.00273346  1
  Fe  Fe54  1  0.50151801  0.25219742  0.75086011  1
  Fe  Fe55  1  0.62560601  0.12460868  0.87512928  1
  Fe  Fe56  1  -0.00018672  0.00039946  0.25293883  1
  Fe  Fe57  1  0.00189673  0.24695841  -0.00048577  1
  Fe  Fe58  1  0.25027795  0.75183988  0.25167235  1
  Fe  Fe59  1  0.62510871  0.87546997  0.37660591  1
  Fe  Fe60  1  0.37314129  0.37364753  0.12631996  1
  Fe  Fe61  1  0.50031803  0.75131633  0.74898033  1
  Fe  Fe62  1  0.75090935  0.75027664  0.49772219  1
  Fe  Fe63  1  0.62589458  0.62348178  0.87585106  1
  Fe  Fe64  1  0.12408190  0.62357061  0.87386744  1
  Fe  Fe65  1  0.00031304  0.75046547  0.25390854  1
  Fe  Fe66  1  0.87656827  0.87761661  0.87374416  1
  Fe  Fe67  1  0.62397915  0.12753893  0.37715508  1
  Fe  Fe68  1  0.75103362  0.00160238  0.00067909  1
  Fe  Fe69  1  0.37448078  0.62627536  0.12581956  1
  Fe  Fe70  1  0.37532160  0.62397695  0.37561828  1
  Fe  Fe71  1  0.49813002  -0.00062643  0.25024437  1
  Fe  Fe72  1  0.75046497  0.49476309  0.50155224  1
  Fe  Fe73  1  0.62592360  0.62371041  0.62299251  1
  Fe  Fe74  1  0.00011479  0.00453601  0.49868468  1
  Fe  Fe75  1  0.37319686  0.37617476  0.87413391  1
  Fe  Fe76  1  0.87440586  0.62308977  0.87254416  1
  Fe  Fe77  1  0.25207046  0.49996738  0.50313110  1
  Fe  Fe78  1  0.49821585  0.00109856  0.50149734  1
  Fe  Fe79  1  0.62521889  0.62277179  0.37569932  1
  Fe  Fe80  1  0.37434293  0.87804445  0.12148497  1
  Fe  Fe81  1  0.87388883  0.62498953  0.12942415  1
  Fe  Fe82  1  0.87531062  0.13026831  0.62350235  1
  Fe  Fe83  1  0.75147401  0.49785194  0.00240887  1
  Fe  Fe84  1  0.49492424  0.25012424  0.25463350  1
  Fe  Fe85  1  0.50135103  0.49854168  0.25123471  1
  Fe  Fe86  1  0.75140166  0.25007438  -0.00021415  1
  Fe  Fe87  1  0.62432450  0.37361726  0.12534514  1
  Fe  Fe88  1  0.12775959  0.37479513  0.37663144  1
  Fe  Fe89  1  0.00212064  0.25245663  0.74874168  1
  Co  Co90  1  0.37507231  0.87409072  0.62404042  1
  Co  Co91  1  0.74979461  0.75025587  0.25475006  1
  Co  Co92  1  0.49365387  0.25139968  0.49601100  1
  Co  Co93  1  0.37193105  0.12025163  0.37454113  1
  Co  Co94  1  0.62291050  0.37182654  0.62082929  1
  Co  Co95  1  0.75156774  0.25162404  0.49814304  1
  Co  Co96  1  0.75211288  0.74910987  -0.00145293  1
  Co  Co97  1  0.12983944  0.12380754  0.37456714  1
  Co  Co98  1  0.87450869  0.37179862  0.62621727  1
  Co  Co99  1  0.87735512  0.37186502  0.12674368  1
  Co  Co100  1  0.87383131  0.12651937  0.37360242  1
  Co  Co101  1  0.50289702  0.00059970  -0.00085322  1
  Co  Co102  1  0.37616277  0.12350584  0.12529539  1
  Co  Co103  1  0.00001270  0.25064203  0.49666713  1
  Co  Co104  1  0.62491667  0.37599031  0.87745698  1
  Co  Co105  1  0.37525431  0.37433672  0.62692322  1
  Co  Co106  1  0.00099040  0.49848955  0.25108095  1
  Co  Co107  1  0.24961551  0.00273024  0.50546570  1
  Co  Co108  1  0.74785284  0.49756680  0.74791580  1
  Co  Co109  1  -0.00021132  0.74809095  0.49854014  1
  Co  Co110  1  0.12134238  0.12167604  0.87100680  1
  Co  Co111  1  0.12445487  0.12357109  0.13015366  1
  Co  Co112  1  0.74927113  0.49599124  0.24997936  1
  Co  Co113  1  0.49846114  0.49793988  0.50014839  1
  Co  Co114  1  0.37288544  0.37898426  0.37410319  1
  Co  Co115  1  0.25125048  0.74662758  0.50117066  1
  Co  Co116  1  0.24694486  0.00450530  -0.00072919  1
  Co  Co117  1  0.87354945  0.62434555  0.62354732  1
  Co  Co118  1  0.25131597  -0.00165353  0.24810280  1
  Co  Co119  1  0.25019174  0.50147271  0.74793087  1
  Co  Co120  1  0.12725237  0.37313431  0.62356808  1
  Co  Co121  1  0.37672604  0.62440113  0.87390956  1
  Co  Co122  1  -0.00010459  0.00062548  0.74228898  1
  Co  Co123  1  -0.00193373  0.00268109  0.00249287  1
  Co  Co124  1  0.25137847  0.25056427  0.25042907  1
  Co  Co125  1  0.62358221  0.37332361  0.37718145  1
  Co  Co126  1  0.87577487  0.87603823  0.37700733  1
  Co  Co127  1  0.50008924  0.74982359  0.49948435  1
