# generated using pymatgen
data_Fe45Co19
_symmetry_space_group_name_H-M   'P 1'
_cell_length_a   11.41629896
_cell_length_b   11.41537645
_cell_length_c   11.41682601
_cell_angle_alpha   90.01076996
_cell_angle_beta   89.99480917
_cell_angle_gamma   90.01384902
_symmetry_Int_Tables_number   1
_chemical_formula_structural   Fe45Co19
_chemical_formula_sum   'Fe90 Co38'
_cell_volume   1487.85610622
_cell_formula_units_Z   2
loop_
 _symmetry_equiv_pos_site_id
 _symmetry_equiv_pos_as_xyz
  1  'x, y, z'
loop_
 _atom_site_type_symbol
 _atom_site_label
 _atom_site_symmetry_multiplicity
 _atom_site_fract_x
 _atom_site_fract_y
 _atom_site_fract_z
 _atom_site_occupancy
  Fe  Fe0  1  0.49984515  0.50055982  0.49991041  1
  Fe  Fe1  1  0.62533164  0.62538305  0.62630297  1
  Fe  Fe2  1  0.00308638  0.25309792  -0.00275303  1
  Fe  Fe3  1  0.87646214  0.62647827  0.12498526  1
  Fe  Fe4  1  0.74804776  0.74917690  0.00073020  1
  Fe  Fe5  1  0.87436181  0.37330508  0.62261247  1
  Fe  Fe6  1  0.62376523  0.37559897  0.62575411  1
  Fe  Fe7  1  0.75245371  0.50085890  0.75014069  1
  Fe  Fe8  1  0.25366330  0.24811448  0.75028066  1
  Fe  Fe9  1  0.50148730  -0.00062489  0.49966737  1
  Fe  Fe10  1  0.12451044  0.12282871  0.37688702  1
  Fe  Fe11  1  0.87668640  0.12572535  0.12173260  1
  Fe  Fe12  1  0.62530671  0.37649719  0.12755273  1
  Fe  Fe13  1  0.12778683  0.37770147  0.37373496  1
  Fe  Fe14  1  0.62280334  0.87390940  0.12591363  1
  Fe  Fe15  1  0.25060041  0.74647365  0.25246779  1
  Fe  Fe16  1  0.37395694  0.87598150  0.62522375  1
  Fe  Fe17  1  0.00173372  0.75067802  0.25171987  1
  Fe  Fe18  1  0.49729181  0.00121612  0.24788718  1
  Fe  Fe19  1  0.49939603  0.75018040  0.49953819  1
  Fe  Fe20  1  0.49774645  0.24924898  0.74896242  1
  Fe  Fe21  1  0.37457335  0.62668344  0.12249961  1
  Fe  Fe22  1  0.62390430  0.62653686  0.37203950  1
  Fe  Fe23  1  0.50028594  0.25076707  0.49919262  1
  Fe  Fe24  1  0.74909638  0.25102928  -0.00095851  1
  Fe  Fe25  1  -0.00117733  0.49951617  0.25128299  1
  Fe  Fe26  1  0.62428591  0.37628439  0.87383427  1
  Fe  Fe27  1  -0.00263450  0.49970560  0.75028805  1
  Fe  Fe28  1  0.00233817  0.49664998  -0.00106276  1
  Fe  Fe29  1  0.74960437  0.00014621  -0.00251725  1
  Fe  Fe30  1  0.87257937  0.87795490  0.62483406  1
  Fe  Fe31  1  0.37330986  0.87517416  0.37468650  1
  Fe  Fe32  1  0.25001587  0.75084281  0.74992451  1
  Fe  Fe33  1  0.87512374  0.62647424  0.87625342  1
  Fe  Fe34  1  0.62232799  0.87277862  0.87355097  1
  Fe  Fe35  1  0.87568852  0.87550870  0.12370774  1
  Fe  Fe36  1  0.75079389  0.75042094  0.75044463  1
  Fe  Fe37  1  0.49490191  0.49986635  0.24910035  1
  Fe  Fe38  1  0.24734626  0.49596329  -0.00073302  1
  Fe  Fe39  1  0.00189406  -0.00033225  0.24834996  1
  Fe  Fe40  1  0.75192575  0.24818384  0.75140784  1
  Fe  Fe41  1  0.75050827  0.00133489  0.25090731  1
  Fe  Fe42  1  0.37523532  0.87364247  0.12401588  1
  Fe  Fe43  1  0.12590514  0.62415352  0.87387665  1
  Fe  Fe44  1  0.12380035  0.62591469  0.62508005  1
  Fe  Fe45  1  0.12449235  0.62464419  0.12608540  1
  Fe  Fe46  1  0.12235279  0.12027330  0.87288274  1
  Fe  Fe47  1  0.24893102  0.25055553  0.50215094  1
  Fe  Fe48  1  0.87719449  0.12486152  0.37802300  1
  Fe  Fe49  1  0.24922594  0.00045020  0.00130426  1
  Fe  Fe50  1  0.24767721  0.74885574  0.49845271  1
  Fe  Fe51  1  0.49748307  0.00108825  0.75046965  1
  Fe  Fe52  1  0.62326764  0.12380593  0.12521522  1
  Fe  Fe53  1  0.74726958  0.25006899  0.49677642  1
  Fe  Fe54  1  0.37509922  0.12420059  0.37696488  1
  Fe  Fe55  1  0.12586207  0.12719071  0.12446460  1
  Fe  Fe56  1  0.74994911  0.50073826  -0.00073633  1
  Fe  Fe57  1  0.87599037  0.37339736  0.12488999  1
  Fe  Fe58  1  0.62401969  0.62634439  0.12812399  1
  Fe  Fe59  1  0.62353280  0.12521495  0.87594034  1
  Fe  Fe60  1  0.37195519  0.37736806  0.37680461  1
  Fe  Fe61  1  0.62474574  0.87507320  0.37229965  1
  Fe  Fe62  1  0.62522910  0.12293806  0.62379787  1
  Fe  Fe63  1  0.00410524  0.75458294  0.49839850  1
  Fe  Fe64  1  0.75061992  0.49957280  0.49687150  1
  Fe  Fe65  1  0.24835529  -0.00051433  0.50144512  1
  Fe  Fe66  1  0.74906820  0.24962162  0.25195406  1
  Fe  Fe67  1  0.49915450  0.50154650  -0.00216949  1
  Fe  Fe68  1  -0.00314378  0.24872593  0.75000595  1
  Fe  Fe69  1  0.75372150  0.50034379  0.25330002  1
  Fe  Fe70  1  0.00189897  0.25050757  0.25226601  1
  Fe  Fe71  1  0.12463322  0.11983252  0.62765405  1
  Fe  Fe72  1  0.62503059  0.87672675  0.62711635  1
  Fe  Fe73  1  0.00014103  0.49869551  0.49901431  1
  Fe  Fe74  1  0.87650162  0.62708529  0.62237932  1
  Fe  Fe75  1  0.49692112  0.50297851  0.75269857  1
  Fe  Fe76  1  0.37587111  0.87273384  0.87617801  1
  Fe  Fe77  1  0.49753716  0.24896298  0.24950466  1
  Fe  Fe78  1  0.87475144  0.12159798  0.62268423  1
  Fe  Fe79  1  0.00333733  0.75395104  -0.00175549  1
  Fe  Fe80  1  0.24734465  0.75111976  -0.00054884  1
  Fe  Fe81  1  0.00123697  0.75442072  0.75152871  1
  Fe  Fe82  1  0.12555995  0.37452527  0.62796811  1
  Fe  Fe83  1  0.37011547  0.36913092  0.12147972  1
  Fe  Fe84  1  0.37440416  0.62551087  0.62400605  1
  Fe  Fe85  1  0.87528249  0.87626420  0.37437663  1
  Fe  Fe86  1  0.74938352  0.75076604  0.49835433  1
  Fe  Fe87  1  0.25285063  0.49870211  0.74979803  1
  Fe  Fe88  1  0.25091925  0.00288295  0.24731897  1
  Fe  Fe89  1  0.37732439  0.12802966  0.88137763  1
  Co  Co90  1  0.49792172  0.74777981  0.74921544  1
  Co  Co91  1  0.25683627  0.00254451  0.75215827  1
  Co  Co92  1  0.62683947  0.62566420  0.87297428  1
  Co  Co93  1  0.24823663  0.50048524  0.50429309  1
  Co  Co94  1  0.37067482  0.62632306  0.87646210  1
  Co  Co95  1  -0.00408779  -0.00406989  0.74959066  1
  Co  Co96  1  0.37598012  0.12403890  0.62102250  1
  Co  Co97  1  0.00297518  -0.00315291  0.00220164  1
  Co  Co98  1  0.74875428  0.00016478  0.49732701  1
  Co  Co99  1  0.75010738  0.00132960  0.75323063  1
  Co  Co100  1  0.87820693  0.12357330  0.87834165  1
  Co  Co101  1  0.49647467  0.75017024  0.25038841  1
  Co  Co102  1  0.12912641  0.87819206  0.62875776  1
  Co  Co103  1  0.25206743  0.50164412  0.24619854  1
  Co  Co104  1  0.24302968  0.25053796  -0.00406046  1
  Co  Co105  1  0.12493503  0.37544297  0.86869503  1
  Co  Co106  1  0.25047835  0.24745462  0.25297396  1
  Co  Co107  1  0.87584916  0.37149098  0.37602414  1
  Co  Co108  1  0.12780681  0.87370033  0.12773423  1
  Co  Co109  1  0.50150922  0.74688802  -0.00047777  1
  Co  Co110  1  0.87436648  0.87488756  0.87763324  1
  Co  Co111  1  0.12829366  0.87892024  0.87248883  1
  Co  Co112  1  0.62230161  0.12426262  0.37362802  1
  Co  Co113  1  0.37430515  0.62290676  0.37721418  1
  Co  Co114  1  0.62278540  0.37622236  0.37287808  1
  Co  Co115  1  0.75120737  0.75072122  0.24916852  1
  Co  Co116  1  0.12531685  0.62193836  0.37455048  1
  Co  Co117  1  0.87443854  0.37506796  0.87574293  1
  Co  Co118  1  0.37595240  0.37216994  0.87706357  1
  Co  Co119  1  0.00196912  -0.00381070  0.50163040  1
  Co  Co120  1  0.12616730  0.37325890  0.12945232  1
  Co  Co121  1  0.87634826  0.62820945  0.37649923  1
  Co  Co122  1  0.50507254  0.25219697  0.00269504  1
  Co  Co123  1  0.37647399  0.37497321  0.62470087  1
  Co  Co124  1  0.49961809  -0.00142678  0.00102242  1
  Co  Co125  1  0.00419832  0.25016073  0.50161621  1
  Co  Co126  1  0.37409162  0.12906686  0.12068957  1
  Co  Co127  1  0.12821182  0.87711002  0.37190341  1
