# generated using pymatgen
data_Fe45Co19
_symmetry_space_group_name_H-M   'P 1'
_cell_length_a   11.41532274
_cell_length_b   11.41583463
_cell_length_c   11.41525132
_cell_angle_alpha   90.00304436
_cell_angle_beta   89.99320086
_cell_angle_gamma   90.00650773
_symmetry_Int_Tables_number   1
_chemical_formula_structural   Fe45Co19
_chemical_formula_sum   'Fe90 Co38'
_cell_volume   1487.58343874
_cell_formula_units_Z   2
loop_
 _symmetry_equiv_pos_site_id
 _symmetry_equiv_pos_as_xyz
  1  'x, y, z'
loop_
 _atom_site_type_symbol
 _atom_site_label
 _atom_site_symmetry_multiplicity
 _atom_site_fract_x
 _atom_site_fract_y
 _atom_site_fract_z
 _atom_site_occupancy
  Fe  Fe0  1  0.37525070  0.62579302  0.62767559  1
  Fe  Fe1  1  0.00044951  0.74725209  0.50121255  1
  Fe  Fe2  1  0.62512161  0.62564666  0.62580889  1
  Fe  Fe3  1  0.87469691  0.37761102  0.12086826  1
  Fe  Fe4  1  0.00128318  0.49693288  0.75103941  1
  Fe  Fe5  1  0.87617522  0.87548421  0.37712097  1
  Fe  Fe6  1  0.25183485  0.00118612  -0.00022257  1
  Fe  Fe7  1  -0.00158286  -0.00047797  -0.00098872  1
  Fe  Fe8  1  0.25116775  -0.00163750  0.50184126  1
  Fe  Fe9  1  0.49799858  0.25090916  0.49764715  1
  Fe  Fe10  1  0.13131021  0.37795920  0.11997276  1
  Fe  Fe11  1  -0.00148072  0.74959533  0.24848275  1
  Fe  Fe12  1  0.62719477  0.37847681  0.87836884  1
  Fe  Fe13  1  0.86999142  0.61814902  0.87392890  1
  Fe  Fe14  1  0.12400495  0.62372063  0.12345397  1
  Fe  Fe15  1  0.74685041  -0.00073619  0.74366196  1
  Fe  Fe16  1  0.12177117  0.61983042  0.37481985  1
  Fe  Fe17  1  -0.00077660  -0.00147551  0.24766656  1
  Fe  Fe18  1  0.37428751  0.37527846  0.62493658  1
  Fe  Fe19  1  0.12419474  0.87406200  0.62699788  1
  Fe  Fe20  1  0.37614760  0.12526790  0.87338105  1
  Fe  Fe21  1  0.37418356  0.12494591  0.37321419  1
  Fe  Fe22  1  0.24850061  0.25024825  0.75068434  1
  Fe  Fe23  1  0.87534196  0.12581561  0.37486095  1
  Fe  Fe24  1  0.87192120  0.87618484  0.87292443  1
  Fe  Fe25  1  0.25267180  0.74674038  -0.00250764  1
  Fe  Fe26  1  0.12631085  0.87543797  0.87558250  1
  Fe  Fe27  1  0.62177579  0.37554979  0.12621912  1
  Fe  Fe28  1  -0.00006334  0.74867497  0.75185447  1
  Fe  Fe29  1  0.50214228  0.24809289  0.00021630  1
  Fe  Fe30  1  0.37584303  0.87160566  0.62592362  1
  Fe  Fe31  1  0.24986614  0.50026061  0.75036277  1
  Fe  Fe32  1  0.24970222  0.49982873  0.50030025  1
  Fe  Fe33  1  0.00343740  0.25396924  0.24844771  1
  Fe  Fe34  1  0.12624540  0.12381765  0.87530422  1
  Fe  Fe35  1  0.00025570  0.25359365  -0.00408547  1
  Fe  Fe36  1  0.87150693  0.12803147  0.87399439  1
  Fe  Fe37  1  0.00280762  0.25202347  0.75205770  1
  Fe  Fe38  1  0.00277070  0.25053358  0.50221177  1
  Fe  Fe39  1  0.62290158  0.37427332  0.62152586  1
  Fe  Fe40  1  0.74931450  0.74668236  -0.00325507  1
  Fe  Fe41  1  0.12383277  0.12527814  0.12312684  1
  Fe  Fe42  1  0.87510430  0.12703020  0.12464728  1
  Fe  Fe43  1  0.62372803  0.37683913  0.37463583  1
  Fe  Fe44  1  0.62531255  0.87460042  0.12273653  1
  Fe  Fe45  1  0.50097044  0.49821445  0.74982745  1
  Fe  Fe46  1  0.37527549  0.12688139  0.62610391  1
  Fe  Fe47  1  0.24934933  -0.00008210  0.24876579  1
  Fe  Fe48  1  0.75174477  0.49935101  0.50137226  1
  Fe  Fe49  1  0.74906854  0.00346284  0.00042982  1
  Fe  Fe50  1  0.37519472  0.12934204  0.12755423  1
  Fe  Fe51  1  0.75035156  0.24947344  0.50048100  1
  Fe  Fe52  1  0.74918323  0.25222862  0.24850795  1
  Fe  Fe53  1  0.00004623  0.00210361  0.74864109  1
  Fe  Fe54  1  0.37280823  0.37584464  0.87856722  1
  Fe  Fe55  1  0.49935990  0.50169927  0.49932293  1
  Fe  Fe56  1  0.87476569  0.62500042  0.62791533  1
  Fe  Fe57  1  0.87831305  0.37668484  0.37524851  1
  Fe  Fe58  1  0.74704668  0.25293139  0.74984056  1
  Fe  Fe59  1  0.50178232  0.25222324  0.75135355  1
  Fe  Fe60  1  0.87381651  0.87250090  0.12305646  1
  Fe  Fe61  1  0.50446440  0.75014543  0.75281829  1
  Fe  Fe62  1  0.62470514  0.87514575  0.37983469  1
  Fe  Fe63  1  0.62758990  0.62534053  0.12842862  1
  Fe  Fe64  1  0.62650297  0.12423257  0.37563109  1
  Fe  Fe65  1  0.87655254  0.37371900  0.62579459  1
  Fe  Fe66  1  0.37499349  0.37600510  0.36937407  1
  Fe  Fe67  1  0.37499855  0.87183970  0.12569200  1
  Fe  Fe68  1  0.24795543  0.75002065  0.25231674  1
  Fe  Fe69  1  0.12368491  0.12443951  0.37531837  1
  Fe  Fe70  1  0.24958321  0.74904319  0.50044108  1
  Fe  Fe71  1  0.75183906  0.75055514  0.50153008  1
  Fe  Fe72  1  0.50138760  0.74667593  -0.00265317  1
  Fe  Fe73  1  0.50305150  -0.00050092  0.74910408  1
  Fe  Fe74  1  0.24820019  0.25235660  0.49838857  1
  Fe  Fe75  1  -0.00339275  0.74684182  -0.00230670  1
  Fe  Fe76  1  0.12722127  0.62245077  0.87504972  1
  Fe  Fe77  1  0.75093352  -0.00198013  0.25046937  1
  Fe  Fe78  1  0.12340202  0.87619424  0.37544848  1
  Fe  Fe79  1  0.87499709  0.62225259  0.37073656  1
  Fe  Fe80  1  0.62718478  0.62363017  0.37387158  1
  Fe  Fe81  1  0.49975982  -0.00051936  0.24987407  1
  Fe  Fe82  1  0.12486485  0.87301035  0.12219097  1
  Fe  Fe83  1  0.37532530  0.87386774  0.87465801  1
  Fe  Fe84  1  -0.00224432  0.00176198  0.50393715  1
  Fe  Fe85  1  0.37531550  0.62485763  0.37252510  1
  Fe  Fe86  1  0.49959231  0.00005430  0.50181041  1
  Fe  Fe87  1  0.49521111  0.50320420  0.00360955  1
  Fe  Fe88  1  0.50116862  0.00221269  -0.00029921  1
  Fe  Fe89  1  0.50164168  0.75105057  0.25298276  1
  Co  Co90  1  0.62718265  0.12500138  0.87312760  1
  Co  Co91  1  0.25139058  -0.00038085  0.75023531  1
  Co  Co92  1  0.12536999  0.62344239  0.62559123  1
  Co  Co93  1  0.12541919  0.37650182  0.62458205  1
  Co  Co94  1  0.87427432  0.12867280  0.62645070  1
  Co  Co95  1  0.74844724  0.74993399  0.75197277  1
  Co  Co96  1  0.75106814  -0.00011535  0.50388145  1
  Co  Co97  1  0.24832497  0.75000393  0.75046493  1
  Co  Co98  1  0.24568835  0.25043429  0.25234447  1
  Co  Co99  1  0.62622935  0.61917527  0.87366550  1
  Co  Co100  1  0.75072981  0.49597165  0.25003489  1
  Co  Co101  1  0.37686378  0.62524550  0.86997955  1
  Co  Co102  1  0.62264036  0.12907075  0.62328884  1
  Co  Co103  1  -0.00001481  0.49792799  0.24529914  1
  Co  Co104  1  0.37561897  0.62968486  0.13000885  1
  Co  Co105  1  0.87077459  0.37665727  0.87560984  1
  Co  Co106  1  0.62626163  0.12399625  0.12727513  1
  Co  Co107  1  0.62697353  0.87721386  0.87693899  1
  Co  Co108  1  0.62347656  0.87053992  0.62209237  1
  Co  Co109  1  0.12199140  0.37969852  0.37675333  1
  Co  Co110  1  0.49905072  0.50105862  0.24891630  1
  Co  Co111  1  0.74783536  0.49640516  0.74513758  1
  Co  Co112  1  0.13031539  0.37822572  0.87780671  1
  Co  Co113  1  0.37508008  0.87438361  0.37443082  1
  Co  Co114  1  0.49793722  0.74606030  0.49834644  1
  Co  Co115  1  -0.00003194  0.49981695  -0.00135605  1
  Co  Co116  1  -0.00304957  0.50070171  0.50334367  1
  Co  Co117  1  0.50232195  0.24944326  0.25152976  1
  Co  Co118  1  0.25707238  0.50560521  0.00166181  1
  Co  Co119  1  0.87718981  0.87229965  0.62632160  1
  Co  Co120  1  0.12712912  0.12580154  0.62480998  1
  Co  Co121  1  0.25058920  0.24655145  -0.00189499  1
  Co  Co122  1  0.74776841  0.25066587  0.00199723  1
  Co  Co123  1  0.87297863  0.62484728  0.12699908  1
  Co  Co124  1  0.37355196  0.37022090  0.12611648  1
  Co  Co125  1  0.74820203  0.50097630  0.00411342  1
  Co  Co126  1  0.25052441  0.49990103  0.24821353  1
  Co  Co127  1  0.74995331  0.75370543  0.25168794  1
