# generated using pymatgen
data_Fe45Co19
_symmetry_space_group_name_H-M   'P 1'
_cell_length_a   11.41483235
_cell_length_b   11.41364981
_cell_length_c   11.41488377
_cell_angle_alpha   89.99702417
_cell_angle_beta   89.99072707
_cell_angle_gamma   90.00308781
_symmetry_Int_Tables_number   1
_chemical_formula_structural   Fe45Co19
_chemical_formula_sum   'Fe90 Co38'
_cell_volume   1487.18695694
_cell_formula_units_Z   2
loop_
 _symmetry_equiv_pos_site_id
 _symmetry_equiv_pos_as_xyz
  1  'x, y, z'
loop_
 _atom_site_type_symbol
 _atom_site_label
 _atom_site_symmetry_multiplicity
 _atom_site_fract_x
 _atom_site_fract_y
 _atom_site_fract_z
 _atom_site_occupancy
  Fe  Fe0  1  0.87600162  0.37745878  0.12618952  1
  Fe  Fe1  1  0.00316557  0.49829457  0.25192365  1
  Fe  Fe2  1  0.37272400  0.37492559  0.37574119  1
  Fe  Fe3  1  0.12654624  0.62680711  0.12795637  1
  Fe  Fe4  1  0.62175759  0.62747878  0.37158473  1
  Fe  Fe5  1  0.62691516  0.12498701  0.12589258  1
  Fe  Fe6  1  0.87226316  0.87449998  0.12386362  1
  Fe  Fe7  1  0.87774901  0.63142058  0.37382237  1
  Fe  Fe8  1  0.75074496  -0.00147211  0.25127481  1
  Fe  Fe9  1  0.49971506  0.75348641  0.49933228  1
  Fe  Fe10  1  0.12513158  0.62416945  0.62267770  1
  Fe  Fe11  1  0.25032576  0.50058653  0.74916931  1
  Fe  Fe12  1  0.62419915  0.12552582  0.87535087  1
  Fe  Fe13  1  0.49980320  -0.00236471  0.00301654  1
  Fe  Fe14  1  0.74933678  0.74810426  0.74970287  1
  Fe  Fe15  1  0.75274960  0.24901873  0.25018649  1
  Fe  Fe16  1  0.37689417  0.62522393  0.37451179  1
  Fe  Fe17  1  0.74879737  0.25235192  0.75109900  1
  Fe  Fe18  1  0.37493907  0.37591921  0.62388754  1
  Fe  Fe19  1  0.74952873  0.50422797  0.49685469  1
  Fe  Fe20  1  0.87391837  0.62442465  0.12611066  1
  Fe  Fe21  1  0.87669921  0.12544820  0.62621314  1
  Fe  Fe22  1  0.62537510  0.12290175  0.62231201  1
  Fe  Fe23  1  0.24950589  0.74941138  0.49735989  1
  Fe  Fe24  1  0.37313360  0.12089580  0.12893451  1
  Fe  Fe25  1  0.37629764  0.62471393  0.62343614  1
  Fe  Fe26  1  0.87635174  0.37909337  0.87695779  1
  Fe  Fe27  1  0.24813660  -0.00055658  0.49759331  1
  Fe  Fe28  1  0.24927870  0.00046329  -0.00071744  1
  Fe  Fe29  1  0.62614955  0.87413360  0.87593891  1
  Fe  Fe30  1  0.13016098  0.87076560  0.12540362  1
  Fe  Fe31  1  0.75133362  0.00079964  0.75012057  1
  Fe  Fe32  1  0.49933233  -0.00149207  0.74962462  1
  Fe  Fe33  1  0.37940066  0.62313296  0.87536224  1
  Fe  Fe34  1  0.37051721  0.87591277  0.62663436  1
  Fe  Fe35  1  0.74514033  0.49875604  0.75164135  1
  Fe  Fe36  1  0.12386277  0.12409627  0.62496172  1
  Fe  Fe37  1  0.12515969  0.37595195  0.87894642  1
  Fe  Fe38  1  0.87591706  0.62183810  0.87419821  1
  Fe  Fe39  1  0.50088364  0.49837748  0.49968625  1
  Fe  Fe40  1  -0.00083181  0.50086760  0.49704846  1
  Fe  Fe41  1  0.37314871  0.37460846  0.12520843  1
  Fe  Fe42  1  0.87709742  0.12385845  0.37291874  1
  Fe  Fe43  1  0.24874932  0.24954438  0.75144311  1
  Fe  Fe44  1  0.50015611  0.75149800  0.00330304  1
  Fe  Fe45  1  0.50310024  0.25301631  0.74824945  1
  Fe  Fe46  1  0.87347048  0.37868881  0.62422541  1
  Fe  Fe47  1  -0.00052905  -0.00321690  0.49993249  1
  Fe  Fe48  1  0.87554589  0.87403529  0.87652573  1
  Fe  Fe49  1  0.12304637  0.12745257  0.37454333  1
  Fe  Fe50  1  0.62677908  0.37400767  0.37467809  1
  Fe  Fe51  1  0.74840699  0.74540262  0.00025105  1
  Fe  Fe52  1  0.37760681  0.37689008  0.87626134  1
  Fe  Fe53  1  0.75192538  0.24862957  0.49905582  1
  Fe  Fe54  1  0.37499086  0.62754051  0.12639933  1
  Fe  Fe55  1  0.49982028  0.24719350  0.49689808  1
  Fe  Fe56  1  0.24769676  0.25039113  0.25054253  1
  Fe  Fe57  1  0.12082052  0.86937957  0.37305751  1
  Fe  Fe58  1  0.24974349  0.50130080  0.00188983  1
  Fe  Fe59  1  -0.00166390  0.25162607  0.00301385  1
  Fe  Fe60  1  0.62409964  0.62545905  0.62473010  1
  Fe  Fe61  1  0.87267803  0.87262234  0.62171065  1
  Fe  Fe62  1  0.50044453  0.49794484  0.24785095  1
  Fe  Fe63  1  0.62757642  0.87803895  0.37780187  1
  Fe  Fe64  1  0.74838025  0.50182720  0.24944308  1
  Fe  Fe65  1  0.00033943  0.25339770  0.75012423  1
  Fe  Fe66  1  0.24816959  0.50074196  0.25321574  1
  Fe  Fe67  1  0.00027763  -0.00257688  0.74939154  1
  Fe  Fe68  1  0.50023308  0.24718547  0.25263881  1
  Fe  Fe69  1  0.00030420  0.74939799  0.00195217  1
  Fe  Fe70  1  0.37440973  0.87995481  0.37022246  1
  Fe  Fe71  1  0.62636679  0.87722766  0.62235388  1
  Fe  Fe72  1  0.12748903  0.87301786  0.87236556  1
  Fe  Fe73  1  -0.00025543  0.74941007  0.74638427  1
  Fe  Fe74  1  0.12220366  0.12513107  0.87684052  1
  Fe  Fe75  1  0.37454778  0.12343548  0.62486720  1
  Fe  Fe76  1  0.50002973  0.75065901  0.74981773  1
  Fe  Fe77  1  0.12535004  0.37644036  0.62162528  1
  Fe  Fe78  1  -0.00260471  0.25290332  0.49768967  1
  Fe  Fe79  1  0.37675440  0.12615490  0.87467968  1
  Fe  Fe80  1  0.75089497  0.00186015  -0.00118719  1
  Fe  Fe81  1  0.50115519  0.75605437  0.24664529  1
  Fe  Fe82  1  -0.00037072  -0.00193441  0.24695219  1
  Fe  Fe83  1  0.12297805  0.62473752  0.87473560  1
  Fe  Fe84  1  0.75080939  0.25221217  0.00017388  1
  Fe  Fe85  1  0.87827191  0.12388168  0.87645651  1
  Fe  Fe86  1  0.12331346  0.12771189  0.12390419  1
  Fe  Fe87  1  0.49962373  0.25094171  0.00328017  1
  Fe  Fe88  1  0.37152549  0.87332516  0.87435127  1
  Fe  Fe89  1  0.25129310  0.24893681  0.49916647  1
  Co  Co90  1  0.50162024  0.49993513  0.00594198  1
  Co  Co91  1  0.87580406  0.12337620  0.12446867  1
  Co  Co92  1  0.62117174  0.37604786  0.87892268  1
  Co  Co93  1  0.00022742  0.74986353  0.50531553  1
  Co  Co94  1  0.62134381  0.62384545  0.87592112  1
  Co  Co95  1  0.37212937  0.12201634  0.37142184  1
  Co  Co96  1  0.74901920  0.74682748  0.49861848  1
  Co  Co97  1  0.25052411  0.74388486  0.74955711  1
  Co  Co98  1  0.12686655  0.37407347  0.37680668  1
  Co  Co99  1  0.74811977  0.75169536  0.25109893  1
  Co  Co100  1  0.75503595  0.00092075  0.49936141  1
  Co  Co101  1  0.62704528  0.37495249  0.61962792  1
  Co  Co102  1  0.62929327  0.87572200  0.12229632  1
  Co  Co103  1  0.12530569  0.37445774  0.12448958  1
  Co  Co104  1  -0.00073788  0.25228649  0.25029921  1
  Co  Co105  1  -0.00195067  0.75075030  0.24461869  1
  Co  Co106  1  0.00236306  -0.00419492  0.00217469  1
  Co  Co107  1  0.00220886  0.49851389  0.74919928  1
  Co  Co108  1  0.62540820  0.37274131  0.12756863  1
  Co  Co109  1  0.12223891  0.62842088  0.37441162  1
  Co  Co110  1  0.25063892  0.50301605  0.49798689  1
  Co  Co111  1  0.12950918  0.87519175  0.62725582  1
  Co  Co112  1  0.62783529  0.12343748  0.37613140  1
  Co  Co113  1  0.25303282  0.74792442  0.25401399  1
  Co  Co114  1  0.87265717  0.37626833  0.37419386  1
  Co  Co115  1  0.25207488  0.24879930  0.00015314  1
  Co  Co116  1  0.00127295  0.50213118  0.00339865  1
  Co  Co117  1  0.62387982  0.62662106  0.12714770  1
  Co  Co118  1  0.74713805  0.50060055  0.00203440  1
  Co  Co119  1  0.87392014  0.62225660  0.62672515  1
  Co  Co120  1  0.50448097  -0.00057387  0.24891669  1
  Co  Co121  1  0.24302343  0.00044313  0.25026215  1
  Co  Co122  1  0.24997782  0.00467254  0.75277906  1
  Co  Co123  1  0.87690754  0.87108797  0.37540015  1
  Co  Co124  1  0.49653980  0.00094325  0.49897249  1
  Co  Co125  1  0.25046933  0.74726578  -0.00091878  1
  Co  Co126  1  0.37035027  0.87709915  0.12659150  1
  Co  Co127  1  0.50204388  0.49814608  0.74644974  1
