# generated using pymatgen
data_Fe45Co19
_symmetry_space_group_name_H-M   'P 1'
_cell_length_a   11.41522468
_cell_length_b   11.41331388
_cell_length_c   11.41619032
_cell_angle_alpha   89.99677485
_cell_angle_beta   90.00063236
_cell_angle_gamma   90.00546731
_symmetry_Int_Tables_number   1
_chemical_formula_structural   Fe45Co19
_chemical_formula_sum   'Fe90 Co38'
_cell_volume   1487.36453773
_cell_formula_units_Z   2
loop_
 _symmetry_equiv_pos_site_id
 _symmetry_equiv_pos_as_xyz
  1  'x, y, z'
loop_
 _atom_site_type_symbol
 _atom_site_label
 _atom_site_symmetry_multiplicity
 _atom_site_fract_x
 _atom_site_fract_y
 _atom_site_fract_z
 _atom_site_occupancy
  Fe  Fe0  1  0.25126038  -0.00025307  0.24988256  1
  Fe  Fe1  1  0.87352781  0.37296051  0.12565446  1
  Fe  Fe2  1  0.74648616  0.49820456  -0.00149787  1
  Fe  Fe3  1  0.62813129  0.12092647  0.86773365  1
  Fe  Fe4  1  0.50437175  0.24693888  -0.00287794  1
  Fe  Fe5  1  0.24980461  0.24959439  0.00056808  1
  Fe  Fe6  1  0.49825867  0.24784209  0.75071688  1
  Fe  Fe7  1  0.37462034  0.12516578  0.37734425  1
  Fe  Fe8  1  -0.00086933  0.74854691  0.50049544  1
  Fe  Fe9  1  0.74807099  0.24730597  -0.00046215  1
  Fe  Fe10  1  0.12403478  0.62363121  0.12391785  1
  Fe  Fe11  1  0.12457717  0.37374671  0.87384355  1
  Fe  Fe12  1  0.37813293  0.62365979  0.62491802  1
  Fe  Fe13  1  0.12736670  0.37401918  0.37412641  1
  Fe  Fe14  1  0.74973159  0.25027533  0.24873360  1
  Fe  Fe15  1  0.75306890  0.74894853  0.75014827  1
  Fe  Fe16  1  0.12320301  0.37714074  0.62689060  1
  Fe  Fe17  1  0.50281041  0.24903707  0.50096583  1
  Fe  Fe18  1  0.24993480  0.75112024  0.50186432  1
  Fe  Fe19  1  0.12499086  0.87332512  0.37419933  1
  Fe  Fe20  1  0.25042806  0.75148861  -0.00024003  1
  Fe  Fe21  1  -0.00198166  0.00082501  0.25026231  1
  Fe  Fe22  1  0.62618222  0.37414943  0.37366701  1
  Fe  Fe23  1  0.12363795  0.37437934  0.12537566  1
  Fe  Fe24  1  0.12533265  0.12335182  0.87499685  1
  Fe  Fe25  1  0.25220128  0.24984808  0.24783572  1
  Fe  Fe26  1  0.87364188  0.87788243  0.12365327  1
  Fe  Fe27  1  -0.00271825  0.75080516  0.24899517  1
  Fe  Fe28  1  0.87315655  0.12660014  0.37703451  1
  Fe  Fe29  1  0.75068339  0.74913440  0.25035846  1
  Fe  Fe30  1  0.87566306  0.37763912  0.62455650  1
  Fe  Fe31  1  -0.00023899  -0.00097609  0.49734740  1
  Fe  Fe32  1  0.12727083  0.12680965  0.37573061  1
  Fe  Fe33  1  0.25229197  0.74921952  0.24863366  1
  Fe  Fe34  1  -0.00414979  0.49729279  0.25256387  1
  Fe  Fe35  1  0.75027458  0.50228943  0.75351257  1
  Fe  Fe36  1  0.74594266  0.24553953  0.50485306  1
  Fe  Fe37  1  0.12458613  0.87623302  0.62607313  1
  Fe  Fe38  1  0.87362422  0.62497983  0.37692767  1
  Fe  Fe39  1  0.37834754  0.37540638  0.12161694  1
  Fe  Fe40  1  0.50325260  0.75813952  -0.00277971  1
  Fe  Fe41  1  0.50006621  0.25022539  0.24983919  1
  Fe  Fe42  1  0.37700680  0.62502824  0.12027621  1
  Fe  Fe43  1  0.37736122  0.62405338  0.37743324  1
  Fe  Fe44  1  0.12485279  0.12406342  0.62337497  1
  Fe  Fe45  1  0.87285069  0.87895505  0.87710330  1
  Fe  Fe46  1  0.25343103  0.75248278  0.74970812  1
  Fe  Fe47  1  0.74686658  0.50118701  0.49977867  1
  Fe  Fe48  1  0.37559056  0.37364862  0.87608112  1
  Fe  Fe49  1  0.37694361  0.37615681  0.62550234  1
  Fe  Fe50  1  0.12559438  0.87612688  0.12501481  1
  Fe  Fe51  1  0.75133796  -0.00014477  0.25185168  1
  Fe  Fe52  1  -0.00347467  0.00172526  0.75056567  1
  Fe  Fe53  1  0.12578070  0.87810511  0.87420119  1
  Fe  Fe54  1  0.37555117  0.37470507  0.37622852  1
  Fe  Fe55  1  0.62498170  0.87906162  0.62962624  1
  Fe  Fe56  1  0.62400255  0.37533072  0.63019717  1
  Fe  Fe57  1  0.49714261  0.75281624  0.75341675  1
  Fe  Fe58  1  -0.00410467  0.74793380  0.75128307  1
  Fe  Fe59  1  0.12434807  0.62523398  0.37464794  1
  Fe  Fe60  1  0.87419290  0.62444032  0.12155292  1
  Fe  Fe61  1  0.49956602  -0.00150215  0.24878210  1
  Fe  Fe62  1  0.00047150  0.25313604  0.49856490  1
  Fe  Fe63  1  0.37701355  0.12215386  0.12067042  1
  Fe  Fe64  1  0.62526864  0.12316314  0.12711185  1
  Fe  Fe65  1  0.74854053  0.75066255  0.50125165  1
  Fe  Fe66  1  0.50426185  0.49915679  -0.00522351  1
  Fe  Fe67  1  0.87506334  0.87599959  0.62161571  1
  Fe  Fe68  1  0.12498802  0.62494270  0.87487148  1
  Fe  Fe69  1  0.12322805  0.12558549  0.12576828  1
  Fe  Fe70  1  0.62654124  0.87529217  0.37363135  1
  Fe  Fe71  1  0.50377572  0.00108520  0.50041914  1
  Fe  Fe72  1  -0.00377122  0.24809761  0.74980802  1
  Fe  Fe73  1  -0.00246206  0.24658342  0.00065110  1
  Fe  Fe74  1  -0.00021601  0.75247060  -0.00064332  1
  Fe  Fe75  1  0.37539592  0.87516788  0.37661300  1
  Fe  Fe76  1  0.25259385  0.50091967  0.75303810  1
  Fe  Fe77  1  0.12181570  0.62289251  0.62689191  1
  Fe  Fe78  1  0.25044077  0.49938380  0.50146239  1
  Fe  Fe79  1  0.25098336  0.24689113  0.74935587  1
  Fe  Fe80  1  0.37428480  0.12299394  0.62250965  1
  Fe  Fe81  1  0.50263597  0.75061939  0.50041505  1
  Fe  Fe82  1  -0.00012661  0.49910524  -0.00263645  1
  Fe  Fe83  1  0.49991879  0.75047480  0.24925398  1
  Fe  Fe84  1  0.50330612  0.50048040  0.25040213  1
  Fe  Fe85  1  0.25185342  0.50046437  0.24727895  1
  Fe  Fe86  1  0.74695237  0.75414707  -0.00146941  1
  Fe  Fe87  1  0.62528332  0.62599558  0.12411788  1
  Fe  Fe88  1  0.87337895  0.37281107  0.87424042  1
  Fe  Fe89  1  0.62306656  0.62451738  0.62819189  1
  Co  Co90  1  0.37436572  0.87616801  0.12337745  1
  Co  Co91  1  0.24888454  -0.00217695  0.50030350  1
  Co  Co92  1  0.62944177  0.88002119  0.86713230  1
  Co  Co93  1  0.74657520  0.00196786  0.50152949  1
  Co  Co94  1  0.62506804  0.62869509  0.87464461  1
  Co  Co95  1  0.37215368  0.87972731  0.87839355  1
  Co  Co96  1  0.74990573  0.50094050  0.24884583  1
  Co  Co97  1  0.37455581  0.12271269  0.87873211  1
  Co  Co98  1  0.62240824  0.12177615  0.63234005  1
  Co  Co99  1  0.50339371  0.49823656  0.49986643  1
  Co  Co100  1  0.37645820  0.87614619  0.62200308  1
  Co  Co101  1  0.37593624  0.62690909  0.87820798  1
  Co  Co102  1  0.00007898  0.49888151  0.49661418  1
  Co  Co103  1  0.62433410  0.37366636  0.12563309  1
  Co  Co104  1  0.86892464  0.37226096  0.37716874  1
  Co  Co105  1  0.25187777  0.00044631  0.74751333  1
  Co  Co106  1  0.24715782  0.00061259  0.00166190  1
  Co  Co107  1  0.87522429  0.62279442  0.62344697  1
  Co  Co108  1  0.74632910  0.00090495  0.00133459  1
  Co  Co109  1  0.62530053  0.62627177  0.37434994  1
  Co  Co110  1  -0.00055570  0.00134274  0.00098275  1
  Co  Co111  1  0.87329602  0.62608176  0.87941088  1
  Co  Co112  1  0.75763870  0.00244379  0.74436627  1
  Co  Co113  1  0.49358036  -0.00083259  0.75131668  1
  Co  Co114  1  0.25031576  0.25152264  0.50196464  1
  Co  Co115  1  -0.00318529  0.50173560  0.75411619  1
  Co  Co116  1  0.87362669  0.87470805  0.37698757  1
  Co  Co117  1  0.87908869  0.12512248  0.61984375  1
  Co  Co118  1  0.87319475  0.12485854  0.12619997  1
  Co  Co119  1  0.75473621  0.24697745  0.74603812  1
  Co  Co120  1  0.62667749  0.37030015  0.87048062  1
  Co  Co121  1  0.87268295  0.12354790  0.87700773  1
  Co  Co122  1  0.24893686  0.49850846  -0.00113292  1
  Co  Co123  1  -0.00124833  0.25015238  0.25191477  1
  Co  Co124  1  0.62520387  0.12532943  0.37188096  1
  Co  Co125  1  0.50015939  0.50046677  0.75423561  1
  Co  Co126  1  0.62718266  0.87553044  0.12965049  1
  Co  Co127  1  0.50697745  -0.00275831  -0.00113065  1
