# generated using pymatgen
data_Fe45Co19
_symmetry_space_group_name_H-M   'P 1'
_cell_length_a   11.41527783
_cell_length_b   11.41598469
_cell_length_c   11.41648127
_cell_angle_alpha   90.00564054
_cell_angle_beta   89.99687720
_cell_angle_gamma   89.99420801
_symmetry_Int_Tables_number   1
_chemical_formula_structural   Fe45Co19
_chemical_formula_sum   'Fe90 Co38'
_cell_volume   1487.75742800
_cell_formula_units_Z   2
loop_
 _symmetry_equiv_pos_site_id
 _symmetry_equiv_pos_as_xyz
  1  'x, y, z'
loop_
 _atom_site_type_symbol
 _atom_site_label
 _atom_site_symmetry_multiplicity
 _atom_site_fract_x
 _atom_site_fract_y
 _atom_site_fract_z
 _atom_site_occupancy
  Fe  Fe0  1  0.12283902  0.62549426  0.87450246  1
  Fe  Fe1  1  0.74753661  0.25255092  0.49987004  1
  Fe  Fe2  1  0.37673737  0.62619164  0.87463456  1
  Fe  Fe3  1  0.62911547  0.12308755  0.87379795  1
  Fe  Fe4  1  0.49963543  0.00100926  0.25030750  1
  Fe  Fe5  1  0.24805596  0.00300600  0.50387342  1
  Fe  Fe6  1  0.62629534  0.37394859  0.12848460  1
  Fe  Fe7  1  0.24978258  0.74934213  0.74673718  1
  Fe  Fe8  1  -0.00063369  0.50099607  0.25061128  1
  Fe  Fe9  1  0.62876975  0.37571558  0.87061003  1
  Fe  Fe10  1  0.75036410  0.75150234  0.24926500  1
  Fe  Fe11  1  0.74953718  0.75095585  0.49930381  1
  Fe  Fe12  1  0.37507276  0.37432390  0.12453380  1
  Fe  Fe13  1  0.37424313  0.37277856  0.87415266  1
  Fe  Fe14  1  0.62428595  0.87506819  0.37311538  1
  Fe  Fe15  1  0.12462039  0.37387891  0.12653886  1
  Fe  Fe16  1  0.87700030  0.87779487  0.12799378  1
  Fe  Fe17  1  0.50225646  0.49721648  0.50119081  1
  Fe  Fe18  1  0.62549112  0.12384274  0.12690981  1
  Fe  Fe19  1  0.87405101  0.37571478  0.12749619  1
  Fe  Fe20  1  0.12438056  0.37136119  0.62668840  1
  Fe  Fe21  1  0.37550134  0.37191221  0.37670332  1
  Fe  Fe22  1  0.12354991  0.37331953  0.87247544  1
  Fe  Fe23  1  0.62678753  0.62257847  0.62529063  1
  Fe  Fe24  1  0.37631155  0.87463183  0.87204790  1
  Fe  Fe25  1  -0.00477612  0.50383815  0.74962701  1
  Fe  Fe26  1  0.24785687  0.24985166  0.24965206  1
  Fe  Fe27  1  0.00167546  0.75192257  0.50114882  1
  Fe  Fe28  1  0.50162290  0.24817200  0.74867243  1
  Fe  Fe29  1  0.24694848  -0.00114984  0.24681527  1
  Fe  Fe30  1  0.37322359  0.62633028  0.37771114  1
  Fe  Fe31  1  0.12303832  0.12701792  0.37498502  1
  Fe  Fe32  1  0.62520524  0.37403506  0.37083398  1
  Fe  Fe33  1  0.50042587  0.50171289  0.24951169  1
  Fe  Fe34  1  -0.00499657  0.24519241  0.75076692  1
  Fe  Fe35  1  -0.00051470  -0.00291001  0.49995738  1
  Fe  Fe36  1  0.24916305  0.75233411  -0.00057536  1
  Fe  Fe37  1  0.62532340  0.12550954  0.37353596  1
  Fe  Fe38  1  0.50154392  0.00062808  0.50150607  1
  Fe  Fe39  1  0.75068874  -0.00247222  0.49931855  1
  Fe  Fe40  1  0.87408668  0.87719884  0.87371147  1
  Fe  Fe41  1  0.37337257  0.87445316  0.37674768  1
  Fe  Fe42  1  0.25026813  0.50102292  0.25038807  1
  Fe  Fe43  1  0.24872204  0.49911268  -0.00221484  1
  Fe  Fe44  1  0.87876869  0.12138324  0.12760631  1
  Fe  Fe45  1  0.12649490  0.62564496  0.37540647  1
  Fe  Fe46  1  0.75191314  0.74401186  0.75474530  1
  Fe  Fe47  1  0.12414294  0.87649020  0.87217451  1
  Fe  Fe48  1  0.37586794  0.12662765  0.37718583  1
  Fe  Fe49  1  0.49906494  0.75048123  0.50315828  1
  Fe  Fe50  1  0.37503113  0.62601569  0.12283731  1
  Fe  Fe51  1  0.62787305  0.12471854  0.62569965  1
  Fe  Fe52  1  0.24973864  0.00471428  0.74767997  1
  Fe  Fe53  1  0.50017827  0.00102419  0.74894789  1
  Fe  Fe54  1  -0.00058004  0.75317205  -0.00170904  1
  Fe  Fe55  1  0.87380535  0.62526248  0.37743097  1
  Fe  Fe56  1  0.00082804  0.49848972  0.00041452  1
  Fe  Fe57  1  0.00027050  0.75111778  0.25100181  1
  Fe  Fe58  1  0.37463550  0.37010985  0.62388273  1
  Fe  Fe59  1  0.24836680  0.49876705  0.50150970  1
  Fe  Fe60  1  0.87556613  0.87279276  0.62600898  1
  Fe  Fe61  1  -0.00422507  0.00429504  0.74920792  1
  Fe  Fe62  1  0.50160348  0.49763894  -0.00046163  1
  Fe  Fe63  1  0.00013121  0.25267294  0.49820016  1
  Fe  Fe64  1  0.49959170  0.74890910  0.25073602  1
  Fe  Fe65  1  0.12590727  0.12517874  0.87868025  1
  Fe  Fe66  1  0.50409098  0.75398578  -0.00272890  1
  Fe  Fe67  1  0.37250682  0.12621875  0.12229514  1
  Fe  Fe68  1  0.74872737  -0.00338451  0.00166628  1
  Fe  Fe69  1  0.87325832  0.37631747  0.37201683  1
  Fe  Fe70  1  0.37600869  0.87421604  0.12549427  1
  Fe  Fe71  1  0.87354622  0.37537482  0.87436749  1
  Fe  Fe72  1  0.37346999  0.12619025  0.87673535  1
  Fe  Fe73  1  0.49933040  0.50153561  0.74919504  1
  Fe  Fe74  1  0.62627748  0.62479516  0.37562462  1
  Fe  Fe75  1  -0.00088914  0.49916315  0.50034526  1
  Fe  Fe76  1  0.87123959  0.37566712  0.62606240  1
  Fe  Fe77  1  -0.00095360  0.24900496  0.00084473  1
  Fe  Fe78  1  0.75055920  0.25044674  0.00130445  1
  Fe  Fe79  1  0.12799238  0.87270169  0.37551919  1
  Fe  Fe80  1  0.87529152  0.12347732  0.37452644  1
  Fe  Fe81  1  0.50169330  0.25005435  -0.00064516  1
  Fe  Fe82  1  0.37449019  0.87612955  0.62496155  1
  Fe  Fe83  1  0.87253550  0.62496787  0.12065233  1
  Fe  Fe84  1  0.12522894  0.62708331  0.12464566  1
  Fe  Fe85  1  0.12313337  0.62580157  0.62555391  1
  Fe  Fe86  1  0.62748253  0.87489216  0.62922847  1
  Fe  Fe87  1  0.62804203  0.62607364  0.12087344  1
  Fe  Fe88  1  0.25033036  0.49951866  0.74986536  1
  Fe  Fe89  1  0.50090415  -0.00140587  -0.00135210  1
  Co  Co90  1  0.49845748  0.24825353  0.24895282  1
  Co  Co91  1  0.87485613  0.62718145  0.62032754  1
  Co  Co92  1  0.11959113  0.12707294  0.62446567  1
  Co  Co93  1  0.75318404  0.24657542  0.74913293  1
  Co  Co94  1  0.87642972  0.62339654  0.88283409  1
  Co  Co95  1  0.24749477  0.24775790  0.50063368  1
  Co  Co96  1  0.12277044  0.87453833  0.12424426  1
  Co  Co97  1  0.62640580  0.87759607  0.86947352  1
  Co  Co98  1  0.24945434  0.24660120  0.74949692  1
  Co  Co99  1  0.25056710  -0.00371928  0.00047348  1
  Co  Co100  1  0.75218929  0.24726396  0.24946080  1
  Co  Co101  1  0.74966085  -0.00061694  0.25198878  1
  Co  Co102  1  0.62338088  0.62361920  0.87822350  1
  Co  Co103  1  0.00407816  -0.00198322  0.25344633  1
  Co  Co104  1  0.37747834  0.12772675  0.62315360  1
  Co  Co105  1  0.87452231  0.12612241  0.61794201  1
  Co  Co106  1  0.00061301  0.25008011  0.25028844  1
  Co  Co107  1  0.50533811  0.25009668  0.50146613  1
  Co  Co108  1  0.24927391  0.75030115  0.50462836  1
  Co  Co109  1  0.00057725  -0.00084353  -0.00241166  1
  Co  Co110  1  0.74959153  0.75642151  -0.00155157  1
  Co  Co111  1  0.12530836  0.37620752  0.37468608  1
  Co  Co112  1  0.75508438  0.00287868  0.74749601  1
  Co  Co113  1  0.62338763  0.87603306  0.12822481  1
  Co  Co114  1  0.87113577  0.12384207  0.88008810  1
  Co  Co115  1  0.75456024  0.50616698  0.75191473  1
  Co  Co116  1  0.12348837  0.12459080  0.12223487  1
  Co  Co117  1  0.74932935  0.49790769  0.49909569  1
  Co  Co118  1  0.12293057  0.87706495  0.62816139  1
  Co  Co119  1  0.25074411  0.75061723  0.24881374  1
  Co  Co120  1  0.74935677  0.49614102  -0.00132845  1
  Co  Co121  1  -0.00272570  0.74811117  0.75158689  1
  Co  Co122  1  0.37501254  0.62323108  0.62388194  1
  Co  Co123  1  0.24874883  0.25308446  -0.00041234  1
  Co  Co124  1  0.75003034  0.50284809  0.24959889  1
  Co  Co125  1  0.50129625  0.74826694  0.74753021  1
  Co  Co126  1  0.62834342  0.37701160  0.63048157  1
  Co  Co127  1  0.87431811  0.87418859  0.37464611  1
