# generated using pymatgen
data_Fe45Co19
_symmetry_space_group_name_H-M   'P 1'
_cell_length_a   11.41439429
_cell_length_b   11.41464282
_cell_length_c   11.41480270
_cell_angle_alpha   89.98569026
_cell_angle_beta   89.99873425
_cell_angle_gamma   90.01129270
_symmetry_Int_Tables_number   1
_chemical_formula_structural   Fe45Co19
_chemical_formula_sum   'Fe90 Co38'
_cell_volume   1487.24865175
_cell_formula_units_Z   2
loop_
 _symmetry_equiv_pos_site_id
 _symmetry_equiv_pos_as_xyz
  1  'x, y, z'
loop_
 _atom_site_type_symbol
 _atom_site_label
 _atom_site_symmetry_multiplicity
 _atom_site_fract_x
 _atom_site_fract_y
 _atom_site_fract_z
 _atom_site_occupancy
  Fe  Fe0  1  0.75079182  0.74756199  0.75221356  1
  Fe  Fe1  1  0.62460429  0.62097972  0.87741414  1
  Fe  Fe2  1  0.37354766  0.37596775  0.62464559  1
  Fe  Fe3  1  0.00202030  -0.00123392  0.49980820  1
  Fe  Fe4  1  0.49869886  0.24902016  0.00022597  1
  Fe  Fe5  1  0.62587818  0.12735699  0.87551632  1
  Fe  Fe6  1  0.24967152  0.50081633  0.75029937  1
  Fe  Fe7  1  0.00042894  0.00060753  0.75133349  1
  Fe  Fe8  1  0.62466516  0.37456265  0.12262801  1
  Fe  Fe9  1  0.62298613  0.12501072  0.12641671  1
  Fe  Fe10  1  0.87690381  0.37876699  0.37141376  1
  Fe  Fe11  1  0.50040173  -0.00174167  0.24983066  1
  Fe  Fe12  1  0.24491074  0.49868184  0.24995788  1
  Fe  Fe13  1  0.25168988  0.24895393  0.75144792  1
  Fe  Fe14  1  0.12525710  0.37151813  0.12333800  1
  Fe  Fe15  1  0.00165053  0.25072720  0.24984518  1
  Fe  Fe16  1  0.12779990  0.87430282  0.62240441  1
  Fe  Fe17  1  0.49834722  0.00283917  0.74945435  1
  Fe  Fe18  1  0.62507222  0.87606764  0.62477784  1
  Fe  Fe19  1  -0.00232051  0.24857552  0.75003232  1
  Fe  Fe20  1  0.62685155  0.62445855  0.37310489  1
  Fe  Fe21  1  0.12420415  0.62436714  0.62482483  1
  Fe  Fe22  1  0.50090423  0.75167252  0.25170772  1
  Fe  Fe23  1  0.12111296  0.62701803  0.11828340  1
  Fe  Fe24  1  0.86948699  0.37329021  0.87253113  1
  Fe  Fe25  1  0.75023487  0.00200964  0.00026752  1
  Fe  Fe26  1  0.12337354  0.12520004  0.37478416  1
  Fe  Fe27  1  0.37585421  0.62367926  0.12756405  1
  Fe  Fe28  1  -0.00081725  -0.00208202  0.00009240  1
  Fe  Fe29  1  0.00312750  -0.00137355  0.24768317  1
  Fe  Fe30  1  0.75056294  0.00059004  0.50015596  1
  Fe  Fe31  1  0.75237915  0.00656370  0.74748511  1
  Fe  Fe32  1  0.37615451  0.37556570  0.87663029  1
  Fe  Fe33  1  0.00076085  0.74880055  0.49803359  1
  Fe  Fe34  1  0.12504020  0.12712141  0.62469590  1
  Fe  Fe35  1  0.75396384  0.49908225  0.00292023  1
  Fe  Fe36  1  0.74897785  -0.00164594  0.25167889  1
  Fe  Fe37  1  0.24628444  0.49855646  0.49987343  1
  Fe  Fe38  1  0.62452979  0.62501542  0.62430288  1
  Fe  Fe39  1  0.87527043  0.62531194  0.62708121  1
  Fe  Fe40  1  0.25112851  0.49906571  0.00082493  1
  Fe  Fe41  1  -0.00043912  0.49872302  0.75010811  1
  Fe  Fe42  1  0.49864755  0.74930333  -0.00035196  1
  Fe  Fe43  1  0.36986538  0.87519724  0.37561533  1
  Fe  Fe44  1  0.50020076  0.49804952  0.49783800  1
  Fe  Fe45  1  0.12429651  0.12697572  0.87778335  1
  Fe  Fe46  1  0.87614445  0.12484197  0.37412442  1
  Fe  Fe47  1  0.87401080  0.87352922  0.12578454  1
  Fe  Fe48  1  0.74835012  0.25174421  0.24956019  1
  Fe  Fe49  1  0.12803922  0.87321746  0.87960528  1
  Fe  Fe50  1  0.49766264  0.74948123  0.49945809  1
  Fe  Fe51  1  0.49835185  0.74887061  0.74972971  1
  Fe  Fe52  1  0.00300591  0.75107721  0.24895497  1
  Fe  Fe53  1  0.25018343  0.00313683  0.74949559  1
  Fe  Fe54  1  0.25174256  0.74771268  0.74993744  1
  Fe  Fe55  1  0.37428450  0.87566053  0.12326721  1
  Fe  Fe56  1  0.24831365  0.25194648  0.49774605  1
  Fe  Fe57  1  0.87585298  0.12639439  0.12464676  1
  Fe  Fe58  1  0.62646023  0.87649139  0.87427183  1
  Fe  Fe59  1  0.62585571  0.87327846  0.12410763  1
  Fe  Fe60  1  0.37270481  0.62211560  0.37468890  1
  Fe  Fe61  1  0.24620813  0.00301833  0.24663728  1
  Fe  Fe62  1  0.49889102  0.25178413  0.49734532  1
  Fe  Fe63  1  0.25176876  0.00612925  0.00340784  1
  Fe  Fe64  1  0.37231718  0.87600949  0.62319007  1
  Fe  Fe65  1  -0.00250700  0.25308014  -0.00038692  1
  Fe  Fe66  1  0.50277249  0.49581891  0.25152684  1
  Fe  Fe67  1  0.75266693  0.24819800  0.50128364  1
  Fe  Fe68  1  0.00039524  0.25323616  0.50043651  1
  Fe  Fe69  1  -0.00069152  0.75216706  0.75378414  1
  Fe  Fe70  1  0.37685254  0.62226871  0.87554934  1
  Fe  Fe71  1  0.62626836  0.62595282  0.12613828  1
  Fe  Fe72  1  0.50061713  0.25055557  0.75052310  1
  Fe  Fe73  1  0.87442277  0.37539331  0.62696777  1
  Fe  Fe74  1  0.87660574  0.87530572  0.37363379  1
  Fe  Fe75  1  0.37446263  0.87691984  0.87731897  1
  Fe  Fe76  1  0.75486478  0.74772391  -0.00171715  1
  Fe  Fe77  1  0.62498354  0.12543363  0.37551821  1
  Fe  Fe78  1  0.62804439  0.37328757  0.62514885  1
  Fe  Fe79  1  0.87651988  0.62102255  0.36893586  1
  Fe  Fe80  1  0.24646922  0.74959502  0.24957798  1
  Fe  Fe81  1  0.12187314  0.62516193  0.87919787  1
  Fe  Fe82  1  0.50272292  0.49825606  0.74984135  1
  Fe  Fe83  1  0.37463105  0.12874275  0.37052239  1
  Fe  Fe84  1  0.87514127  0.87553443  0.62615470  1
  Fe  Fe85  1  0.49723185  0.00195115  0.49957140  1
  Fe  Fe86  1  0.37371611  0.37111864  0.12870446  1
  Fe  Fe87  1  0.12615655  0.37482174  0.87517558  1
  Fe  Fe88  1  0.75218639  0.50107881  0.50003577  1
  Fe  Fe89  1  0.75073447  0.75059137  0.49709133  1
  Co  Co90  1  0.12663380  0.87228782  0.12015233  1
  Co  Co91  1  0.74797363  0.50088153  0.74948957  1
  Co  Co92  1  0.87623368  0.37358740  0.12947557  1
  Co  Co93  1  0.87649179  0.62532783  0.12871670  1
  Co  Co94  1  0.62943910  0.37495770  0.37863873  1
  Co  Co95  1  0.49795699  0.49912678  0.00335064  1
  Co  Co96  1  0.00492166  0.50001783  0.24486496  1
  Co  Co97  1  0.37145121  0.37535505  0.37201738  1
  Co  Co98  1  0.37614635  0.12467816  0.87601551  1
  Co  Co99  1  0.12526479  0.37432431  0.62780357  1
  Co  Co100  1  0.24998038  0.74624480  0.50054861  1
  Co  Co101  1  0.37559473  0.62116307  0.62406179  1
  Co  Co102  1  0.12112980  0.12891978  0.12200799  1
  Co  Co103  1  0.25510352  0.74653987  -0.00029622  1
  Co  Co104  1  0.87983902  0.12395121  0.62237384  1
  Co  Co105  1  0.74984567  0.24978503  0.00322550  1
  Co  Co106  1  0.62347538  0.87591097  0.37763008  1
  Co  Co107  1  -0.00630598  0.75301025  -0.00251369  1
  Co  Co108  1  -0.00265446  0.49445228  0.00049019  1
  Co  Co109  1  0.12122384  0.37703207  0.37399469  1
  Co  Co110  1  0.75080304  0.24525141  0.74693684  1
  Co  Co111  1  0.87780883  0.62087131  0.87489017  1
  Co  Co112  1  -0.00070611  0.49997568  0.50269371  1
  Co  Co113  1  0.12787933  0.87516808  0.37617107  1
  Co  Co114  1  0.50500363  0.25422209  0.25186476  1
  Co  Co115  1  0.24466789  0.24848915  0.25083821  1
  Co  Co116  1  0.74672445  0.49663924  0.24679860  1
  Co  Co117  1  0.87591379  0.12617756  0.87858008  1
  Co  Co118  1  0.24992093  0.00502495  0.49904010  1
  Co  Co119  1  0.74965310  0.75232550  0.25218334  1
  Co  Co120  1  0.62193902  0.12600857  0.62257454  1
  Co  Co121  1  0.25232486  0.24877018  -0.00015510  1
  Co  Co122  1  0.37827421  0.12852467  0.12928590  1
  Co  Co123  1  0.37407224  0.12828379  0.62474231  1
  Co  Co124  1  0.50094090  0.00089849  0.00039027  1
  Co  Co125  1  0.12344214  0.62304889  0.37636570  1
  Co  Co126  1  0.87199817  0.87858174  0.87267174  1
  Co  Co127  1  0.62734407  0.37467222  0.87706463  1
