# generated using pymatgen
data_Fe45Co19
_symmetry_space_group_name_H-M   'P 1'
_cell_length_a   11.41455693
_cell_length_b   11.41606473
_cell_length_c   11.41316508
_cell_angle_alpha   90.00773977
_cell_angle_beta   90.00050537
_cell_angle_gamma   89.99722559
_symmetry_Int_Tables_number   1
_chemical_formula_structural   Fe45Co19
_chemical_formula_sum   'Fe90 Co38'
_cell_volume   1487.24177446
_cell_formula_units_Z   2
loop_
 _symmetry_equiv_pos_site_id
 _symmetry_equiv_pos_as_xyz
  1  'x, y, z'
loop_
 _atom_site_type_symbol
 _atom_site_label
 _atom_site_symmetry_multiplicity
 _atom_site_fract_x
 _atom_site_fract_y
 _atom_site_fract_z
 _atom_site_occupancy
  Fe  Fe0  1  0.37410474  0.37527621  0.12015480  1
  Fe  Fe1  1  0.75021807  -0.00216287  0.75000708  1
  Fe  Fe2  1  0.62474787  0.62940541  0.87544107  1
  Fe  Fe3  1  0.00010027  0.25060701  0.75132757  1
  Fe  Fe4  1  0.87498313  0.87520991  0.12617783  1
  Fe  Fe5  1  0.25057773  0.00257814  0.50265137  1
  Fe  Fe6  1  0.00113258  0.49756461  0.25156540  1
  Fe  Fe7  1  0.12629061  0.62318578  0.62479269  1
  Fe  Fe8  1  0.12475720  0.87580073  0.12442106  1
  Fe  Fe9  1  0.74630679  0.49895296  0.50194369  1
  Fe  Fe10  1  0.74954363  0.00014888  0.49927608  1
  Fe  Fe11  1  0.37322838  0.12206643  0.87255131  1
  Fe  Fe12  1  0.24937602  0.00397821  0.24748798  1
  Fe  Fe13  1  0.37942845  0.37715095  0.63101794  1
  Fe  Fe14  1  0.62537774  0.87518427  0.37383778  1
  Fe  Fe15  1  0.37306418  0.87490885  0.87533682  1
  Fe  Fe16  1  0.87424508  0.87219985  0.87583671  1
  Fe  Fe17  1  0.37737087  0.88097163  0.62557758  1
  Fe  Fe18  1  0.87430641  0.62645094  0.62535447  1
  Fe  Fe19  1  0.62584596  0.87330858  0.87659088  1
  Fe  Fe20  1  0.00009459  -0.00003924  0.25267026  1
  Fe  Fe21  1  0.87278761  0.37446800  0.62536802  1
  Fe  Fe22  1  0.37473167  0.12755556  0.37676572  1
  Fe  Fe23  1  0.37522426  0.87691061  0.12545461  1
  Fe  Fe24  1  0.00025399  0.50006614  0.75400035  1
  Fe  Fe25  1  0.25141821  0.24847415  0.24512068  1
  Fe  Fe26  1  0.75109465  0.00079829  0.25087980  1
  Fe  Fe27  1  0.12636931  0.37448647  0.62605717  1
  Fe  Fe28  1  0.87556407  0.62438382  0.37607974  1
  Fe  Fe29  1  0.12660274  0.12948552  0.37864684  1
  Fe  Fe30  1  0.25027334  0.74808302  0.00113985  1
  Fe  Fe31  1  0.74789525  0.49944628  0.24949206  1
  Fe  Fe32  1  0.62293531  0.37712246  0.12262837  1
  Fe  Fe33  1  0.49840580  0.24831582  -0.00285546  1
  Fe  Fe34  1  0.50071802  0.75097147  0.74967876  1
  Fe  Fe35  1  0.74634354  0.50343851  0.74921250  1
  Fe  Fe36  1  0.74758696  0.24836342  0.74811785  1
  Fe  Fe37  1  0.12807543  0.37457088  0.12004564  1
  Fe  Fe38  1  0.87645420  0.12662456  0.12481587  1
  Fe  Fe39  1  0.25089178  0.74844839  0.25064062  1
  Fe  Fe40  1  0.12990335  0.37230596  0.37738258  1
  Fe  Fe41  1  -0.00048715  0.25322109  0.25190334  1
  Fe  Fe42  1  0.37742118  0.62393427  0.12462578  1
  Fe  Fe43  1  0.12334525  0.87513565  0.62377112  1
  Fe  Fe44  1  0.49968436  -0.00089461  -0.00110950  1
  Fe  Fe45  1  0.49956792  0.25194250  0.24731339  1
  Fe  Fe46  1  0.75031315  0.00139270  0.00081225  1
  Fe  Fe47  1  0.75038005  0.24993755  -0.00094118  1
  Fe  Fe48  1  -0.00024897  0.74813424  0.75086866  1
  Fe  Fe49  1  0.74921824  0.49990666  -0.00272411  1
  Fe  Fe50  1  0.74849658  0.74957253  0.00392111  1
  Fe  Fe51  1  0.62311557  0.87699222  0.62402656  1
  Fe  Fe52  1  0.62362919  0.12384111  0.12517002  1
  Fe  Fe53  1  -0.00124381  0.25148500  -0.00410223  1
  Fe  Fe54  1  0.00013811  0.75050432  0.25228532  1
  Fe  Fe55  1  0.49704362  0.75225434  0.49859626  1
  Fe  Fe56  1  0.12750663  0.62432248  0.37718289  1
  Fe  Fe57  1  0.62181420  0.37587033  0.37649526  1
  Fe  Fe58  1  0.62604599  0.12412132  0.87295521  1
  Fe  Fe59  1  0.62463565  0.12716176  0.37602573  1
  Fe  Fe60  1  0.12749364  0.12498198  0.87549634  1
  Fe  Fe61  1  0.49741793  0.50110524  -0.00551108  1
  Fe  Fe62  1  0.25206208  0.24604308  0.74689565  1
  Fe  Fe63  1  0.25234779  0.74979236  0.50092598  1
  Fe  Fe64  1  0.74789785  0.74816826  0.24813280  1
  Fe  Fe65  1  0.12750229  0.87364449  0.87614502  1
  Fe  Fe66  1  -0.00048624  0.00003019  0.49864472  1
  Fe  Fe67  1  0.87496496  0.37620835  0.12297502  1
  Fe  Fe68  1  0.12728351  0.87433052  0.37678065  1
  Fe  Fe69  1  0.12439051  0.62346317  0.12316828  1
  Fe  Fe70  1  0.00090784  0.00054989  0.75098676  1
  Fe  Fe71  1  0.49908039  -0.00028883  0.25237427  1
  Fe  Fe72  1  0.25020347  0.75092232  0.74769106  1
  Fe  Fe73  1  0.87634681  0.62336428  0.12329525  1
  Fe  Fe74  1  0.87636589  0.87286539  0.62356140  1
  Fe  Fe75  1  0.25408123  0.49871409  0.25113817  1
  Fe  Fe76  1  0.00146406  0.49950521  -0.00649537  1
  Fe  Fe77  1  0.50076761  0.75105107  0.24805677  1
  Fe  Fe78  1  0.74969189  0.74993783  0.49991464  1
  Fe  Fe79  1  0.00021710  0.00028074  -0.00122960  1
  Fe  Fe80  1  0.87498037  0.12636074  0.62402078  1
  Fe  Fe81  1  0.62294349  0.37322475  0.87149715  1
  Fe  Fe82  1  0.50073175  0.24873071  0.50650039  1
  Fe  Fe83  1  0.37762691  0.62332065  0.62625553  1
  Fe  Fe84  1  0.25597192  0.49768006  0.49831695  1
  Fe  Fe85  1  0.74973680  0.25315779  0.24972087  1
  Fe  Fe86  1  0.87401971  0.12907204  0.37717996  1
  Fe  Fe87  1  0.61966099  0.62284042  0.37553577  1
  Fe  Fe88  1  0.00032981  0.49789704  0.49988530  1
  Fe  Fe89  1  0.25166077  0.50126138  0.75590725  1
  Co  Co90  1  0.12642181  0.62789911  0.87352595  1
  Co  Co91  1  0.49671538  0.49693604  0.24980654  1
  Co  Co92  1  -0.00084102  0.25434950  0.49981731  1
  Co  Co93  1  0.25106780  0.50382418  -0.00386692  1
  Co  Co94  1  0.62499041  0.87946780  0.12623057  1
  Co  Co95  1  0.62147709  0.62721514  0.62235846  1
  Co  Co96  1  0.38013898  0.12316393  0.12539226  1
  Co  Co97  1  0.37354852  0.37204641  0.87359420  1
  Co  Co98  1  0.50091479  0.75137363  0.00234830  1
  Co  Co99  1  0.49926812  0.24633394  0.74948988  1
  Co  Co100  1  0.74822382  0.75129596  0.74798876  1
  Co  Co101  1  0.25480774  0.24968015  0.50820105  1
  Co  Co102  1  0.25282820  0.24429016  0.00217342  1
  Co  Co103  1  0.50277045  0.50392504  0.75342871  1
  Co  Co104  1  0.00159654  0.74807525  0.49975951  1
  Co  Co105  1  0.50263905  -0.00173278  0.75431695  1
  Co  Co106  1  0.49754194  0.49749136  0.50087898  1
  Co  Co107  1  0.87400680  0.87268851  0.37530958  1
  Co  Co108  1  0.37170450  0.87647868  0.37358857  1
  Co  Co109  1  0.87243266  0.62674123  0.87469323  1
  Co  Co110  1  0.62248790  0.37605567  0.62881173  1
  Co  Co111  1  0.87136245  0.37529630  0.87178926  1
  Co  Co112  1  0.13099532  0.37157533  0.87562984  1
  Co  Co113  1  0.37559435  0.62973254  0.87350156  1
  Co  Co114  1  0.24642911  -0.00044487  0.74760072  1
  Co  Co115  1  0.87352909  0.12496837  0.87358996  1
  Co  Co116  1  0.00028244  0.74939889  -0.00031139  1
  Co  Co117  1  0.37618902  0.36924995  0.37540220  1
  Co  Co118  1  0.25004834  0.00197299  0.00320521  1
  Co  Co119  1  0.62503545  0.12027562  0.62657746  1
  Co  Co120  1  0.11950402  0.12641394  0.12359009  1
  Co  Co121  1  0.62210234  0.62036773  0.12405883  1
  Co  Co122  1  0.12135751  0.12666020  0.62395020  1
  Co  Co123  1  0.87208634  0.37698143  0.37666335  1
  Co  Co124  1  0.74625007  0.25168063  0.50157234  1
  Co  Co125  1  0.37744334  0.62605659  0.37443692  1
  Co  Co126  1  0.37954514  0.11766932  0.62742247  1
  Co  Co127  1  0.50083551  0.00042889  0.49593953  1
