# generated using pymatgen
data_Fe45Co19
_symmetry_space_group_name_H-M   'P 1'
_cell_length_a   11.41479692
_cell_length_b   11.41432052
_cell_length_c   11.41356264
_cell_angle_alpha   89.99795725
_cell_angle_beta   90.00770326
_cell_angle_gamma   90.00125092
_symmetry_Int_Tables_number   1
_chemical_formula_structural   Fe45Co19
_chemical_formula_sum   'Fe90 Co38'
_cell_volume   1487.09760876
_cell_formula_units_Z   2
loop_
 _symmetry_equiv_pos_site_id
 _symmetry_equiv_pos_as_xyz
  1  'x, y, z'
loop_
 _atom_site_type_symbol
 _atom_site_label
 _atom_site_symmetry_multiplicity
 _atom_site_fract_x
 _atom_site_fract_y
 _atom_site_fract_z
 _atom_site_occupancy
  Fe  Fe0  1  0.24735855  0.25140594  0.00165158  1
  Fe  Fe1  1  0.25039384  0.50200220  0.25004942  1
  Fe  Fe2  1  0.75185556  0.50149384  0.24961328  1
  Fe  Fe3  1  0.62498854  0.62467360  0.62627231  1
  Fe  Fe4  1  -0.00076397  0.75184889  0.25186760  1
  Fe  Fe5  1  0.75220440  0.75027675  0.24860609  1
  Fe  Fe6  1  0.12524136  0.37514255  0.87288335  1
  Fe  Fe7  1  0.87451451  0.87631951  0.62538384  1
  Fe  Fe8  1  0.50158282  0.74823742  -0.00005551  1
  Fe  Fe9  1  0.37685621  0.37588978  0.12569811  1
  Fe  Fe10  1  0.62774654  0.87214917  0.87440938  1
  Fe  Fe11  1  0.00193391  0.50094355  -0.00235198  1
  Fe  Fe12  1  0.25091836  0.24861631  0.24996651  1
  Fe  Fe13  1  0.62673846  0.37601601  0.87424603  1
  Fe  Fe14  1  0.25037054  0.24957483  0.74828900  1
  Fe  Fe15  1  0.50042548  0.50242364  0.49793231  1
  Fe  Fe16  1  -0.00142643  0.25308707  0.74988417  1
  Fe  Fe17  1  0.49854239  0.50046824  0.75000878  1
  Fe  Fe18  1  0.37594475  0.12424737  0.62392226  1
  Fe  Fe19  1  0.62438780  0.12425958  0.12733556  1
  Fe  Fe20  1  -0.00018684  -0.00267361  0.49657783  1
  Fe  Fe21  1  0.75115379  0.00282995  0.74952184  1
  Fe  Fe22  1  0.00245682  0.49594755  0.49834799  1
  Fe  Fe23  1  0.37392081  0.37527115  0.37373449  1
  Fe  Fe24  1  0.87857775  0.12701140  0.87736139  1
  Fe  Fe25  1  0.37366030  0.62304544  0.12368107  1
  Fe  Fe26  1  0.50070081  0.00029364  -0.00148160  1
  Fe  Fe27  1  0.75189921  0.24847387  0.74770026  1
  Fe  Fe28  1  0.62832597  0.87480460  0.37534641  1
  Fe  Fe29  1  0.75260320  0.50102218  0.75067961  1
  Fe  Fe30  1  0.62393187  0.37722306  0.12754133  1
  Fe  Fe31  1  0.49912459  0.00090237  0.25312555  1
  Fe  Fe32  1  0.24602394  -0.00021219  -0.00225404  1
  Fe  Fe33  1  0.37503413  0.12403823  0.12497063  1
  Fe  Fe34  1  0.24981722  0.74988249  0.24845981  1
  Fe  Fe35  1  0.50231108  -0.00268053  0.50120760  1
  Fe  Fe36  1  0.49935170  0.24716917  0.49591809  1
  Fe  Fe37  1  0.75033807  0.74873839  0.50174115  1
  Fe  Fe38  1  0.49927162  0.25118382  0.75062181  1
  Fe  Fe39  1  0.12164206  0.12835507  0.62320168  1
  Fe  Fe40  1  0.75209393  0.24710329  0.50219181  1
  Fe  Fe41  1  0.62437451  0.87327022  0.12511347  1
  Fe  Fe42  1  0.49833860  0.75132943  0.74739014  1
  Fe  Fe43  1  0.87606091  0.62496418  0.37694378  1
  Fe  Fe44  1  0.00124968  -0.00292802  0.75549990  1
  Fe  Fe45  1  0.75175198  0.25125093  0.00222479  1
  Fe  Fe46  1  0.24829763  0.00087579  0.75104134  1
  Fe  Fe47  1  0.12119740  0.12354651  0.12397228  1
  Fe  Fe48  1  0.37519906  0.87560893  0.12395535  1
  Fe  Fe49  1  0.87946161  0.12293898  0.12229056  1
  Fe  Fe50  1  0.37173502  0.62486216  0.87719100  1
  Fe  Fe51  1  0.62597892  0.37556605  0.37374501  1
  Fe  Fe52  1  0.75022764  0.00256091  0.50297371  1
  Fe  Fe53  1  0.37401246  0.62743990  0.62036190  1
  Fe  Fe54  1  0.49812121  0.74722523  0.25212040  1
  Fe  Fe55  1  0.62619058  0.62468552  0.37394460  1
  Fe  Fe56  1  0.87837321  0.87504852  0.12123267  1
  Fe  Fe57  1  0.24645057  0.49850447  0.49991453  1
  Fe  Fe58  1  0.12147649  0.62300937  0.62880377  1
  Fe  Fe59  1  0.37212724  0.87381141  0.87568858  1
  Fe  Fe60  1  0.75375680  0.74778835  0.75045174  1
  Fe  Fe61  1  0.62491238  0.37451064  0.62388675  1
  Fe  Fe62  1  0.12516594  0.62510071  0.37292489  1
  Fe  Fe63  1  0.12525865  0.87521134  0.62578334  1
  Fe  Fe64  1  0.75053163  -0.00084111  -0.00038916  1
  Fe  Fe65  1  -0.00236494  0.25147196  0.24945909  1
  Fe  Fe66  1  0.12233212  0.37824426  0.12895311  1
  Fe  Fe67  1  0.24952294  0.49982623  0.74934350  1
  Fe  Fe68  1  0.62504448  0.12627027  0.87413556  1
  Fe  Fe69  1  0.12366639  0.12770479  0.37569826  1
  Fe  Fe70  1  0.87604556  0.37646282  0.62463523  1
  Fe  Fe71  1  0.37424035  0.37481986  0.62277774  1
  Fe  Fe72  1  0.37356924  0.12564089  0.87556615  1
  Fe  Fe73  1  0.50012264  -0.00273035  0.74803678  1
  Fe  Fe74  1  0.75303564  -0.00129923  0.24813691  1
  Fe  Fe75  1  0.87890358  0.62286041  0.62456679  1
  Fe  Fe76  1  0.37355324  0.37605815  0.87725102  1
  Fe  Fe77  1  0.12241560  0.87454855  0.12447427  1
  Fe  Fe78  1  0.24843548  -0.00064581  0.25089414  1
  Fe  Fe79  1  0.87750220  0.62503429  0.12356336  1
  Fe  Fe80  1  0.75122748  0.24998446  0.24831450  1
  Fe  Fe81  1  0.00156609  0.75253876  0.49990272  1
  Fe  Fe82  1  0.24794075  0.00100620  0.50015620  1
  Fe  Fe83  1  0.50082458  0.24963756  0.00113669  1
  Fe  Fe84  1  0.50228948  0.50208033  -0.00032070  1
  Fe  Fe85  1  0.87568859  0.12344123  0.37462602  1
  Fe  Fe86  1  0.24951963  0.74993844  0.74792644  1
  Fe  Fe87  1  0.87428081  0.37665019  0.37417096  1
  Fe  Fe88  1  0.74999881  0.50419289  -0.00188201  1
  Fe  Fe89  1  0.37176925  0.87128858  0.38000687  1
  Co  Co90  1  0.24270647  0.74791278  0.50241468  1
  Co  Co91  1  -0.00242925  0.25432195  0.49832451  1
  Co  Co92  1  0.49976251  0.24782249  0.25187732  1
  Co  Co93  1  0.62192465  0.12616742  0.62535877  1
  Co  Co94  1  0.12294476  0.13013769  0.87467544  1
  Co  Co95  1  0.12511403  0.62682102  0.87234568  1
  Co  Co96  1  0.37263794  0.12207292  0.37542905  1
  Co  Co97  1  0.87245625  0.87368603  0.87653328  1
  Co  Co98  1  -0.00019425  -0.00181230  0.25281788  1
  Co  Co99  1  0.87896779  0.62614394  0.87413066  1
  Co  Co100  1  0.00123889  0.74911331  -0.00157796  1
  Co  Co101  1  0.00313549  -0.00242840  -0.00514080  1
  Co  Co102  1  0.87229490  0.87487494  0.37651080  1
  Co  Co103  1  0.24567991  0.49934614  0.00055444  1
  Co  Co104  1  0.12824558  0.86880260  0.87525311  1
  Co  Co105  1  0.74992278  0.50050391  0.50087648  1
  Co  Co106  1  0.24909567  0.74928682  0.00335269  1
  Co  Co107  1  0.74981088  0.74778804  0.00072375  1
  Co  Co108  1  0.62941296  0.87412811  0.62693256  1
  Co  Co109  1  0.62562951  0.62499033  0.12766678  1
  Co  Co110  1  0.12597455  0.37340046  0.37157721  1
  Co  Co111  1  0.87552528  0.37941936  0.12429341  1
  Co  Co112  1  0.87360128  0.37452817  0.87621216  1
  Co  Co113  1  -0.00099170  0.49704773  0.75200028  1
  Co  Co114  1  0.37131431  0.62754465  0.37860684  1
  Co  Co115  1  0.88153946  0.12338502  0.62560556  1
  Co  Co116  1  -0.00120895  0.75338158  0.74917981  1
  Co  Co117  1  0.49820720  0.50285344  0.25206957  1
  Co  Co118  1  0.12287573  0.62522777  0.12655363  1
  Co  Co119  1  0.37128409  0.87380627  0.62133459  1
  Co  Co120  1  0.00140948  0.25471255  0.00200397  1
  Co  Co121  1  0.12728913  0.87359182  0.37385969  1
  Co  Co122  1  0.62854440  0.12301673  0.37434279  1
  Co  Co123  1  0.25080234  0.25066648  0.49979589  1
  Co  Co124  1  0.50439494  0.75007560  0.50048400  1
  Co  Co125  1  0.62481069  0.62636151  0.87162631  1
  Co  Co126  1  0.12483665  0.37283480  0.62633193  1
  Co  Co127  1  -0.00181210  0.50129451  0.25266144  1
