# generated using pymatgen
data_Fe45Co19
_symmetry_space_group_name_H-M   'P 1'
_cell_length_a   11.41375166
_cell_length_b   11.41428447
_cell_length_c   11.41371021
_cell_angle_alpha   90.01041897
_cell_angle_beta   89.99624835
_cell_angle_gamma   89.99975687
_symmetry_Int_Tables_number   1
_chemical_formula_structural   Fe45Co19
_chemical_formula_sum   'Fe90 Co38'
_cell_volume   1486.97595098
_cell_formula_units_Z   2
loop_
 _symmetry_equiv_pos_site_id
 _symmetry_equiv_pos_as_xyz
  1  'x, y, z'
loop_
 _atom_site_type_symbol
 _atom_site_label
 _atom_site_symmetry_multiplicity
 _atom_site_fract_x
 _atom_site_fract_y
 _atom_site_fract_z
 _atom_site_occupancy
  Fe  Fe0  1  0.62186718  0.37230854  0.12155553  1
  Fe  Fe1  1  0.62402220  0.12502651  0.37432021  1
  Fe  Fe2  1  0.00090408  0.24913474  0.75057038  1
  Fe  Fe3  1  0.37557995  0.12398089  0.12568691  1
  Fe  Fe4  1  0.87501959  0.62715235  0.87481841  1
  Fe  Fe5  1  0.74879767  0.24712137  0.24545903  1
  Fe  Fe6  1  0.25247547  0.50224961  0.24848182  1
  Fe  Fe7  1  0.12833624  0.37657647  0.37559539  1
  Fe  Fe8  1  0.62706134  0.37360911  0.37481253  1
  Fe  Fe9  1  0.24692137  0.24784874  0.50464425  1
  Fe  Fe10  1  0.25122672  0.50121017  0.74808726  1
  Fe  Fe11  1  0.37116531  0.37440723  0.37607046  1
  Fe  Fe12  1  0.87632713  0.37422241  0.12398121  1
  Fe  Fe13  1  0.62007264  0.12541608  0.62416095  1
  Fe  Fe14  1  0.62344677  0.87746790  0.62657612  1
  Fe  Fe15  1  0.62340480  0.62450407  0.62713060  1
  Fe  Fe16  1  0.49890881  0.49938112  0.49997807  1
  Fe  Fe17  1  0.25296815  0.25145992  0.00056629  1
  Fe  Fe18  1  0.87030455  0.36905214  0.87648408  1
  Fe  Fe19  1  0.62550593  0.62425335  0.37528390  1
  Fe  Fe20  1  0.74935128  0.00474815  0.75004086  1
  Fe  Fe21  1  0.12474469  0.12572137  0.12471689  1
  Fe  Fe22  1  0.87256766  0.37471923  0.37561938  1
  Fe  Fe23  1  0.12256768  0.87706075  0.62402371  1
  Fe  Fe24  1  0.87205030  0.87561496  0.87612410  1
  Fe  Fe25  1  0.87577891  0.62556508  0.12370546  1
  Fe  Fe26  1  0.00233591  0.24971036  0.50107132  1
  Fe  Fe27  1  0.00027843  0.75298428  -0.00088048  1
  Fe  Fe28  1  0.74439014  0.74861531  0.00158932  1
  Fe  Fe29  1  0.12329843  0.62593792  0.12437920  1
  Fe  Fe30  1  0.12935752  0.37496796  0.87352152  1
  Fe  Fe31  1  0.74826521  0.49959662  0.75114768  1
  Fe  Fe32  1  0.12223290  0.62424987  0.62626439  1
  Fe  Fe33  1  0.25141784  0.00076778  0.50253054  1
  Fe  Fe34  1  0.25276581  0.50163301  0.00112527  1
  Fe  Fe35  1  -0.00159905  -0.00086802  0.75369647  1
  Fe  Fe36  1  0.25302278  0.75009654  -0.00079048  1
  Fe  Fe37  1  -0.00125977  0.49933257  0.75260522  1
  Fe  Fe38  1  0.38271432  0.62916805  0.12439091  1
  Fe  Fe39  1  0.49863536  0.25083502  0.75370866  1
  Fe  Fe40  1  0.50163369  0.49838531  -0.00569124  1
  Fe  Fe41  1  0.74984969  0.00181636  0.24620444  1
  Fe  Fe42  1  0.00125239  -0.00374934  0.25052176  1
  Fe  Fe43  1  0.00042422  0.49995940  0.49983707  1
  Fe  Fe44  1  0.49954077  0.49962572  0.25233906  1
  Fe  Fe45  1  0.25324929  0.00107535  0.74503633  1
  Fe  Fe46  1  0.49847026  -0.00266477  0.25056735  1
  Fe  Fe47  1  0.75164144  0.74993721  0.74737922  1
  Fe  Fe48  1  0.75104186  0.74989470  0.50388447  1
  Fe  Fe49  1  0.49821712  0.25022883  0.25011959  1
  Fe  Fe50  1  0.37322952  0.12656587  0.37579364  1
  Fe  Fe51  1  0.12701132  0.37570135  0.12476370  1
  Fe  Fe52  1  0.74752760  0.74946745  0.24687588  1
  Fe  Fe53  1  0.74825581  0.50030745  0.24741776  1
  Fe  Fe54  1  0.49763764  0.00004580  0.50045908  1
  Fe  Fe55  1  0.25121904  0.74979323  0.50157386  1
  Fe  Fe56  1  0.12631182  0.62570980  0.37609225  1
  Fe  Fe57  1  -0.00299227  0.75120466  0.50200766  1
  Fe  Fe58  1  0.87405642  0.87434167  0.37434889  1
  Fe  Fe59  1  0.62704253  0.87693572  0.37480251  1
  Fe  Fe60  1  0.37352220  0.37229897  0.62621787  1
  Fe  Fe61  1  0.50017109  0.75070719  0.49780734  1
  Fe  Fe62  1  -0.00003683  0.50105923  0.25056838  1
  Fe  Fe63  1  0.24998030  -0.00221987  0.00316672  1
  Fe  Fe64  1  0.87253062  0.62391731  0.37592969  1
  Fe  Fe65  1  0.62487502  0.37412242  0.62570380  1
  Fe  Fe66  1  0.12626521  0.12261120  0.37453398  1
  Fe  Fe67  1  0.88169150  0.12476588  0.12218757  1
  Fe  Fe68  1  0.87439847  0.37602075  0.62400700  1
  Fe  Fe69  1  0.50009116  -0.00435473  -0.00343150  1
  Fe  Fe70  1  0.62609311  0.12902570  0.87785845  1
  Fe  Fe71  1  0.12430331  0.62600043  0.87442662  1
  Fe  Fe72  1  0.75036224  0.00112195  0.50084587  1
  Fe  Fe73  1  0.50020502  0.75501474  0.75446340  1
  Fe  Fe74  1  0.00259801  0.25180523  0.25047134  1
  Fe  Fe75  1  0.37276183  0.87465998  0.37507803  1
  Fe  Fe76  1  0.25218525  0.74948632  0.25049775  1
  Fe  Fe77  1  0.12577329  0.87307891  0.12741707  1
  Fe  Fe78  1  0.25036050  0.75058987  0.74882215  1
  Fe  Fe79  1  0.87828412  0.12315749  0.62388603  1
  Fe  Fe80  1  0.37821135  0.62627134  0.62579991  1
  Fe  Fe81  1  0.12795517  0.87476677  0.87355515  1
  Fe  Fe82  1  0.74977021  0.00331101  0.00275078  1
  Fe  Fe83  1  0.87524674  0.12587935  0.37470922  1
  Fe  Fe84  1  0.74667387  0.50101925  -0.00088870  1
  Fe  Fe85  1  0.12565480  0.12463538  0.87566666  1
  Fe  Fe86  1  0.00008596  0.49823675  -0.00195183  1
  Fe  Fe87  1  0.74840256  0.24845470  0.50131421  1
  Fe  Fe88  1  0.37269046  0.12300923  0.87361163  1
  Fe  Fe89  1  0.37748439  0.62498979  0.87364754  1
  Co  Co90  1  0.00233267  -0.00435162  -0.00103923  1
  Co  Co91  1  0.12490496  0.37677678  0.62758131  1
  Co  Co92  1  0.00348661  0.25265098  -0.00200882  1
  Co  Co93  1  0.50078451  0.49611700  0.75029260  1
  Co  Co94  1  0.37938299  0.12785308  0.62526082  1
  Co  Co95  1  0.50213908  0.75461677  -0.00708203  1
  Co  Co96  1  -0.00109237  0.74934385  0.25061543  1
  Co  Co97  1  0.24928823  0.24693153  0.74874380  1
  Co  Co98  1  0.61851706  0.12436414  0.12385534  1
  Co  Co99  1  0.75018002  0.24657010  0.74558743  1
  Co  Co100  1  0.87565174  0.62118763  0.62646987  1
  Co  Co101  1  0.25062339  0.24978588  0.24818611  1
  Co  Co102  1  0.50074287  0.25216848  0.49788026  1
  Co  Co103  1  0.74710659  0.50026101  0.50157585  1
  Co  Co104  1  0.62298899  0.87563351  0.12496261  1
  Co  Co105  1  -0.00112701  -0.00123142  0.49617255  1
  Co  Co106  1  0.37182862  0.37680316  0.87287810  1
  Co  Co107  1  0.37105077  0.87714890  0.87370253  1
  Co  Co108  1  0.87603620  0.12661192  0.87787855  1
  Co  Co109  1  0.87487214  0.87975604  0.62644358  1
  Co  Co110  1  0.75072173  0.24587883  0.00601167  1
  Co  Co111  1  0.50191852  0.75308426  0.25454794  1
  Co  Co112  1  0.37756044  0.87201555  0.12459847  1
  Co  Co113  1  0.61916976  0.62565855  0.12457026  1
  Co  Co114  1  0.62880024  0.36962266  0.87698456  1
  Co  Co115  1  0.25021136  -0.00148139  0.24911485  1
  Co  Co116  1  0.37698606  0.37666760  0.12507881  1
  Co  Co117  1  0.12140583  0.12078663  0.62626267  1
  Co  Co118  1  0.62395927  0.62523322  0.87120267  1
  Co  Co119  1  -0.00084551  0.75196652  0.74999688  1
  Co  Co120  1  0.50058647  0.00083450  0.75291149  1
  Co  Co121  1  0.63065467  0.87728940  0.87325992  1
  Co  Co122  1  0.49421205  0.25029175  -0.00267882  1
  Co  Co123  1  0.87349114  0.87419799  0.12367983  1
  Co  Co124  1  0.37790376  0.87435059  0.62592786  1
  Co  Co125  1  0.25175635  0.50130086  0.50344360  1
  Co  Co126  1  0.12635989  0.87358959  0.37619797  1
  Co  Co127  1  0.37500655  0.62485137  0.37507388  1
