# generated using pymatgen
data_Fe45Co19
_symmetry_space_group_name_H-M   'P 1'
_cell_length_a   11.41416809
_cell_length_b   11.41523516
_cell_length_c   11.41358864
_cell_angle_alpha   89.99847093
_cell_angle_beta   89.99705659
_cell_angle_gamma   89.99237548
_symmetry_Int_Tables_number   1
_chemical_formula_structural   Fe45Co19
_chemical_formula_sum   'Fe90 Co38'
_cell_volume   1487.13822917
_cell_formula_units_Z   2
loop_
 _symmetry_equiv_pos_site_id
 _symmetry_equiv_pos_as_xyz
  1  'x, y, z'
loop_
 _atom_site_type_symbol
 _atom_site_label
 _atom_site_symmetry_multiplicity
 _atom_site_fract_x
 _atom_site_fract_y
 _atom_site_fract_z
 _atom_site_occupancy
  Fe  Fe0  1  0.49948255  0.25110282  0.49919208  1
  Fe  Fe1  1  0.12128990  0.62838073  0.62403741  1
  Fe  Fe2  1  0.12548545  0.62384060  0.87499974  1
  Fe  Fe3  1  0.50168360  0.24993639  0.24860066  1
  Fe  Fe4  1  0.49684622  0.25428903  0.00100259  1
  Fe  Fe5  1  0.37450859  0.87379100  0.62592955  1
  Fe  Fe6  1  0.00222416  -0.00037037  0.74819520  1
  Fe  Fe7  1  0.50060256  -0.00135654  0.50142147  1
  Fe  Fe8  1  -0.00239932  0.25050102  0.75153227  1
  Fe  Fe9  1  0.00057873  0.25054178  -0.00010302  1
  Fe  Fe10  1  0.75085930  0.74653613  0.25251874  1
  Fe  Fe11  1  0.87615169  0.37736944  0.37497244  1
  Fe  Fe12  1  0.62578537  0.37765001  0.37389651  1
  Fe  Fe13  1  0.12499461  0.87551689  0.12515831  1
  Fe  Fe14  1  0.62338990  0.62507236  0.87677025  1
  Fe  Fe15  1  0.12685999  0.37513707  0.87311299  1
  Fe  Fe16  1  0.24976984  0.00205342  0.25174400  1
  Fe  Fe17  1  0.25061747  0.00030127  0.74939429  1
  Fe  Fe18  1  -0.00101570  0.49885039  0.00068040  1
  Fe  Fe19  1  0.24751621  0.50078274  0.25099739  1
  Fe  Fe20  1  0.25168312  0.74656999  0.75093347  1
  Fe  Fe21  1  0.87959389  0.62176443  0.37802171  1
  Fe  Fe22  1  0.25170824  0.74910576  -0.00154532  1
  Fe  Fe23  1  0.12644973  0.87387277  0.87308653  1
  Fe  Fe24  1  0.49663691  0.75106899  -0.00123209  1
  Fe  Fe25  1  0.00032305  0.49963767  0.74974780  1
  Fe  Fe26  1  0.62405525  0.12219893  0.87849422  1
  Fe  Fe27  1  0.37271339  0.62377810  0.37741978  1
  Fe  Fe28  1  0.24981964  0.24716552  0.25057457  1
  Fe  Fe29  1  0.62777242  0.62957470  0.61816982  1
  Fe  Fe30  1  0.24778595  0.75018700  0.25171579  1
  Fe  Fe31  1  0.87431479  0.12421289  0.12411987  1
  Fe  Fe32  1  0.25132289  0.25193578  0.50044988  1
  Fe  Fe33  1  0.49696697  0.74491508  0.74815584  1
  Fe  Fe34  1  0.37447774  0.62583990  0.12590704  1
  Fe  Fe35  1  0.49995533  0.24958622  0.75020480  1
  Fe  Fe36  1  0.62429941  0.37437573  0.62459663  1
  Fe  Fe37  1  0.49988894  0.00064041  0.74974937  1
  Fe  Fe38  1  0.50040425  0.50083234  0.50111836  1
  Fe  Fe39  1  0.00006317  -0.00043235  -0.00040286  1
  Fe  Fe40  1  0.12611790  0.37383466  0.12701776  1
  Fe  Fe41  1  -0.00022887  0.75069084  -0.00112254  1
  Fe  Fe42  1  0.62339512  0.87524611  0.87433163  1
  Fe  Fe43  1  0.12524606  0.12419955  0.37811286  1
  Fe  Fe44  1  0.75026262  0.50213120  0.00163223  1
  Fe  Fe45  1  0.74919867  0.25050725  0.75115311  1
  Fe  Fe46  1  0.74852873  0.50124775  0.74796090  1
  Fe  Fe47  1  0.74764976  0.00110159  0.24817451  1
  Fe  Fe48  1  0.49847265  0.49842088  0.00367178  1
  Fe  Fe49  1  0.62597238  0.87151835  0.37789814  1
  Fe  Fe50  1  0.12681767  0.12629789  0.87573104  1
  Fe  Fe51  1  0.62496490  0.87393395  0.12355630  1
  Fe  Fe52  1  0.87356967  0.37651201  0.12612825  1
  Fe  Fe53  1  0.37448913  0.12536244  0.12342393  1
  Fe  Fe54  1  0.75007991  0.25044503  -0.00054779  1
  Fe  Fe55  1  0.87510103  0.87585123  0.87346624  1
  Fe  Fe56  1  0.87541847  0.87300406  0.12744052  1
  Fe  Fe57  1  0.74878147  -0.00291933  0.50350804  1
  Fe  Fe58  1  0.00053288  0.00122479  0.25023482  1
  Fe  Fe59  1  0.50127021  0.50211539  0.24932959  1
  Fe  Fe60  1  0.37386718  0.87436204  0.12669294  1
  Fe  Fe61  1  0.00056026  0.24855636  0.24936622  1
  Fe  Fe62  1  0.74926065  0.25209144  0.49961816  1
  Fe  Fe63  1  0.12579378  0.12572210  0.62386848  1
  Fe  Fe64  1  0.12275893  0.87690821  0.37825712  1
  Fe  Fe65  1  0.37515328  0.87646943  0.37528385  1
  Fe  Fe66  1  0.87404336  0.12257872  0.37735274  1
  Fe  Fe67  1  0.87343466  0.12608740  0.62463092  1
  Fe  Fe68  1  0.74775193  -0.00077502  0.74777614  1
  Fe  Fe69  1  0.74854030  0.50425322  0.24917124  1
  Fe  Fe70  1  0.25189859  0.49805795  0.00040915  1
  Fe  Fe71  1  0.00039903  0.25190027  0.49968671  1
  Fe  Fe72  1  0.75123647  0.74961375  -0.00010953  1
  Fe  Fe73  1  0.50148333  0.00136518  0.24900942  1
  Fe  Fe74  1  0.12200015  0.62605799  0.12703600  1
  Fe  Fe75  1  0.37599724  0.12522207  0.62329361  1
  Fe  Fe76  1  0.87589317  0.37751030  0.62463125  1
  Fe  Fe77  1  0.50014765  0.74757317  0.25247437  1
  Fe  Fe78  1  0.75168309  0.74871378  0.74821474  1
  Fe  Fe79  1  0.87560811  0.62404143  0.87407589  1
  Fe  Fe80  1  0.62319097  0.37768592  0.87447366  1
  Fe  Fe81  1  0.87400899  0.12345112  0.87485784  1
  Fe  Fe82  1  0.87847895  0.87200080  0.62488136  1
  Fe  Fe83  1  0.74806128  0.24868308  0.24977044  1
  Fe  Fe84  1  0.37396699  0.37577854  0.37424939  1
  Fe  Fe85  1  0.25289321  -0.00037425  -0.00256216  1
  Fe  Fe86  1  0.25364254  0.25230262  0.75037004  1
  Fe  Fe87  1  0.62474635  0.12431758  0.37721538  1
  Fe  Fe88  1  0.24409047  0.49593714  0.50255456  1
  Fe  Fe89  1  0.24916611  0.75149754  0.49957303  1
  Co  Co90  1  0.75136312  -0.00225626  0.00071959  1
  Co  Co91  1  0.62436007  0.62650449  0.37935945  1
  Co  Co92  1  -0.00046163  -0.00030940  0.50332652  1
  Co  Co93  1  0.37564659  0.61933763  0.87568103  1
  Co  Co94  1  0.50355130  0.50582424  0.74426520  1
  Co  Co95  1  0.12311307  0.37118610  0.62919975  1
  Co  Co96  1  0.00151610  0.49867538  0.25066880  1
  Co  Co97  1  0.00624345  0.49685031  0.49987920  1
  Co  Co98  1  0.37524778  0.12703017  0.87549678  1
  Co  Co99  1  0.62373616  0.12491543  0.12049153  1
  Co  Co100  1  0.12455352  0.62567358  0.37511290  1
  Co  Co101  1  0.25187818  0.25380227  -0.00172502  1
  Co  Co102  1  0.37700022  0.37687462  0.62670006  1
  Co  Co103  1  0.87857202  0.62618289  0.12569434  1
  Co  Co104  1  0.62522142  0.12657303  0.62397687  1
  Co  Co105  1  0.12697919  0.12401461  0.12258872  1
  Co  Co106  1  0.62294976  0.86959603  0.62503554  1
  Co  Co107  1  0.37147561  0.62274491  0.62066200  1
  Co  Co108  1  0.75638311  0.75093857  0.49821968  1
  Co  Co109  1  0.37683234  0.38099682  0.86913787  1
  Co  Co110  1  0.62347005  0.62753434  0.12335470  1
  Co  Co111  1  0.12571327  0.37161173  0.37170984  1
  Co  Co112  1  0.00069963  0.75131264  0.25362179  1
  Co  Co113  1  0.62827463  0.37634796  0.12614723  1
  Co  Co114  1  0.24754303  0.50178717  0.74645036  1
  Co  Co115  1  0.87816751  0.62263388  0.62378003  1
  Co  Co116  1  0.12582179  0.87294176  0.62550740  1
  Co  Co117  1  0.25148061  -0.00038782  0.50086929  1
  Co  Co118  1  0.87449920  0.87892682  0.37378777  1
  Co  Co119  1  0.37679161  0.12516595  0.37578888  1
  Co  Co120  1  0.49570311  0.75010663  0.49894054  1
  Co  Co121  1  0.49595317  -0.00305054  -0.00000639  1
  Co  Co122  1  0.37236080  0.37512257  0.12957332  1
  Co  Co123  1  0.37481983  0.87296229  0.87095493  1
  Co  Co124  1  0.74961019  0.49948107  0.50056650  1
  Co  Co125  1  0.87366631  0.37674218  0.87459257  1
  Co  Co126  1  -0.00143482  0.75105946  0.49714057  1
  Co  Co127  1  -0.00016482  0.74947488  0.75216708  1
