# generated using pymatgen
data_Fe45Co19
_symmetry_space_group_name_H-M   'P 1'
_cell_length_a   11.41543053
_cell_length_b   11.41569309
_cell_length_c   11.41459611
_cell_angle_alpha   90.00039052
_cell_angle_beta   90.00863062
_cell_angle_gamma   90.00725208
_symmetry_Int_Tables_number   1
_chemical_formula_structural   Fe45Co19
_chemical_formula_sum   'Fe90 Co38'
_cell_volume   1487.49365093
_cell_formula_units_Z   2
loop_
 _symmetry_equiv_pos_site_id
 _symmetry_equiv_pos_as_xyz
  1  'x, y, z'
loop_
 _atom_site_type_symbol
 _atom_site_label
 _atom_site_symmetry_multiplicity
 _atom_site_fract_x
 _atom_site_fract_y
 _atom_site_fract_z
 _atom_site_occupancy
  Fe  Fe0  1  0.37308655  0.37662847  0.38303497  1
  Fe  Fe1  1  0.49750743  0.25166736  0.25097947  1
  Fe  Fe2  1  0.87817248  0.62831008  0.62783844  1
  Fe  Fe3  1  0.87410212  0.87648349  0.87626308  1
  Fe  Fe4  1  0.49868803  0.00328674  -0.00055292  1
  Fe  Fe5  1  0.49770230  0.49891285  0.25128289  1
  Fe  Fe6  1  0.62350687  0.37458304  0.87611843  1
  Fe  Fe7  1  0.37354956  0.12380046  0.37312663  1
  Fe  Fe8  1  0.12589887  0.62594940  0.37679828  1
  Fe  Fe9  1  0.49834996  0.74760389  0.50353687  1
  Fe  Fe10  1  0.12520323  0.62276669  0.12548122  1
  Fe  Fe11  1  0.62604510  0.37336503  0.61887850  1
  Fe  Fe12  1  0.00113575  0.50142917  0.50248954  1
  Fe  Fe13  1  0.74743571  0.00005210  -0.00196932  1
  Fe  Fe14  1  0.75005737  0.25283231  0.00010758  1
  Fe  Fe15  1  0.00484987  0.25289996  -0.00169741  1
  Fe  Fe16  1  0.24969749  0.75132973  0.24866337  1
  Fe  Fe17  1  0.62465928  0.37549576  0.12506636  1
  Fe  Fe18  1  0.12405690  0.12762602  0.62762273  1
  Fe  Fe19  1  0.24800605  -0.00397368  0.24728623  1
  Fe  Fe20  1  0.37419129  0.87463758  0.37642859  1
  Fe  Fe21  1  0.12874214  0.12577886  0.12228563  1
  Fe  Fe22  1  -0.00086105  0.24758588  0.49756983  1
  Fe  Fe23  1  0.62470830  0.87415903  0.37636669  1
  Fe  Fe24  1  0.50062750  0.25089138  0.74888253  1
  Fe  Fe25  1  0.74866272  0.24880592  0.74929450  1
  Fe  Fe26  1  0.62684559  0.37594474  0.38017943  1
  Fe  Fe27  1  0.49843282  0.74636424  -0.00099754  1
  Fe  Fe28  1  0.25096692  0.74549408  -0.00180730  1
  Fe  Fe29  1  0.50041095  0.49845512  0.74439370  1
  Fe  Fe30  1  0.25043342  0.49984183  0.25003710  1
  Fe  Fe31  1  0.37189911  0.37396929  0.12112935  1
  Fe  Fe32  1  0.00159416  -0.00098563  0.49954042  1
  Fe  Fe33  1  0.24978903  0.25164072  0.25070138  1
  Fe  Fe34  1  0.24987423  0.75038982  0.74908679  1
  Fe  Fe35  1  0.25122704  0.74914265  0.50425607  1
  Fe  Fe36  1  0.62700691  0.62444694  0.87515790  1
  Fe  Fe37  1  0.00128692  0.25010666  0.25003734  1
  Fe  Fe38  1  0.37342577  0.61956112  0.87126529  1
  Fe  Fe39  1  0.24781297  0.25415061  0.75313696  1
  Fe  Fe40  1  0.37317729  0.12983165  0.87822860  1
  Fe  Fe41  1  0.24951763  0.00061243  0.50262453  1
  Fe  Fe42  1  0.87468932  0.62307774  0.12471568  1
  Fe  Fe43  1  0.49854491  0.50029736  0.00047232  1
  Fe  Fe44  1  0.62577032  0.12619480  0.37479882  1
  Fe  Fe45  1  0.24996888  0.00037306  0.75065547  1
  Fe  Fe46  1  0.00242557  0.00098390  0.00005252  1
  Fe  Fe47  1  0.12680498  0.87605806  0.87729818  1
  Fe  Fe48  1  0.75165084  0.74925211  0.50002008  1
  Fe  Fe49  1  0.50016173  -0.00008645  0.24853875  1
  Fe  Fe50  1  0.87554674  0.12360373  0.12593646  1
  Fe  Fe51  1  0.37354507  0.12859387  0.62522536  1
  Fe  Fe52  1  0.62478080  0.12803070  0.12459618  1
  Fe  Fe53  1  0.12589321  0.12288486  0.37412255  1
  Fe  Fe54  1  0.87565542  0.87667987  0.12630115  1
  Fe  Fe55  1  0.87639578  0.87419687  0.62622290  1
  Fe  Fe56  1  0.49919020  0.74883142  0.24970652  1
  Fe  Fe57  1  0.87483579  0.62123716  0.87420963  1
  Fe  Fe58  1  0.37549554  0.87460066  0.87437318  1
  Fe  Fe59  1  0.87554741  0.12177633  0.37123457  1
  Fe  Fe60  1  0.12358531  0.61866337  0.86990123  1
  Fe  Fe61  1  0.62392976  0.87635110  0.62736176  1
  Fe  Fe62  1  0.87599119  0.62377058  0.37385391  1
  Fe  Fe63  1  0.87500727  0.12443554  0.62750592  1
  Fe  Fe64  1  0.37436436  0.62396143  0.37709828  1
  Fe  Fe65  1  0.00237560  0.25282360  0.75280359  1
  Fe  Fe66  1  0.87567579  0.87836967  0.37175444  1
  Fe  Fe67  1  0.87472166  0.12593499  0.87445607  1
  Fe  Fe68  1  0.24856565  0.49551476  0.74131678  1
  Fe  Fe69  1  0.49844905  0.00240879  0.50122918  1
  Fe  Fe70  1  0.75241313  0.25168324  0.25197579  1
  Fe  Fe71  1  0.37413465  0.87346815  0.12254140  1
  Fe  Fe72  1  0.62493020  0.87344394  0.12285665  1
  Fe  Fe73  1  0.12428055  0.37616485  0.37674603  1
  Fe  Fe74  1  0.62614333  0.62372797  0.12465421  1
  Fe  Fe75  1  0.75156199  0.49828604  0.25124190  1
  Fe  Fe76  1  0.00269406  0.75245334  0.25080107  1
  Fe  Fe77  1  0.00066995  -0.00161814  0.75116383  1
  Fe  Fe78  1  0.74990887  0.00165123  0.50129917  1
  Fe  Fe79  1  0.74940147  0.75049645  0.24927534  1
  Fe  Fe80  1  0.62503768  0.62335105  0.37684197  1
  Fe  Fe81  1  0.74971202  0.49856856  0.74795278  1
  Fe  Fe82  1  0.87451169  0.37255881  0.62154307  1
  Fe  Fe83  1  0.74992985  0.75230352  0.75264677  1
  Fe  Fe84  1  0.12304650  0.87209183  0.62489293  1
  Fe  Fe85  1  0.87617694  0.37693634  0.87548853  1
  Fe  Fe86  1  -0.00014845  0.74704064  -0.00227667  1
  Fe  Fe87  1  0.87889035  0.37719079  0.12599340  1
  Fe  Fe88  1  0.50115594  0.00310699  0.75224070  1
  Fe  Fe89  1  0.49885501  0.74766500  0.74842066  1
  Co  Co90  1  0.62209105  0.87328139  0.87474613  1
  Co  Co91  1  0.49943433  0.50299983  0.50328809  1
  Co  Co92  1  0.11989244  0.63030297  0.62742493  1
  Co  Co93  1  0.00135386  0.50101255  0.25171436  1
  Co  Co94  1  -0.00200799  0.75078823  0.49594676  1
  Co  Co95  1  0.25236671  0.00087686  -0.00114831  1
  Co  Co96  1  0.37510129  0.37124606  0.62035516  1
  Co  Co97  1  0.62657462  0.12823207  0.87601451  1
  Co  Co98  1  0.49918951  0.24650833  0.49825052  1
  Co  Co99  1  0.24562949  0.50209932  0.50558846  1
  Co  Co100  1  0.75151669  0.75015525  -0.00042828  1
  Co  Co101  1  0.12460356  0.12325789  0.87392988  1
  Co  Co102  1  0.87709206  0.37631796  0.37643906  1
  Co  Co103  1  -0.00147232  0.49560177  0.74471449  1
  Co  Co104  1  0.00061992  0.50018983  0.00043439  1
  Co  Co105  1  0.37644637  0.87669474  0.62709824  1
  Co  Co106  1  0.12545553  0.87265681  0.11946480  1
  Co  Co107  1  0.24981369  0.50003972  0.00069811  1
  Co  Co108  1  0.74941788  -0.00027627  0.75210579  1
  Co  Co109  1  0.37345906  0.62303695  0.62602660  1
  Co  Co110  1  0.12738810  0.87392865  0.37832060  1
  Co  Co111  1  0.12358788  0.36957258  0.62122051  1
  Co  Co112  1  0.37189134  0.12751290  0.12522815  1
  Co  Co113  1  0.12526918  0.37701697  0.12729097  1
  Co  Co114  1  0.75364127  0.50320813  0.50147317  1
  Co  Co115  1  -0.00004684  0.75305106  0.75634228  1
  Co  Co116  1  0.75247316  0.24604269  0.49818824  1
  Co  Co117  1  0.49927335  0.25050151  0.00125546  1
  Co  Co118  1  0.00620692  -0.00142094  0.24821033  1
  Co  Co119  1  0.24874766  0.24706658  0.49836788  1
  Co  Co120  1  0.62825754  0.62645818  0.62556827  1
  Co  Co121  1  0.74987993  0.49784870  0.00002461  1
  Co  Co122  1  0.74602306  0.00000346  0.24892166  1
  Co  Co123  1  0.62600854  0.12502434  0.62538826  1
  Co  Co124  1  0.12410223  0.38211830  0.87437367  1
  Co  Co125  1  0.37635593  0.37730741  0.87475758  1
  Co  Co126  1  0.24524192  0.25437701  -0.00435962  1
  Co  Co127  1  0.37476469  0.62409592  0.12655056  1
