# generated using pymatgen
data_Fe45Co19
_symmetry_space_group_name_H-M   'P 1'
_cell_length_a   11.41579003
_cell_length_b   11.41567162
_cell_length_c   11.41432462
_cell_angle_alpha   90.00240591
_cell_angle_beta   89.99409882
_cell_angle_gamma   89.99534232
_symmetry_Int_Tables_number   1
_chemical_formula_structural   Fe45Co19
_chemical_formula_sum   'Fe90 Co38'
_cell_volume   1487.50233246
_cell_formula_units_Z   2
loop_
 _symmetry_equiv_pos_site_id
 _symmetry_equiv_pos_as_xyz
  1  'x, y, z'
loop_
 _atom_site_type_symbol
 _atom_site_label
 _atom_site_symmetry_multiplicity
 _atom_site_fract_x
 _atom_site_fract_y
 _atom_site_fract_z
 _atom_site_occupancy
  Fe  Fe0  1  0.74945247  0.25191431  0.25263272  1
  Fe  Fe1  1  0.00236648  0.00393213  0.24805289  1
  Fe  Fe2  1  0.37434418  0.12365796  0.12812932  1
  Fe  Fe3  1  0.12514765  0.87605000  0.87423401  1
  Fe  Fe4  1  0.74970763  0.25021582  0.74956172  1
  Fe  Fe5  1  0.62947511  0.12295691  0.62375913  1
  Fe  Fe6  1  0.37494619  0.37729719  0.87215803  1
  Fe  Fe7  1  0.49801795  0.50311572  -0.00233323  1
  Fe  Fe8  1  0.62518501  0.87493180  0.87373444  1
  Fe  Fe9  1  0.37476775  0.62222435  0.62538579  1
  Fe  Fe10  1  0.37648249  0.87419865  0.12946331  1
  Fe  Fe11  1  0.87815550  0.87453833  0.62299295  1
  Fe  Fe12  1  0.25009445  -0.00084415  0.00148503  1
  Fe  Fe13  1  0.24913861  0.75030106  0.74793587  1
  Fe  Fe14  1  0.50017404  0.24736647  0.74692024  1
  Fe  Fe15  1  0.62463163  0.37609894  0.87353562  1
  Fe  Fe16  1  0.37359228  0.87752729  0.62212102  1
  Fe  Fe17  1  0.87268017  0.12314413  0.37736449  1
  Fe  Fe18  1  0.24707751  0.50028428  0.50259246  1
  Fe  Fe19  1  0.00177892  0.25279952  0.74815214  1
  Fe  Fe20  1  0.87377333  0.37592341  0.12564398  1
  Fe  Fe21  1  0.24723235  0.75189905  0.49822283  1
  Fe  Fe22  1  0.00082519  0.49996142  0.00097058  1
  Fe  Fe23  1  0.24866539  0.25210546  0.75049485  1
  Fe  Fe24  1  0.75224254  0.74906891  0.25171899  1
  Fe  Fe25  1  0.37581638  0.37546698  0.12591315  1
  Fe  Fe26  1  0.62260617  0.37425250  0.37859196  1
  Fe  Fe27  1  0.62541358  0.12191209  0.87291225  1
  Fe  Fe28  1  0.12454450  0.12564432  0.87648417  1
  Fe  Fe29  1  0.49950909  0.24957620  0.00006320  1
  Fe  Fe30  1  0.37208671  0.12338273  0.62351369  1
  Fe  Fe31  1  0.12616462  0.62585428  0.12629470  1
  Fe  Fe32  1  0.62432431  0.62691328  0.87374553  1
  Fe  Fe33  1  0.12655528  0.12670282  0.62268405  1
  Fe  Fe34  1  0.75071539  0.25031033  -0.00084784  1
  Fe  Fe35  1  0.49963804  0.50231474  0.25280343  1
  Fe  Fe36  1  0.12291484  0.62328021  0.37674890  1
  Fe  Fe37  1  0.62557860  0.62489750  0.37781618  1
  Fe  Fe38  1  0.37753259  0.37544754  0.37796595  1
  Fe  Fe39  1  0.62421316  0.87416705  0.62499949  1
  Fe  Fe40  1  0.24857300  -0.00015812  0.75012718  1
  Fe  Fe41  1  0.87820751  0.62217805  0.37881026  1
  Fe  Fe42  1  -0.00080392  0.24969547  0.24891545  1
  Fe  Fe43  1  -0.00072307  0.00072784  0.00371153  1
  Fe  Fe44  1  0.87485143  0.87563107  0.87567698  1
  Fe  Fe45  1  0.37596696  0.62707979  0.12669965  1
  Fe  Fe46  1  0.25049289  0.50153537  -0.00131775  1
  Fe  Fe47  1  0.75133936  -0.00138636  0.00218917  1
  Fe  Fe48  1  -0.00293036  0.25113137  0.50160820  1
  Fe  Fe49  1  0.87963535  0.87658209  0.37550595  1
  Fe  Fe50  1  0.12302406  0.37460695  0.37736547  1
  Fe  Fe51  1  0.74967195  0.50047974  0.25049885  1
  Fe  Fe52  1  -0.00141160  0.24962319  0.00122352  1
  Fe  Fe53  1  0.37856879  0.12323729  0.37350866  1
  Fe  Fe54  1  0.50296863  0.00239801  0.50065039  1
  Fe  Fe55  1  0.75343714  0.74994353  0.50138887  1
  Fe  Fe56  1  0.49671002  0.74725944  0.49773321  1
  Fe  Fe57  1  0.62386623  0.37606469  0.12450555  1
  Fe  Fe58  1  0.87399312  0.62475456  0.12473294  1
  Fe  Fe59  1  0.25212367  0.75153309  0.25528488  1
  Fe  Fe60  1  0.62401141  0.37571617  0.62387054  1
  Fe  Fe61  1  0.62410980  0.62773029  0.12431771  1
  Fe  Fe62  1  0.87569424  0.37854545  0.37693951  1
  Fe  Fe63  1  0.00068906  -0.00006389  0.74745084  1
  Fe  Fe64  1  0.74857496  -0.00143941  0.25109008  1
  Fe  Fe65  1  0.75190642  0.74942421  0.74837592  1
  Fe  Fe66  1  0.12537154  0.37404724  0.12452304  1
  Fe  Fe67  1  0.24897373  0.49935575  0.25110844  1
  Fe  Fe68  1  0.62448764  0.86907875  0.12526521  1
  Fe  Fe69  1  0.49745537  0.74995512  0.74957958  1
  Fe  Fe70  1  0.87179132  0.12361666  0.62290340  1
  Fe  Fe71  1  0.62234640  0.87349819  0.37551702  1
  Fe  Fe72  1  0.87814955  0.62219162  0.86883832  1
  Fe  Fe73  1  0.24407343  -0.00117519  0.49397287  1
  Fe  Fe74  1  0.37569422  0.12419744  0.87356808  1
  Fe  Fe75  1  0.37520861  0.87539331  0.87361402  1
  Fe  Fe76  1  0.24981582  0.24889921  0.25245031  1
  Fe  Fe77  1  0.25097475  0.25035031  -0.00101832  1
  Fe  Fe78  1  0.25098178  0.74968958  -0.00119146  1
  Fe  Fe79  1  0.87464640  0.12432197  0.87413361  1
  Fe  Fe80  1  0.75028367  0.50165814  -0.00168623  1
  Fe  Fe81  1  0.12510883  0.87442302  0.12792858  1
  Fe  Fe82  1  0.87516997  0.37754559  0.87100647  1
  Fe  Fe83  1  0.62591715  0.12706586  0.12695981  1
  Fe  Fe84  1  0.37589898  0.37610333  0.62413388  1
  Fe  Fe85  1  0.49978828  -0.00160019  0.00072349  1
  Fe  Fe86  1  -0.00068053  0.74993228  -0.00061153  1
  Fe  Fe87  1  0.75131556  0.50174558  0.50588584  1
  Fe  Fe88  1  0.12471831  0.62313886  0.87041416  1
  Fe  Fe89  1  -0.00148996  0.74674768  0.25027664  1
  Co  Co90  1  0.87161018  0.12608445  0.12645449  1
  Co  Co91  1  0.11966214  0.87346925  0.37203871  1
  Co  Co92  1  0.24540866  0.49743078  0.74715866  1
  Co  Co93  1  0.00203093  0.75070960  0.49969556  1
  Co  Co94  1  0.50142285  0.50125912  0.74972237  1
  Co  Co95  1  0.12174856  0.62857509  0.62624596  1
  Co  Co96  1  0.74924296  -0.00458418  0.49874186  1
  Co  Co97  1  0.25323365  0.24871031  0.49671948  1
  Co  Co98  1  0.00571850  0.49326773  0.74360905  1
  Co  Co99  1  0.00076299  0.75458979  0.75107010  1
  Co  Co100  1  0.24695137  0.00041864  0.25400236  1
  Co  Co101  1  0.88048657  0.62608500  0.62769480  1
  Co  Co102  1  0.87137757  0.37493285  0.62749156  1
  Co  Co103  1  0.00069578  0.50014374  0.24851192  1
  Co  Co104  1  0.49737068  0.75007715  -0.00292345  1
  Co  Co105  1  0.75023955  0.25239367  0.49934967  1
  Co  Co106  1  0.49846028  0.74665663  0.25481108  1
  Co  Co107  1  0.50067335  0.50189138  0.50006129  1
  Co  Co108  1  0.12589546  0.87554554  0.62514485  1
  Co  Co109  1  0.12483212  0.37521015  0.87823854  1
  Co  Co110  1  0.75337767  0.74886166  -0.00199440  1
  Co  Co111  1  0.50018013  0.24616892  0.50262233  1
  Co  Co112  1  0.50017395  0.25119248  0.25094315  1
  Co  Co113  1  0.62653377  0.12617132  0.37584384  1
  Co  Co114  1  0.50406949  -0.00034706  0.24903599  1
  Co  Co115  1  0.87583503  0.87377326  0.12704360  1
  Co  Co116  1  0.00041455  0.49776467  0.50612580  1
  Co  Co117  1  0.12893938  0.36948860  0.61990331  1
  Co  Co118  1  0.74718765  0.50292463  0.74639603  1
  Co  Co119  1  0.00299770  0.00043708  0.50162516  1
  Co  Co120  1  0.37202999  0.62245173  0.37752682  1
  Co  Co121  1  0.12195703  0.12914847  0.37689278  1
  Co  Co122  1  0.75255991  -0.00305189  0.74832990  1
  Co  Co123  1  0.37208103  0.62427211  0.87067708  1
  Co  Co124  1  0.49907913  0.00020224  0.74782974  1
  Co  Co125  1  0.37808594  0.87899738  0.37583831  1
  Co  Co126  1  0.62298295  0.62810188  0.62413578  1
  Co  Co127  1  0.12757462  0.12677431  0.12360917  1
