# generated using pymatgen
data_Fe45Co19
_symmetry_space_group_name_H-M   'P 1'
_cell_length_a   11.41630504
_cell_length_b   11.41489439
_cell_length_c   11.41597900
_cell_angle_alpha   89.99994959
_cell_angle_beta   90.00283695
_cell_angle_gamma   90.00352846
_symmetry_Int_Tables_number   1
_chemical_formula_structural   Fe45Co19
_chemical_formula_sum   'Fe90 Co38'
_cell_volume   1487.68376080
_cell_formula_units_Z   2
loop_
 _symmetry_equiv_pos_site_id
 _symmetry_equiv_pos_as_xyz
  1  'x, y, z'
loop_
 _atom_site_type_symbol
 _atom_site_label
 _atom_site_symmetry_multiplicity
 _atom_site_fract_x
 _atom_site_fract_y
 _atom_site_fract_z
 _atom_site_occupancy
  Fe  Fe0  1  0.74580558  0.74805121  0.50181277  1
  Fe  Fe1  1  0.12385340  0.62463712  0.62613504  1
  Fe  Fe2  1  0.87514389  0.87406868  0.87505833  1
  Fe  Fe3  1  0.37320577  0.12560072  0.37588527  1
  Fe  Fe4  1  0.62763014  0.62363264  0.12702888  1
  Fe  Fe5  1  0.62604259  0.37660272  0.37229047  1
  Fe  Fe6  1  0.75028220  -0.00000062  0.74986519  1
  Fe  Fe7  1  0.62660662  0.37375243  0.12634960  1
  Fe  Fe8  1  0.50007279  0.74857572  0.24890978  1
  Fe  Fe9  1  0.24960683  0.00131183  0.00187979  1
  Fe  Fe10  1  0.00324423  0.25080664  0.49806330  1
  Fe  Fe11  1  -0.00270390  -0.00194763  0.25361428  1
  Fe  Fe12  1  0.00031198  0.00250193  -0.00392633  1
  Fe  Fe13  1  -0.00166583  0.50128989  0.75140038  1
  Fe  Fe14  1  0.25121665  0.00320546  0.24846205  1
  Fe  Fe15  1  0.37514392  0.87404887  0.12375275  1
  Fe  Fe16  1  0.12670510  0.12037295  0.62153032  1
  Fe  Fe17  1  0.00379093  0.24918246  0.25478608  1
  Fe  Fe18  1  0.49977932  0.50140544  0.75690003  1
  Fe  Fe19  1  0.62400904  0.87710943  0.12455978  1
  Fe  Fe20  1  0.87560407  0.37583348  0.37532948  1
  Fe  Fe21  1  0.75166904  0.49780907  0.00135530  1
  Fe  Fe22  1  0.37311365  0.62699080  0.12318722  1
  Fe  Fe23  1  0.87582949  0.37435036  0.62569557  1
  Fe  Fe24  1  0.75088994  0.75095341  0.00429312  1
  Fe  Fe25  1  0.37634424  0.37574606  0.62521608  1
  Fe  Fe26  1  0.62356232  0.37893318  0.62460147  1
  Fe  Fe27  1  0.12223714  0.62351482  0.12480900  1
  Fe  Fe28  1  0.87726323  0.12547769  0.12539092  1
  Fe  Fe29  1  0.62584912  0.12441547  0.37421234  1
  Fe  Fe30  1  0.37981036  0.87249159  0.62377501  1
  Fe  Fe31  1  0.87531854  0.87339251  0.62451542  1
  Fe  Fe32  1  0.50246040  0.74746930  0.75081956  1
  Fe  Fe33  1  0.74818364  0.74886895  0.74830807  1
  Fe  Fe34  1  0.75282863  -0.00245982  0.24995608  1
  Fe  Fe35  1  0.12492518  0.62099531  0.37687431  1
  Fe  Fe36  1  0.87504099  0.62459473  0.62467876  1
  Fe  Fe37  1  0.87445272  0.12524060  0.37634323  1
  Fe  Fe38  1  0.49957416  0.50138569  -0.00303181  1
  Fe  Fe39  1  0.87623193  0.37255194  0.12614338  1
  Fe  Fe40  1  0.49906673  -0.00103170  0.49872428  1
  Fe  Fe41  1  0.62865842  0.12792202  0.87439965  1
  Fe  Fe42  1  0.25276204  0.50023347  0.75127500  1
  Fe  Fe43  1  0.49853142  0.24982141  0.25053296  1
  Fe  Fe44  1  0.50028740  0.24975512  -0.00110316  1
  Fe  Fe45  1  0.87508854  0.12713325  0.62658655  1
  Fe  Fe46  1  0.00478337  0.24862651  0.75080421  1
  Fe  Fe47  1  0.36921325  0.12920847  0.87420335  1
  Fe  Fe48  1  -0.00113877  0.49925110  -0.00194501  1
  Fe  Fe49  1  0.62524070  0.12553924  0.12686972  1
  Fe  Fe50  1  0.37485814  0.87204368  0.37463495  1
  Fe  Fe51  1  -0.00348146  0.50170103  0.25157983  1
  Fe  Fe52  1  0.62546797  0.87282735  0.87582966  1
  Fe  Fe53  1  0.50142164  0.25077981  0.49875115  1
  Fe  Fe54  1  0.00076116  0.74953863  0.00023097  1
  Fe  Fe55  1  0.37234647  0.37150610  0.12304306  1
  Fe  Fe56  1  0.12483614  0.87949503  0.37942530  1
  Fe  Fe57  1  0.87335244  0.62650688  0.87639755  1
  Fe  Fe58  1  0.00058015  0.74908292  0.49956643  1
  Fe  Fe59  1  0.49805824  0.00086668  0.24996844  1
  Fe  Fe60  1  0.25119628  0.50029137  0.24962767  1
  Fe  Fe61  1  0.74916011  0.49920202  0.75180291  1
  Fe  Fe62  1  0.25042729  0.74940319  0.50182735  1
  Fe  Fe63  1  0.50167986  0.25156267  0.75042471  1
  Fe  Fe64  1  0.37162291  0.37628278  0.37456953  1
  Fe  Fe65  1  0.00018395  -0.00166114  0.74898044  1
  Fe  Fe66  1  0.75080906  -0.00099672  0.50098065  1
  Fe  Fe67  1  0.12191323  0.87760358  0.12505374  1
  Fe  Fe68  1  0.75107010  0.50188004  0.49704524  1
  Fe  Fe69  1  0.24698218  0.25227705  0.49818030  1
  Fe  Fe70  1  0.49897706  -0.00009820  0.75245121  1
  Fe  Fe71  1  0.25105797  -0.00447987  0.74659429  1
  Fe  Fe72  1  0.12492034  0.37399974  0.12660611  1
  Fe  Fe73  1  0.62509897  0.87246706  0.37503926  1
  Fe  Fe74  1  0.75241635  0.00208541  -0.00011875  1
  Fe  Fe75  1  0.12650251  0.87225892  0.87249867  1
  Fe  Fe76  1  0.37367872  0.86919594  0.87796879  1
  Fe  Fe77  1  0.62376275  0.12292181  0.62480451  1
  Fe  Fe78  1  0.12370476  0.37975032  0.62391439  1
  Fe  Fe79  1  0.00404931  0.24755321  -0.00393144  1
  Fe  Fe80  1  0.49869567  0.00135891  -0.00142818  1
  Fe  Fe81  1  0.74840802  0.25109518  0.50027629  1
  Fe  Fe82  1  0.12677562  0.62686946  0.87316291  1
  Fe  Fe83  1  0.24589118  0.75011257  0.24917702  1
  Fe  Fe84  1  0.49959461  0.50392672  0.49536799  1
  Fe  Fe85  1  0.87420472  0.37014899  0.87318697  1
  Fe  Fe86  1  0.37757938  0.62475578  0.62406424  1
  Fe  Fe87  1  0.49788569  0.50171692  0.25042979  1
  Fe  Fe88  1  0.25024022  0.49983454  -0.00238062  1
  Fe  Fe89  1  0.37460255  0.12719507  0.62517691  1
  Co  Co90  1  0.37254196  0.37120818  0.87609848  1
  Co  Co91  1  0.62286248  0.87726169  0.62564224  1
  Co  Co92  1  0.75165536  0.75307846  0.24615375  1
  Co  Co93  1  0.62345925  0.62061776  0.62583142  1
  Co  Co94  1  0.25158643  0.50062183  0.50257471  1
  Co  Co95  1  0.87691933  0.62672387  0.12599817  1
  Co  Co96  1  0.50225592  0.74832180  0.00279564  1
  Co  Co97  1  0.62689938  0.62666552  0.37074037  1
  Co  Co98  1  0.12649971  0.37753154  0.87369384  1
  Co  Co99  1  -0.00161477  0.74976797  0.74988951  1
  Co  Co100  1  0.75353658  0.49935432  0.24994225  1
  Co  Co101  1  0.87429570  0.62863234  0.37313027  1
  Co  Co102  1  0.25573795  -0.00243762  0.50275140  1
  Co  Co103  1  0.12183366  0.12451475  0.12771218  1
  Co  Co104  1  0.50183308  0.74765277  0.49973300  1
  Co  Co105  1  -0.00334181  0.50100441  0.50036874  1
  Co  Co106  1  0.24553101  0.75038395  0.00429893  1
  Co  Co107  1  -0.00523101  -0.00042761  0.50154012  1
  Co  Co108  1  0.24792420  0.24835833  0.25218544  1
  Co  Co109  1  0.24618262  0.25282862  0.74559218  1
  Co  Co110  1  0.62698638  0.37330575  0.87655658  1
  Co  Co111  1  0.37262540  0.63001885  0.87781022  1
  Co  Co112  1  0.12564902  0.38114445  0.37416012  1
  Co  Co113  1  0.00354013  0.75126424  0.25178055  1
  Co  Co114  1  0.24401923  0.24866132  0.00171908  1
  Co  Co115  1  0.12582044  0.11885476  0.37776181  1
  Co  Co116  1  0.87462122  0.12775700  0.87149490  1
  Co  Co117  1  0.87919954  0.87550595  0.12343703  1
  Co  Co118  1  0.87365268  0.87059804  0.37741666  1
  Co  Co119  1  0.13012619  0.12189770  0.87103176  1
  Co  Co120  1  0.75108126  0.24991254  0.25058737  1
  Co  Co121  1  0.37249028  0.62702087  0.37423381  1
  Co  Co122  1  0.12277145  0.87519663  0.62253483  1
  Co  Co123  1  0.74668406  0.25147164  0.74622053  1
  Co  Co124  1  0.37502838  0.12741752  0.12346071  1
  Co  Co125  1  0.75192967  0.24905923  0.00277642  1
  Co  Co126  1  0.25109235  0.75061226  0.74533562  1
  Co  Co127  1  0.62825986  0.62655498  0.87705133  1
