# generated using pymatgen
data_Fe45Co19
_symmetry_space_group_name_H-M   'P 1'
_cell_length_a   11.41538003
_cell_length_b   11.41548051
_cell_length_c   11.41387535
_cell_angle_alpha   89.99307578
_cell_angle_beta   90.00266459
_cell_angle_gamma   90.00410833
_symmetry_Int_Tables_number   1
_chemical_formula_structural   Fe45Co19
_chemical_formula_sum   'Fe90 Co38'
_cell_volume   1487.36545948
_cell_formula_units_Z   2
loop_
 _symmetry_equiv_pos_site_id
 _symmetry_equiv_pos_as_xyz
  1  'x, y, z'
loop_
 _atom_site_type_symbol
 _atom_site_label
 _atom_site_symmetry_multiplicity
 _atom_site_fract_x
 _atom_site_fract_y
 _atom_site_fract_z
 _atom_site_occupancy
  Fe  Fe0  1  0.12807389  0.37105726  0.37469778  1
  Fe  Fe1  1  -0.00042342  0.75091005  -0.00068227  1
  Fe  Fe2  1  0.75031129  0.00116324  0.74937520  1
  Fe  Fe3  1  0.49843434  0.74960572  0.49857597  1
  Fe  Fe4  1  0.62393868  0.87363149  0.87558347  1
  Fe  Fe5  1  0.87725847  0.37412602  0.12463520  1
  Fe  Fe6  1  0.62659517  0.12488780  0.37480223  1
  Fe  Fe7  1  0.87735262  0.12449173  0.12160773  1
  Fe  Fe8  1  0.12327256  0.87264732  0.62528021  1
  Fe  Fe9  1  0.37458791  0.37679093  0.87753207  1
  Fe  Fe10  1  0.24921126  0.49878435  0.50103218  1
  Fe  Fe11  1  0.87510963  0.12464052  0.62321620  1
  Fe  Fe12  1  0.87515643  0.87560129  0.37478218  1
  Fe  Fe13  1  0.62430016  0.37365066  0.87914409  1
  Fe  Fe14  1  0.38065195  0.37751651  0.12954450  1
  Fe  Fe15  1  0.12462688  0.12694888  0.62165074  1
  Fe  Fe16  1  0.00091306  0.00240798  0.49615360  1
  Fe  Fe17  1  0.12611539  0.87392964  0.87534750  1
  Fe  Fe18  1  0.00169813  0.50019304  0.00137872  1
  Fe  Fe19  1  0.00049760  0.50335852  0.74846515  1
  Fe  Fe20  1  0.25013920  0.25314324  0.00483524  1
  Fe  Fe21  1  0.62510226  0.12633285  0.87868932  1
  Fe  Fe22  1  0.12480248  0.12527778  0.87862114  1
  Fe  Fe23  1  0.87559870  0.62602421  0.12580900  1
  Fe  Fe24  1  0.12865925  0.62395816  0.87796205  1
  Fe  Fe25  1  0.50343220  0.50555905  0.00159497  1
  Fe  Fe26  1  0.12673010  0.37585202  0.87658087  1
  Fe  Fe27  1  0.75144120  0.25154978  0.50080678  1
  Fe  Fe28  1  0.49903669  0.24938216  0.75229412  1
  Fe  Fe29  1  0.37599150  0.37598994  0.62541671  1
  Fe  Fe30  1  0.74894247  -0.00118078  0.25002393  1
  Fe  Fe31  1  0.74657003  0.24980620  0.24416386  1
  Fe  Fe32  1  0.87349264  0.62422767  0.37498936  1
  Fe  Fe33  1  0.49996017  0.49941773  0.49609199  1
  Fe  Fe34  1  0.25365434  0.75061303  0.00575896  1
  Fe  Fe35  1  0.37054345  0.12678328  0.37101820  1
  Fe  Fe36  1  0.49999527  0.50092167  0.75113414  1
  Fe  Fe37  1  0.74731922  0.50023533  0.24698937  1
  Fe  Fe38  1  0.75093894  0.24923096  0.75215403  1
  Fe  Fe39  1  0.37281896  0.62334864  0.87746517  1
  Fe  Fe40  1  0.12476789  0.37342262  0.62500816  1
  Fe  Fe41  1  0.37228309  0.62211914  0.37199095  1
  Fe  Fe42  1  0.37567424  0.87676594  0.62591974  1
  Fe  Fe43  1  0.87555927  0.37430926  0.87670044  1
  Fe  Fe44  1  0.37374696  0.62448887  0.62476657  1
  Fe  Fe45  1  0.62380634  0.37389082  0.62431385  1
  Fe  Fe46  1  0.12157659  0.12453780  0.12520969  1
  Fe  Fe47  1  0.49948640  -0.00142314  -0.00031896  1
  Fe  Fe48  1  -0.00148784  0.24932243  0.75153749  1
  Fe  Fe49  1  0.24903360  0.00039172  0.74959215  1
  Fe  Fe50  1  0.87607954  0.87560169  0.87367031  1
  Fe  Fe51  1  0.75062169  0.75278474  0.50105322  1
  Fe  Fe52  1  0.75137889  0.00021214  0.00038112  1
  Fe  Fe53  1  0.37329852  0.87650958  0.37011060  1
  Fe  Fe54  1  0.24517190  0.50232761  0.24516947  1
  Fe  Fe55  1  0.87336370  0.62531556  0.87496214  1
  Fe  Fe56  1  0.49708948  0.74896149  0.24819157  1
  Fe  Fe57  1  0.62276154  0.87396587  0.12647097  1
  Fe  Fe58  1  -0.00037040  0.49903253  0.50062163  1
  Fe  Fe59  1  0.75022223  0.49839566  0.74936242  1
  Fe  Fe60  1  0.49979723  -0.00067797  0.49521293  1
  Fe  Fe61  1  0.62270231  0.87797681  0.62329081  1
  Fe  Fe62  1  0.25127070  0.25008080  0.74959800  1
  Fe  Fe63  1  0.87335994  0.12586462  0.37475344  1
  Fe  Fe64  1  0.74814204  0.74856978  0.00114423  1
  Fe  Fe65  1  0.00136184  0.24818352  0.25108651  1
  Fe  Fe66  1  0.00055708  -0.00022968  0.75168672  1
  Fe  Fe67  1  0.87742620  0.87482250  0.12651778  1
  Fe  Fe68  1  0.37809928  0.12257048  0.12778256  1
  Fe  Fe69  1  0.62290392  0.12472777  0.62308517  1
  Fe  Fe70  1  0.62712990  0.62869566  0.37241134  1
  Fe  Fe71  1  0.49941259  0.74954422  0.75118668  1
  Fe  Fe72  1  -0.00030648  0.74762409  0.49947512  1
  Fe  Fe73  1  0.37651553  0.12282486  0.62503635  1
  Fe  Fe74  1  0.37348941  0.12399549  0.87633800  1
  Fe  Fe75  1  0.49626415  0.25248302  0.49509084  1
  Fe  Fe76  1  0.24870492  -0.00120671  0.00381991  1
  Fe  Fe77  1  0.62558163  0.37410345  0.37279579  1
  Fe  Fe78  1  0.75164478  0.75129542  0.74748350  1
  Fe  Fe79  1  0.25003575  0.74846955  0.74978765  1
  Fe  Fe80  1  0.62589415  0.62432337  0.62542807  1
  Fe  Fe81  1  0.00234830  0.50317943  0.25064800  1
  Fe  Fe82  1  0.87417482  0.37436052  0.37282791  1
  Fe  Fe83  1  0.74790168  0.50043073  0.00269706  1
  Fe  Fe84  1  0.12509450  0.87378309  0.37025676  1
  Fe  Fe85  1  0.24875339  -0.00013533  0.49808275  1
  Fe  Fe86  1  0.37463692  0.87574426  0.87569799  1
  Fe  Fe87  1  0.24997747  0.75049382  0.49803157  1
  Fe  Fe88  1  0.75038930  0.49841340  0.50038136  1
  Fe  Fe89  1  0.12328195  0.87290402  0.12976898  1
  Co  Co90  1  0.37062618  0.37672484  0.36891753  1
  Co  Co91  1  0.74943136  -0.00137618  0.49830390  1
  Co  Co92  1  0.50229361  0.24867445  0.25194890  1
  Co  Co93  1  0.62411653  0.87195773  0.37340767  1
  Co  Co94  1  0.49701882  0.24868847  0.00152721  1
  Co  Co95  1  0.87829908  0.87669091  0.62430339  1
  Co  Co96  1  0.49962352  0.74821240  -0.00011194  1
  Co  Co97  1  0.12321872  0.62898679  0.12287802  1
  Co  Co98  1  -0.00054797  0.00204053  0.25219560  1
  Co  Co99  1  0.24717072  0.00097724  0.24870555  1
  Co  Co100  1  0.87413089  0.62454265  0.62402566  1
  Co  Co101  1  0.12631348  0.62644545  0.62361981  1
  Co  Co102  1  0.25389091  0.25078407  0.50254723  1
  Co  Co103  1  0.12658247  0.62497119  0.37573358  1
  Co  Co104  1  0.62719491  0.62570256  0.87291394  1
  Co  Co105  1  0.87690974  0.12381171  0.87830676  1
  Co  Co106  1  0.25146536  0.74765096  0.24824400  1
  Co  Co107  1  0.00053235  0.25145576  -0.00101234  1
  Co  Co108  1  0.75218941  0.25092462  0.00172423  1
  Co  Co109  1  0.12870853  0.12910353  0.37540723  1
  Co  Co110  1  -0.00155024  0.74669787  0.25199967  1
  Co  Co111  1  0.87513377  0.37428162  0.62587874  1
  Co  Co112  1  0.75356041  0.75220831  0.24968215  1
  Co  Co113  1  0.62378803  0.12314396  0.12224512  1
  Co  Co114  1  0.00108949  -0.00392819  0.00003288  1
  Co  Co115  1  0.37692630  0.87768004  0.12722344  1
  Co  Co116  1  0.00051027  0.74673874  0.75176013  1
  Co  Co117  1  -0.00234979  0.25157869  0.49741085  1
  Co  Co118  1  0.50479792  0.50152723  0.25265392  1
  Co  Co119  1  0.24998467  0.49965848  0.74872877  1
  Co  Co120  1  0.24919966  0.25013262  0.24358585  1
  Co  Co121  1  0.62578076  0.62895734  0.12852376  1
  Co  Co122  1  0.50067386  0.00038457  0.75291329  1
  Co  Co123  1  0.12033103  0.37414026  0.12630673  1
  Co  Co124  1  0.62178262  0.37388202  0.12273093  1
  Co  Co125  1  0.37583485  0.62167495  0.12564620  1
  Co  Co126  1  0.24911269  0.49620809  0.00618360  1
  Co  Co127  1  0.50276514  0.00110054  0.25226903  1
