# generated using pymatgen
data_Fe45Co19
_symmetry_space_group_name_H-M   'P 1'
_cell_length_a   11.41573316
_cell_length_b   11.41495852
_cell_length_c   11.41439688
_cell_angle_alpha   90.00283072
_cell_angle_beta   89.99862973
_cell_angle_gamma   90.00220626
_symmetry_Int_Tables_number   1
_chemical_formula_structural   Fe45Co19
_chemical_formula_sum   'Fe90 Co38'
_cell_volume   1487.41143035
_cell_formula_units_Z   2
loop_
 _symmetry_equiv_pos_site_id
 _symmetry_equiv_pos_as_xyz
  1  'x, y, z'
loop_
 _atom_site_type_symbol
 _atom_site_label
 _atom_site_symmetry_multiplicity
 _atom_site_fract_x
 _atom_site_fract_y
 _atom_site_fract_z
 _atom_site_occupancy
  Fe  Fe0  1  0.87665822  0.37512216  0.37311212  1
  Fe  Fe1  1  0.62490522  0.37728622  0.37254903  1
  Fe  Fe2  1  0.62633550  0.62499603  0.62415293  1
  Fe  Fe3  1  0.50034069  0.24935522  0.49989730  1
  Fe  Fe4  1  0.87671123  0.62528009  0.62234164  1
  Fe  Fe5  1  0.24720730  0.25134386  0.49903851  1
  Fe  Fe6  1  0.37818672  0.87402046  0.62165378  1
  Fe  Fe7  1  0.87665633  0.12305572  0.12694793  1
  Fe  Fe8  1  0.74967511  -0.00093427  0.00209187  1
  Fe  Fe9  1  0.24841966  0.49814038  -0.00198583  1
  Fe  Fe10  1  0.37290166  0.12361975  0.37499252  1
  Fe  Fe11  1  0.75236421  0.50032425  0.49761761  1
  Fe  Fe12  1  0.00152788  0.24883365  0.00146750  1
  Fe  Fe13  1  0.75126641  0.24986949  0.24834119  1
  Fe  Fe14  1  0.75134797  0.75072146  0.49624940  1
  Fe  Fe15  1  0.49950444  0.24903194  0.24885550  1
  Fe  Fe16  1  0.12519457  0.62861573  0.12657022  1
  Fe  Fe17  1  0.00221155  0.25019897  0.75054666  1
  Fe  Fe18  1  0.37295391  0.37640480  0.12617576  1
  Fe  Fe19  1  0.87830052  0.37569105  0.12588429  1
  Fe  Fe20  1  0.49821077  -0.00080677  0.24942761  1
  Fe  Fe21  1  0.00192206  0.50111538  -0.00021821  1
  Fe  Fe22  1  0.62528936  0.62497871  0.87633662  1
  Fe  Fe23  1  0.75210401  0.50053049  0.75089532  1
  Fe  Fe24  1  0.62487162  0.87360534  0.37241695  1
  Fe  Fe25  1  -0.00118907  0.50450283  0.25207877  1
  Fe  Fe26  1  0.49978821  0.50043122  0.75058363  1
  Fe  Fe27  1  0.37671951  0.12873257  0.87227875  1
  Fe  Fe28  1  0.74943389  0.24901808  0.00346006  1
  Fe  Fe29  1  -0.00298294  -0.00167404  0.74949264  1
  Fe  Fe30  1  0.62624715  0.87466797  0.62461690  1
  Fe  Fe31  1  0.74909275  -0.00111131  0.24888568  1
  Fe  Fe32  1  0.87742293  0.12418970  0.37480290  1
  Fe  Fe33  1  0.12441354  0.37580639  0.12868183  1
  Fe  Fe34  1  0.12623714  0.62988139  0.37820534  1
  Fe  Fe35  1  0.75059623  0.50285790  0.00375130  1
  Fe  Fe36  1  0.24831822  -0.00401278  0.49560051  1
  Fe  Fe37  1  0.37337583  0.62609089  0.87631419  1
  Fe  Fe38  1  0.24924774  0.49930070  0.75189631  1
  Fe  Fe39  1  0.12436604  0.37926583  0.62470687  1
  Fe  Fe40  1  0.49809411  0.50068055  0.00210276  1
  Fe  Fe41  1  0.75129268  0.74953254  0.75190035  1
  Fe  Fe42  1  0.25150105  -0.00165443  0.74935039  1
  Fe  Fe43  1  0.87533685  0.87170631  0.12665369  1
  Fe  Fe44  1  0.00112647  -0.00331464  -0.00011771  1
  Fe  Fe45  1  0.87667430  0.37529834  0.62507874  1
  Fe  Fe46  1  0.62557769  0.37697670  0.62263244  1
  Fe  Fe47  1  0.87678011  0.37532100  0.87614181  1
  Fe  Fe48  1  0.50027445  -0.00133825  0.49853563  1
  Fe  Fe49  1  0.37460525  0.87424812  0.87655212  1
  Fe  Fe50  1  0.75407487  -0.00026443  0.50104500  1
  Fe  Fe51  1  0.49643700  0.74930384  0.24650166  1
  Fe  Fe52  1  0.00262122  0.25099203  0.49662456  1
  Fe  Fe53  1  0.74912418  0.25012721  0.74956429  1
  Fe  Fe54  1  0.62572189  0.12500817  0.37385581  1
  Fe  Fe55  1  0.12387989  0.12275105  0.62228473  1
  Fe  Fe56  1  0.37545362  0.62533801  0.62376687  1
  Fe  Fe57  1  0.62412666  0.12366708  0.62525018  1
  Fe  Fe58  1  0.37286426  0.63033928  0.37826437  1
  Fe  Fe59  1  0.62265180  0.12627423  0.87483825  1
  Fe  Fe60  1  0.37355162  0.37446826  0.37491134  1
  Fe  Fe61  1  0.62344442  0.37826363  0.12854521  1
  Fe  Fe62  1  0.12195434  0.62416493  0.62124394  1
  Fe  Fe63  1  0.12568947  0.62625932  0.87441373  1
  Fe  Fe64  1  0.50026453  0.75101676  0.74952366  1
  Fe  Fe65  1  0.25080591  0.50417018  0.25251693  1
  Fe  Fe66  1  0.37312068  0.12342057  0.12604422  1
  Fe  Fe67  1  0.24839633  0.75289346  0.00249225  1
  Fe  Fe68  1  0.24878687  0.25168946  -0.00187049  1
  Fe  Fe69  1  0.12536891  0.12339697  0.87421770  1
  Fe  Fe70  1  0.62631455  0.87478433  0.87611825  1
  Fe  Fe71  1  0.50112310  0.00137446  0.00157857  1
  Fe  Fe72  1  0.24802794  -0.00202816  0.00066613  1
  Fe  Fe73  1  0.00132421  0.75318460  -0.00141262  1
  Fe  Fe74  1  0.00489253  -0.00283185  0.25340416  1
  Fe  Fe75  1  0.62274062  0.37447024  0.87653238  1
  Fe  Fe76  1  0.87532324  0.62619666  0.87763370  1
  Fe  Fe77  1  -0.00101245  0.75060773  0.75113433  1
  Fe  Fe78  1  0.87531033  0.12482595  0.87551308  1
  Fe  Fe79  1  0.49855783  0.50165572  0.49777339  1
  Fe  Fe80  1  0.12573152  0.12366486  0.12736918  1
  Fe  Fe81  1  0.37399115  0.37527839  0.62589264  1
  Fe  Fe82  1  0.75100232  0.24861460  0.49925610  1
  Fe  Fe83  1  0.37496220  0.12493107  0.62541386  1
  Fe  Fe84  1  0.50157996  0.74877932  0.00384967  1
  Fe  Fe85  1  0.62600189  0.62275384  0.37010058  1
  Fe  Fe86  1  0.24966803  0.75117825  0.74734877  1
  Fe  Fe87  1  0.24674473  0.24794368  0.25168022  1
  Fe  Fe88  1  0.75247081  0.00056954  0.74903599  1
  Fe  Fe89  1  0.12140760  0.87457707  0.62260507  1
  Co  Co90  1  0.49333409  0.50237458  0.25159772  1
  Co  Co91  1  0.37160833  0.62429657  0.12171976  1
  Co  Co92  1  0.00070058  0.24830019  0.25042977  1
  Co  Co93  1  0.12282013  0.37537474  0.87466339  1
  Co  Co94  1  0.24843502  -0.00355904  0.25257807  1
  Co  Co95  1  -0.00264336  0.74844567  0.25429588  1
  Co  Co96  1  0.25001227  0.75192195  0.50455770  1
  Co  Co97  1  -0.00079828  0.50236201  0.75163256  1
  Co  Co98  1  0.75590855  0.50045534  0.24811849  1
  Co  Co99  1  -0.00440728  0.75317107  0.49654378  1
  Co  Co100  1  0.12410558  0.87250161  0.12778317  1
  Co  Co101  1  0.62487952  0.87397333  0.12667938  1
  Co  Co102  1  0.12542277  0.37723099  0.37155063  1
  Co  Co103  1  0.37448477  0.87734745  0.12340501  1
  Co  Co104  1  0.37688700  0.37283834  0.87452811  1
  Co  Co105  1  0.75243056  0.74764500  0.24924565  1
  Co  Co106  1  0.50210871  0.25128573  0.74693702  1
  Co  Co107  1  0.87336258  0.87446893  0.87611604  1
  Co  Co108  1  0.50390636  0.74869559  0.49965695  1
  Co  Co109  1  0.37593841  0.87217801  0.37605163  1
  Co  Co110  1  -0.00212405  -0.00354206  0.49772174  1
  Co  Co111  1  0.49965265  0.24966712  0.00467090  1
  Co  Co112  1  0.87774040  0.12744601  0.62403220  1
  Co  Co113  1  0.87740456  0.62878111  0.12245176  1
  Co  Co114  1  0.12733694  0.86846887  0.37495263  1
  Co  Co115  1  0.12609624  0.87561954  0.87233616  1
  Co  Co116  1  0.87397968  0.62476481  0.37654095  1
  Co  Co117  1  0.25346877  0.75202306  0.24729171  1
  Co  Co118  1  -0.00092342  0.49940360  0.49624106  1
  Co  Co119  1  0.25076637  0.50034113  0.49826498  1
  Co  Co120  1  0.87398786  0.87207834  0.62579793  1
  Co  Co121  1  0.62492119  0.62272757  0.12960756  1
  Co  Co122  1  0.49923111  -0.00262764  0.75005048  1
  Co  Co123  1  0.24708291  0.25037597  0.74936284  1
  Co  Co124  1  0.74783466  0.74874455  0.00298631  1
  Co  Co125  1  0.62548067  0.12445274  0.12696995  1
  Co  Co126  1  0.12467293  0.12348857  0.37595014  1
  Co  Co127  1  0.87297657  0.87686465  0.37160813  1
