# generated using pymatgen
data_Fe45Co19
_symmetry_space_group_name_H-M   'P 1'
_cell_length_a   11.41543208
_cell_length_b   11.41645615
_cell_length_c   11.41520297
_cell_angle_alpha   89.99775770
_cell_angle_beta   90.01329757
_cell_angle_gamma   90.01558379
_symmetry_Int_Tables_number   1
_chemical_formula_structural   Fe45Co19
_chemical_formula_sum   'Fe90 Co38'
_cell_volume   1487.67230113
_cell_formula_units_Z   2
loop_
 _symmetry_equiv_pos_site_id
 _symmetry_equiv_pos_as_xyz
  1  'x, y, z'
loop_
 _atom_site_type_symbol
 _atom_site_label
 _atom_site_symmetry_multiplicity
 _atom_site_fract_x
 _atom_site_fract_y
 _atom_site_fract_z
 _atom_site_occupancy
  Fe  Fe0  1  0.37583087  0.62235961  0.12644659  1
  Fe  Fe1  1  0.12524069  0.87559517  0.37334177  1
  Fe  Fe2  1  -0.00341244  0.00098879  0.49557168  1
  Fe  Fe3  1  0.74970770  0.75071470  0.00091706  1
  Fe  Fe4  1  0.50241827  -0.00046733  0.50264896  1
  Fe  Fe5  1  0.87544317  0.37438096  0.37414235  1
  Fe  Fe6  1  0.00380017  0.25038618  0.50103920  1
  Fe  Fe7  1  0.74815598  0.50015016  0.49759474  1
  Fe  Fe8  1  0.12903498  0.87978833  0.12746423  1
  Fe  Fe9  1  0.87639256  0.37440031  0.12408012  1
  Fe  Fe10  1  0.12442331  0.62366191  0.62671954  1
  Fe  Fe11  1  0.49981336  0.49804473  0.75125002  1
  Fe  Fe12  1  0.37203193  0.12349718  0.12446830  1
  Fe  Fe13  1  0.74898785  0.49950830  0.00038683  1
  Fe  Fe14  1  0.24938763  0.74725367  0.49980062  1
  Fe  Fe15  1  0.37680836  0.62412246  0.62620740  1
  Fe  Fe16  1  0.49881835  0.25274426  0.74577535  1
  Fe  Fe17  1  0.37491258  0.12759284  0.37779971  1
  Fe  Fe18  1  0.49729459  0.75110154  0.00002257  1
  Fe  Fe19  1  0.74862006  0.74705404  0.49971315  1
  Fe  Fe20  1  0.37465659  0.87292415  0.37571245  1
  Fe  Fe21  1  0.25084287  0.74907262  0.25100772  1
  Fe  Fe22  1  0.87645387  0.37641517  0.62432766  1
  Fe  Fe23  1  0.12366887  0.87613002  0.62338165  1
  Fe  Fe24  1  0.75326057  0.00197138  0.25419792  1
  Fe  Fe25  1  0.00348077  0.00282840  0.00258095  1
  Fe  Fe26  1  0.87577088  0.87559835  0.12528308  1
  Fe  Fe27  1  0.61933727  0.37453997  0.12419584  1
  Fe  Fe28  1  0.49700711  -0.00034892  0.00044147  1
  Fe  Fe29  1  0.62678785  0.87489081  0.37584868  1
  Fe  Fe30  1  0.00191573  0.25146036  0.74727923  1
  Fe  Fe31  1  0.24922198  -0.00103446  0.74883243  1
  Fe  Fe32  1  0.00033488  0.75016841  0.25040486  1
  Fe  Fe33  1  0.50162352  -0.00160861  0.74714660  1
  Fe  Fe34  1  0.87608033  0.62414118  0.12508341  1
  Fe  Fe35  1  0.74981517  0.49892497  0.75105093  1
  Fe  Fe36  1  0.24993119  0.75089583  0.75040289  1
  Fe  Fe37  1  0.74879468  0.25172264  0.74814868  1
  Fe  Fe38  1  0.12596602  0.12444582  0.37320469  1
  Fe  Fe39  1  0.74962816  0.74928644  0.74857934  1
  Fe  Fe40  1  0.25240747  0.25152713  0.25104896  1
  Fe  Fe41  1  0.62381471  0.62621005  0.87439660  1
  Fe  Fe42  1  0.87506185  0.12577166  0.62393779  1
  Fe  Fe43  1  0.50120107  0.74741489  0.50035638  1
  Fe  Fe44  1  0.00296351  0.25031602  0.25002187  1
  Fe  Fe45  1  0.62308926  0.12649528  0.87473999  1
  Fe  Fe46  1  0.74883958  -0.00020803  -0.00075095  1
  Fe  Fe47  1  0.62422859  0.87676107  0.12666323  1
  Fe  Fe48  1  0.37529388  0.87440077  0.62526840  1
  Fe  Fe49  1  0.74816756  -0.00026427  0.74772833  1
  Fe  Fe50  1  0.49716259  0.00095332  0.25053808  1
  Fe  Fe51  1  0.74772653  0.49924757  0.25073514  1
  Fe  Fe52  1  0.37396359  0.12656403  0.87217562  1
  Fe  Fe53  1  0.87666485  0.87442809  0.87682223  1
  Fe  Fe54  1  0.24889335  0.49875030  0.75041730  1
  Fe  Fe55  1  0.25058813  0.00108324  0.50005026  1
  Fe  Fe56  1  0.24849834  0.25151403  0.74273977  1
  Fe  Fe57  1  -0.00026957  -0.00051282  0.75014645  1
  Fe  Fe58  1  0.87752609  0.37440664  0.87747666  1
  Fe  Fe59  1  0.49949187  0.74969551  0.25072176  1
  Fe  Fe60  1  0.25165871  0.75225438  -0.00087322  1
  Fe  Fe61  1  0.49724156  0.25173570  0.50312492  1
  Fe  Fe62  1  0.00072676  0.74747950  0.49794091  1
  Fe  Fe63  1  0.12630536  0.12667296  0.87500239  1
  Fe  Fe64  1  0.12357337  0.37666015  0.87571047  1
  Fe  Fe65  1  0.12646313  0.62326891  0.12260457  1
  Fe  Fe66  1  0.13217478  0.37756451  0.37946960  1
  Fe  Fe67  1  0.49840593  0.50104462  0.49601683  1
  Fe  Fe68  1  0.87364084  0.87532238  0.62231151  1
  Fe  Fe69  1  0.00075438  0.74916884  0.75106510  1
  Fe  Fe70  1  0.62249310  0.62372220  0.12542855  1
  Fe  Fe71  1  0.74705288  0.24962667  0.24852894  1
  Fe  Fe72  1  0.37338746  0.62388028  0.87563037  1
  Fe  Fe73  1  0.00232301  0.49917001  0.25084496  1
  Fe  Fe74  1  0.37905347  0.37723337  0.12567251  1
  Fe  Fe75  1  0.12544867  0.87425497  0.87630434  1
  Fe  Fe76  1  0.62417418  0.12627021  0.37573862  1
  Fe  Fe77  1  0.87504318  0.62275854  0.62471416  1
  Fe  Fe78  1  0.00124109  0.50177200  0.49837709  1
  Fe  Fe79  1  0.75064575  0.74865831  0.25082499  1
  Fe  Fe80  1  0.74817181  0.24873738  0.00166436  1
  Fe  Fe81  1  0.25129981  0.25202507  -0.00040795  1
  Fe  Fe82  1  0.62225175  0.37283115  0.87769321  1
  Fe  Fe83  1  0.87634863  0.12675150  0.12613738  1
  Fe  Fe84  1  0.62142387  0.37291657  0.37338524  1
  Fe  Fe85  1  0.87542147  0.12606360  0.87532608  1
  Fe  Fe86  1  0.12511787  0.37497844  0.12253086  1
  Fe  Fe87  1  0.87818656  0.62572896  0.87792605  1
  Fe  Fe88  1  0.62250908  0.87277598  0.87363191  1
  Fe  Fe89  1  0.74903991  0.25031967  0.50120701  1
  Co  Co90  1  0.00228672  0.75161624  0.00229261  1
  Co  Co91  1  0.12962922  0.12494261  0.12693369  1
  Co  Co92  1  0.25409831  0.00129380  0.25469253  1
  Co  Co93  1  0.49830135  0.74902660  0.74958551  1
  Co  Co94  1  0.62598555  0.87215797  0.62482316  1
  Co  Co95  1  0.25046987  0.49880639  0.24833879  1
  Co  Co96  1  0.62406182  0.37748706  0.62392580  1
  Co  Co97  1  -0.00205148  0.00117998  0.25074793  1
  Co  Co98  1  0.62388530  0.62255007  0.62599041  1
  Co  Co99  1  0.49919497  0.50084486  -0.00300653  1
  Co  Co100  1  0.25197655  0.50671931  0.50001785  1
  Co  Co101  1  0.87535105  0.62333080  0.37272668  1
  Co  Co102  1  0.12253806  0.12060060  0.62446373  1
  Co  Co103  1  0.37552328  0.12296552  0.62650127  1
  Co  Co104  1  0.25099756  -0.00037079  -0.00250295  1
  Co  Co105  1  0.12602607  0.62416500  0.37276957  1
  Co  Co106  1  0.37578462  0.87621469  0.87249534  1
  Co  Co107  1  0.49781572  0.24738173  0.24908678  1
  Co  Co108  1  0.25162221  0.49688070  0.00020879  1
  Co  Co109  1  0.24924439  0.24562719  0.50455716  1
  Co  Co110  1  0.12627349  0.62456640  0.87728177  1
  Co  Co111  1  0.62530644  0.12717649  0.62482063  1
  Co  Co112  1  0.49820031  0.24642694  0.00212632  1
  Co  Co113  1  0.37125594  0.37436038  0.37747965  1
  Co  Co114  1  0.00119004  0.24805242  0.00057041  1
  Co  Co115  1  0.37202955  0.37778615  0.62164430  1
  Co  Co116  1  0.62570849  0.62581948  0.37337726  1
  Co  Co117  1  0.49942069  0.49996922  0.25462950  1
  Co  Co118  1  0.37312611  0.87554617  0.12724221  1
  Co  Co119  1  0.00000372  0.50039639  0.75143668  1
  Co  Co120  1  0.37272695  0.62562202  0.37230616  1
  Co  Co121  1  0.75016032  0.00264236  0.49916546  1
  Co  Co122  1  0.87425577  0.87101727  0.37594170  1
  Co  Co123  1  -0.00001089  0.50023551  0.00008582  1
  Co  Co124  1  0.62519546  0.12171574  0.12585737  1
  Co  Co125  1  0.37525914  0.37256759  0.87345975  1
  Co  Co126  1  0.12654791  0.37971965  0.62193570  1
  Co  Co127  1  0.87542956  0.13145580  0.37472486  1
