# generated using pymatgen
data_Fe45Co19
_symmetry_space_group_name_H-M   'P 1'
_cell_length_a   11.41513252
_cell_length_b   11.41489922
_cell_length_c   11.41427402
_cell_angle_alpha   90.00323104
_cell_angle_beta   90.00387708
_cell_angle_gamma   90.00127939
_symmetry_Int_Tables_number   1
_chemical_formula_structural   Fe45Co19
_chemical_formula_sum   'Fe90 Co38'
_cell_volume   1487.30943146
_cell_formula_units_Z   2
loop_
 _symmetry_equiv_pos_site_id
 _symmetry_equiv_pos_as_xyz
  1  'x, y, z'
loop_
 _atom_site_type_symbol
 _atom_site_label
 _atom_site_symmetry_multiplicity
 _atom_site_fract_x
 _atom_site_fract_y
 _atom_site_fract_z
 _atom_site_occupancy
  Fe  Fe0  1  0.74923041  0.50152232  0.50112613  1
  Fe  Fe1  1  0.50123617  0.25077049  0.00060840  1
  Fe  Fe2  1  0.12533826  0.37413825  0.87599297  1
  Fe  Fe3  1  0.87624142  0.62593908  0.62535365  1
  Fe  Fe4  1  0.74839990  0.74824557  0.24971584  1
  Fe  Fe5  1  0.37557135  0.62784270  0.12495670  1
  Fe  Fe6  1  0.75054495  0.00222327  0.49739053  1
  Fe  Fe7  1  0.62552875  0.87588454  0.37399078  1
  Fe  Fe8  1  0.50207383  0.50121890  0.50092933  1
  Fe  Fe9  1  0.87349697  0.37328165  0.37477009  1
  Fe  Fe10  1  0.25155171  0.74986395  -0.00226905  1
  Fe  Fe11  1  0.24928064  0.74930647  0.49853248  1
  Fe  Fe12  1  0.87147718  0.37242233  0.12464435  1
  Fe  Fe13  1  0.87295483  0.37326817  0.62557116  1
  Fe  Fe14  1  0.12837382  0.87326235  0.12736297  1
  Fe  Fe15  1  0.24623938  0.24751841  0.49959037  1
  Fe  Fe16  1  0.75410404  0.00294060  0.25235350  1
  Fe  Fe17  1  0.50199336  0.75187363  -0.00024332  1
  Fe  Fe18  1  0.62761359  0.87810462  0.87806840  1
  Fe  Fe19  1  0.12441422  0.62575539  0.62455615  1
  Fe  Fe20  1  0.62691493  0.37312438  0.62568973  1
  Fe  Fe21  1  0.62712473  0.37561261  0.87520134  1
  Fe  Fe22  1  -0.00112256  0.75250281  0.24908305  1
  Fe  Fe23  1  0.24958595  0.00196385  0.49692693  1
  Fe  Fe24  1  0.24870062  0.24763285  0.00263369  1
  Fe  Fe25  1  -0.00030385  0.24853534  0.00192247  1
  Fe  Fe26  1  0.74844120  0.24395415  0.75228735  1
  Fe  Fe27  1  0.62530073  0.12331411  0.12656461  1
  Fe  Fe28  1  0.87644732  0.12199806  0.62662655  1
  Fe  Fe29  1  0.50212050  0.00048951  0.74970972  1
  Fe  Fe30  1  0.37384723  0.87409807  0.62541151  1
  Fe  Fe31  1  0.87414458  0.87610737  0.62367900  1
  Fe  Fe32  1  0.62668850  0.37584953  0.37441964  1
  Fe  Fe33  1  0.50195086  0.25260902  0.24862536  1
  Fe  Fe34  1  0.62446317  0.62696502  0.62727767  1
  Fe  Fe35  1  0.25262377  0.00148862  0.00563703  1
  Fe  Fe36  1  0.87000826  0.87404328  0.12250221  1
  Fe  Fe37  1  0.50131704  0.50013254  -0.00026787  1
  Fe  Fe38  1  0.49979476  0.49902798  0.75060050  1
  Fe  Fe39  1  -0.00133787  0.00046721  0.00395574  1
  Fe  Fe40  1  0.12253795  0.12501247  0.13402254  1
  Fe  Fe41  1  0.49771460  -0.00244244  0.00435796  1
  Fe  Fe42  1  -0.00086777  0.49830581  0.74976893  1
  Fe  Fe43  1  0.00103493  0.49899042  0.00205953  1
  Fe  Fe44  1  0.50115275  0.24881124  0.49934432  1
  Fe  Fe45  1  0.74881168  0.50164054  0.24866642  1
  Fe  Fe46  1  0.37531586  0.12443560  0.62495137  1
  Fe  Fe47  1  0.37476487  0.87273703  0.37383914  1
  Fe  Fe48  1  0.87649724  0.62763278  0.12189746  1
  Fe  Fe49  1  0.25004200  0.00011069  0.75028898  1
  Fe  Fe50  1  0.49610574  -0.00229257  0.24668789  1
  Fe  Fe51  1  0.50321864  0.75075153  0.24924772  1
  Fe  Fe52  1  0.37214344  0.37550808  0.62327916  1
  Fe  Fe53  1  0.37353646  0.37450066  0.12406496  1
  Fe  Fe54  1  0.75219187  0.74894253  0.75440966  1
  Fe  Fe55  1  0.24941703  0.50137505  0.75071332  1
  Fe  Fe56  1  0.24788648  0.50165288  0.00229675  1
  Fe  Fe57  1  0.12557466  0.87610937  0.62415512  1
  Fe  Fe58  1  0.50042065  0.24917107  0.75072238  1
  Fe  Fe59  1  0.24815876  0.24824140  0.74839494  1
  Fe  Fe60  1  0.74843268  0.74894309  0.49843698  1
  Fe  Fe61  1  0.12199742  0.62511330  0.37410920  1
  Fe  Fe62  1  0.87582683  0.62648060  0.37543633  1
  Fe  Fe63  1  -0.00098001  -0.00034619  0.49562971  1
  Fe  Fe64  1  0.37729340  0.62525805  0.37571882  1
  Fe  Fe65  1  0.50301095  0.49952692  0.24786187  1
  Fe  Fe66  1  0.12249463  0.62668350  0.87662277  1
  Fe  Fe67  1  0.12289980  0.12279275  0.87446541  1
  Fe  Fe68  1  0.49666860  0.75143044  0.75351851  1
  Fe  Fe69  1  0.87297303  0.87860685  0.87777629  1
  Fe  Fe70  1  0.74974847  0.50437175  -0.00258778  1
  Fe  Fe71  1  0.24834115  0.50134853  0.24783722  1
  Fe  Fe72  1  0.12715278  0.87667019  0.87638441  1
  Fe  Fe73  1  0.37440302  0.12620712  0.37193150  1
  Fe  Fe74  1  0.74849625  0.24497159  0.49650598  1
  Fe  Fe75  1  0.50017281  -0.00073594  0.50018193  1
  Fe  Fe76  1  0.12553967  0.37520731  0.37440027  1
  Fe  Fe77  1  -0.00056934  0.49871731  0.50083934  1
  Fe  Fe78  1  0.62601736  0.87472951  0.62502004  1
  Fe  Fe79  1  0.37391157  0.62654033  0.62423347  1
  Fe  Fe80  1  0.87452326  0.37438469  0.87414517  1
  Fe  Fe81  1  0.00026496  0.49834180  0.24635729  1
  Fe  Fe82  1  0.00357703  0.24822760  0.50074584  1
  Fe  Fe83  1  0.12559650  0.87601278  0.37223222  1
  Fe  Fe84  1  0.00246229  0.24932976  0.74814582  1
  Fe  Fe85  1  0.37234546  0.37483521  0.87614490  1
  Fe  Fe86  1  0.37625677  0.12326071  0.87641939  1
  Fe  Fe87  1  0.37428543  0.37622591  0.37591693  1
  Fe  Fe88  1  0.00018705  0.75364032  0.75164955  1
  Fe  Fe89  1  0.75104261  0.24378368  -0.00091912  1
  Co  Co90  1  0.00015578  -0.00439130  0.75099827  1
  Co  Co91  1  0.37630820  0.12906961  0.12619621  1
  Co  Co92  1  0.63017364  0.87735964  0.12497753  1
  Co  Co93  1  0.25104886  0.25274722  0.25021394  1
  Co  Co94  1  -0.00462947  -0.00652111  0.24988369  1
  Co  Co95  1  0.37394138  0.87888109  0.87619965  1
  Co  Co96  1  0.50051363  0.75133532  0.49923565  1
  Co  Co97  1  0.62476995  0.62498146  0.37497433  1
  Co  Co98  1  0.62428907  0.62556698  0.12348717  1
  Co  Co99  1  0.12362147  0.62983830  0.12366360  1
  Co  Co100  1  0.12349348  0.11988695  0.62554627  1
  Co  Co101  1  0.62096251  0.12222919  0.87807606  1
  Co  Co102  1  0.87949157  0.62506168  0.87646599  1
  Co  Co103  1  0.75331888  0.00666205  0.00019813  1
  Co  Co104  1  0.12610934  0.37332611  0.12442358  1
  Co  Co105  1  0.74811478  0.00185175  0.75084191  1
  Co  Co106  1  0.25480108  -0.00085079  0.24803804  1
  Co  Co107  1  0.62894487  0.37509355  0.12274006  1
  Co  Co108  1  0.24916265  0.50200807  0.49797412  1
  Co  Co109  1  0.74757136  0.24804385  0.25140361  1
  Co  Co110  1  0.62430552  0.12431961  0.62324048  1
  Co  Co111  1  0.88053635  0.12849036  0.37241754  1
  Co  Co112  1  -0.00058922  0.25626732  0.24924197  1
  Co  Co113  1  0.12303443  0.12317174  0.36778106  1
  Co  Co114  1  0.74833007  0.74686813  -0.00270443  1
  Co  Co115  1  0.87752795  0.12722965  0.13003382  1
  Co  Co116  1  0.24997229  0.75059027  0.75152832  1
  Co  Co117  1  0.75098193  0.50166150  0.75025560  1
  Co  Co118  1  0.88015229  0.12266569  0.87201689  1
  Co  Co119  1  0.24947048  0.74767693  0.25296804  1
  Co  Co120  1  0.00112456  0.75124972  0.49965464  1
  Co  Co121  1  0.62272449  0.62482116  0.87335879  1
  Co  Co122  1  0.12683514  0.37753352  0.62446703  1
  Co  Co123  1  0.87315517  0.87105738  0.37659648  1
  Co  Co124  1  0.37515775  0.62395515  0.87653197  1
  Co  Co125  1  0.37246080  0.86832275  0.12545023  1
  Co  Co126  1  0.62071928  0.12186800  0.37239184  1
  Co  Co127  1  -0.00046719  0.75501881  -0.00058457  1
