# generated using pymatgen
data_Fe45Co19
_symmetry_space_group_name_H-M   'P 1'
_cell_length_a   11.41520442
_cell_length_b   11.41447580
_cell_length_c   11.41444201
_cell_angle_alpha   89.99704350
_cell_angle_beta   89.99520264
_cell_angle_gamma   89.99932949
_symmetry_Int_Tables_number   1
_chemical_formula_structural   Fe45Co19
_chemical_formula_sum   'Fe90 Co38'
_cell_volume   1487.28551631
_cell_formula_units_Z   2
loop_
 _symmetry_equiv_pos_site_id
 _symmetry_equiv_pos_as_xyz
  1  'x, y, z'
loop_
 _atom_site_type_symbol
 _atom_site_label
 _atom_site_symmetry_multiplicity
 _atom_site_fract_x
 _atom_site_fract_y
 _atom_site_fract_z
 _atom_site_occupancy
  Fe  Fe0  1  0.87901652  0.37948140  0.37940980  1
  Fe  Fe1  1  0.50068943  -0.00052065  0.24928404  1
  Fe  Fe2  1  -0.00164491  0.74976210  0.74731318  1
  Fe  Fe3  1  0.24938891  0.74855951  0.24949349  1
  Fe  Fe4  1  0.62633512  0.12671273  0.12646353  1
  Fe  Fe5  1  0.87811822  0.62311875  0.37686396  1
  Fe  Fe6  1  0.00333675  -0.00041963  0.25227667  1
  Fe  Fe7  1  0.37585039  0.37722702  0.62593016  1
  Fe  Fe8  1  0.49791993  0.74944116  0.49929996  1
  Fe  Fe9  1  0.00008445  0.24898922  -0.00236536  1
  Fe  Fe10  1  0.12375963  0.37363933  0.87292155  1
  Fe  Fe11  1  0.74786998  -0.00110051  0.74897118  1
  Fe  Fe12  1  0.49823211  0.25061029  0.74973606  1
  Fe  Fe13  1  0.62766678  0.62663440  0.12577731  1
  Fe  Fe14  1  0.24432734  0.49677759  0.50032262  1
  Fe  Fe15  1  0.50388451  0.49816024  0.49961460  1
  Fe  Fe16  1  -0.00323560  0.24713763  0.74841103  1
  Fe  Fe17  1  0.62222475  0.37431130  0.13002952  1
  Fe  Fe18  1  0.50067804  -0.00146348  0.00206352  1
  Fe  Fe19  1  0.12539542  0.87257772  0.62357189  1
  Fe  Fe20  1  0.37301105  0.62364298  0.62372861  1
  Fe  Fe21  1  0.62512574  0.62618419  0.87489829  1
  Fe  Fe22  1  0.62454963  0.37417083  0.87309429  1
  Fe  Fe23  1  0.75147834  0.74846247  0.50031593  1
  Fe  Fe24  1  0.87547203  0.12376176  0.12474251  1
  Fe  Fe25  1  0.87626616  0.37667846  0.87350690  1
  Fe  Fe26  1  0.62608897  0.87222715  0.12437361  1
  Fe  Fe27  1  0.87501297  0.12272429  0.37669019  1
  Fe  Fe28  1  0.12527479  0.87204506  0.37844661  1
  Fe  Fe29  1  0.37406631  0.12205690  0.87426313  1
  Fe  Fe30  1  0.62604546  0.12709011  0.37358799  1
  Fe  Fe31  1  0.50166214  0.50033361  0.00113687  1
  Fe  Fe32  1  0.62685128  0.12520373  0.87485678  1
  Fe  Fe33  1  0.25161124  0.25519897  0.24908598  1
  Fe  Fe34  1  0.62584012  0.87297556  0.37544550  1
  Fe  Fe35  1  0.37433200  0.87479379  0.62410857  1
  Fe  Fe36  1  0.87574816  0.62300693  0.87270101  1
  Fe  Fe37  1  0.50134910  -0.00217709  0.74855497  1
  Fe  Fe38  1  0.74993606  -0.00125410  0.25067116  1
  Fe  Fe39  1  0.12547467  0.12268210  0.87283578  1
  Fe  Fe40  1  0.74703884  0.49830399  0.74860769  1
  Fe  Fe41  1  0.75277618  0.25221296  0.25170959  1
  Fe  Fe42  1  0.12394377  0.62671703  0.87582539  1
  Fe  Fe43  1  0.37241596  0.62481491  0.12406767  1
  Fe  Fe44  1  0.24892036  -0.00231900  0.00075633  1
  Fe  Fe45  1  0.50092563  -0.00017998  0.49964052  1
  Fe  Fe46  1  0.37319530  0.87647994  0.37273015  1
  Fe  Fe47  1  0.87521152  0.87719812  0.62117747  1
  Fe  Fe48  1  0.87434364  0.12136507  0.87656413  1
  Fe  Fe49  1  0.37613892  0.37904789  0.36982775  1
  Fe  Fe50  1  0.24824492  0.50036095  0.74897724  1
  Fe  Fe51  1  0.87700193  0.87505129  0.12485081  1
  Fe  Fe52  1  0.88063725  0.62531923  0.12649910  1
  Fe  Fe53  1  0.87481093  0.37836945  0.62332236  1
  Fe  Fe54  1  0.87661456  0.87953502  0.87637838  1
  Fe  Fe55  1  0.25320275  0.24918725  0.74899980  1
  Fe  Fe56  1  0.49977093  0.74893621  0.74982579  1
  Fe  Fe57  1  -0.00138311  0.25113302  0.25246695  1
  Fe  Fe58  1  0.12361991  0.87106443  0.12382072  1
  Fe  Fe59  1  0.87963046  0.37646035  0.12396342  1
  Fe  Fe60  1  0.62645012  0.62569829  0.37428683  1
  Fe  Fe61  1  0.12533350  0.12746835  0.12624006  1
  Fe  Fe62  1  0.25065649  0.25278889  0.00112741  1
  Fe  Fe63  1  0.62550337  0.62541320  0.62490096  1
  Fe  Fe64  1  0.24453926  0.49882524  0.00426317  1
  Fe  Fe65  1  0.25183131  0.75049251  0.75206882  1
  Fe  Fe66  1  0.75153083  0.50017318  0.25134604  1
  Fe  Fe67  1  0.12259551  0.87624616  0.87481005  1
  Fe  Fe68  1  0.75261114  0.75016508  -0.00129557  1
  Fe  Fe69  1  0.49829773  0.25182862  0.49837510  1
  Fe  Fe70  1  0.37487095  0.62432592  0.87734439  1
  Fe  Fe71  1  0.49798165  0.25014086  0.00138007  1
  Fe  Fe72  1  0.24951061  0.00096875  0.50128808  1
  Fe  Fe73  1  0.37252023  0.12311907  0.37358973  1
  Fe  Fe74  1  0.74999781  0.75269152  0.74964632  1
  Fe  Fe75  1  0.00395125  0.50217781  0.74480388  1
  Fe  Fe76  1  0.12714085  0.13037432  0.37750236  1
  Fe  Fe77  1  0.74877913  0.25352086  0.49931346  1
  Fe  Fe78  1  0.12347723  0.62566285  0.37546898  1
  Fe  Fe79  1  0.37648698  0.87414602  0.87720872  1
  Fe  Fe80  1  0.75023587  0.25120016  -0.00019479  1
  Fe  Fe81  1  0.37508059  0.37770157  0.87580744  1
  Fe  Fe82  1  0.37240779  0.62200730  0.37507338  1
  Fe  Fe83  1  0.12715617  0.12789382  0.62372996  1
  Fe  Fe84  1  0.87565838  0.87586804  0.37744820  1
  Fe  Fe85  1  0.75119191  0.49915561  0.00082683  1
  Fe  Fe86  1  0.62499822  0.12668772  0.62432961  1
  Fe  Fe87  1  0.49859971  0.74825223  0.24959956  1
  Fe  Fe88  1  0.37244866  0.12287305  0.12666916  1
  Fe  Fe89  1  0.87352142  0.12208328  0.62139372  1
  Co  Co90  1  0.49604046  0.24649841  0.25058125  1
  Co  Co91  1  0.24491335  -0.00142574  0.25049575  1
  Co  Co92  1  0.00308867  0.49899318  0.25198946  1
  Co  Co93  1  0.00002318  0.75263561  0.25340160  1
  Co  Co94  1  0.75262036  0.74934218  0.25115542  1
  Co  Co95  1  0.12478772  0.36931653  0.62565160  1
  Co  Co96  1  0.74918553  -0.00039167  0.00154750  1
  Co  Co97  1  0.00137389  0.50056227  -0.00234931  1
  Co  Co98  1  -0.00286614  0.74926424  -0.00374475  1
  Co  Co99  1  0.00028328  0.00099903  0.74586598  1
  Co  Co100  1  0.24999746  -0.00170389  0.74837671  1
  Co  Co101  1  0.00413985  0.00148000  0.49854715  1
  Co  Co102  1  0.50007771  0.50170606  0.75009347  1
  Co  Co103  1  0.50114299  0.50624483  0.24925128  1
  Co  Co104  1  0.87130270  0.62239119  0.62537218  1
  Co  Co105  1  0.37605035  0.12348388  0.62501651  1
  Co  Co106  1  0.74585543  0.49952153  0.49852144  1
  Co  Co107  1  0.75331541  0.24924115  0.74947957  1
  Co  Co108  1  0.74683782  0.00025883  0.49855337  1
  Co  Co109  1  -0.00229416  0.74647594  0.50243683  1
  Co  Co110  1  0.25283739  0.74998805  0.49812376  1
  Co  Co111  1  0.24367029  0.49972209  0.24745501  1
  Co  Co112  1  0.00257325  0.00142289  0.00310913  1
  Co  Co113  1  0.62487567  0.37315570  0.62704424  1
  Co  Co114  1  0.50008646  0.74873685  0.00205556  1
  Co  Co115  1  0.62408139  0.87395819  0.87694518  1
  Co  Co116  1  0.24880502  0.75002561  -0.00054475  1
  Co  Co117  1  0.12250079  0.37182307  0.37679852  1
  Co  Co118  1  -0.00326737  0.24950499  0.50187021  1
  Co  Co119  1  0.62531320  0.87286935  0.62261637  1
  Co  Co120  1  0.11970823  0.37294528  0.12515835  1
  Co  Co121  1  0.62279838  0.37456179  0.36917919  1
  Co  Co122  1  0.00590982  0.50340544  0.50512851  1
  Co  Co123  1  0.37772551  0.37811172  0.12711354  1
  Co  Co124  1  0.25600685  0.25285534  0.49992665  1
  Co  Co125  1  0.37345021  0.87434133  0.12719373  1
  Co  Co126  1  0.12991552  0.63075862  0.62485272  1
  Co  Co127  1  0.11961421  0.62846795  0.12493444  1
