# generated using pymatgen
data_Fe45Co19
_symmetry_space_group_name_H-M   'P 1'
_cell_length_a   11.41450707
_cell_length_b   11.41382486
_cell_length_c   11.41448514
_cell_angle_alpha   89.99527206
_cell_angle_beta   90.00880428
_cell_angle_gamma   90.01300041
_symmetry_Int_Tables_number   1
_chemical_formula_structural   Fe45Co19
_chemical_formula_sum   'Fe90 Co38'
_cell_volume   1487.11541489
_cell_formula_units_Z   2
loop_
 _symmetry_equiv_pos_site_id
 _symmetry_equiv_pos_as_xyz
  1  'x, y, z'
loop_
 _atom_site_type_symbol
 _atom_site_label
 _atom_site_symmetry_multiplicity
 _atom_site_fract_x
 _atom_site_fract_y
 _atom_site_fract_z
 _atom_site_occupancy
  Fe  Fe0  1  0.75175806  0.25214628  0.24847260  1
  Fe  Fe1  1  0.74994973  0.24859290  0.75089292  1
  Fe  Fe2  1  0.49730437  0.00454215  0.74940554  1
  Fe  Fe3  1  0.50012019  0.49818764  0.50010488  1
  Fe  Fe4  1  0.24990908  0.49792502  0.74603018  1
  Fe  Fe5  1  0.50053720  0.00225403  0.24990022  1
  Fe  Fe6  1  0.12620139  0.87885598  0.62429831  1
  Fe  Fe7  1  0.12506676  0.12336901  0.37769046  1
  Fe  Fe8  1  0.74830660  0.25355392  0.00034704  1
  Fe  Fe9  1  0.62007294  0.37038921  0.62920891  1
  Fe  Fe10  1  0.87403367  0.87489258  0.62734202  1
  Fe  Fe11  1  0.87403921  0.62432520  0.12407349  1
  Fe  Fe12  1  0.25169797  0.50036215  0.25036376  1
  Fe  Fe13  1  0.74706848  0.74848647  0.50452880  1
  Fe  Fe14  1  0.87275586  0.62234157  0.86918531  1
  Fe  Fe15  1  0.25154620  0.49799507  0.00024099  1
  Fe  Fe16  1  0.62435288  0.87480669  0.12505633  1
  Fe  Fe17  1  0.62583196  0.12606578  0.12500798  1
  Fe  Fe18  1  0.74819132  -0.00226268  -0.00150915  1
  Fe  Fe19  1  0.49912779  0.49924904  0.75088541  1
  Fe  Fe20  1  0.74866340  0.25042453  0.50088145  1
  Fe  Fe21  1  0.50053617  0.00349982  0.50071395  1
  Fe  Fe22  1  0.13095214  0.12477508  0.87764078  1
  Fe  Fe23  1  0.37320607  0.13130799  0.62156433  1
  Fe  Fe24  1  0.36998091  0.12485025  0.87859400  1
  Fe  Fe25  1  0.37763857  0.62337619  0.12360362  1
  Fe  Fe26  1  0.87360730  0.12500693  0.87678955  1
  Fe  Fe27  1  -0.00334170  0.49863448  0.50518151  1
  Fe  Fe28  1  0.87632362  0.12528197  0.12317876  1
  Fe  Fe29  1  0.50057329  0.75001900  0.75024353  1
  Fe  Fe30  1  0.12069195  0.37052179  0.62757875  1
  Fe  Fe31  1  0.00063701  0.75130989  0.50118712  1
  Fe  Fe32  1  0.00196768  0.74770856  0.74857873  1
  Fe  Fe33  1  0.75164736  0.49723197  0.50866306  1
  Fe  Fe34  1  0.87416184  0.87489575  0.87136711  1
  Fe  Fe35  1  0.50102694  0.25100535  -0.00210698  1
  Fe  Fe36  1  0.37449560  0.37294667  0.87293612  1
  Fe  Fe37  1  0.12376103  0.87497298  0.12694100  1
  Fe  Fe38  1  0.12516712  0.62228236  0.12499630  1
  Fe  Fe39  1  0.87340623  0.62392554  0.37827726  1
  Fe  Fe40  1  -0.00095852  0.25226044  0.24971009  1
  Fe  Fe41  1  0.50173379  0.74968201  -0.00293123  1
  Fe  Fe42  1  0.24892890  0.75253651  -0.00085989  1
  Fe  Fe43  1  0.37699561  0.87606078  0.12364978  1
  Fe  Fe44  1  0.37501171  0.87834350  0.87527791  1
  Fe  Fe45  1  0.87427783  0.12649131  0.37616231  1
  Fe  Fe46  1  0.74988774  0.00249148  0.50213262  1
  Fe  Fe47  1  0.37637339  0.62555377  0.62370919  1
  Fe  Fe48  1  0.62708737  0.62211986  0.87131847  1
  Fe  Fe49  1  0.00267484  0.25143379  0.00052729  1
  Fe  Fe50  1  0.24932156  0.00010964  0.25088858  1
  Fe  Fe51  1  0.62591461  0.12409253  0.87378934  1
  Fe  Fe52  1  0.62398835  0.87746398  0.62779211  1
  Fe  Fe53  1  0.74719419  0.49581810  -0.00083815  1
  Fe  Fe54  1  0.24758699  0.25137258  0.24838411  1
  Fe  Fe55  1  0.50157346  0.74769109  0.25259270  1
  Fe  Fe56  1  0.24993514  0.74978494  0.25145602  1
  Fe  Fe57  1  0.37319069  0.62463046  0.87359284  1
  Fe  Fe58  1  0.87278068  0.87316303  0.37587039  1
  Fe  Fe59  1  0.37915355  0.37702335  0.12520958  1
  Fe  Fe60  1  0.12610694  0.12559620  0.62125801  1
  Fe  Fe61  1  0.37247356  0.12430053  0.12217548  1
  Fe  Fe62  1  0.37438536  0.62568321  0.37858454  1
  Fe  Fe63  1  0.00078213  0.00386023  0.74982893  1
  Fe  Fe64  1  0.37678230  0.87538209  0.37649577  1
  Fe  Fe65  1  0.62259975  0.62163025  0.12515193  1
  Fe  Fe66  1  0.37573679  0.37289272  0.37665648  1
  Fe  Fe67  1  0.87621718  0.12822869  0.62401927  1
  Fe  Fe68  1  -0.00051909  0.74763024  0.25243965  1
  Fe  Fe69  1  0.50120706  0.24925268  0.25140466  1
  Fe  Fe70  1  0.75102060  0.00032398  0.24976778  1
  Fe  Fe71  1  0.25059891  0.49527167  0.50383933  1
  Fe  Fe72  1  0.25061705  0.75232866  0.74814380  1
  Fe  Fe73  1  0.87444270  0.87356277  0.12500417  1
  Fe  Fe74  1  0.75220211  0.49826553  0.24827796  1
  Fe  Fe75  1  -0.00082879  -0.00071327  0.25256108  1
  Fe  Fe76  1  0.12548465  0.37499531  0.87326244  1
  Fe  Fe77  1  0.00006746  0.74908414  -0.00251747  1
  Fe  Fe78  1  0.12197394  0.37732968  0.37386965  1
  Fe  Fe79  1  0.62694920  0.62316069  0.37685189  1
  Fe  Fe80  1  0.37400432  0.12760449  0.37762039  1
  Fe  Fe81  1  0.62590252  0.87661309  0.37512223  1
  Fe  Fe82  1  0.12708805  0.62465641  0.87281119  1
  Fe  Fe83  1  0.87588550  0.37611217  0.87037871  1
  Fe  Fe84  1  0.74843577  0.75074155  -0.00291342  1
  Fe  Fe85  1  0.12485646  0.62330239  0.37838174  1
  Fe  Fe86  1  0.00262171  -0.00141226  -0.00130672  1
  Fe  Fe87  1  -0.00000001  0.50000947  -0.00175368  1
  Fe  Fe88  1  0.62604470  0.37477235  0.37382378  1
  Fe  Fe89  1  0.25116850  0.75354867  0.50099262  1
  Co  Co90  1  0.62685211  0.12480540  0.37360886  1
  Co  Co91  1  0.12446076  0.12410907  0.12513436  1
  Co  Co92  1  0.62558515  0.37402747  0.87025713  1
  Co  Co93  1  0.75225392  0.00308746  0.74939390  1
  Co  Co94  1  0.37774964  0.87392020  0.62488971  1
  Co  Co95  1  0.74762858  0.74891391  0.74890381  1
  Co  Co96  1  0.50061991  0.49910972  -0.00556519  1
  Co  Co97  1  -0.00315186  -0.00009242  0.50020516  1
  Co  Co98  1  0.00148746  0.50207120  0.74694863  1
  Co  Co99  1  0.87518998  0.62734262  0.62740843  1
  Co  Co100  1  0.87893926  0.36831069  0.63006980  1
  Co  Co101  1  0.62417916  0.87809965  0.87056614  1
  Co  Co102  1  0.00209263  0.24410482  0.75415683  1
  Co  Co103  1  0.50259746  0.75048975  0.49889311  1
  Co  Co104  1  0.37981628  0.37139478  0.62545618  1
  Co  Co105  1  0.49872972  0.50131202  0.25502290  1
  Co  Co106  1  0.49753477  0.24560860  0.75404249  1
  Co  Co107  1  0.62055111  0.62434906  0.62652355  1
  Co  Co108  1  0.24679419  -0.00447373  0.00129465  1
  Co  Co109  1  0.62086935  0.37608314  0.12678136  1
  Co  Co110  1  0.87717222  0.37526334  0.12263874  1
  Co  Co111  1  0.12563436  0.87613177  0.37688977  1
  Co  Co112  1  0.12292898  0.37876821  0.12647759  1
  Co  Co113  1  0.87340468  0.37640161  0.37716286  1
  Co  Co114  1  0.50216654  0.00197123  -0.00069357  1
  Co  Co115  1  0.62547368  0.12694345  0.62683889  1
  Co  Co116  1  0.50324271  0.24933612  0.49725092  1
  Co  Co117  1  0.24926646  0.25022670  0.74832604  1
  Co  Co118  1  0.12795075  0.62626812  0.62278504  1
  Co  Co119  1  0.75013849  0.49769326  0.74336370  1
  Co  Co120  1  0.25176830  0.00192874  0.74741018  1
  Co  Co121  1  -0.00355364  0.50186903  0.25093635  1
  Co  Co122  1  0.74885586  0.74803132  0.24966959  1
  Co  Co123  1  0.25363465  -0.00037564  0.50008728  1
  Co  Co124  1  0.24942609  0.25452012  0.00358556  1
  Co  Co125  1  0.12450626  0.87522008  0.87074566  1
  Co  Co126  1  0.00012411  0.25075020  0.49675174  1
  Co  Co127  1  0.24714648  0.25428634  0.49977964  1
