# generated using pymatgen
data_Fe45Co19
_symmetry_space_group_name_H-M   'P 1'
_cell_length_a   11.41282878
_cell_length_b   11.41386571
_cell_length_c   11.41539223
_cell_angle_alpha   89.99875591
_cell_angle_beta   90.00007930
_cell_angle_gamma   90.00804376
_symmetry_Int_Tables_number   1
_chemical_formula_structural   Fe45Co19
_chemical_formula_sum   'Fe90 Co38'
_cell_volume   1487.02029008
_cell_formula_units_Z   2
loop_
 _symmetry_equiv_pos_site_id
 _symmetry_equiv_pos_as_xyz
  1  'x, y, z'
loop_
 _atom_site_type_symbol
 _atom_site_label
 _atom_site_symmetry_multiplicity
 _atom_site_fract_x
 _atom_site_fract_y
 _atom_site_fract_z
 _atom_site_occupancy
  Fe  Fe0  1  0.00413849  0.74504128  -0.00038453  1
  Fe  Fe1  1  0.12665719  0.87496388  0.87638186  1
  Fe  Fe2  1  0.12489836  0.12472817  0.62512239  1
  Fe  Fe3  1  0.12763659  0.37710138  0.37433683  1
  Fe  Fe4  1  0.74890817  0.75011071  0.25040306  1
  Fe  Fe5  1  0.00259568  0.74791910  0.49942685  1
  Fe  Fe6  1  0.74775149  0.75125788  -0.00283919  1
  Fe  Fe7  1  0.49241672  0.50068442  -0.00222169  1
  Fe  Fe8  1  0.62351057  0.62400693  0.12361387  1
  Fe  Fe9  1  0.12439185  0.12378325  0.37608117  1
  Fe  Fe10  1  0.87516820  0.87415753  0.12147516  1
  Fe  Fe11  1  0.87629382  0.87335800  0.62531037  1
  Fe  Fe12  1  0.62541452  0.87628324  0.12462325  1
  Fe  Fe13  1  0.74758086  0.49830648  0.24993724  1
  Fe  Fe14  1  0.87594899  0.37516697  0.12445089  1
  Fe  Fe15  1  -0.00006304  0.25159061  -0.00184159  1
  Fe  Fe16  1  0.87659259  0.87480277  0.37576165  1
  Fe  Fe17  1  0.50025782  0.74982052  -0.00031211  1
  Fe  Fe18  1  0.62531280  0.12365235  0.12394007  1
  Fe  Fe19  1  0.00079507  0.25083275  0.75209673  1
  Fe  Fe20  1  0.62516043  0.87479967  0.62430033  1
  Fe  Fe21  1  0.75077812  0.50003181  -0.00162777  1
  Fe  Fe22  1  0.87347636  0.12571275  0.62481799  1
  Fe  Fe23  1  0.37531834  0.12410436  0.37617076  1
  Fe  Fe24  1  0.00144808  0.50052379  0.24797639  1
  Fe  Fe25  1  0.62425209  0.37545819  0.62597805  1
  Fe  Fe26  1  0.62458898  0.12346458  0.87542857  1
  Fe  Fe27  1  0.49903887  0.50183475  0.50226939  1
  Fe  Fe28  1  0.49921784  0.24917780  0.50177434  1
  Fe  Fe29  1  0.12669119  0.62286156  0.62685176  1
  Fe  Fe30  1  0.37253160  0.87228387  0.12273340  1
  Fe  Fe31  1  0.12472340  0.87598361  0.62412342  1
  Fe  Fe32  1  0.00043867  0.49996681  0.49965273  1
  Fe  Fe33  1  -0.00254775  0.49892698  0.75102988  1
  Fe  Fe34  1  0.00320001  0.74854944  0.75129397  1
  Fe  Fe35  1  0.87376182  0.12581314  0.87560678  1
  Fe  Fe36  1  0.00100910  0.00119730  0.75216106  1
  Fe  Fe37  1  0.74936402  0.49848938  0.49973165  1
  Fe  Fe38  1  0.87371874  0.62560331  0.12503081  1
  Fe  Fe39  1  0.74973424  -0.00130474  0.49818209  1
  Fe  Fe40  1  0.37392133  0.87149649  0.87506235  1
  Fe  Fe41  1  0.25041083  0.00147311  0.50101959  1
  Fe  Fe42  1  0.13128213  0.62295588  0.37206562  1
  Fe  Fe43  1  0.00064743  0.00123346  -0.00098578  1
  Fe  Fe44  1  0.75059128  -0.00325122  0.75421867  1
  Fe  Fe45  1  0.24961908  0.00079779  0.75130910  1
  Fe  Fe46  1  0.49931932  -0.00079594  0.25054286  1
  Fe  Fe47  1  0.87402015  0.62501762  0.37481202  1
  Fe  Fe48  1  0.87336130  0.37262297  0.37365538  1
  Fe  Fe49  1  -0.00121506  0.00239309  0.24896935  1
  Fe  Fe50  1  0.87352834  0.37360729  0.62662845  1
  Fe  Fe51  1  0.25558665  0.49916802  0.75171597  1
  Fe  Fe52  1  0.75244509  0.00112841  0.24900178  1
  Fe  Fe53  1  0.37423019  0.87622063  0.62431186  1
  Fe  Fe54  1  0.24990505  0.25065920  0.74920370  1
  Fe  Fe55  1  0.49870478  0.25076471  0.74946565  1
  Fe  Fe56  1  0.12590944  0.12543157  0.12322341  1
  Fe  Fe57  1  0.25096722  0.25024699  0.50165014  1
  Fe  Fe58  1  -0.00096634  0.24744734  0.24989049  1
  Fe  Fe59  1  0.37556893  0.12688441  0.12500311  1
  Fe  Fe60  1  0.61988250  0.62526036  0.87205565  1
  Fe  Fe61  1  0.37451736  0.37758638  0.37632127  1
  Fe  Fe62  1  0.49788336  0.00040367  0.00001985  1
  Fe  Fe63  1  0.74742774  0.75163333  0.75254387  1
  Fe  Fe64  1  0.74859869  0.25084893  0.00053721  1
  Fe  Fe65  1  0.37372256  0.12696290  0.87514482  1
  Fe  Fe66  1  0.12579688  0.87620353  0.37644194  1
  Fe  Fe67  1  0.62487668  0.12411504  0.62567752  1
  Fe  Fe68  1  0.24993387  0.25180050  0.24908990  1
  Fe  Fe69  1  0.25088373  -0.00042621  0.24837195  1
  Fe  Fe70  1  0.62564489  0.62531017  0.37652559  1
  Fe  Fe71  1  0.12606560  0.37651120  0.62485454  1
  Fe  Fe72  1  0.37543618  0.87491625  0.37743012  1
  Fe  Fe73  1  0.00248825  0.74962655  0.24945356  1
  Fe  Fe74  1  0.87272622  0.62630037  0.62471573  1
  Fe  Fe75  1  0.12604130  0.38023416  0.87875341  1
  Fe  Fe76  1  0.62092565  0.37613578  0.12439281  1
  Fe  Fe77  1  0.37536873  0.62643703  0.62841714  1
  Fe  Fe78  1  0.74883261  0.49931987  0.75139216  1
  Fe  Fe79  1  0.49846718  -0.00080306  0.75044689  1
  Fe  Fe80  1  0.62270337  0.37454844  0.87478920  1
  Fe  Fe81  1  0.50065585  0.74911123  0.50060045  1
  Fe  Fe82  1  0.87576235  0.62546914  0.87459523  1
  Fe  Fe83  1  0.62723720  0.12654176  0.37498021  1
  Fe  Fe84  1  0.49698986  0.50223294  0.24992808  1
  Fe  Fe85  1  0.12836027  0.87366843  0.12299997  1
  Fe  Fe86  1  -0.00079575  0.24982039  0.50019345  1
  Fe  Fe87  1  0.25104138  0.25273308  0.00157397  1
  Fe  Fe88  1  0.50126530  0.25060933  0.25058228  1
  Fe  Fe89  1  0.49918609  0.74925571  0.25143033  1
  Co  Co90  1  0.62669932  0.62452571  0.62616360  1
  Co  Co91  1  0.87287770  0.12642432  0.37716462  1
  Co  Co92  1  0.24928201  0.74928176  0.50177700  1
  Co  Co93  1  -0.00094841  0.00079845  0.50065203  1
  Co  Co94  1  0.74983237  0.75090008  0.49862825  1
  Co  Co95  1  0.37485566  0.37434944  0.62396061  1
  Co  Co96  1  0.62074779  0.87555927  0.87600334  1
  Co  Co97  1  0.25368747  0.49638175  0.24344905  1
  Co  Co98  1  0.12297060  0.37519926  0.12359364  1
  Co  Co99  1  0.25224722  0.00127036  -0.00013369  1
  Co  Co100  1  0.62196666  0.37569801  0.37530026  1
  Co  Co101  1  0.87489060  0.12534739  0.12123722  1
  Co  Co102  1  0.24754560  0.74382581  -0.00361924  1
  Co  Co103  1  0.37883449  0.37170166  0.12503126  1
  Co  Co104  1  0.74836704  0.25241107  0.50102508  1
  Co  Co105  1  0.37496832  0.12381938  0.62580750  1
  Co  Co106  1  0.12876296  0.62401099  0.12859994  1
  Co  Co107  1  0.25132910  0.75297863  0.25177823  1
  Co  Co108  1  -0.00112790  0.50350671  0.00186955  1
  Co  Co109  1  0.12650223  0.61860716  0.87328270  1
  Co  Co110  1  0.50166655  0.24801053  -0.00097415  1
  Co  Co111  1  0.37397381  0.62998735  0.12634908  1
  Co  Co112  1  0.50191980  0.75252306  0.74652147  1
  Co  Co113  1  0.37452994  0.37146879  0.87547544  1
  Co  Co114  1  0.74842237  0.25035568  0.75152213  1
  Co  Co115  1  0.74873249  0.25161977  0.24656334  1
  Co  Co116  1  0.62429923  0.87433728  0.37307738  1
  Co  Co117  1  0.25593720  0.50148309  0.00317241  1
  Co  Co118  1  0.49802340  0.49712889  0.75015850  1
  Co  Co119  1  0.87504613  0.37516671  0.87521577  1
  Co  Co120  1  0.74988052  -0.00200205  -0.00280794  1
  Co  Co121  1  0.37749954  0.62919907  0.87076299  1
  Co  Co122  1  0.87941095  0.87274874  0.87621959  1
  Co  Co123  1  0.24753950  0.75090460  0.74965603  1
  Co  Co124  1  0.50166097  0.00059439  0.49903704  1
  Co  Co125  1  0.12703382  0.12642103  0.87666293  1
  Co  Co126  1  0.25050582  0.50099868  0.50289416  1
  Co  Co127  1  0.37175317  0.62354153  0.37505218  1
