# generated using pymatgen
data_Fe45Co19
_symmetry_space_group_name_H-M   'P 1'
_cell_length_a   11.41576192
_cell_length_b   11.41424339
_cell_length_c   11.41546667
_cell_angle_alpha   90.00692877
_cell_angle_beta   89.99708949
_cell_angle_gamma   90.00204126
_symmetry_Int_Tables_number   1
_chemical_formula_structural   Fe45Co19
_chemical_formula_sum   'Fe90 Co38'
_cell_volume   1487.46137810
_cell_formula_units_Z   2
loop_
 _symmetry_equiv_pos_site_id
 _symmetry_equiv_pos_as_xyz
  1  'x, y, z'
loop_
 _atom_site_type_symbol
 _atom_site_label
 _atom_site_symmetry_multiplicity
 _atom_site_fract_x
 _atom_site_fract_y
 _atom_site_fract_z
 _atom_site_occupancy
  Fe  Fe0  1  0.49860135  0.24880092  0.24995083  1
  Fe  Fe1  1  0.49859173  0.50084121  -0.00381826  1
  Fe  Fe2  1  0.24932663  0.50218919  0.24739238  1
  Fe  Fe3  1  0.63155653  0.12041951  0.87362372  1
  Fe  Fe4  1  0.37855494  0.62451976  0.62913570  1
  Fe  Fe5  1  0.25309967  0.50073462  -0.00316548  1
  Fe  Fe6  1  0.62745879  0.62608199  0.87772438  1
  Fe  Fe7  1  0.12196947  0.87433872  0.62584063  1
  Fe  Fe8  1  0.62495430  0.12343956  0.37413159  1
  Fe  Fe9  1  0.62406339  0.37705368  0.12345111  1
  Fe  Fe10  1  0.75151653  0.25227108  0.25031924  1
  Fe  Fe11  1  0.25051703  0.24804013  0.74708536  1
  Fe  Fe12  1  0.87354030  0.62533716  0.37323355  1
  Fe  Fe13  1  0.49960270  0.24702837  -0.00223520  1
  Fe  Fe14  1  -0.00366628  0.50409731  0.75299723  1
  Fe  Fe15  1  0.12344529  0.12534854  0.87252991  1
  Fe  Fe16  1  0.24758805  -0.00345190  0.24889068  1
  Fe  Fe17  1  0.12234853  0.87500493  0.12083619  1
  Fe  Fe18  1  0.12290123  0.12169787  0.37564353  1
  Fe  Fe19  1  0.62726274  0.62756934  0.37227382  1
  Fe  Fe20  1  0.12199679  0.12446096  0.12689770  1
  Fe  Fe21  1  0.25055426  0.24846500  -0.00056467  1
  Fe  Fe22  1  0.37445237  0.37673951  0.37546891  1
  Fe  Fe23  1  0.24686548  -0.00037919  -0.00175512  1
  Fe  Fe24  1  -0.00080048  -0.00115093  0.75151659  1
  Fe  Fe25  1  0.75106130  0.75058436  0.50082238  1
  Fe  Fe26  1  0.87211495  0.62302141  0.12650547  1
  Fe  Fe27  1  0.24919663  0.24938617  0.24967977  1
  Fe  Fe28  1  0.25238254  0.49973626  0.75289746  1
  Fe  Fe29  1  0.75112144  0.75059866  0.74758917  1
  Fe  Fe30  1  0.12243074  0.37565194  0.62724756  1
  Fe  Fe31  1  0.49913162  0.24948889  0.50088706  1
  Fe  Fe32  1  0.12432208  0.62502262  0.12141643  1
  Fe  Fe33  1  0.49698680  0.74834073  0.49797602  1
  Fe  Fe34  1  0.37874330  0.37655460  0.62572756  1
  Fe  Fe35  1  -0.00030901  0.74847855  -0.00500221  1
  Fe  Fe36  1  0.62577127  0.87447773  0.37526741  1
  Fe  Fe37  1  0.50006401  0.24806401  0.75104841  1
  Fe  Fe38  1  0.37457723  0.12023070  0.87198384  1
  Fe  Fe39  1  0.24849026  -0.00007064  0.50430800  1
  Fe  Fe40  1  0.75141014  -0.00039172  0.50293221  1
  Fe  Fe41  1  0.87643780  0.87527671  0.37518765  1
  Fe  Fe42  1  0.49888270  -0.00203872  0.49925562  1
  Fe  Fe43  1  0.75051121  -0.00280192  0.24786778  1
  Fe  Fe44  1  0.75169189  0.24928124  0.74861958  1
  Fe  Fe45  1  -0.00348784  0.24630707  -0.00085678  1
  Fe  Fe46  1  0.75097032  0.50221395  0.75042525  1
  Fe  Fe47  1  0.49948573  0.50359625  0.25147557  1
  Fe  Fe48  1  0.62581904  0.37438044  0.87552053  1
  Fe  Fe49  1  0.74954703  0.50037396  0.49893533  1
  Fe  Fe50  1  0.87835177  0.87652525  0.12313263  1
  Fe  Fe51  1  0.37686116  0.87783341  0.62961574  1
  Fe  Fe52  1  0.74764980  0.75087875  0.00405093  1
  Fe  Fe53  1  0.62300303  0.12263473  0.62466123  1
  Fe  Fe54  1  0.62356402  0.37729675  0.62509299  1
  Fe  Fe55  1  0.37595999  0.12202673  0.12497691  1
  Fe  Fe56  1  0.75314903  0.24792180  0.00208111  1
  Fe  Fe57  1  -0.00273691  0.50201371  -0.00292284  1
  Fe  Fe58  1  0.62377987  0.37455920  0.37617747  1
  Fe  Fe59  1  0.87379670  0.37435142  0.87481406  1
  Fe  Fe60  1  0.37749759  0.87423117  0.12302418  1
  Fe  Fe61  1  0.87740224  0.37729657  0.12891605  1
  Fe  Fe62  1  0.12308238  0.37567435  0.12396872  1
  Fe  Fe63  1  0.87699081  0.12308789  0.37217863  1
  Fe  Fe64  1  0.00100695  0.50337067  0.49835557  1
  Fe  Fe65  1  0.50351163  -0.00271716  -0.00355851  1
  Fe  Fe66  1  0.87860544  0.12562337  0.62629222  1
  Fe  Fe67  1  0.00040794  0.25082855  0.49893091  1
  Fe  Fe68  1  0.25158012  0.50228845  0.50269011  1
  Fe  Fe69  1  0.37527239  0.37373252  0.12378237  1
  Fe  Fe70  1  0.62108777  0.87251563  0.12781602  1
  Fe  Fe71  1  0.12290748  0.62629641  0.62878677  1
  Fe  Fe72  1  0.24800882  0.75206548  0.75207181  1
  Fe  Fe73  1  0.50299682  0.75504961  0.75575232  1
  Fe  Fe74  1  0.12431442  0.37649511  0.37338932  1
  Fe  Fe75  1  0.62350827  0.62564136  0.62516561  1
  Fe  Fe76  1  0.62457231  0.12391678  0.12749786  1
  Fe  Fe77  1  0.36987885  0.87081560  0.37370218  1
  Fe  Fe78  1  0.87711537  0.87214120  0.62426086  1
  Fe  Fe79  1  0.13116466  0.63051699  0.37499958  1
  Fe  Fe80  1  0.37835844  0.62868949  0.12318237  1
  Fe  Fe81  1  0.00197186  0.75104650  0.25014600  1
  Fe  Fe82  1  0.12511285  0.37508823  0.87550594  1
  Fe  Fe83  1  0.25034482  0.75046862  -0.00326401  1
  Fe  Fe84  1  0.37434040  0.12402894  0.37522403  1
  Fe  Fe85  1  0.87168663  0.87766715  0.87672367  1
  Fe  Fe86  1  0.75178092  0.24967221  0.50000807  1
  Fe  Fe87  1  0.24954270  0.24860528  0.50301210  1
  Fe  Fe88  1  0.87571965  0.37717691  0.62345270  1
  Fe  Fe89  1  0.00099255  0.74923868  0.49999666  1
  Co  Co90  1  0.87504727  0.62542856  0.62249953  1
  Co  Co91  1  -0.00215524  0.74954009  0.75339112  1
  Co  Co92  1  0.87027978  0.12007494  0.87317851  1
  Co  Co93  1  0.50537750  -0.00305140  0.75278716  1
  Co  Co94  1  0.49833474  -0.00215412  0.25219138  1
  Co  Co95  1  0.75140242  0.49881541  -0.00083074  1
  Co  Co96  1  -0.00188582  0.25075723  0.75226788  1
  Co  Co97  1  0.37492468  0.62925125  0.87357769  1
  Co  Co98  1  0.37131256  0.87825317  0.87405990  1
  Co  Co99  1  0.87625758  0.12363101  0.12918772  1
  Co  Co100  1  0.12816807  0.87201354  0.37819643  1
  Co  Co101  1  0.12356080  0.87521493  0.87526074  1
  Co  Co102  1  0.50139249  0.49976556  0.75491306  1
  Co  Co103  1  0.75123767  0.75338217  0.24759536  1
  Co  Co104  1  0.12013251  0.12560690  0.62502871  1
  Co  Co105  1  0.25189110  0.75061028  0.50902985  1
  Co  Co106  1  0.50251061  0.75348789  -0.00460363  1
  Co  Co107  1  0.75072781  -0.00282151  0.74174027  1
  Co  Co108  1  0.74880357  0.49769083  0.25154347  1
  Co  Co109  1  0.62523477  0.62417386  0.12409948  1
  Co  Co110  1  0.36827637  0.62774611  0.37422763  1
  Co  Co111  1  -0.00018339  -0.00188792  0.50085514  1
  Co  Co112  1  0.49975641  0.50390663  0.49754522  1
  Co  Co113  1  0.87043418  0.62907829  0.87702927  1
  Co  Co114  1  0.00125376  0.25001679  0.25034789  1
  Co  Co115  1  0.62349392  0.87235366  0.62094857  1
  Co  Co116  1  0.63380794  0.87693356  0.87511125  1
  Co  Co117  1  0.74895057  0.00026711  0.00711325  1
  Co  Co118  1  -0.00026976  0.00445526  -0.00206723  1
  Co  Co119  1  0.37439233  0.37127479  0.87457602  1
  Co  Co120  1  0.49911584  0.74847324  0.25252743  1
  Co  Co121  1  0.12613525  0.62455327  0.87419594  1
  Co  Co122  1  0.24512637  0.00097157  0.74751289  1
  Co  Co123  1  0.37810517  0.12193645  0.62620568  1
  Co  Co124  1  0.00300765  0.50490520  0.25159891  1
  Co  Co125  1  0.87783387  0.37650230  0.37534661  1
  Co  Co126  1  0.00245028  -0.00497354  0.25015288  1
  Co  Co127  1  0.24796240  0.75196168  0.24284703  1
