# generated using pymatgen
data_Fe45Co19
_symmetry_space_group_name_H-M   'P 1'
_cell_length_a   11.41499772
_cell_length_b   11.41539001
_cell_length_c   11.41426746
_cell_angle_alpha   90.00525327
_cell_angle_beta   90.00062814
_cell_angle_gamma   90.00363760
_symmetry_Int_Tables_number   1
_chemical_formula_structural   Fe45Co19
_chemical_formula_sum   'Fe90 Co38'
_cell_volume   1487.35495765
_cell_formula_units_Z   2
loop_
 _symmetry_equiv_pos_site_id
 _symmetry_equiv_pos_as_xyz
  1  'x, y, z'
loop_
 _atom_site_type_symbol
 _atom_site_label
 _atom_site_symmetry_multiplicity
 _atom_site_fract_x
 _atom_site_fract_y
 _atom_site_fract_z
 _atom_site_occupancy
  Fe  Fe0  1  0.62839443  0.87593693  0.62350427  1
  Fe  Fe1  1  0.24884346  0.50027612  0.50102850  1
  Fe  Fe2  1  0.75018341  0.24785666  0.50024795  1
  Fe  Fe3  1  0.87641534  0.37259244  0.37489483  1
  Fe  Fe4  1  0.74925411  0.49782408  0.25129320  1
  Fe  Fe5  1  0.87289186  0.12355919  0.62772749  1
  Fe  Fe6  1  0.62380190  0.37324957  0.12236609  1
  Fe  Fe7  1  0.87518210  0.62650007  0.37332763  1
  Fe  Fe8  1  0.87549258  0.62618195  0.62581020  1
  Fe  Fe9  1  0.87368653  0.87594038  0.87398855  1
  Fe  Fe10  1  0.62513625  0.87486750  0.12098548  1
  Fe  Fe11  1  0.50011971  0.25046610  0.24977753  1
  Fe  Fe12  1  0.74982538  0.50124484  0.50113176  1
  Fe  Fe13  1  0.49866281  0.50015322  0.00013185  1
  Fe  Fe14  1  0.50057826  -0.00338330  0.24971864  1
  Fe  Fe15  1  0.87571348  0.37334703  0.62371779  1
  Fe  Fe16  1  0.12267412  0.62707438  0.62451490  1
  Fe  Fe17  1  0.62558648  0.62726995  0.37614993  1
  Fe  Fe18  1  0.50361010  0.50073397  0.74852770  1
  Fe  Fe19  1  0.50403923  0.24705364  0.74531006  1
  Fe  Fe20  1  0.12314798  0.37209916  0.37548015  1
  Fe  Fe21  1  0.00099011  0.24848494  0.74941810  1
  Fe  Fe22  1  0.87266201  0.12392624  0.36841532  1
  Fe  Fe23  1  0.49948276  0.75065926  0.50278517  1
  Fe  Fe24  1  0.00092839  0.49940663  0.49891844  1
  Fe  Fe25  1  0.37513051  0.12416874  0.37556025  1
  Fe  Fe26  1  0.00234738  0.00065797  0.75160575  1
  Fe  Fe27  1  0.62453942  0.12416078  0.37692129  1
  Fe  Fe28  1  -0.00536584  -0.00156428  0.49680429  1
  Fe  Fe29  1  0.62652591  0.12507524  0.12452106  1
  Fe  Fe30  1  0.25009677  -0.00325416  0.25173523  1
  Fe  Fe31  1  0.12400094  0.12432757  0.62234589  1
  Fe  Fe32  1  0.49804763  0.75109948  -0.00178747  1
  Fe  Fe33  1  0.12333885  0.62910119  0.37457898  1
  Fe  Fe34  1  0.87654420  0.62218560  0.12695313  1
  Fe  Fe35  1  0.25022804  0.25045945  0.50070552  1
  Fe  Fe36  1  0.49741809  0.00231562  0.50680806  1
  Fe  Fe37  1  -0.00430645  0.74876290  -0.00045642  1
  Fe  Fe38  1  0.37571040  0.37393219  0.37492831  1
  Fe  Fe39  1  0.12333409  0.37418366  0.87628650  1
  Fe  Fe40  1  0.37526280  0.62610300  0.87179803  1
  Fe  Fe41  1  0.62397992  0.37432188  0.37878396  1
  Fe  Fe42  1  0.12402865  0.87589797  0.12412337  1
  Fe  Fe43  1  0.25154778  0.49889537  0.00033940  1
  Fe  Fe44  1  0.87417182  0.88020143  0.12832873  1
  Fe  Fe45  1  0.25313241  -0.00316774  0.50277910  1
  Fe  Fe46  1  0.25166870  -0.00012501  -0.00279009  1
  Fe  Fe47  1  -0.00348328  0.00390858  -0.00094131  1
  Fe  Fe48  1  0.62712106  0.87454856  0.87619144  1
  Fe  Fe49  1  0.74789550  0.00185549  0.75107549  1
  Fe  Fe50  1  0.37486568  0.87630684  0.86743671  1
  Fe  Fe51  1  0.75205171  0.50026012  -0.00059349  1
  Fe  Fe52  1  0.12579585  0.12446872  0.37582802  1
  Fe  Fe53  1  0.25259383  0.25051383  0.00065424  1
  Fe  Fe54  1  0.50102618  0.49950640  0.24926184  1
  Fe  Fe55  1  0.62778512  0.62625728  0.87698637  1
  Fe  Fe56  1  -0.00537243  0.75503057  0.49887413  1
  Fe  Fe57  1  0.37611515  0.37339554  0.62455362  1
  Fe  Fe58  1  0.12312037  0.87443720  0.62492968  1
  Fe  Fe59  1  0.24826537  0.49952055  0.74867321  1
  Fe  Fe60  1  0.37600269  0.62704311  0.12705502  1
  Fe  Fe61  1  0.74913966  0.75161320  0.24926632  1
  Fe  Fe62  1  -0.00341598  0.24607091  0.00178258  1
  Fe  Fe63  1  0.12576414  0.12429159  0.12520673  1
  Fe  Fe64  1  0.24611551  0.24945539  0.74869767  1
  Fe  Fe65  1  0.50002458  0.50098662  0.50182797  1
  Fe  Fe66  1  0.37639172  0.62745832  0.37342358  1
  Fe  Fe67  1  0.12247663  0.62500967  0.87591707  1
  Fe  Fe68  1  0.12292961  0.62523437  0.12571839  1
  Fe  Fe69  1  0.62491468  0.37262246  0.87608196  1
  Fe  Fe70  1  0.25148855  0.75089006  -0.00153661  1
  Fe  Fe71  1  0.37751043  0.37299555  0.87440335  1
  Fe  Fe72  1  0.25143258  0.75479930  0.25107635  1
  Fe  Fe73  1  0.74825667  0.49898343  0.74806060  1
  Fe  Fe74  1  0.50002175  0.00104524  -0.00302317  1
  Fe  Fe75  1  0.87629214  0.37488879  0.12735056  1
  Fe  Fe76  1  0.37490818  0.12382107  0.12607143  1
  Fe  Fe77  1  0.12425385  0.87503085  0.87516000  1
  Fe  Fe78  1  0.75039617  0.74848987  0.74895448  1
  Fe  Fe79  1  0.00051991  0.50003359  0.75018127  1
  Fe  Fe80  1  0.12362941  0.37480224  0.12588463  1
  Fe  Fe81  1  0.62772891  0.12581345  0.87428015  1
  Fe  Fe82  1  0.87536241  0.37407511  0.87420342  1
  Fe  Fe83  1  0.25243576  0.75280454  0.50175646  1
  Fe  Fe84  1  0.75308576  0.24648672  0.00038820  1
  Fe  Fe85  1  0.37403395  0.12408229  0.87049996  1
  Fe  Fe86  1  0.62474552  0.62644839  0.12434807  1
  Fe  Fe87  1  0.62604151  0.87511450  0.37910744  1
  Fe  Fe88  1  0.24902484  0.49898127  0.25041967  1
  Fe  Fe89  1  0.37609726  0.62775026  0.62821697  1
  Co  Co90  1  0.37554509  0.87627863  0.12337113  1
  Co  Co91  1  0.75442035  0.75144562  0.50041594  1
  Co  Co92  1  0.37169781  0.12633157  0.62770399  1
  Co  Co93  1  0.00118115  0.49871631  0.25336641  1
  Co  Co94  1  -0.00061174  0.75106169  0.75146601  1
  Co  Co95  1  0.00123345  0.24807540  0.24918000  1
  Co  Co96  1  0.49967341  0.24668411  0.50152190  1
  Co  Co97  1  0.49902132  0.24594226  -0.00034146  1
  Co  Co98  1  0.37534085  0.87353573  0.63170740  1
  Co  Co99  1  0.00400797  0.00028141  0.25236490  1
  Co  Co100  1  0.75102837  0.00291410  -0.00107634  1
  Co  Co101  1  0.62516447  0.37400247  0.62155457  1
  Co  Co102  1  0.24534015  0.00052062  0.74859301  1
  Co  Co103  1  0.12528880  0.12630617  0.87757879  1
  Co  Co104  1  -0.00064100  0.50043550  -0.00086403  1
  Co  Co105  1  0.74689637  0.25210253  0.25050963  1
  Co  Co106  1  0.50551269  0.75012986  0.75042064  1
  Co  Co107  1  0.24590602  0.74949163  0.75028840  1
  Co  Co108  1  0.74927763  0.25159777  0.74889288  1
  Co  Co109  1  0.87252364  0.12151706  0.13096830  1
  Co  Co110  1  0.12279587  0.37414245  0.62361188  1
  Co  Co111  1  0.87229348  0.87644673  0.36943953  1
  Co  Co112  1  -0.00081408  0.75250939  0.24892580  1
  Co  Co113  1  0.50412445  0.00230093  0.74768986  1
  Co  Co114  1  0.75496267  0.00071159  0.49825927  1
  Co  Co115  1  0.87382425  0.12461225  0.87101020  1
  Co  Co116  1  0.75455233  0.74994533  0.00190965  1
  Co  Co117  1  0.12486297  0.87428925  0.37719415  1
  Co  Co118  1  0.63101859  0.12390690  0.62275185  1
  Co  Co119  1  -0.00217882  0.24617942  0.49933064  1
  Co  Co120  1  0.62642977  0.62607519  0.62250167  1
  Co  Co121  1  0.37645858  0.37435968  0.12537996  1
  Co  Co122  1  0.87357695  0.62389637  0.87290361  1
  Co  Co123  1  0.24997097  0.24953533  0.25039035  1
  Co  Co124  1  0.50182983  0.75385917  0.25006063  1
  Co  Co125  1  0.87302791  0.87759592  0.62951772  1
  Co  Co126  1  0.74361734  -0.00209313  0.25059734  1
  Co  Co127  1  0.37776648  0.87616515  0.37714894  1
