# generated using pymatgen
data_Fe45Co19
_symmetry_space_group_name_H-M   'P 1'
_cell_length_a   11.41592659
_cell_length_b   11.41476538
_cell_length_c   11.41617849
_cell_angle_alpha   90.00063035
_cell_angle_beta   90.00481254
_cell_angle_gamma   89.99353802
_symmetry_Int_Tables_number   1
_chemical_formula_structural   Fe45Co19
_chemical_formula_sum   'Fe90 Co38'
_cell_volume   1487.64361651
_cell_formula_units_Z   2
loop_
 _symmetry_equiv_pos_site_id
 _symmetry_equiv_pos_as_xyz
  1  'x, y, z'
loop_
 _atom_site_type_symbol
 _atom_site_label
 _atom_site_symmetry_multiplicity
 _atom_site_fract_x
 _atom_site_fract_y
 _atom_site_fract_z
 _atom_site_occupancy
  Fe  Fe0  1  0.87580712  0.37236849  0.12462332  1
  Fe  Fe1  1  0.37287536  0.87728029  0.62494033  1
  Fe  Fe2  1  0.00166792  0.24918597  0.49810544  1
  Fe  Fe3  1  0.87106039  0.63027365  0.12205391  1
  Fe  Fe4  1  0.62282642  0.87179032  0.37580507  1
  Fe  Fe5  1  0.62637931  0.12246467  0.87842965  1
  Fe  Fe6  1  0.87897993  0.62345364  0.62171272  1
  Fe  Fe7  1  0.00338987  0.75169537  0.75034037  1
  Fe  Fe8  1  0.24979426  0.24755016  0.50089973  1
  Fe  Fe9  1  0.49864794  -0.00250537  0.24940691  1
  Fe  Fe10  1  0.49849350  -0.00343323  0.00282801  1
  Fe  Fe11  1  0.37475991  0.37429634  0.87562269  1
  Fe  Fe12  1  0.74991519  -0.00041264  0.24936471  1
  Fe  Fe13  1  0.12370523  0.11657792  0.87905590  1
  Fe  Fe14  1  0.37645359  0.87286204  0.37552467  1
  Fe  Fe15  1  0.24718781  0.49982038  0.49984049  1
  Fe  Fe16  1  0.62377048  0.12563138  0.62183455  1
  Fe  Fe17  1  0.62519784  0.37489370  0.12363367  1
  Fe  Fe18  1  0.49964253  0.74975821  0.74775056  1
  Fe  Fe19  1  0.75101089  0.00132898  0.74852129  1
  Fe  Fe20  1  0.74832416  0.24782476  0.24764457  1
  Fe  Fe21  1  0.37364065  0.62778784  0.37661511  1
  Fe  Fe22  1  0.87628963  0.62738519  0.87770115  1
  Fe  Fe23  1  0.75132700  0.74978586  0.74969016  1
  Fe  Fe24  1  0.24300169  0.75552849  0.50028138  1
  Fe  Fe25  1  0.24602475  0.75377160  0.75363761  1
  Fe  Fe26  1  0.87613859  0.37591089  0.62351361  1
  Fe  Fe27  1  0.12332245  0.37560187  0.87813923  1
  Fe  Fe28  1  0.62576886  0.62583812  0.87626705  1
  Fe  Fe29  1  0.75228307  0.75075020  0.49944836  1
  Fe  Fe30  1  0.12540412  0.62638242  0.12008538  1
  Fe  Fe31  1  0.62583043  0.37496141  0.62556285  1
  Fe  Fe32  1  0.62266572  0.12417135  0.37556105  1
  Fe  Fe33  1  0.24759661  0.50216373  0.75386726  1
  Fe  Fe34  1  0.50022131  0.00098809  0.74627636  1
  Fe  Fe35  1  0.25030986  0.49996960  -0.00072706  1
  Fe  Fe36  1  0.37367756  0.62746687  0.12347730  1
  Fe  Fe37  1  0.24911668  0.75157141  0.25040451  1
  Fe  Fe38  1  0.49981982  0.24907389  0.24760887  1
  Fe  Fe39  1  0.12579484  0.11774896  0.62503256  1
  Fe  Fe40  1  0.12482828  0.37485057  0.62637784  1
  Fe  Fe41  1  0.87858557  0.87451566  0.37321829  1
  Fe  Fe42  1  0.37326211  0.12204403  0.12568501  1
  Fe  Fe43  1  0.49895190  0.50332404  0.24767389  1
  Fe  Fe44  1  0.12488208  0.37477413  0.37209110  1
  Fe  Fe45  1  0.00095453  0.24632074  0.75075727  1
  Fe  Fe46  1  0.24909583  0.50088981  0.24721274  1
  Fe  Fe47  1  0.62755771  0.87041495  0.12881085  1
  Fe  Fe48  1  0.74950985  -0.00184202  0.49903744  1
  Fe  Fe49  1  0.62500358  0.37582529  0.37421490  1
  Fe  Fe50  1  0.25170315  0.75614747  -0.00489481  1
  Fe  Fe51  1  -0.00103999  0.00180869  0.24578937  1
  Fe  Fe52  1  0.62542991  0.87562454  0.87181184  1
  Fe  Fe53  1  0.62614935  0.62616788  0.62338726  1
  Fe  Fe54  1  0.87523852  0.12561901  0.37310645  1
  Fe  Fe55  1  0.00245375  0.24626698  0.00438010  1
  Fe  Fe56  1  0.87456296  0.12342671  0.87856069  1
  Fe  Fe57  1  0.87790888  0.87665124  0.62520771  1
  Fe  Fe58  1  0.74916251  0.25086209  0.49896447  1
  Fe  Fe59  1  0.12353195  0.62575811  0.37642526  1
  Fe  Fe60  1  0.24922893  0.24845608  0.00152414  1
  Fe  Fe61  1  0.87859805  0.62411811  0.37837360  1
  Fe  Fe62  1  0.50005741  0.50222932  0.00125341  1
  Fe  Fe63  1  0.37335941  0.37341884  0.62601509  1
  Fe  Fe64  1  0.24876315  0.24575158  0.75129053  1
  Fe  Fe65  1  0.87524972  0.37572279  0.37487973  1
  Fe  Fe66  1  0.00237660  0.50196600  0.75175128  1
  Fe  Fe67  1  0.12869981  0.88024217  0.12473265  1
  Fe  Fe68  1  0.49883577  0.50045519  0.50049038  1
  Fe  Fe69  1  0.49975577  0.24796526  0.74948262  1
  Fe  Fe70  1  0.74968065  0.50375447  0.24795498  1
  Fe  Fe71  1  0.37726927  0.12470479  0.37793384  1
  Fe  Fe72  1  0.36988160  0.62656588  0.62534367  1
  Fe  Fe73  1  0.24862782  0.24897319  0.24616066  1
  Fe  Fe74  1  0.75204284  0.50081105  0.75166050  1
  Fe  Fe75  1  0.87620992  0.37347262  0.87748888  1
  Fe  Fe76  1  0.49830906  0.50155225  0.75040098  1
  Fe  Fe77  1  0.62259054  0.62755059  0.37619034  1
  Fe  Fe78  1  0.12497895  0.12254198  0.37217619  1
  Fe  Fe79  1  0.37419325  0.37441065  0.37384154  1
  Fe  Fe80  1  0.62600749  0.37463853  0.87622204  1
  Fe  Fe81  1  -0.00092941  0.75722972  -0.00115230  1
  Fe  Fe82  1  0.00127772  0.74947901  0.24860141  1
  Fe  Fe83  1  0.75088115  0.24853558  0.75164301  1
  Fe  Fe84  1  0.49995573  0.75142064  0.00075034  1
  Fe  Fe85  1  0.87628864  0.12435538  0.62236822  1
  Fe  Fe86  1  0.00059785  0.50102411  0.24679725  1
  Fe  Fe87  1  0.50006713  0.24817132  0.00139065  1
  Fe  Fe88  1  0.75398096  -0.00436957  0.00336835  1
  Fe  Fe89  1  0.37602064  0.12291952  0.87435415  1
  Co  Co90  1  0.12549289  0.62585080  0.62460618  1
  Co  Co91  1  0.00435116  0.49752263  0.49946817  1
  Co  Co92  1  0.12861430  0.11815591  0.12368824  1
  Co  Co93  1  0.62781070  0.87413006  0.62607816  1
  Co  Co94  1  0.49757466  0.74895137  0.24827695  1
  Co  Co95  1  0.74926916  0.24926972  0.00044787  1
  Co  Co96  1  0.75090711  0.50035015  0.00006285  1
  Co  Co97  1  0.24905172  -0.00250844  0.49606439  1
  Co  Co98  1  0.37252890  0.87375442  0.12712193  1
  Co  Co99  1  0.12189460  0.88210318  0.87516906  1
  Co  Co100  1  0.25350518  -0.00143673  0.25438075  1
  Co  Co101  1  0.37488771  0.62677068  0.87495060  1
  Co  Co102  1  0.50062326  -0.00319437  0.50097258  1
  Co  Co103  1  -0.00311958  0.00182966  0.75160343  1
  Co  Co104  1  0.25263492  -0.00088618  0.75275578  1
  Co  Co105  1  0.87424315  0.87592922  0.87047944  1
  Co  Co106  1  0.74963772  0.75441040  -0.00381787  1
  Co  Co107  1  0.87183604  0.87034308  0.13067350  1
  Co  Co108  1  0.50020543  0.25248241  0.50023174  1
  Co  Co109  1  0.00303992  0.75315362  0.50086188  1
  Co  Co110  1  -0.00287988  0.50123767  0.00197336  1
  Co  Co111  1  0.75128455  0.74718907  0.25663677  1
  Co  Co112  1  0.38036967  0.87540343  0.87113505  1
  Co  Co113  1  0.49879963  0.75048119  0.50377684  1
  Co  Co114  1  0.62774671  0.62981957  0.12433287  1
  Co  Co115  1  0.74824439  0.50095447  0.49962671  1
  Co  Co116  1  0.37454171  0.12347140  0.62247069  1
  Co  Co117  1  0.37445926  0.37504531  0.12474935  1
  Co  Co118  1  0.12282036  0.88155405  0.62827938  1
  Co  Co119  1  0.12050553  0.87682676  0.37024496  1
  Co  Co120  1  -0.00656407  -0.00380168  0.00519349  1
  Co  Co121  1  0.00072811  0.00024200  0.49682098  1
  Co  Co122  1  0.12397253  0.62671812  0.87902506  1
  Co  Co123  1  0.00257974  0.24887573  0.24917573  1
  Co  Co124  1  0.25596253  -0.00331641  -0.00335566  1
  Co  Co125  1  0.87394230  0.12697027  0.12637130  1
  Co  Co126  1  0.62540017  0.12193480  0.12408427  1
  Co  Co127  1  0.12438565  0.37633286  0.12389609  1
