# generated using pymatgen
data_Fe45Co19
_symmetry_space_group_name_H-M   'P 1'
_cell_length_a   11.41493946
_cell_length_b   11.41554030
_cell_length_c   11.41494986
_cell_angle_alpha   90.00321064
_cell_angle_beta   90.00440322
_cell_angle_gamma   90.00658001
_symmetry_Int_Tables_number   1
_chemical_formula_structural   Fe45Co19
_chemical_formula_sum   'Fe90 Co38'
_cell_volume   1487.45586157
_cell_formula_units_Z   2
loop_
 _symmetry_equiv_pos_site_id
 _symmetry_equiv_pos_as_xyz
  1  'x, y, z'
loop_
 _atom_site_type_symbol
 _atom_site_label
 _atom_site_symmetry_multiplicity
 _atom_site_fract_x
 _atom_site_fract_y
 _atom_site_fract_z
 _atom_site_occupancy
  Fe  Fe0  1  0.75156298  0.74898645  0.50201549  1
  Fe  Fe1  1  0.50356750  0.49754720  0.24923828  1
  Fe  Fe2  1  0.37156010  0.87426331  0.87571100  1
  Fe  Fe3  1  0.37368716  0.37637244  0.62604561  1
  Fe  Fe4  1  -0.00008112  -0.00041529  0.49950083  1
  Fe  Fe5  1  0.49892569  0.75163580  0.74914141  1
  Fe  Fe6  1  0.87447558  0.87520840  0.37460582  1
  Fe  Fe7  1  0.12263863  0.12395875  0.62552894  1
  Fe  Fe8  1  0.24858005  -0.00015565  0.74933470  1
  Fe  Fe9  1  0.37290747  0.37847261  0.37692995  1
  Fe  Fe10  1  0.12320000  0.37297385  0.87690589  1
  Fe  Fe11  1  0.12494110  0.37633536  0.37529734  1
  Fe  Fe12  1  -0.00233554  0.25017002  0.75061922  1
  Fe  Fe13  1  0.12462311  0.12604278  0.87610740  1
  Fe  Fe14  1  0.37452252  0.62684079  0.87500819  1
  Fe  Fe15  1  0.87466757  0.12495649  0.37381192  1
  Fe  Fe16  1  0.37327402  0.37324811  0.87446176  1
  Fe  Fe17  1  0.25076345  0.75011785  0.49921516  1
  Fe  Fe18  1  0.37349388  0.61997935  0.37574556  1
  Fe  Fe19  1  -0.00092293  0.24942806  0.24789537  1
  Fe  Fe20  1  0.62574808  0.87563215  0.62548951  1
  Fe  Fe21  1  0.49926878  0.00111382  0.75147753  1
  Fe  Fe22  1  0.62431383  0.62802491  0.87483406  1
  Fe  Fe23  1  -0.00089066  0.49770639  0.24899947  1
  Fe  Fe24  1  0.74950971  0.75101930  0.24810991  1
  Fe  Fe25  1  0.00227405  -0.00603864  0.75252481  1
  Fe  Fe26  1  0.87197974  0.87399770  0.87760838  1
  Fe  Fe27  1  0.50029073  0.75158607  0.00043257  1
  Fe  Fe28  1  0.50172027  0.49879891  0.75104330  1
  Fe  Fe29  1  0.87473573  0.62368552  0.37349077  1
  Fe  Fe30  1  0.50079117  0.24514148  -0.00044305  1
  Fe  Fe31  1  0.37623455  0.37466569  0.12357817  1
  Fe  Fe32  1  0.49991908  0.25057945  0.50071092  1
  Fe  Fe33  1  0.62661915  0.37197307  0.87454877  1
  Fe  Fe34  1  0.75482891  0.24940982  0.50407068  1
  Fe  Fe35  1  0.50000134  0.00241526  0.49903843  1
  Fe  Fe36  1  -0.00045189  0.00073260  0.24766824  1
  Fe  Fe37  1  0.49787852  0.24800044  0.75083095  1
  Fe  Fe38  1  0.62703966  0.12498615  0.62815435  1
  Fe  Fe39  1  0.25074893  0.24734076  0.00097095  1
  Fe  Fe40  1  0.12415983  0.63196517  0.87548117  1
  Fe  Fe41  1  0.87469202  0.87527295  0.62542114  1
  Fe  Fe42  1  0.62741012  0.87703313  0.12313750  1
  Fe  Fe43  1  0.87523615  0.62484686  0.12524259  1
  Fe  Fe44  1  0.12509734  0.62311051  0.37359449  1
  Fe  Fe45  1  -0.00141433  0.75042836  0.50087580  1
  Fe  Fe46  1  -0.00200331  0.49886913  0.50087666  1
  Fe  Fe47  1  0.75094231  0.00199495  0.50044874  1
  Fe  Fe48  1  0.74845787  0.50245346  0.00026840  1
  Fe  Fe49  1  0.24682473  0.50030805  0.75061063  1
  Fe  Fe50  1  0.12288770  0.37366111  0.62636912  1
  Fe  Fe51  1  0.75300209  0.49890055  0.50212876  1
  Fe  Fe52  1  0.74921980  0.24806811  0.24874700  1
  Fe  Fe53  1  0.50145766  0.00387782  -0.00248704  1
  Fe  Fe54  1  0.37720784  0.62352367  0.12511803  1
  Fe  Fe55  1  0.62783077  0.87451000  0.87500289  1
  Fe  Fe56  1  0.37657753  0.87728232  0.12535783  1
  Fe  Fe57  1  0.24985491  0.25064505  0.24834863  1
  Fe  Fe58  1  0.37461809  0.12464483  0.37489120  1
  Fe  Fe59  1  0.50025639  0.75069091  0.25193212  1
  Fe  Fe60  1  0.25126668  0.75059820  0.24930500  1
  Fe  Fe61  1  0.12569212  0.87502444  0.37630602  1
  Fe  Fe62  1  0.12383643  0.12534148  0.37416324  1
  Fe  Fe63  1  0.24844217  0.50127048  -0.00024208  1
  Fe  Fe64  1  0.50303152  0.00145842  0.25271815  1
  Fe  Fe65  1  0.62875156  0.37496615  0.37539006  1
  Fe  Fe66  1  0.49919656  0.74935446  0.49857962  1
  Fe  Fe67  1  0.50232722  0.49903952  -0.00058072  1
  Fe  Fe68  1  0.87505163  0.37808681  0.87296963  1
  Fe  Fe69  1  -0.00085195  0.75207943  0.24851349  1
  Fe  Fe70  1  0.62719473  0.62302224  0.37430706  1
  Fe  Fe71  1  0.12208059  0.62842259  0.62711428  1
  Fe  Fe72  1  0.24911354  0.00053127  0.24966257  1
  Fe  Fe73  1  0.12360036  0.87478409  0.12121398  1
  Fe  Fe74  1  0.24907230  0.00239210  0.00111845  1
  Fe  Fe75  1  0.87404539  0.37474752  0.12309627  1
  Fe  Fe76  1  0.87490061  0.12173259  0.87233984  1
  Fe  Fe77  1  0.50239306  0.24958820  0.25015760  1
  Fe  Fe78  1  -0.00390871  0.25076595  0.50129954  1
  Fe  Fe79  1  0.87664212  0.62669700  0.87068297  1
  Fe  Fe80  1  0.25009148  0.24861656  0.50186891  1
  Fe  Fe81  1  0.62773161  0.37391448  0.62800274  1
  Fe  Fe82  1  0.12245059  0.37395151  0.12137802  1
  Fe  Fe83  1  0.37330867  0.87713406  0.62265199  1
  Fe  Fe84  1  0.75097928  0.24503759  -0.00153003  1
  Fe  Fe85  1  0.62579775  0.62491800  0.62587901  1
  Fe  Fe86  1  0.37612112  0.62209665  0.62451848  1
  Fe  Fe87  1  0.62636947  0.87524677  0.37671760  1
  Fe  Fe88  1  0.87209876  0.87890042  0.12170070  1
  Fe  Fe89  1  0.12322897  0.62557316  0.12406649  1
  Co  Co90  1  0.87382261  0.12258021  0.12628403  1
  Co  Co91  1  0.37229858  0.12535194  0.87405297  1
  Co  Co92  1  0.75479960  0.24895927  0.74952704  1
  Co  Co93  1  -0.00450174  0.24707494  -0.00117770  1
  Co  Co94  1  0.12920892  0.87094873  0.87880130  1
  Co  Co95  1  0.74932869  -0.00006436  0.25259472  1
  Co  Co96  1  0.74987905  0.75092084  0.74878669  1
  Co  Co97  1  0.37522766  0.12470288  0.62573672  1
  Co  Co98  1  0.87771607  0.12082972  0.62756006  1
  Co  Co99  1  0.62708303  0.12658201  0.37759931  1
  Co  Co100  1  0.25211655  0.75080973  0.74715960  1
  Co  Co101  1  0.24863355  0.24975664  0.74875727  1
  Co  Co102  1  0.75041599  -0.00184510  0.74992411  1
  Co  Co103  1  0.12338920  0.12640127  0.12377090  1
  Co  Co104  1  0.00473359  0.50035267  0.75184380  1
  Co  Co105  1  -0.00265844  0.75120270  0.00002972  1
  Co  Co106  1  0.12638767  0.87505941  0.62237269  1
  Co  Co107  1  -0.00043202  0.50195960  -0.00111645  1
  Co  Co108  1  0.87615927  0.37923204  0.63018268  1
  Co  Co109  1  0.00042351  0.00045997  -0.00160948  1
  Co  Co110  1  0.24935204  0.00306169  0.49926981  1
  Co  Co111  1  0.24607323  0.49951660  0.50386346  1
  Co  Co112  1  0.62616255  0.12603521  0.87024165  1
  Co  Co113  1  0.75020525  0.74729510  0.00056961  1
  Co  Co114  1  0.24859807  0.49828991  0.24624059  1
  Co  Co115  1  0.62591572  0.12315607  0.12505598  1
  Co  Co116  1  0.62614446  0.37253396  0.12221236  1
  Co  Co117  1  -0.00106407  0.75651776  0.75043620  1
  Co  Co118  1  0.37440897  0.87669033  0.37616019  1
  Co  Co119  1  0.50352937  0.49768722  0.50035779  1
  Co  Co120  1  0.74657188  0.50150996  0.75193086  1
  Co  Co121  1  0.74943850  0.49978778  0.24681950  1
  Co  Co122  1  0.87692789  0.62389583  0.62876602  1
  Co  Co123  1  0.62291993  0.62612364  0.12497739  1
  Co  Co124  1  0.87415127  0.37460816  0.37286377  1
  Co  Co125  1  0.37642532  0.12424845  0.12659804  1
  Co  Co126  1  0.74872861  0.00451848  -0.00283664  1
  Co  Co127  1  0.25249767  0.74913212  0.00440034  1
