# generated using pymatgen
data_Fe45Co19
_symmetry_space_group_name_H-M   'P 1'
_cell_length_a   11.41382489
_cell_length_b   11.41419573
_cell_length_c   11.41404702
_cell_angle_alpha   89.98935571
_cell_angle_beta   89.99334897
_cell_angle_gamma   90.01100065
_symmetry_Int_Tables_number   1
_chemical_formula_structural   Fe45Co19
_chemical_formula_sum   'Fe90 Co38'
_cell_volume   1487.01777463
_cell_formula_units_Z   2
loop_
 _symmetry_equiv_pos_site_id
 _symmetry_equiv_pos_as_xyz
  1  'x, y, z'
loop_
 _atom_site_type_symbol
 _atom_site_label
 _atom_site_symmetry_multiplicity
 _atom_site_fract_x
 _atom_site_fract_y
 _atom_site_fract_z
 _atom_site_occupancy
  Fe  Fe0  1  0.12611056  0.87810968  0.37437804  1
  Fe  Fe1  1  -0.00020091  0.49695738  0.49992933  1
  Fe  Fe2  1  0.62499443  0.87663562  0.62464282  1
  Fe  Fe3  1  0.62633657  0.87728148  0.37713717  1
  Fe  Fe4  1  0.87685405  0.12674891  0.62573311  1
  Fe  Fe5  1  0.24891461  0.00215989  0.00296458  1
  Fe  Fe6  1  -0.00054052  0.75035123  0.50019039  1
  Fe  Fe7  1  0.12246049  0.37293777  0.62838617  1
  Fe  Fe8  1  0.75466288  0.49844474  0.24718339  1
  Fe  Fe9  1  0.37625115  0.37217018  0.12640595  1
  Fe  Fe10  1  0.75199906  0.00270725  -0.00219385  1
  Fe  Fe11  1  0.12525801  0.12587358  0.87459858  1
  Fe  Fe12  1  0.49963663  0.75034708  0.25145807  1
  Fe  Fe13  1  0.49832587  0.74792806  0.75150351  1
  Fe  Fe14  1  0.00069451  0.75391321  -0.00360791  1
  Fe  Fe15  1  0.00247762  0.75247181  0.75195333  1
  Fe  Fe16  1  -0.00038031  0.24988190  -0.00063967  1
  Fe  Fe17  1  0.00018454  0.25044462  0.75040944  1
  Fe  Fe18  1  0.37512549  0.37383465  0.87228325  1
  Fe  Fe19  1  0.24993935  0.75061550  -0.00013988  1
  Fe  Fe20  1  0.25065188  0.24448021  0.24892823  1
  Fe  Fe21  1  0.37775472  0.37517493  0.62425478  1
  Fe  Fe22  1  0.12052863  0.37364059  0.12733394  1
  Fe  Fe23  1  0.49908074  0.75020705  0.49909356  1
  Fe  Fe24  1  0.24891324  0.49678091  0.00007701  1
  Fe  Fe25  1  0.50082148  0.49804261  -0.00288520  1
  Fe  Fe26  1  0.37663679  0.62449069  0.12310916  1
  Fe  Fe27  1  0.50068574  0.00361517  0.74930834  1
  Fe  Fe28  1  0.87298926  0.62833572  0.87236013  1
  Fe  Fe29  1  0.87663412  0.87738913  0.12450881  1
  Fe  Fe30  1  0.49718834  0.00255485  0.25275035  1
  Fe  Fe31  1  0.37889344  0.12826641  0.62226348  1
  Fe  Fe32  1  0.37461454  0.87474554  0.62688753  1
  Fe  Fe33  1  0.87720107  0.62422109  0.12396236  1
  Fe  Fe34  1  0.62305123  0.62460578  0.12488068  1
  Fe  Fe35  1  0.37691893  0.87651557  0.12441098  1
  Fe  Fe36  1  0.62281667  0.12398910  0.12613924  1
  Fe  Fe37  1  0.12765015  0.62427999  0.87401923  1
  Fe  Fe38  1  -0.00112037  -0.00108417  0.75492099  1
  Fe  Fe39  1  0.37497081  0.62104943  0.62291079  1
  Fe  Fe40  1  0.24800178  0.25091604  0.00029831  1
  Fe  Fe41  1  0.75252059  0.75154064  0.50057066  1
  Fe  Fe42  1  0.24952103  0.00265381  0.50189189  1
  Fe  Fe43  1  0.62682955  0.62356746  0.37521014  1
  Fe  Fe44  1  0.12512959  0.62339871  0.37601213  1
  Fe  Fe45  1  0.37355632  0.62054943  0.37767911  1
  Fe  Fe46  1  0.75021860  0.49917509  0.74891522  1
  Fe  Fe47  1  0.37211799  0.87774352  0.37491123  1
  Fe  Fe48  1  0.75140780  0.49778877  0.50403490  1
  Fe  Fe49  1  0.24956954  0.74966437  0.24955030  1
  Fe  Fe50  1  0.50295797  0.25056544  -0.00196988  1
  Fe  Fe51  1  0.24790821  0.25045682  0.50233700  1
  Fe  Fe52  1  0.24853643  0.74967751  0.50188851  1
  Fe  Fe53  1  0.62021824  0.37288932  0.62915404  1
  Fe  Fe54  1  0.75085597  0.00317489  0.74831513  1
  Fe  Fe55  1  0.25048297  0.49868410  0.74960313  1
  Fe  Fe56  1  0.87730770  0.12443407  0.12268444  1
  Fe  Fe57  1  0.62409304  0.87685948  0.12489474  1
  Fe  Fe58  1  0.86879555  0.37089561  0.87645823  1
  Fe  Fe59  1  0.62480990  0.62469626  0.87497893  1
  Fe  Fe60  1  0.50115491  0.00105519  -0.00261931  1
  Fe  Fe61  1  0.87479918  0.62259710  0.37729945  1
  Fe  Fe62  1  0.00073282  0.00542108  0.25289555  1
  Fe  Fe63  1  0.75288398  0.00110453  0.25253011  1
  Fe  Fe64  1  0.62721358  0.37576593  0.12262821  1
  Fe  Fe65  1  -0.00121454  0.49837305  -0.00257231  1
  Fe  Fe66  1  -0.00236469  0.49810825  0.75211665  1
  Fe  Fe67  1  0.00024046  0.74909665  0.25147978  1
  Fe  Fe68  1  0.62821533  0.12943168  0.87216351  1
  Fe  Fe69  1  0.37289346  0.87428693  0.87347529  1
  Fe  Fe70  1  0.24842888  0.49915247  0.24941775  1
  Fe  Fe71  1  -0.00212464  0.00243755  0.49819963  1
  Fe  Fe72  1  0.74891213  0.74983216  0.00138683  1
  Fe  Fe73  1  0.49923459  0.49759021  0.25222420  1
  Fe  Fe74  1  0.12336575  0.87832757  0.12548968  1
  Fe  Fe75  1  0.62820074  0.37571574  0.37503416  1
  Fe  Fe76  1  0.87509038  0.87330038  0.62734926  1
  Fe  Fe77  1  0.12301578  0.62328665  0.62612397  1
  Fe  Fe78  1  0.12337303  0.62354148  0.12362565  1
  Fe  Fe79  1  0.75305177  0.25054553  0.24737416  1
  Fe  Fe80  1  0.25002789  0.00442160  0.74805638  1
  Fe  Fe81  1  0.12505558  0.87708765  0.62640372  1
  Fe  Fe82  1  0.62389510  0.62469781  0.62423626  1
  Fe  Fe83  1  0.62767607  0.12307448  0.38057798  1
  Fe  Fe84  1  0.37363470  0.12749950  0.87645316  1
  Fe  Fe85  1  0.49990748  0.24912809  0.25442529  1
  Fe  Fe86  1  0.75145104  0.75117226  0.25001902  1
  Fe  Fe87  1  0.62752198  0.87468730  0.87341530  1
  Fe  Fe88  1  0.12223323  0.37109118  0.37237375  1
  Fe  Fe89  1  0.75166971  0.25203856  0.50414843  1
  Co  Co90  1  0.49832181  -0.00159489  0.50080097  1
  Co  Co91  1  0.00050889  0.24952992  0.50069823  1
  Co  Co92  1  0.12171119  0.12550039  0.12219037  1
  Co  Co93  1  0.24966863  0.74735041  0.74724259  1
  Co  Co94  1  0.50266211  0.49721268  0.49807024  1
  Co  Co95  1  0.86954520  0.87278955  0.87406426  1
  Co  Co96  1  0.12681064  0.12623282  0.37692016  1
  Co  Co97  1  0.37864170  0.12742497  0.12233533  1
  Co  Co98  1  0.75470384  -0.00171116  0.50277098  1
  Co  Co99  1  0.75103362  0.50231415  -0.00049310  1
  Co  Co100  1  0.74889529  0.24638993  0.00430509  1
  Co  Co101  1  0.37166462  0.37501037  0.37538069  1
  Co  Co102  1  0.25051551  0.24888950  0.74749580  1
  Co  Co103  1  0.50092232  0.75131793  -0.00222017  1
  Co  Co104  1  0.62352775  0.12473410  0.62052312  1
  Co  Co105  1  -0.00139501  0.50023593  0.25093868  1
  Co  Co106  1  0.87560413  0.37434674  0.37598277  1
  Co  Co107  1  0.25074093  0.00456405  0.24671588  1
  Co  Co108  1  0.74967545  0.24885858  0.74482263  1
  Co  Co109  1  0.87162532  0.12932739  0.37856988  1
  Co  Co110  1  0.49989307  0.24748909  0.75163224  1
  Co  Co111  1  0.87661289  0.37510980  0.12236486  1
  Co  Co112  1  0.87497062  0.12982685  0.87387008  1
  Co  Co113  1  -0.00424219  0.24641701  0.25028269  1
  Co  Co114  1  0.74765365  0.74875710  0.74711222  1
  Co  Co115  1  -0.00112226  -0.00130039  -0.00584445  1
  Co  Co116  1  0.50106638  0.25280670  0.49612081  1
  Co  Co117  1  0.62953925  0.37290630  0.87459897  1
  Co  Co118  1  0.12510573  0.37319022  0.87291437  1
  Co  Co119  1  0.87670557  0.87497572  0.37360339  1
  Co  Co120  1  0.37239622  0.62398608  0.87663764  1
  Co  Co121  1  0.24517107  0.49595393  0.50121225  1
  Co  Co122  1  0.50056837  0.50068100  0.75228263  1
  Co  Co123  1  0.12121040  0.12479292  0.62673216  1
  Co  Co124  1  0.87826006  0.37428578  0.62638129  1
  Co  Co125  1  0.37384959  0.12470607  0.37850149  1
  Co  Co126  1  0.13102016  0.87687224  0.87350258  1
  Co  Co127  1  0.87695752  0.62550514  0.62602050  1
