# generated using pymatgen
data_Fe45Co19
_symmetry_space_group_name_H-M   'P 1'
_cell_length_a   11.41556548
_cell_length_b   11.41383311
_cell_length_c   11.41501697
_cell_angle_alpha   90.00295505
_cell_angle_beta   89.99965626
_cell_angle_gamma   90.00874404
_symmetry_Int_Tables_number   1
_chemical_formula_structural   Fe45Co19
_chemical_formula_sum   'Fe90 Co38'
_cell_volume   1487.32371801
_cell_formula_units_Z   2
loop_
 _symmetry_equiv_pos_site_id
 _symmetry_equiv_pos_as_xyz
  1  'x, y, z'
loop_
 _atom_site_type_symbol
 _atom_site_label
 _atom_site_symmetry_multiplicity
 _atom_site_fract_x
 _atom_site_fract_y
 _atom_site_fract_z
 _atom_site_occupancy
  Fe  Fe0  1  0.24761074  -0.00053060  -0.00179547  1
  Fe  Fe1  1  0.25182260  0.75034496  -0.00244510  1
  Fe  Fe2  1  0.37302794  0.87651388  0.37703690  1
  Fe  Fe3  1  -0.00237830  0.24937745  0.24846189  1
  Fe  Fe4  1  0.74877467  0.00227316  0.25045258  1
  Fe  Fe5  1  0.74758361  0.00121660  0.74979326  1
  Fe  Fe6  1  0.87314454  0.12599592  0.12179651  1
  Fe  Fe7  1  0.25117506  0.74962187  0.50361984  1
  Fe  Fe8  1  0.49906253  0.75353333  -0.00018425  1
  Fe  Fe9  1  0.50312660  0.49814363  -0.00124615  1
  Fe  Fe10  1  0.62804579  0.87333000  0.37347576  1
  Fe  Fe11  1  0.75023190  0.50612253  0.74784568  1
  Fe  Fe12  1  0.74563644  0.49842384  -0.00296606  1
  Fe  Fe13  1  0.12362516  0.37430021  0.37300589  1
  Fe  Fe14  1  0.12467061  0.62656599  0.87232196  1
  Fe  Fe15  1  0.87180025  0.87459544  0.12487416  1
  Fe  Fe16  1  0.62569522  0.12739673  0.12544189  1
  Fe  Fe17  1  0.37287120  0.37687828  0.62310859  1
  Fe  Fe18  1  0.00257044  -0.00271308  -0.00038130  1
  Fe  Fe19  1  -0.00583809  0.74853455  0.75170787  1
  Fe  Fe20  1  0.00006143  0.25164198  -0.00088222  1
  Fe  Fe21  1  0.12476681  0.12671680  0.62377587  1
  Fe  Fe22  1  0.25407056  0.24500156  0.74959918  1
  Fe  Fe23  1  0.49485343  0.24684532  0.74821038  1
  Fe  Fe24  1  0.87406756  0.12434286  0.37763627  1
  Fe  Fe25  1  0.24788632  0.50262643  0.74838551  1
  Fe  Fe26  1  -0.00083117  -0.00026315  0.24876336  1
  Fe  Fe27  1  0.50261314  0.25337561  -0.00254951  1
  Fe  Fe28  1  -0.00097270  0.75239481  -0.00307181  1
  Fe  Fe29  1  0.00008855  0.25293127  0.74993743  1
  Fe  Fe30  1  0.87297299  0.37503408  0.12328716  1
  Fe  Fe31  1  0.37600752  0.62360166  0.37690963  1
  Fe  Fe32  1  0.50173338  -0.00194680  0.25007608  1
  Fe  Fe33  1  0.24951113  0.25042336  0.00054117  1
  Fe  Fe34  1  0.12305169  0.62632436  0.37411730  1
  Fe  Fe35  1  0.00395701  -0.00123651  0.75071937  1
  Fe  Fe36  1  0.12448213  0.62697869  0.12607598  1
  Fe  Fe37  1  0.50283810  -0.00404269  -0.00051055  1
  Fe  Fe38  1  0.87665484  0.62222797  0.38038792  1
  Fe  Fe39  1  0.25083417  0.00163575  0.25053856  1
  Fe  Fe40  1  0.87267501  0.87611314  0.37735911  1
  Fe  Fe41  1  0.25265073  0.24762498  0.25102691  1
  Fe  Fe42  1  0.12575231  0.87375723  0.37254185  1
  Fe  Fe43  1  0.75071925  0.50115023  0.25183115  1
  Fe  Fe44  1  0.74626224  0.00394685  0.50391678  1
  Fe  Fe45  1  -0.00223882  0.25076252  0.50193926  1
  Fe  Fe46  1  0.87312924  0.62445450  0.12221666  1
  Fe  Fe47  1  0.12750419  0.87357160  0.12714542  1
  Fe  Fe48  1  0.87574555  0.38032297  0.62331893  1
  Fe  Fe49  1  0.62340336  0.87329741  0.63135262  1
  Fe  Fe50  1  0.00074821  0.75230698  0.50191666  1
  Fe  Fe51  1  0.62367047  0.62767349  0.37609743  1
  Fe  Fe52  1  0.25187798  0.24964417  0.49867940  1
  Fe  Fe53  1  0.75217455  0.24732113  0.74767415  1
  Fe  Fe54  1  0.13057568  0.87241928  0.63139940  1
  Fe  Fe55  1  0.24978472  0.50152188  0.24993383  1
  Fe  Fe56  1  0.49847720  0.50071422  0.75000280  1
  Fe  Fe57  1  0.50307252  0.49685761  0.49908068  1
  Fe  Fe58  1  0.62569082  0.62880490  0.12556927  1
  Fe  Fe59  1  0.24472019  0.50088480  0.50131192  1
  Fe  Fe60  1  0.12403975  0.12698312  0.87638361  1
  Fe  Fe61  1  0.87652064  0.12305447  0.87422849  1
  Fe  Fe62  1  0.74941206  0.74719718  0.50471716  1
  Fe  Fe63  1  0.87387513  0.87706177  0.62620284  1
  Fe  Fe64  1  0.37664190  0.12385268  0.12246108  1
  Fe  Fe65  1  0.49782028  0.75284851  0.24871877  1
  Fe  Fe66  1  0.50155304  0.49873328  0.25127231  1
  Fe  Fe67  1  0.74904504  0.75322079  -0.00556130  1
  Fe  Fe68  1  0.74654275  -0.00177581  -0.00332071  1
  Fe  Fe69  1  0.87329504  0.37723769  0.87369035  1
  Fe  Fe70  1  0.62327644  0.62841651  0.87185790  1
  Fe  Fe71  1  0.37556105  0.37575010  0.12565536  1
  Fe  Fe72  1  0.37388945  0.37619843  0.87510298  1
  Fe  Fe73  1  0.62747330  0.37231034  0.12683292  1
  Fe  Fe74  1  0.37941066  0.12169008  0.38122836  1
  Fe  Fe75  1  0.12281312  0.12494383  0.37517564  1
  Fe  Fe76  1  0.49744553  0.75330067  0.50368315  1
  Fe  Fe77  1  0.62928255  0.36930714  0.37694066  1
  Fe  Fe78  1  0.49194774  0.74786435  0.74733385  1
  Fe  Fe79  1  0.37617860  0.62538873  0.12456059  1
  Fe  Fe80  1  0.24926284  0.50013589  0.00000644  1
  Fe  Fe81  1  -0.00369084  0.74920323  0.25020749  1
  Fe  Fe82  1  0.62601915  0.37389307  0.62647041  1
  Fe  Fe83  1  0.00209664  0.49901748  -0.00259450  1
  Fe  Fe84  1  0.00288469  -0.00169619  0.50193761  1
  Fe  Fe85  1  0.62346316  0.12697494  0.87320730  1
  Fe  Fe86  1  0.12475969  0.37427405  0.12662349  1
  Fe  Fe87  1  0.87432595  0.37721731  0.37825656  1
  Fe  Fe88  1  0.49823106  0.25044108  0.25315330  1
  Fe  Fe89  1  0.37310857  0.87841331  0.87063192  1
  Co  Co90  1  0.87920440  0.12125460  0.62756239  1
  Co  Co91  1  0.12872252  0.37378066  0.87362762  1
  Co  Co92  1  0.24432492  -0.00179255  0.49979534  1
  Co  Co93  1  0.12820033  0.87220487  0.87031775  1
  Co  Co94  1  -0.00181380  0.50111333  0.24885036  1
  Co  Co95  1  0.62019606  0.12753668  0.62380685  1
  Co  Co96  1  0.37288758  0.37808730  0.37613579  1
  Co  Co97  1  0.62850880  0.87283138  0.12794945  1
  Co  Co98  1  0.49892813  0.25412541  0.50172062  1
  Co  Co99  1  0.74503622  0.50236437  0.50081382  1
  Co  Co100  1  0.87447408  0.62221388  0.87646160  1
  Co  Co101  1  0.75393461  0.74687276  0.25237661  1
  Co  Co102  1  0.12741729  0.37081516  0.62610248  1
  Co  Co103  1  0.12103907  0.62892436  0.62841583  1
  Co  Co104  1  0.87950561  0.62176399  0.62104791  1
  Co  Co105  1  0.62066519  0.62656930  0.62635617  1
  Co  Co106  1  0.87449460  0.87883574  0.87308684  1
  Co  Co107  1  0.12538778  0.12511171  0.12516429  1
  Co  Co108  1  0.62200996  0.87211845  0.86746051  1
  Co  Co109  1  0.75325438  0.24662250  0.50582304  1
  Co  Co110  1  0.62515463  0.37407161  0.86808313  1
  Co  Co111  1  0.00278399  0.49876631  0.75079838  1
  Co  Co112  1  0.75339502  0.24934847  0.25087391  1
  Co  Co113  1  0.74892395  0.25040523  -0.00475936  1
  Co  Co114  1  0.37167389  0.87605196  0.12455393  1
  Co  Co115  1  0.62397343  0.12798919  0.37691111  1
  Co  Co116  1  0.25063725  0.00796932  0.75160375  1
  Co  Co117  1  0.50653277  -0.00533104  0.50081305  1
  Co  Co118  1  0.25763871  0.74414843  0.74840385  1
  Co  Co119  1  0.37657191  0.12483417  0.88168690  1
  Co  Co120  1  0.37665987  0.62156567  0.87784240  1
  Co  Co121  1  0.49708267  0.00521423  0.74991105  1
  Co  Co122  1  0.75495185  0.74672910  0.74850266  1
  Co  Co123  1  0.37613065  0.11967103  0.61610941  1
  Co  Co124  1  0.00717601  0.49823447  0.50243113  1
  Co  Co125  1  0.37660663  0.61949699  0.61964736  1
  Co  Co126  1  0.37176698  0.88181652  0.62700015  1
  Co  Co127  1  0.25217586  0.74851843  0.25146209  1
