# generated using pymatgen
data_Fe45Co19
_symmetry_space_group_name_H-M   'P 1'
_cell_length_a   11.41572303
_cell_length_b   11.41588501
_cell_length_c   11.41396840
_cell_angle_alpha   89.99836218
_cell_angle_beta   90.01525858
_cell_angle_gamma   90.00874006
_symmetry_Int_Tables_number   1
_chemical_formula_structural   Fe45Co19
_chemical_formula_sum   'Fe90 Co38'
_cell_volume   1487.47492836
_cell_formula_units_Z   2
loop_
 _symmetry_equiv_pos_site_id
 _symmetry_equiv_pos_as_xyz
  1  'x, y, z'
loop_
 _atom_site_type_symbol
 _atom_site_label
 _atom_site_symmetry_multiplicity
 _atom_site_fract_x
 _atom_site_fract_y
 _atom_site_fract_z
 _atom_site_occupancy
  Fe  Fe0  1  0.62459869  0.62484592  0.12334321  1
  Fe  Fe1  1  0.75297714  0.74653347  0.49785302  1
  Fe  Fe2  1  0.49631295  0.50107314  0.49834025  1
  Fe  Fe3  1  0.87369370  0.87385342  0.37392711  1
  Fe  Fe4  1  0.49760788  0.00022547  0.00076714  1
  Fe  Fe5  1  0.62718057  0.12458857  0.12731777  1
  Fe  Fe6  1  0.37408617  0.37283874  0.12207356  1
  Fe  Fe7  1  0.00262429  0.49946332  0.24863762  1
  Fe  Fe8  1  0.87490247  0.12604848  0.87328033  1
  Fe  Fe9  1  0.87824560  0.62701401  0.62698315  1
  Fe  Fe10  1  0.12277275  0.87766389  0.87827106  1
  Fe  Fe11  1  0.49750686  0.50161180  0.75295639  1
  Fe  Fe12  1  0.12852832  0.37583106  0.12071939  1
  Fe  Fe13  1  0.12607119  0.62362019  0.87568433  1
  Fe  Fe14  1  0.75065322  -0.00169436  0.74881002  1
  Fe  Fe15  1  0.75354160  -0.00038597  0.00325223  1
  Fe  Fe16  1  0.74977555  0.75039285  0.75129563  1
  Fe  Fe17  1  0.00182790  0.49964933  0.75092413  1
  Fe  Fe18  1  0.37527853  0.37526779  0.62526722  1
  Fe  Fe19  1  0.49823879  0.75009401  0.49991959  1
  Fe  Fe20  1  0.25268293  0.00402184  0.00309591  1
  Fe  Fe21  1  0.74961731  0.25107783  0.49930770  1
  Fe  Fe22  1  0.37331723  0.62768451  0.62651886  1
  Fe  Fe23  1  0.62265968  0.37649473  0.87511978  1
  Fe  Fe24  1  0.12376373  0.87601961  0.12483952  1
  Fe  Fe25  1  0.00207911  0.24851656  0.00121644  1
  Fe  Fe26  1  0.12707105  0.37488405  0.62356153  1
  Fe  Fe27  1  0.49606353  0.50425436  -0.00349923  1
  Fe  Fe28  1  -0.00359121  0.00214857  0.00420152  1
  Fe  Fe29  1  0.62455633  0.37540230  0.62548419  1
  Fe  Fe30  1  0.24798307  0.75162367  0.25138243  1
  Fe  Fe31  1  -0.00388184  0.00055847  0.24720898  1
  Fe  Fe32  1  -0.00057386  0.00087664  0.74517539  1
  Fe  Fe33  1  -0.00082872  0.50152674  0.50015331  1
  Fe  Fe34  1  0.87556353  0.37591611  0.87722412  1
  Fe  Fe35  1  0.87597767  0.62434268  0.87492392  1
  Fe  Fe36  1  0.75131573  0.74898354  0.00091868  1
  Fe  Fe37  1  0.12069506  0.87600576  0.61730928  1
  Fe  Fe38  1  0.12690472  0.37371296  0.37729039  1
  Fe  Fe39  1  0.25124910  0.50001550  0.75152630  1
  Fe  Fe40  1  0.00110205  0.74766892  0.00044020  1
  Fe  Fe41  1  0.87380780  0.37392044  0.62552185  1
  Fe  Fe42  1  0.62676141  0.12664216  0.62781531  1
  Fe  Fe43  1  0.87749028  0.87437841  0.87358214  1
  Fe  Fe44  1  0.74750529  0.49728142  0.24776187  1
  Fe  Fe45  1  0.62674944  0.87479219  0.87814901  1
  Fe  Fe46  1  0.25283113  0.24585770  0.50034429  1
  Fe  Fe47  1  0.49825953  0.75017783  -0.00221304  1
  Fe  Fe48  1  0.00132427  0.74898816  0.25162114  1
  Fe  Fe49  1  0.24943740  0.74972841  0.00114766  1
  Fe  Fe50  1  0.62485401  0.12412102  0.87222626  1
  Fe  Fe51  1  0.74792977  0.25112877  -0.00014609  1
  Fe  Fe52  1  0.62733180  0.12279455  0.37288306  1
  Fe  Fe53  1  0.74946091  0.50025924  0.75119939  1
  Fe  Fe54  1  0.24855695  0.24853825  0.24803560  1
  Fe  Fe55  1  0.25137376  0.25007583  0.75270077  1
  Fe  Fe56  1  0.12568887  0.62504774  0.37732753  1
  Fe  Fe57  1  0.50472514  0.75386363  0.25085607  1
  Fe  Fe58  1  0.49648508  0.24606859  -0.00325308  1
  Fe  Fe59  1  0.25140525  -0.00053614  0.24860971  1
  Fe  Fe60  1  0.12394896  0.12271264  0.37629882  1
  Fe  Fe61  1  0.37475227  0.62846551  0.12780006  1
  Fe  Fe62  1  0.12379504  0.87823498  0.37891725  1
  Fe  Fe63  1  0.00093404  0.25062663  0.24880833  1
  Fe  Fe64  1  0.62459360  0.37725642  0.37876739  1
  Fe  Fe65  1  0.12535764  0.12351468  0.87423711  1
  Fe  Fe66  1  0.62471698  0.62439559  0.62536528  1
  Fe  Fe67  1  0.24495811  0.75338303  0.74673419  1
  Fe  Fe68  1  0.37510870  0.87375497  0.37660615  1
  Fe  Fe69  1  0.62558307  0.62344462  0.37519706  1
  Fe  Fe70  1  0.87442681  0.37677212  0.37553262  1
  Fe  Fe71  1  0.50282788  -0.00484016  0.24912444  1
  Fe  Fe72  1  0.62713097  0.87323603  0.62208488  1
  Fe  Fe73  1  0.50144118  0.75249656  0.75074557  1
  Fe  Fe74  1  0.87158187  0.12611219  0.37055357  1
  Fe  Fe75  1  -0.00076754  0.24711491  0.50124400  1
  Fe  Fe76  1  0.37368621  0.87739468  0.87224994  1
  Fe  Fe77  1  0.50297539  0.25277332  0.25080178  1
  Fe  Fe78  1  0.25330962  0.50214185  0.49759090  1
  Fe  Fe79  1  0.00094263  0.24994107  0.74900490  1
  Fe  Fe80  1  0.49802102  0.49765763  0.25105413  1
  Fe  Fe81  1  0.75356549  -0.00006653  0.50162095  1
  Fe  Fe82  1  0.87500375  0.62495067  0.12690877  1
  Fe  Fe83  1  0.37668052  0.12476962  0.37168383  1
  Fe  Fe84  1  0.49892279  -0.00022317  0.50182082  1
  Fe  Fe85  1  0.37455173  0.11965772  0.63268032  1
  Fe  Fe86  1  0.25135118  0.50056124  0.25039602  1
  Fe  Fe87  1  0.12855206  0.37595155  0.87935556  1
  Fe  Fe88  1  0.49834020  0.24796885  0.50160204  1
  Fe  Fe89  1  0.87484029  0.37461595  0.12286465  1
  Co  Co90  1  0.25332095  0.50521891  0.00058493  1
  Co  Co91  1  0.74927499  0.50011529  -0.00013388  1
  Co  Co92  1  0.50640539  -0.00498575  0.74924584  1
  Co  Co93  1  0.37538567  0.87587758  0.62644839  1
  Co  Co94  1  0.24314986  -0.00530355  0.74788931  1
  Co  Co95  1  0.12511963  0.62308594  0.62273789  1
  Co  Co96  1  0.74591138  0.75128838  0.24968371  1
  Co  Co97  1  0.37348421  0.37418450  0.87900539  1
  Co  Co98  1  0.49820851  0.25167499  0.75069379  1
  Co  Co99  1  0.62552496  0.87472790  0.11983763  1
  Co  Co100  1  0.37494007  0.87304569  0.12552494  1
  Co  Co101  1  0.12324471  0.12313422  0.12642229  1
  Co  Co102  1  0.62044352  0.37569962  0.11989011  1
  Co  Co103  1  0.12635527  0.12587881  0.62403335  1
  Co  Co104  1  0.62633541  0.62620142  0.87509548  1
  Co  Co105  1  0.87167818  0.12881517  0.62760705  1
  Co  Co106  1  -0.00602006  0.00332596  0.50143559  1
  Co  Co107  1  0.37617072  0.62897163  0.37237179  1
  Co  Co108  1  0.25208338  0.24211944  -0.00078940  1
  Co  Co109  1  0.87667548  0.86996721  0.12527956  1
  Co  Co110  1  0.37484818  0.11829742  0.86771295  1
  Co  Co111  1  0.37166964  0.63108092  0.87128400  1
  Co  Co112  1  0.25347795  0.00148184  0.49939656  1
  Co  Co113  1  0.87342177  0.62250439  0.37042879  1
  Co  Co114  1  -0.00241874  0.74756703  0.49644390  1
  Co  Co115  1  0.37874554  0.12614021  0.12983190  1
  Co  Co116  1  0.25065836  0.75037405  0.50047234  1
  Co  Co117  1  0.74673453  0.25617281  0.25032785  1
  Co  Co118  1  0.00136398  0.50189137  0.00091170  1
  Co  Co119  1  0.75004986  -0.00508452  0.24623303  1
  Co  Co120  1  0.75144461  0.50177615  0.50215342  1
  Co  Co121  1  0.74879749  0.25295049  0.75272127  1
  Co  Co122  1  0.00539481  0.75021784  0.75078117  1
  Co  Co123  1  0.62702237  0.87596562  0.37977659  1
  Co  Co124  1  0.37378766  0.37131106  0.37471639  1
  Co  Co125  1  0.87646172  0.87063522  0.62617271  1
  Co  Co126  1  0.87160787  0.12975790  0.12732031  1
  Co  Co127  1  0.12597921  0.62574298  0.12560830  1
