# generated using pymatgen
data_Fe45Co19
_symmetry_space_group_name_H-M   'P 1'
_cell_length_a   11.41541039
_cell_length_b   11.41489435
_cell_length_c   11.41472176
_cell_angle_alpha   89.99602668
_cell_angle_beta   90.00503955
_cell_angle_gamma   90.00385040
_symmetry_Int_Tables_number   1
_chemical_formula_structural   Fe45Co19
_chemical_formula_sum   'Fe90 Co38'
_cell_volume   1487.40333688
_cell_formula_units_Z   2
loop_
 _symmetry_equiv_pos_site_id
 _symmetry_equiv_pos_as_xyz
  1  'x, y, z'
loop_
 _atom_site_type_symbol
 _atom_site_label
 _atom_site_symmetry_multiplicity
 _atom_site_fract_x
 _atom_site_fract_y
 _atom_site_fract_z
 _atom_site_occupancy
  Fe  Fe0  1  0.24742100  0.75169984  0.25199852  1
  Fe  Fe1  1  0.61943003  0.36989212  0.37624337  1
  Fe  Fe2  1  0.12533028  0.37507988  0.37521066  1
  Fe  Fe3  1  0.00226683  0.50118496  0.24898962  1
  Fe  Fe4  1  0.24893272  0.74885792  0.75276621  1
  Fe  Fe5  1  0.37593804  0.37605201  0.12680820  1
  Fe  Fe6  1  0.49973367  0.50332825  0.00083672  1
  Fe  Fe7  1  0.87296005  0.12499690  0.86825058  1
  Fe  Fe8  1  0.62664402  0.62524675  0.62392721  1
  Fe  Fe9  1  0.62687990  0.62812661  0.37359648  1
  Fe  Fe10  1  0.50407571  0.00265550  0.25249874  1
  Fe  Fe11  1  0.37457741  0.87917662  0.37449959  1
  Fe  Fe12  1  0.12409172  0.37112526  0.12310435  1
  Fe  Fe13  1  0.62833340  0.12661287  0.62471812  1
  Fe  Fe14  1  -0.00071091  0.75167716  0.24889475  1
  Fe  Fe15  1  0.50078112  0.50194553  0.50011812  1
  Fe  Fe16  1  0.00122482  0.24681285  0.25035194  1
  Fe  Fe17  1  0.12857006  0.12304767  0.37841809  1
  Fe  Fe18  1  0.12296554  0.37273676  0.87811226  1
  Fe  Fe19  1  0.87670033  0.37450475  0.37178857  1
  Fe  Fe20  1  0.62591857  0.12566938  0.12467481  1
  Fe  Fe21  1  0.74872940  0.75256708  0.75171743  1
  Fe  Fe22  1  0.75247378  0.49834275  0.00392822  1
  Fe  Fe23  1  0.62351142  0.37441610  0.87814436  1
  Fe  Fe24  1  0.62574191  0.87431327  0.12295282  1
  Fe  Fe25  1  0.24936916  0.50047852  0.49880506  1
  Fe  Fe26  1  0.12888645  0.12633998  0.12120327  1
  Fe  Fe27  1  0.75282087  0.75268674  0.49830731  1
  Fe  Fe28  1  -0.00404844  0.74926024  0.00012814  1
  Fe  Fe29  1  0.00071912  0.74952114  0.75127365  1
  Fe  Fe30  1  0.25175744  0.75078566  0.49966435  1
  Fe  Fe31  1  0.12514539  0.62506072  0.62495152  1
  Fe  Fe32  1  0.25319182  0.24991330  0.25150842  1
  Fe  Fe33  1  0.75026617  0.49876226  0.49813283  1
  Fe  Fe34  1  0.12305622  0.37107369  0.62203028  1
  Fe  Fe35  1  0.24970677  0.25271919  0.75087810  1
  Fe  Fe36  1  0.75460814  0.75682789  0.25036580  1
  Fe  Fe37  1  0.87506494  0.62412999  0.37156128  1
  Fe  Fe38  1  0.37228340  0.12249693  0.62560305  1
  Fe  Fe39  1  0.74726129  0.49712915  0.74944052  1
  Fe  Fe40  1  0.87666942  0.87855416  0.87216016  1
  Fe  Fe41  1  0.62960480  0.62777588  0.12519997  1
  Fe  Fe42  1  0.74911379  -0.00165160  -0.00225004  1
  Fe  Fe43  1  0.37240357  0.62224934  0.37240749  1
  Fe  Fe44  1  0.24750923  -0.00188020  0.75096783  1
  Fe  Fe45  1  0.25109107  0.74985427  -0.00306355  1
  Fe  Fe46  1  0.12251293  0.87695572  0.37803266  1
  Fe  Fe47  1  0.49898932  0.75112690  0.24963080  1
  Fe  Fe48  1  0.37367362  0.87740434  0.12580629  1
  Fe  Fe49  1  0.50304877  0.50002398  0.24947393  1
  Fe  Fe50  1  0.12710863  0.12651647  0.87574681  1
  Fe  Fe51  1  0.75123820  -0.00255783  0.50095353  1
  Fe  Fe52  1  0.49744477  0.24880754  0.00147166  1
  Fe  Fe53  1  0.12501003  0.87667286  0.12118048  1
  Fe  Fe54  1  0.12461866  0.87447955  0.62560011  1
  Fe  Fe55  1  0.12526660  0.62602137  0.12395206  1
  Fe  Fe56  1  0.49657068  0.74975335  0.49963676  1
  Fe  Fe57  1  0.75195548  0.25170732  0.50069831  1
  Fe  Fe58  1  0.00161456  0.00079223  0.24887119  1
  Fe  Fe59  1  0.37708706  0.37818370  0.87259569  1
  Fe  Fe60  1  0.75273547  0.25089708  0.00054960  1
  Fe  Fe61  1  0.62551940  0.62701931  0.87887014  1
  Fe  Fe62  1  0.50094747  0.74851274  0.75125116  1
  Fe  Fe63  1  -0.00207709  0.74841173  0.50018558  1
  Fe  Fe64  1  0.62328431  0.87339994  0.62369007  1
  Fe  Fe65  1  -0.00101217  0.50074143  0.49944515  1
  Fe  Fe66  1  0.50058022  0.00154257  0.49926278  1
  Fe  Fe67  1  0.74746990  0.25194215  0.24779308  1
  Fe  Fe68  1  0.87689334  0.37281280  0.87415756  1
  Fe  Fe69  1  0.50291725  0.25132064  0.74701205  1
  Fe  Fe70  1  0.00221917  0.49835323  0.74880504  1
  Fe  Fe71  1  0.87667748  0.37121231  0.62601221  1
  Fe  Fe72  1  0.50279677  -0.00061300  0.74999010  1
  Fe  Fe73  1  0.87353245  0.62490131  0.62622957  1
  Fe  Fe74  1  0.37303938  0.62479072  0.12639705  1
  Fe  Fe75  1  0.25464263  0.25036715  0.49741298  1
  Fe  Fe76  1  0.49947337  -0.00068503  -0.00041695  1
  Fe  Fe77  1  0.87195274  0.12274184  0.37343053  1
  Fe  Fe78  1  0.87312631  0.12327709  0.12622945  1
  Fe  Fe79  1  -0.00212137  0.00480916  0.50753270  1
  Fe  Fe80  1  0.62548054  0.12565059  0.87406835  1
  Fe  Fe81  1  0.87505995  0.62338491  0.87428264  1
  Fe  Fe82  1  0.37403301  0.62216153  0.62967489  1
  Fe  Fe83  1  0.37712020  0.87437530  0.87473953  1
  Fe  Fe84  1  0.25016516  0.50056303  -0.00161773  1
  Fe  Fe85  1  0.37709265  0.37829291  0.62645750  1
  Fe  Fe86  1  0.37530636  0.12496949  0.87373199  1
  Fe  Fe87  1  0.00110954  0.00339745  -0.00242843  1
  Fe  Fe88  1  -0.00250813  0.49991712  0.00289746  1
  Fe  Fe89  1  0.37266272  0.12242340  0.12560102  1
  Co  Co90  1  0.00287456  0.24742336  0.75047775  1
  Co  Co91  1  0.00296315  0.00438710  0.74573354  1
  Co  Co92  1  0.87196651  0.62378316  0.12894334  1
  Co  Co93  1  0.24637148  -0.00076775  0.24968436  1
  Co  Co94  1  0.12235298  0.87558462  0.87563711  1
  Co  Co95  1  0.87606323  0.87323503  0.62764574  1
  Co  Co96  1  0.24393269  0.49833954  0.75101887  1
  Co  Co97  1  -0.00212100  0.24610174  0.49675011  1
  Co  Co98  1  0.62362775  0.37475627  0.62078699  1
  Co  Co99  1  0.87032784  0.12955772  0.62939962  1
  Co  Co100  1  0.74749314  -0.00375022  0.74800219  1
  Co  Co101  1  0.25145703  -0.00083058  -0.00279849  1
  Co  Co102  1  0.25011850  -0.00279631  0.50252259  1
  Co  Co103  1  0.87679530  0.88054922  0.12286185  1
  Co  Co104  1  0.74575269  0.49534290  0.25125499  1
  Co  Co105  1  0.37569842  0.62320401  0.87180453  1
  Co  Co106  1  0.37398141  0.12138151  0.37504172  1
  Co  Co107  1  0.49730130  0.74923369  0.00176645  1
  Co  Co108  1  0.24705451  0.49875303  0.24886053  1
  Co  Co109  1  0.49766435  0.24660569  0.24847536  1
  Co  Co110  1  0.62728418  0.12848903  0.37654176  1
  Co  Co111  1  0.37843575  0.37698488  0.37428014  1
  Co  Co112  1  0.12944479  0.12940094  0.62350359  1
  Co  Co113  1  0.62319593  0.87338982  0.37631477  1
  Co  Co114  1  0.87777524  0.37367987  0.12821145  1
  Co  Co115  1  0.75483819  0.75250178  -0.00055056  1
  Co  Co116  1  0.50630583  0.50063946  0.75036052  1
  Co  Co117  1  0.49559430  0.24589615  0.50349656  1
  Co  Co118  1  0.87992255  0.87912320  0.37641694  1
  Co  Co119  1  0.62229502  0.37332927  0.12261079  1
  Co  Co120  1  0.74745972  -0.00298996  0.25126898  1
  Co  Co121  1  0.74593375  0.25467873  0.75091607  1
  Co  Co122  1  0.37593236  0.87558971  0.62768302  1
  Co  Co123  1  0.62277752  0.87397681  0.87714405  1
  Co  Co124  1  0.12254947  0.62373918  0.87685676  1
  Co  Co125  1  -0.00414957  0.24603595  -0.00042769  1
  Co  Co126  1  0.25467444  0.25099414  -0.00087314  1
  Co  Co127  1  0.12479493  0.62551284  0.37565434  1
