# generated using pymatgen
data_Fe45Co19
_symmetry_space_group_name_H-M   'P 1'
_cell_length_a   11.41440580
_cell_length_b   11.41543389
_cell_length_c   11.41622948
_cell_angle_alpha   89.99636968
_cell_angle_beta   90.00409538
_cell_angle_gamma   89.98525408
_symmetry_Int_Tables_number   1
_chemical_formula_structural   Fe45Co19
_chemical_formula_sum   'Fe90 Co38'
_cell_volume   1487.53915205
_cell_formula_units_Z   2
loop_
 _symmetry_equiv_pos_site_id
 _symmetry_equiv_pos_as_xyz
  1  'x, y, z'
loop_
 _atom_site_type_symbol
 _atom_site_label
 _atom_site_symmetry_multiplicity
 _atom_site_fract_x
 _atom_site_fract_y
 _atom_site_fract_z
 _atom_site_occupancy
  Fe  Fe0  1  0.62812381  0.37704123  0.12473664  1
  Fe  Fe1  1  0.62331342  0.62564332  0.87548853  1
  Fe  Fe2  1  0.62613441  0.62232941  0.62555714  1
  Fe  Fe3  1  0.12337725  0.87300319  0.87461419  1
  Fe  Fe4  1  0.25052871  0.74877384  0.00122984  1
  Fe  Fe5  1  0.75054990  0.00011368  0.49960770  1
  Fe  Fe6  1  0.37092408  0.37568647  0.62671264  1
  Fe  Fe7  1  0.37389488  0.12488487  0.62678810  1
  Fe  Fe8  1  0.62447995  0.12481410  0.37491853  1
  Fe  Fe9  1  0.25137823  0.00000571  0.50003399  1
  Fe  Fe10  1  0.87708859  0.12403211  0.12499146  1
  Fe  Fe11  1  0.87922257  0.12604238  0.87398911  1
  Fe  Fe12  1  0.00122073  0.75202923  0.50259654  1
  Fe  Fe13  1  -0.00130984  0.49946095  0.49869608  1
  Fe  Fe14  1  0.12537068  0.62305257  0.62665823  1
  Fe  Fe15  1  0.12191295  0.37695129  0.87135127  1
  Fe  Fe16  1  0.87707052  0.62181208  0.12661087  1
  Fe  Fe17  1  0.24857508  0.50125378  0.25067688  1
  Fe  Fe18  1  0.49948119  0.75062230  0.50091953  1
  Fe  Fe19  1  -0.00120766  0.75037234  0.00005904  1
  Fe  Fe20  1  0.24703743  0.24793629  -0.00034787  1
  Fe  Fe21  1  0.00364119  0.24877383  0.50615746  1
  Fe  Fe22  1  0.87434331  0.87530180  0.62457823  1
  Fe  Fe23  1  0.49880938  0.49989049  0.25040255  1
  Fe  Fe24  1  0.62491610  0.87564186  0.62608321  1
  Fe  Fe25  1  0.62448325  0.12585865  0.87537806  1
  Fe  Fe26  1  0.75234785  0.25220035  -0.00098418  1
  Fe  Fe27  1  -0.00080137  0.75254819  0.24885476  1
  Fe  Fe28  1  0.75497221  0.49951033  0.25647684  1
  Fe  Fe29  1  0.50017314  0.25037536  0.00000765  1
  Fe  Fe30  1  0.62334134  0.12199872  0.12528721  1
  Fe  Fe31  1  0.87436952  0.37759044  0.62714573  1
  Fe  Fe32  1  0.62778701  0.37852132  0.62522105  1
  Fe  Fe33  1  0.25128055  0.00175071  -0.00184958  1
  Fe  Fe34  1  0.87344991  0.62310557  0.62461599  1
  Fe  Fe35  1  0.62534548  0.87396228  0.37452623  1
  Fe  Fe36  1  0.25099849  -0.00019720  0.75366158  1
  Fe  Fe37  1  0.49909213  0.75225087  0.75110557  1
  Fe  Fe38  1  0.49986573  0.25125592  0.24851966  1
  Fe  Fe39  1  0.88014744  0.62468581  0.87308624  1
  Fe  Fe40  1  0.49789860  -0.00114008  0.49917266  1
  Fe  Fe41  1  0.62718703  0.62208778  0.12507397  1
  Fe  Fe42  1  0.00003436  0.25226425  0.00112657  1
  Fe  Fe43  1  0.49784535  0.49827172  0.75376954  1
  Fe  Fe44  1  0.49925981  0.75062529  0.24622098  1
  Fe  Fe45  1  0.75040282  0.25198327  0.75190583  1
  Fe  Fe46  1  0.12456774  0.12510607  0.37580527  1
  Fe  Fe47  1  0.12526158  0.37741496  0.12510093  1
  Fe  Fe48  1  0.75174802  0.25042440  0.24979824  1
  Fe  Fe49  1  0.24872887  0.00060556  0.24801683  1
  Fe  Fe50  1  0.12219615  0.62310000  0.12487623  1
  Fe  Fe51  1  0.75144293  0.75049549  0.75224337  1
  Fe  Fe52  1  0.62370554  0.12374166  0.62593581  1
  Fe  Fe53  1  0.75019267  -0.00130475  0.75270576  1
  Fe  Fe54  1  0.37341968  0.12807989  0.37391975  1
  Fe  Fe55  1  0.37453970  0.62537780  0.62583595  1
  Fe  Fe56  1  0.00066082  -0.00022555  0.74884579  1
  Fe  Fe57  1  0.62546202  0.37521805  0.37617040  1
  Fe  Fe58  1  -0.00022544  -0.00138080  0.00085502  1
  Fe  Fe59  1  0.37185175  0.37546375  0.12333065  1
  Fe  Fe60  1  0.87855102  0.12403845  0.37597606  1
  Fe  Fe61  1  0.24958394  0.74818200  0.75002024  1
  Fe  Fe62  1  0.37579590  0.12360948  0.12541222  1
  Fe  Fe63  1  0.74928135  0.74787697  0.49850794  1
  Fe  Fe64  1  0.12499364  0.87616483  0.12449320  1
  Fe  Fe65  1  0.75303361  -0.00140645  0.25045007  1
  Fe  Fe66  1  0.75183426  0.75045239  0.24996160  1
  Fe  Fe67  1  0.49924464  0.25054848  0.50149789  1
  Fe  Fe68  1  0.75004969  0.25020655  0.50113392  1
  Fe  Fe69  1  0.00205203  0.25064031  0.24718840  1
  Fe  Fe70  1  0.37377004  0.62453984  0.12395626  1
  Fe  Fe71  1  0.37160369  0.87124657  0.37371483  1
  Fe  Fe72  1  0.12429314  0.62715819  0.37424062  1
  Fe  Fe73  1  0.62265299  0.87768172  0.12206556  1
  Fe  Fe74  1  0.49798103  -0.00204160  0.75423747  1
  Fe  Fe75  1  0.75180872  0.75104177  -0.00155993  1
  Fe  Fe76  1  0.12716025  0.87657968  0.62546673  1
  Fe  Fe77  1  0.12494697  0.87478555  0.37522728  1
  Fe  Fe78  1  0.50084162  0.25218722  0.75078762  1
  Fe  Fe79  1  0.87524797  0.12400321  0.62578841  1
  Fe  Fe80  1  0.24851430  0.50297018  -0.00562527  1
  Fe  Fe81  1  0.75433714  0.49718542  -0.00472072  1
  Fe  Fe82  1  0.49803503  0.49917276  -0.00261151  1
  Fe  Fe83  1  0.25034683  0.50135692  0.49967647  1
  Fe  Fe84  1  0.12673338  0.37281732  0.37619659  1
  Fe  Fe85  1  0.37314557  0.62807413  0.37431695  1
  Fe  Fe86  1  0.75153018  -0.00113484  -0.00262313  1
  Fe  Fe87  1  0.24397613  0.24910510  0.74801500  1
  Fe  Fe88  1  0.49989435  0.50061871  0.49890109  1
  Fe  Fe89  1  0.37170252  0.37302796  0.37479772  1
  Co  Co90  1  0.24843743  0.74950632  0.24545791  1
  Co  Co91  1  0.12182113  0.62784010  0.87420002  1
  Co  Co92  1  0.62437429  0.87365380  0.87686201  1
  Co  Co93  1  0.75039073  0.50041197  0.75468160  1
  Co  Co94  1  0.00047328  -0.00104657  0.50194148  1
  Co  Co95  1  0.87486035  0.37733705  0.12601941  1
  Co  Co96  1  0.00015888  0.49897334  -0.00121173  1
  Co  Co97  1  0.88049736  0.37306029  0.87064193  1
  Co  Co98  1  0.12319015  0.12350943  0.12394573  1
  Co  Co99  1  -0.00037453  0.75065556  0.74660980  1
  Co  Co100  1  0.87878072  0.62896233  0.37513552  1
  Co  Co101  1  0.62309368  0.62583743  0.37359084  1
  Co  Co102  1  0.37573007  0.87768461  0.12323514  1
  Co  Co103  1  0.37119399  0.37160203  0.87486569  1
  Co  Co104  1  0.50049024  0.74860444  0.00341531  1
  Co  Co105  1  0.87859429  0.36983231  0.37721692  1
  Co  Co106  1  0.37386044  0.87060715  0.87742327  1
  Co  Co107  1  0.24866467  0.24916304  0.50380959  1
  Co  Co108  1  0.25035664  0.50330453  0.75337726  1
  Co  Co109  1  0.75121453  0.50115760  0.49561751  1
  Co  Co110  1  0.12160845  0.12397790  0.87555566  1
  Co  Co111  1  0.87484915  0.87532900  0.12382384  1
  Co  Co112  1  0.87839089  0.87553396  0.87410412  1
  Co  Co113  1  0.12684956  0.38015976  0.62558227  1
  Co  Co114  1  0.49850679  -0.00131613  0.25305149  1
  Co  Co115  1  0.49714029  0.00179747  -0.00535040  1
  Co  Co116  1  0.87589811  0.87444665  0.37704617  1
  Co  Co117  1  0.12762778  0.11937271  0.62433290  1
  Co  Co118  1  0.00373923  0.24814145  0.74450986  1
  Co  Co119  1  0.00034788  0.50229436  0.74862059  1
  Co  Co120  1  0.00060599  0.49789874  0.25245688  1
  Co  Co121  1  0.24810100  0.74888528  0.50340158  1
  Co  Co122  1  0.37342747  0.12989866  0.87295779  1
  Co  Co123  1  0.24854721  0.24885837  0.24653074  1
  Co  Co124  1  0.00026161  -0.00173032  0.24918024  1
  Co  Co125  1  0.37343739  0.87495586  0.62595748  1
  Co  Co126  1  0.37580434  0.62842692  0.87514995  1
  Co  Co127  1  0.62419703  0.37462854  0.87649181  1
