# generated using pymatgen
data_Fe45Co19
_symmetry_space_group_name_H-M   'P 1'
_cell_length_a   11.41670334
_cell_length_b   11.41449241
_cell_length_c   11.41520277
_cell_angle_alpha   90.00583663
_cell_angle_beta   89.99746657
_cell_angle_gamma   89.99757539
_symmetry_Int_Tables_number   1
_chemical_formula_structural   Fe45Co19
_chemical_formula_sum   'Fe90 Co38'
_cell_volume   1487.58211020
_cell_formula_units_Z   2
loop_
 _symmetry_equiv_pos_site_id
 _symmetry_equiv_pos_as_xyz
  1  'x, y, z'
loop_
 _atom_site_type_symbol
 _atom_site_label
 _atom_site_symmetry_multiplicity
 _atom_site_fract_x
 _atom_site_fract_y
 _atom_site_fract_z
 _atom_site_occupancy
  Fe  Fe0  1  0.12681522  0.37298295  0.12445909  1
  Fe  Fe1  1  0.00253944  0.74804109  0.50235925  1
  Fe  Fe2  1  0.74818551  0.00081621  0.49988088  1
  Fe  Fe3  1  0.37517041  0.37568691  0.37586377  1
  Fe  Fe4  1  0.75056090  0.00102964  0.24792901  1
  Fe  Fe5  1  0.25174055  0.25027168  -0.00189094  1
  Fe  Fe6  1  0.87497999  0.62560365  0.87618958  1
  Fe  Fe7  1  0.37467306  0.87572771  0.87618935  1
  Fe  Fe8  1  0.37683654  0.37851943  0.87707745  1
  Fe  Fe9  1  0.50214621  0.00060461  -0.00012667  1
  Fe  Fe10  1  0.25093320  0.49968408  0.75185554  1
  Fe  Fe11  1  0.49798509  0.74855360  0.25025727  1
  Fe  Fe12  1  -0.00258035  0.49918079  0.75119340  1
  Fe  Fe13  1  0.62341902  0.12419355  0.62932914  1
  Fe  Fe14  1  0.12415706  0.37120838  0.62791988  1
  Fe  Fe15  1  0.87608866  0.37241595  0.62577090  1
  Fe  Fe16  1  0.24677073  0.74903793  0.50110655  1
  Fe  Fe17  1  0.75090892  0.75229323  0.00068147  1
  Fe  Fe18  1  0.62573652  0.62577955  0.12625447  1
  Fe  Fe19  1  0.25143807  0.74969475  0.25164500  1
  Fe  Fe20  1  0.74640239  0.00020447  0.00181149  1
  Fe  Fe21  1  0.62548564  0.62427091  0.87305663  1
  Fe  Fe22  1  0.87422025  0.12361332  0.87684364  1
  Fe  Fe23  1  0.37247629  0.62264116  0.12071881  1
  Fe  Fe24  1  0.87661968  0.87685308  0.12461898  1
  Fe  Fe25  1  0.12309451  0.63028947  0.86997666  1
  Fe  Fe26  1  0.74879518  0.74810484  0.49785850  1
  Fe  Fe27  1  0.12340386  0.12472729  0.37663068  1
  Fe  Fe28  1  0.24540971  0.75292099  -0.00301071  1
  Fe  Fe29  1  0.75194387  0.50142220  0.25369728  1
  Fe  Fe30  1  0.37527680  0.37499189  0.62562989  1
  Fe  Fe31  1  0.75171967  0.25045970  0.75213085  1
  Fe  Fe32  1  0.62378233  0.12585574  0.37313386  1
  Fe  Fe33  1  0.37297175  0.62493822  0.62370562  1
  Fe  Fe34  1  0.50121581  0.75006678  0.00150347  1
  Fe  Fe35  1  0.62381561  0.37723161  0.87161029  1
  Fe  Fe36  1  0.74811373  0.24941861  -0.00038047  1
  Fe  Fe37  1  0.00702455  -0.00019976  0.00431332  1
  Fe  Fe38  1  0.24718512  0.50058709  0.49936784  1
  Fe  Fe39  1  0.37558204  0.12652621  0.12524112  1
  Fe  Fe40  1  0.87790743  0.12256461  0.37711721  1
  Fe  Fe41  1  0.87672303  0.37408089  0.37578726  1
  Fe  Fe42  1  0.49919418  0.00075513  0.25068361  1
  Fe  Fe43  1  0.62597585  0.62111141  0.62397741  1
  Fe  Fe44  1  0.62362596  0.37701380  0.37610469  1
  Fe  Fe45  1  0.87543720  0.37448253  0.12298900  1
  Fe  Fe46  1  0.87970898  0.87619473  0.87553938  1
  Fe  Fe47  1  0.25079502  0.49990853  0.24994907  1
  Fe  Fe48  1  0.37651576  0.12362390  0.87260254  1
  Fe  Fe49  1  0.12790942  0.12450977  0.87227494  1
  Fe  Fe50  1  0.87840064  0.87733580  0.37662820  1
  Fe  Fe51  1  0.00260709  0.50043107  -0.00083981  1
  Fe  Fe52  1  0.00095457  0.00334020  0.74392351  1
  Fe  Fe53  1  0.25204054  0.25002395  0.25109261  1
  Fe  Fe54  1  0.74853406  0.49884802  -0.00090793  1
  Fe  Fe55  1  0.49750879  0.74995624  0.74920007  1
  Fe  Fe56  1  0.24759630  0.00002204  0.50283133  1
  Fe  Fe57  1  0.87478631  0.87657548  0.62291699  1
  Fe  Fe58  1  0.00000219  0.75021786  0.24918584  1
  Fe  Fe59  1  0.00061607  0.24864018  -0.00078800  1
  Fe  Fe60  1  0.87488754  0.62454701  0.12373863  1
  Fe  Fe61  1  0.62434538  0.37822283  0.62518529  1
  Fe  Fe62  1  0.00125136  0.50040397  0.49947448  1
  Fe  Fe63  1  0.87374207  0.62290085  0.62386320  1
  Fe  Fe64  1  0.37334161  0.87636145  0.12307812  1
  Fe  Fe65  1  0.75190656  0.75057761  0.74976513  1
  Fe  Fe66  1  0.12629787  0.62635443  0.12552111  1
  Fe  Fe67  1  0.75171672  0.24806250  0.24901239  1
  Fe  Fe68  1  0.49671194  0.50079143  0.24983870  1
  Fe  Fe69  1  -0.00080550  0.24724805  0.24903063  1
  Fe  Fe70  1  0.50103558  0.25092723  -0.00053281  1
  Fe  Fe71  1  0.74952189  -0.00101179  0.75044505  1
  Fe  Fe72  1  0.25046274  -0.00395491  0.74798315  1
  Fe  Fe73  1  0.00007590  0.50098162  0.24991942  1
  Fe  Fe74  1  0.74988971  0.25023271  0.49995656  1
  Fe  Fe75  1  0.12393289  0.37400830  0.37486732  1
  Fe  Fe76  1  0.75078132  0.74982290  0.25151104  1
  Fe  Fe77  1  0.62398599  0.87492092  0.37383707  1
  Fe  Fe78  1  0.25068944  0.24912137  0.49972334  1
  Fe  Fe79  1  0.24778260  0.00119610  0.24819123  1
  Fe  Fe80  1  0.12276723  0.87643893  0.37532182  1
  Fe  Fe81  1  0.12417768  0.37197017  0.87218244  1
  Fe  Fe82  1  0.37531036  0.62318800  0.87771009  1
  Fe  Fe83  1  0.62360429  0.37363865  0.12803096  1
  Fe  Fe84  1  0.62453395  0.87406812  0.87464916  1
  Fe  Fe85  1  0.49908469  0.24801884  0.49940177  1
  Fe  Fe86  1  0.37451157  0.87649449  0.37815691  1
  Fe  Fe87  1  0.50038256  0.74843184  0.49832412  1
  Fe  Fe88  1  0.37679085  0.12320729  0.62661346  1
  Fe  Fe89  1  0.62215648  0.87573894  0.62487400  1
  Co  Co90  1  0.49906246  0.25275877  0.75016184  1
  Co  Co91  1  0.12848968  0.12980804  0.12486534  1
  Co  Co92  1  0.49722530  0.25125593  0.25284413  1
  Co  Co93  1  0.87721701  0.62656135  0.37630292  1
  Co  Co94  1  0.00291411  0.00168719  0.50578454  1
  Co  Co95  1  0.12619838  0.62382128  0.62958757  1
  Co  Co96  1  0.37343531  0.37595607  0.12260695  1
  Co  Co97  1  0.37320040  0.12286731  0.37550178  1
  Co  Co98  1  0.12756077  0.87247861  0.12691386  1
  Co  Co99  1  0.62271056  0.12670616  0.12619240  1
  Co  Co100  1  0.50190183  0.00271310  0.49867343  1
  Co  Co101  1  0.25388552  0.25118866  0.75130287  1
  Co  Co102  1  -0.00025216  0.24844595  0.50051542  1
  Co  Co103  1  0.12864093  0.13065724  0.62630337  1
  Co  Co104  1  0.12164639  0.87441133  0.86952004  1
  Co  Co105  1  -0.00268790  0.24577392  0.75131939  1
  Co  Co106  1  0.24776944  -0.00042214  -0.00020057  1
  Co  Co107  1  0.75331884  0.49920687  0.49790794  1
  Co  Co108  1  0.12496938  0.62454001  0.37365657  1
  Co  Co109  1  0.62415639  0.87494035  0.12657532  1
  Co  Co110  1  0.49737900  0.49988743  0.49984823  1
  Co  Co111  1  0.50407629  0.49965990  0.00142536  1
  Co  Co112  1  0.37317298  0.62485132  0.37741560  1
  Co  Co113  1  0.25492450  0.75229890  0.75028318  1
  Co  Co114  1  0.49748558  0.50165973  0.74919459  1
  Co  Co115  1  0.62461315  0.12472365  0.87246214  1
  Co  Co116  1  0.87116429  0.12644093  0.62426863  1
  Co  Co117  1  0.00249156  0.00185706  0.24648564  1
  Co  Co118  1  0.24388157  0.49993905  -0.00289860  1
  Co  Co119  1  -0.00523945  0.75021427  0.74610946  1
  Co  Co120  1  0.62398890  0.62273291  0.37529231  1
  Co  Co121  1  0.00134427  0.75084113  0.00177756  1
  Co  Co122  1  0.49968991  -0.00372522  0.75116923  1
  Co  Co123  1  0.75238741  0.49908176  0.75055376  1
  Co  Co124  1  0.87541570  0.37401329  0.87696067  1
  Co  Co125  1  0.87468206  0.12488581  0.12192192  1
  Co  Co126  1  0.12510391  0.87141956  0.62820550  1
  Co  Co127  1  0.37731951  0.87506703  0.62084584  1
