# generated using pymatgen
data_Fe45Co19
_symmetry_space_group_name_H-M   'P 1'
_cell_length_a   11.41450342
_cell_length_b   11.41340809
_cell_length_c   11.41516172
_cell_angle_alpha   90.00460058
_cell_angle_beta   89.99915356
_cell_angle_gamma   90.01459495
_symmetry_Int_Tables_number   1
_chemical_formula_structural   Fe45Co19
_chemical_formula_sum   'Fe90 Co38'
_cell_volume   1487.14878760
_cell_formula_units_Z   2
loop_
 _symmetry_equiv_pos_site_id
 _symmetry_equiv_pos_as_xyz
  1  'x, y, z'
loop_
 _atom_site_type_symbol
 _atom_site_label
 _atom_site_symmetry_multiplicity
 _atom_site_fract_x
 _atom_site_fract_y
 _atom_site_fract_z
 _atom_site_occupancy
  Fe  Fe0  1  0.87497285  0.37532904  0.37606582  1
  Fe  Fe1  1  0.25524120  0.24961665  -0.00285311  1
  Fe  Fe2  1  0.49995703  0.74856535  0.25104132  1
  Fe  Fe3  1  0.62589741  0.87570129  0.37554462  1
  Fe  Fe4  1  -0.00324102  -0.00375250  0.24815787  1
  Fe  Fe5  1  0.12677226  0.37313439  0.12450182  1
  Fe  Fe6  1  0.87511344  0.87565044  0.87571734  1
  Fe  Fe7  1  0.37456178  0.87368430  0.87431701  1
  Fe  Fe8  1  0.00021861  0.49937979  0.24946989  1
  Fe  Fe9  1  0.00436380  0.00190921  0.50109188  1
  Fe  Fe10  1  0.62803957  0.62085989  0.12599576  1
  Fe  Fe11  1  0.74801395  0.00092200  0.00122326  1
  Fe  Fe12  1  0.00163036  0.25035781  0.75164087  1
  Fe  Fe13  1  0.12715553  0.62504501  0.37250676  1
  Fe  Fe14  1  0.00288238  0.50007823  0.50088866  1
  Fe  Fe15  1  0.00047429  0.24994260  -0.00025002  1
  Fe  Fe16  1  0.00346695  -0.00005437  0.75023893  1
  Fe  Fe17  1  0.74782809  0.25172446  0.74751929  1
  Fe  Fe18  1  0.74802184  0.25404280  0.00167165  1
  Fe  Fe19  1  0.12547404  0.62606599  0.62479760  1
  Fe  Fe20  1  0.87300521  0.12395026  0.37492717  1
  Fe  Fe21  1  0.49493318  0.50204329  0.74793461  1
  Fe  Fe22  1  0.49974636  0.00044274  0.25035034  1
  Fe  Fe23  1  0.74861237  0.25355966  0.24918410  1
  Fe  Fe24  1  0.49848345  0.50036629  0.25164990  1
  Fe  Fe25  1  0.74692872  0.00097566  0.50357240  1
  Fe  Fe26  1  0.00063283  0.75149840  0.00134083  1
  Fe  Fe27  1  0.00037111  0.74979516  0.49618860  1
  Fe  Fe28  1  0.62498702  0.37685520  0.37656636  1
  Fe  Fe29  1  0.87680593  0.87438394  0.62370242  1
  Fe  Fe30  1  0.12637258  0.37592161  0.37513142  1
  Fe  Fe31  1  0.62229702  0.62673040  0.62553883  1
  Fe  Fe32  1  0.74846165  -0.00079485  0.74764510  1
  Fe  Fe33  1  0.25166543  0.24815264  0.25158973  1
  Fe  Fe34  1  0.24970027  0.74943316  0.49922616  1
  Fe  Fe35  1  0.49935162  0.74957113  0.49776574  1
  Fe  Fe36  1  0.62293460  0.37766528  0.87504593  1
  Fe  Fe37  1  0.74887040  0.50115290  0.50070726  1
  Fe  Fe38  1  0.62522260  0.87415076  0.87390015  1
  Fe  Fe39  1  0.37433154  0.12129001  0.37786987  1
  Fe  Fe40  1  0.49656904  0.49890294  0.00036031  1
  Fe  Fe41  1  0.62140658  0.12987028  0.12547226  1
  Fe  Fe42  1  0.75020484  0.50073660  0.75025864  1
  Fe  Fe43  1  0.87749139  0.62453246  0.62594284  1
  Fe  Fe44  1  0.75211656  0.75178046  0.25195792  1
  Fe  Fe45  1  0.12771816  0.62434646  0.87519136  1
  Fe  Fe46  1  0.25167784  -0.00150316  0.00255913  1
  Fe  Fe47  1  0.87458272  0.62299436  0.37346760  1
  Fe  Fe48  1  0.25267612  0.24777510  0.75278404  1
  Fe  Fe49  1  0.50275456  -0.00291142  0.74620920  1
  Fe  Fe50  1  0.37292195  0.37629965  0.37718629  1
  Fe  Fe51  1  0.24966011  0.75180858  0.00112245  1
  Fe  Fe52  1  0.37568765  0.12382584  0.62460095  1
  Fe  Fe53  1  0.37896886  0.12836584  0.12464443  1
  Fe  Fe54  1  0.25313138  0.50329629  0.74712493  1
  Fe  Fe55  1  0.75062526  0.74870252  0.49947991  1
  Fe  Fe56  1  0.24553510  -0.00178950  0.74770267  1
  Fe  Fe57  1  0.12783282  0.37410911  0.62519811  1
  Fe  Fe58  1  0.74856484  0.74751349  -0.00237480  1
  Fe  Fe59  1  0.62378891  0.12601029  0.87367994  1
  Fe  Fe60  1  0.87315382  0.12527591  0.12550024  1
  Fe  Fe61  1  0.24754923  0.24662209  0.49865221  1
  Fe  Fe62  1  0.25196746  0.75287775  0.24785583  1
  Fe  Fe63  1  0.37421438  0.87281420  0.62446159  1
  Fe  Fe64  1  0.12674961  0.12392383  0.12569938  1
  Fe  Fe65  1  0.87608418  0.37564026  0.87542560  1
  Fe  Fe66  1  0.62468911  0.87428568  0.12555721  1
  Fe  Fe67  1  0.00201158  0.24837669  0.49851873  1
  Fe  Fe68  1  0.87511399  0.37540741  0.62391548  1
  Fe  Fe69  1  0.87381582  0.62397248  0.12647156  1
  Fe  Fe70  1  0.49800614  0.25170940  0.75070773  1
  Fe  Fe71  1  0.37480387  0.62529687  0.12451613  1
  Fe  Fe72  1  0.00000835  0.24969367  0.25043639  1
  Fe  Fe73  1  0.37397580  0.87750284  0.37536484  1
  Fe  Fe74  1  0.87524148  0.12670139  0.62515828  1
  Fe  Fe75  1  0.12425893  0.62712440  0.12707424  1
  Fe  Fe76  1  0.50050239  0.00022448  -0.00038418  1
  Fe  Fe77  1  0.62583154  0.12424483  0.37591499  1
  Fe  Fe78  1  0.25170333  0.49894765  0.24824750  1
  Fe  Fe79  1  0.00114743  0.49958976  0.00003229  1
  Fe  Fe80  1  0.12746652  0.87813610  0.37203799  1
  Fe  Fe81  1  0.49632136  0.50275371  0.50022884  1
  Fe  Fe82  1  0.00263076  0.75093396  0.75127625  1
  Fe  Fe83  1  0.74853545  0.74917758  0.75074641  1
  Fe  Fe84  1  0.00016473  -0.00086747  0.00076972  1
  Fe  Fe85  1  0.50151385  0.74780711  -0.00220628  1
  Fe  Fe86  1  0.50133465  0.24983693  0.50113715  1
  Fe  Fe87  1  0.87423658  0.12570660  0.87482608  1
  Fe  Fe88  1  0.87607776  0.62336395  0.87468377  1
  Fe  Fe89  1  0.12850531  0.37612983  0.87524228  1
  Co  Co90  1  0.61959716  0.37474478  0.12512229  1
  Co  Co91  1  0.87697263  0.37617440  0.12522761  1
  Co  Co92  1  0.49919786  0.25024167  0.25595570  1
  Co  Co93  1  0.00219224  0.49893601  0.74996163  1
  Co  Co94  1  0.25575156  0.00016683  0.24551414  1
  Co  Co95  1  0.24908699  0.74980921  0.75033985  1
  Co  Co96  1  0.62330519  0.62103726  0.87436446  1
  Co  Co97  1  -0.00358241  0.75307791  0.25240306  1
  Co  Co98  1  0.50164209  -0.00145723  0.50173095  1
  Co  Co99  1  0.37708042  0.37205812  0.12706981  1
  Co  Co100  1  0.37631429  0.11902313  0.87230169  1
  Co  Co101  1  0.12533908  0.12058512  0.36997843  1
  Co  Co102  1  0.62286412  0.37770763  0.62452019  1
  Co  Co103  1  0.75134219  0.49738382  -0.00073098  1
  Co  Co104  1  0.87193059  0.87326431  0.12195027  1
  Co  Co105  1  0.62519287  0.86974325  0.62379802  1
  Co  Co106  1  0.24690560  0.00117024  0.50372158  1
  Co  Co107  1  0.12366748  0.87121224  0.62303539  1
  Co  Co108  1  0.49685193  0.25158914  -0.00613083  1
  Co  Co109  1  0.49986627  0.74932342  0.75274997  1
  Co  Co110  1  0.25038790  0.50228330  0.50187824  1
  Co  Co111  1  0.37261735  0.62655740  0.87707706  1
  Co  Co112  1  0.37976349  0.87303453  0.12371815  1
  Co  Co113  1  0.12608087  0.12389407  0.87704780  1
  Co  Co114  1  0.62307969  0.12750358  0.62577697  1
  Co  Co115  1  0.87289582  0.87905005  0.37904446  1
  Co  Co116  1  0.25072465  0.49987310  0.00360903  1
  Co  Co117  1  0.74976105  0.49621041  0.25055105  1
  Co  Co118  1  0.37289540  0.37967742  0.87398905  1
  Co  Co119  1  0.12415474  0.87558904  0.12750363  1
  Co  Co120  1  0.37305579  0.37239799  0.62264870  1
  Co  Co121  1  0.74869482  0.25014569  0.50083705  1
  Co  Co122  1  0.12507763  0.12897669  0.62748569  1
  Co  Co123  1  0.12573733  0.87544975  0.87709960  1
  Co  Co124  1  0.37229111  0.62529174  0.37375481  1
  Co  Co125  1  0.62571360  0.62511231  0.37434473  1
  Co  Co126  1  0.74787333  -0.00009110  0.24756544  1
  Co  Co127  1  0.37558898  0.63003071  0.62362477  1
