# generated using pymatgen
data_Fe45Co19
_symmetry_space_group_name_H-M   'P 1'
_cell_length_a   11.41576397
_cell_length_b   11.41678770
_cell_length_c   11.41465190
_cell_angle_alpha   90.00523419
_cell_angle_beta   90.00325802
_cell_angle_gamma   89.98973484
_symmetry_Int_Tables_number   1
_chemical_formula_structural   Fe45Co19
_chemical_formula_sum   'Fe90 Co38'
_cell_volume   1487.68700214
_cell_formula_units_Z   2
loop_
 _symmetry_equiv_pos_site_id
 _symmetry_equiv_pos_as_xyz
  1  'x, y, z'
loop_
 _atom_site_type_symbol
 _atom_site_label
 _atom_site_symmetry_multiplicity
 _atom_site_fract_x
 _atom_site_fract_y
 _atom_site_fract_z
 _atom_site_occupancy
  Fe  Fe0  1  0.12586982  0.37442402  0.87546317  1
  Fe  Fe1  1  0.62405885  0.37584983  0.62522510  1
  Fe  Fe2  1  -0.00308210  0.49650311  0.25181603  1
  Fe  Fe3  1  0.87732045  0.12631086  0.12544053  1
  Fe  Fe4  1  0.25220168  0.49926544  0.74968132  1
  Fe  Fe5  1  0.49939469  0.49690647  0.75181389  1
  Fe  Fe6  1  0.74780458  0.74865694  0.50113789  1
  Fe  Fe7  1  0.37442657  0.87499085  0.87568943  1
  Fe  Fe8  1  0.62561005  0.87748919  0.62521513  1
  Fe  Fe9  1  0.37848212  0.12931908  0.12993780  1
  Fe  Fe10  1  0.62699928  0.62316142  0.62760313  1
  Fe  Fe11  1  0.62738384  0.62284780  0.87146792  1
  Fe  Fe12  1  0.49772329  -0.00077356  0.74970988  1
  Fe  Fe13  1  0.87388368  0.87350707  0.37707584  1
  Fe  Fe14  1  0.25219987  0.24959121  0.74983272  1
  Fe  Fe15  1  0.00155351  0.50035188  0.49787782  1
  Fe  Fe16  1  0.62097002  0.12871347  0.12817844  1
  Fe  Fe17  1  0.50312532  0.49633600  0.00046625  1
  Fe  Fe18  1  0.62561019  0.62194524  0.12997445  1
  Fe  Fe19  1  0.12563649  0.12611024  0.87538552  1
  Fe  Fe20  1  -0.00383628  0.49781658  0.74884805  1
  Fe  Fe21  1  0.75082196  0.00225259  0.50105679  1
  Fe  Fe22  1  0.00066335  0.00045664  0.00045652  1
  Fe  Fe23  1  0.49670705  0.25313678  0.75335801  1
  Fe  Fe24  1  0.37553567  0.37529092  0.62116492  1
  Fe  Fe25  1  0.87163624  0.37338592  0.12194875  1
  Fe  Fe26  1  0.37938889  0.37303452  0.12859891  1
  Fe  Fe27  1  0.12488406  0.12174073  0.62346607  1
  Fe  Fe28  1  0.37579777  0.87342311  0.12606308  1
  Fe  Fe29  1  -0.00070342  -0.00059290  0.25372723  1
  Fe  Fe30  1  0.50148954  0.50042134  0.49794992  1
  Fe  Fe31  1  0.12561360  0.87526103  0.12604180  1
  Fe  Fe32  1  0.62321678  0.12415754  0.62458911  1
  Fe  Fe33  1  0.75007601  0.24916079  0.74704397  1
  Fe  Fe34  1  0.74871596  0.74832461  0.00098987  1
  Fe  Fe35  1  0.25160788  0.49842535  0.25090355  1
  Fe  Fe36  1  0.00408299  0.74793695  0.50243677  1
  Fe  Fe37  1  0.37611822  0.62351710  0.62504900  1
  Fe  Fe38  1  0.12555846  0.62380034  0.87428744  1
  Fe  Fe39  1  0.50222571  0.24956827  0.49411037  1
  Fe  Fe40  1  -0.00077493  0.49966976  0.00011053  1
  Fe  Fe41  1  0.12484413  0.62513647  0.12640166  1
  Fe  Fe42  1  0.24889935  0.74976862  0.74684459  1
  Fe  Fe43  1  0.12680288  0.87567242  0.87407270  1
  Fe  Fe44  1  0.00014034  0.25317553  0.25155499  1
  Fe  Fe45  1  0.87391700  0.62536835  0.37547856  1
  Fe  Fe46  1  0.62199576  0.12660080  0.87453619  1
  Fe  Fe47  1  0.49611502  0.00109720  0.49441346  1
  Fe  Fe48  1  0.37125115  0.87581009  0.62139885  1
  Fe  Fe49  1  -0.00013252  0.75196923  0.25057744  1
  Fe  Fe50  1  0.50002618  0.75080990  0.74848802  1
  Fe  Fe51  1  0.25234038  0.24975391  0.00036348  1
  Fe  Fe52  1  0.49914649  0.00127658  0.00184487  1
  Fe  Fe53  1  0.75196616  0.00093720  0.24999670  1
  Fe  Fe54  1  0.25237467  0.74800281  0.24933381  1
  Fe  Fe55  1  0.12408851  0.12587888  0.12656447  1
  Fe  Fe56  1  0.87207972  0.87582221  0.87451629  1
  Fe  Fe57  1  0.12839040  0.87379843  0.37891412  1
  Fe  Fe58  1  0.87568588  0.12595721  0.87453691  1
  Fe  Fe59  1  0.24864079  0.50277657  0.49795341  1
  Fe  Fe60  1  0.12468561  0.12674587  0.37493993  1
  Fe  Fe61  1  0.24864915  0.24947335  0.49801764  1
  Fe  Fe62  1  0.87503925  0.62614911  0.12638553  1
  Fe  Fe63  1  0.87400678  0.87603172  0.62513260  1
  Fe  Fe64  1  0.25019464  0.49905803  0.00177700  1
  Fe  Fe65  1  0.62571960  0.87545825  0.87443911  1
  Fe  Fe66  1  0.62598429  0.62479988  0.37114275  1
  Fe  Fe67  1  0.50068781  0.74966630  0.49970313  1
  Fe  Fe68  1  0.50052965  0.74769123  0.00215302  1
  Fe  Fe69  1  0.25153033  0.00135987  0.00088015  1
  Fe  Fe70  1  0.62510557  0.87543463  0.12794740  1
  Fe  Fe71  1  0.00057184  0.74960099  0.74679368  1
  Fe  Fe72  1  0.37685369  0.62546769  0.37374673  1
  Fe  Fe73  1  0.37586437  0.12558793  0.62365334  1
  Fe  Fe74  1  0.62808334  0.37864501  0.37340405  1
  Fe  Fe75  1  0.87075538  0.37339546  0.87850050  1
  Fe  Fe76  1  0.74916574  0.25140591  0.25243018  1
  Fe  Fe77  1  0.12684902  0.37754392  0.62387773  1
  Fe  Fe78  1  -0.00023330  0.00061701  0.74736392  1
  Fe  Fe79  1  0.74874829  0.00372561  0.00080370  1
  Fe  Fe80  1  0.00155952  0.75022529  -0.00007626  1
  Fe  Fe81  1  0.37458150  0.62469183  0.87729635  1
  Fe  Fe82  1  0.87280610  0.37326152  0.61771701  1
  Fe  Fe83  1  -0.00031172  0.25158384  0.74746855  1
  Fe  Fe84  1  0.87512657  0.12927006  0.37968964  1
  Fe  Fe85  1  0.87213811  0.62470212  0.87319609  1
  Fe  Fe86  1  0.87455522  0.87535569  0.12419694  1
  Fe  Fe87  1  0.12403713  0.37413750  0.12507842  1
  Fe  Fe88  1  0.25264173  0.00065337  0.25310815  1
  Fe  Fe89  1  0.62417828  0.87608059  0.37209534  1
  Co  Co90  1  0.37346591  0.37506536  0.37688710  1
  Co  Co91  1  0.37310403  0.37697553  0.87591132  1
  Co  Co92  1  0.12385484  0.62433370  0.37046871  1
  Co  Co93  1  0.25077467  0.00128981  0.74958405  1
  Co  Co94  1  0.00506301  0.25060753  0.50154936  1
  Co  Co95  1  0.12715847  0.87850133  0.62146183  1
  Co  Co96  1  0.87416060  0.62448707  0.62259711  1
  Co  Co97  1  0.49850428  0.74932090  0.24899533  1
  Co  Co98  1  0.74822694  0.50206378  0.00219318  1
  Co  Co99  1  0.24783649  0.25271071  0.25050401  1
  Co  Co100  1  0.75043793  0.75080092  0.24983098  1
  Co  Co101  1  0.37503887  0.62287880  0.12344175  1
  Co  Co102  1  0.00097746  0.25030554  0.00013313  1
  Co  Co103  1  0.74305124  0.24927637  0.49990351  1
  Co  Co104  1  0.87510399  0.12632086  0.62183895  1
  Co  Co105  1  0.24824204  0.74401904  0.50214472  1
  Co  Co106  1  0.75430017  0.49770528  0.25043553  1
  Co  Co107  1  0.87413263  0.37211053  0.38074496  1
  Co  Co108  1  0.12368727  0.62080821  0.62825492  1
  Co  Co109  1  0.74832441  0.24579875  0.00103823  1
  Co  Co110  1  0.75233920  0.49645050  0.74668636  1
  Co  Co111  1  0.37610309  0.12325628  0.87535457  1
  Co  Co112  1  0.25324423  0.00343508  0.49628214  1
  Co  Co113  1  -0.00138265  0.00014974  0.49830181  1
  Co  Co114  1  0.37387815  0.87056770  0.37633589  1
  Co  Co115  1  0.49843902  0.25348868  -0.00300873  1
  Co  Co116  1  0.50385125  0.25305732  0.25791575  1
  Co  Co117  1  0.49711715  -0.00123111  0.25234243  1
  Co  Co118  1  0.49905169  0.49863773  0.25087262  1
  Co  Co119  1  0.62542414  0.37252045  0.12618106  1
  Co  Co120  1  0.62956611  0.37415452  0.87513475  1
  Co  Co121  1  0.74778867  0.50160033  0.49956850  1
  Co  Co122  1  0.74935356  0.75069414  0.74784220  1
  Co  Co123  1  0.24918810  0.75042740  0.00061551  1
  Co  Co124  1  0.12554033  0.37572063  0.37534541  1
  Co  Co125  1  0.62682889  0.12003581  0.37334536  1
  Co  Co126  1  0.37436337  0.12976337  0.37136381  1
  Co  Co127  1  0.74918698  0.00276490  0.74975611  1
