# generated using pymatgen
data_Fe45Co19
_symmetry_space_group_name_H-M   'P 1'
_cell_length_a   11.41467463
_cell_length_b   11.41537484
_cell_length_c   11.41362426
_cell_angle_alpha   89.99961619
_cell_angle_beta   89.99743588
_cell_angle_gamma   90.00282899
_symmetry_Int_Tables_number   1
_chemical_formula_structural   Fe45Co19
_chemical_formula_sum   'Fe90 Co38'
_cell_volume   1487.22707654
_cell_formula_units_Z   2
loop_
 _symmetry_equiv_pos_site_id
 _symmetry_equiv_pos_as_xyz
  1  'x, y, z'
loop_
 _atom_site_type_symbol
 _atom_site_label
 _atom_site_symmetry_multiplicity
 _atom_site_fract_x
 _atom_site_fract_y
 _atom_site_fract_z
 _atom_site_occupancy
  Fe  Fe0  1  0.24868578  0.75172425  0.24961287  1
  Fe  Fe1  1  -0.00026681  0.25018087  0.25235122  1
  Fe  Fe2  1  0.75006055  0.74665743  -0.00114599  1
  Fe  Fe3  1  0.12613379  0.12498942  0.37674640  1
  Fe  Fe4  1  0.62574898  0.12666925  0.87497430  1
  Fe  Fe5  1  0.37576852  0.37235127  0.87676088  1
  Fe  Fe6  1  0.37685170  0.37373058  0.62510297  1
  Fe  Fe7  1  0.00172112  0.75095571  -0.00336231  1
  Fe  Fe8  1  -0.00118132  0.24743642  0.50300933  1
  Fe  Fe9  1  0.49873625  0.00176430  0.25588541  1
  Fe  Fe10  1  0.87372537  0.87437632  0.87148663  1
  Fe  Fe11  1  0.62681124  0.37654957  0.37371068  1
  Fe  Fe12  1  0.37259704  0.62569640  0.87429770  1
  Fe  Fe13  1  0.12002996  0.37383886  0.12335773  1
  Fe  Fe14  1  0.74765980  0.75226393  0.50590384  1
  Fe  Fe15  1  0.62402045  0.87568873  0.12386860  1
  Fe  Fe16  1  0.62349324  0.37899619  0.63072680  1
  Fe  Fe17  1  0.50269680  0.24912407  0.25163871  1
  Fe  Fe18  1  0.50275571  0.74872540  0.50063518  1
  Fe  Fe19  1  0.24970837  0.24946246  0.50371349  1
  Fe  Fe20  1  0.12344030  0.87768379  0.12599703  1
  Fe  Fe21  1  0.37763317  0.87372723  0.62498648  1
  Fe  Fe22  1  0.87650310  0.87273491  0.12336683  1
  Fe  Fe23  1  0.50109155  0.74839792  0.25131913  1
  Fe  Fe24  1  0.87631323  0.12766182  0.12318079  1
  Fe  Fe25  1  0.50160453  0.49978434  -0.00192408  1
  Fe  Fe26  1  0.25431194  0.00150761  0.50123808  1
  Fe  Fe27  1  0.75505577  0.50206131  0.24557233  1
  Fe  Fe28  1  0.25122675  0.00011116  0.25277943  1
  Fe  Fe29  1  0.24754768  0.25119025  0.24987872  1
  Fe  Fe30  1  0.00126041  0.75020031  0.74890874  1
  Fe  Fe31  1  0.12493635  0.62322943  0.87233806  1
  Fe  Fe32  1  0.74943617  0.00021007  0.74708378  1
  Fe  Fe33  1  0.49838793  0.00197549  -0.00220077  1
  Fe  Fe34  1  0.74922324  0.74968392  0.24927000  1
  Fe  Fe35  1  -0.00349941  0.49871644  0.74998187  1
  Fe  Fe36  1  0.87657829  0.87271168  0.37901208  1
  Fe  Fe37  1  0.87575689  0.37635829  0.37661598  1
  Fe  Fe38  1  0.00150227  0.00317373  -0.00157994  1
  Fe  Fe39  1  0.75047432  -0.00287221  0.50260448  1
  Fe  Fe40  1  0.37511888  0.62416124  0.12492655  1
  Fe  Fe41  1  0.62890495  0.61936459  0.87036499  1
  Fe  Fe42  1  0.62534897  0.12305797  0.12490732  1
  Fe  Fe43  1  0.62408141  0.87663239  0.37626091  1
  Fe  Fe44  1  0.24909440  0.50017058  -0.00031160  1
  Fe  Fe45  1  0.50181817  0.74785460  0.74951794  1
  Fe  Fe46  1  -0.00105581  0.00155869  0.50213988  1
  Fe  Fe47  1  0.24685226  0.49645951  0.25069212  1
  Fe  Fe48  1  -0.00600313  0.49920809  -0.00049808  1
  Fe  Fe49  1  0.75172056  -0.00055846  0.25061201  1
  Fe  Fe50  1  0.75049715  0.49895760  0.50419495  1
  Fe  Fe51  1  0.62106086  0.12305203  0.62118775  1
  Fe  Fe52  1  0.12152682  0.62304359  0.12603001  1
  Fe  Fe53  1  0.37168589  0.87552304  0.87461688  1
  Fe  Fe54  1  0.00051212  0.74834183  0.25594041  1
  Fe  Fe55  1  0.00186340  0.50488669  0.49683812  1
  Fe  Fe56  1  0.75215258  -0.00026133  -0.00000097  1
  Fe  Fe57  1  0.74975758  0.24898464  0.25090052  1
  Fe  Fe58  1  0.12386661  0.37348184  0.87336850  1
  Fe  Fe59  1  0.50199489  0.74798888  -0.00218249  1
  Fe  Fe60  1  0.62778638  0.62342149  0.37640997  1
  Fe  Fe61  1  -0.00017426  0.00299244  0.74778845  1
  Fe  Fe62  1  0.37475000  0.12514764  0.12427451  1
  Fe  Fe63  1  0.37395704  0.62468972  0.62534652  1
  Fe  Fe64  1  0.37656706  0.87537551  0.12382452  1
  Fe  Fe65  1  0.12849338  0.87798021  0.87178978  1
  Fe  Fe66  1  0.50004636  0.49955147  0.49963405  1
  Fe  Fe67  1  0.37427376  0.37294100  0.37606081  1
  Fe  Fe68  1  0.74854074  0.25244632  0.50362583  1
  Fe  Fe69  1  0.49745396  0.00157184  0.75147425  1
  Fe  Fe70  1  -0.00177857  0.00145005  0.25133731  1
  Fe  Fe71  1  0.37646169  0.37470601  0.12345635  1
  Fe  Fe72  1  0.49950823  0.50087327  0.25164398  1
  Fe  Fe73  1  0.24815053  0.49983120  0.50036303  1
  Fe  Fe74  1  0.25162973  0.49789452  0.74997042  1
  Fe  Fe75  1  0.87590764  0.62701940  0.62485571  1
  Fe  Fe76  1  0.87218136  0.12563192  0.37818863  1
  Fe  Fe77  1  0.87345340  0.12726422  0.87165322  1
  Fe  Fe78  1  0.24840350  0.24840599  0.00047873  1
  Fe  Fe79  1  0.24568007  0.74878286  0.50148680  1
  Fe  Fe80  1  0.62679637  0.87495388  0.87344387  1
  Fe  Fe81  1  0.62584816  0.37726860  0.12339352  1
  Fe  Fe82  1  0.87175650  0.37077546  0.87223070  1
  Fe  Fe83  1  0.50005802  0.25023231  0.75254580  1
  Fe  Fe84  1  0.37227328  0.62498624  0.37545936  1
  Fe  Fe85  1  0.12207577  0.37531408  0.62494731  1
  Fe  Fe86  1  0.12394525  0.87560838  0.62412263  1
  Fe  Fe87  1  0.74793400  0.25164711  -0.00038038  1
  Fe  Fe88  1  0.12992199  0.12557531  0.86990337  1
  Fe  Fe89  1  0.24780565  0.75029939  -0.00022778  1
  Co  Co90  1  0.25318168  0.00012670  0.74389433  1
  Co  Co91  1  0.50194486  0.24939661  -0.00027740  1
  Co  Co92  1  0.62434019  0.62373538  0.12440204  1
  Co  Co93  1  0.12318902  0.37242182  0.37902628  1
  Co  Co94  1  0.00339584  0.74600482  0.49928046  1
  Co  Co95  1  0.37087649  0.12625375  0.87437217  1
  Co  Co96  1  0.37435905  0.13147493  0.37687975  1
  Co  Co97  1  0.12894220  0.62436846  0.37227253  1
  Co  Co98  1  0.87711441  0.37053809  0.12494412  1
  Co  Co99  1  0.87264640  0.12455060  0.62501970  1
  Co  Co100  1  0.87533904  0.62763172  0.87261541  1
  Co  Co101  1  0.37392299  0.87046956  0.37624090  1
  Co  Co102  1  0.75646791  0.49955048  0.74744852  1
  Co  Co103  1  0.75448948  0.50072285  0.00168817  1
  Co  Co104  1  0.87917413  0.62883051  0.12540057  1
  Co  Co105  1  0.87931977  0.37518671  0.62352471  1
  Co  Co106  1  0.37957493  0.12786305  0.62459472  1
  Co  Co107  1  -0.00102592  0.49899462  0.25288126  1
  Co  Co108  1  0.87832801  0.87405709  0.62692473  1
  Co  Co109  1  0.62745492  0.12417846  0.37943387  1
  Co  Co110  1  0.62808059  0.37838055  0.87254501  1
  Co  Co111  1  -0.00020740  0.24839531  0.74743878  1
  Co  Co112  1  0.49518897  -0.00056802  0.49551221  1
  Co  Co113  1  0.12629210  0.12551080  0.62600304  1
  Co  Co114  1  0.00098297  0.24697607  -0.00440569  1
  Co  Co115  1  0.74835660  0.75021408  0.74671303  1
  Co  Co116  1  0.62440610  0.62059021  0.62750499  1
  Co  Co117  1  0.12454133  0.87804589  0.37762398  1
  Co  Co118  1  0.25050488  0.25346212  0.74749708  1
  Co  Co119  1  0.12402099  0.12536735  0.12704281  1
  Co  Co120  1  0.12506872  0.62216556  0.63006078  1
  Co  Co121  1  0.24907803  0.75018181  0.74924619  1
  Co  Co122  1  0.62050133  0.87910514  0.62641276  1
  Co  Co123  1  0.50366189  0.25462806  0.49898634  1
  Co  Co124  1  0.49460069  0.50009789  0.75100843  1
  Co  Co125  1  0.24867549  0.00032652  0.00128913  1
  Co  Co126  1  0.74809096  0.24928523  0.74486066  1
  Co  Co127  1  0.87007380  0.62550449  0.37778318  1
