# generated using pymatgen
data_Fe45Co19
_symmetry_space_group_name_H-M   'P 1'
_cell_length_a   11.41414039
_cell_length_b   11.41525787
_cell_length_c   11.41575943
_cell_angle_alpha   89.99601920
_cell_angle_beta   89.99855177
_cell_angle_gamma   89.99036808
_symmetry_Int_Tables_number   1
_chemical_formula_structural   Fe45Co19
_chemical_formula_sum   'Fe90 Co38'
_cell_volume   1487.42041324
_cell_formula_units_Z   2
loop_
 _symmetry_equiv_pos_site_id
 _symmetry_equiv_pos_as_xyz
  1  'x, y, z'
loop_
 _atom_site_type_symbol
 _atom_site_label
 _atom_site_symmetry_multiplicity
 _atom_site_fract_x
 _atom_site_fract_y
 _atom_site_fract_z
 _atom_site_occupancy
  Fe  Fe0  1  0.24762842  0.24861993  0.00122873  1
  Fe  Fe1  1  0.25031621  0.00099674  0.24984778  1
  Fe  Fe2  1  0.74685865  0.25306129  0.75318685  1
  Fe  Fe3  1  0.24878158  0.49947923  0.25142879  1
  Fe  Fe4  1  0.62839140  0.37238692  0.12360927  1
  Fe  Fe5  1  0.25351598  0.24898081  0.74963120  1
  Fe  Fe6  1  0.24800676  0.74980161  0.50007875  1
  Fe  Fe7  1  -0.00049571  0.50074584  0.74977176  1
  Fe  Fe8  1  0.12643169  0.87330662  0.87215084  1
  Fe  Fe9  1  0.75074028  0.24980972  0.49873142  1
  Fe  Fe10  1  -0.00049021  0.24892555  0.50175006  1
  Fe  Fe11  1  0.50282132  0.00071806  0.49694401  1
  Fe  Fe12  1  0.87612667  0.12357876  0.37587623  1
  Fe  Fe13  1  0.37369874  0.37421750  0.12547421  1
  Fe  Fe14  1  0.87327160  0.87471562  0.87344709  1
  Fe  Fe15  1  0.50179320  0.75017549  0.25114374  1
  Fe  Fe16  1  0.87710784  0.37508563  0.37431759  1
  Fe  Fe17  1  0.12510463  0.37440750  0.12595985  1
  Fe  Fe18  1  0.87468146  0.87691281  0.62491237  1
  Fe  Fe19  1  0.62556615  0.37386677  0.37576949  1
  Fe  Fe20  1  0.87493591  0.87764630  0.37815591  1
  Fe  Fe21  1  0.75039175  0.75053760  0.25070400  1
  Fe  Fe22  1  0.62400244  0.87823759  0.12637472  1
  Fe  Fe23  1  0.37377107  0.62599231  0.62409769  1
  Fe  Fe24  1  -0.00078188  0.75042476  0.25020768  1
  Fe  Fe25  1  0.75167266  0.49807268  0.50092832  1
  Fe  Fe26  1  0.87625088  0.87961484  0.12364706  1
  Fe  Fe27  1  0.50086926  0.49903907  0.24871335  1
  Fe  Fe28  1  0.12443531  0.37332677  0.87500452  1
  Fe  Fe29  1  0.12487887  0.37485710  0.62622450  1
  Fe  Fe30  1  0.74861854  0.75027446  -0.00041567  1
  Fe  Fe31  1  0.74872209  0.00169694  0.25371503  1
  Fe  Fe32  1  0.37543769  0.12381759  0.12458494  1
  Fe  Fe33  1  0.00006059  0.24948180  0.75071076  1
  Fe  Fe34  1  0.50056208  0.74892110  0.74964920  1
  Fe  Fe35  1  0.24792533  0.49803511  0.49982193  1
  Fe  Fe36  1  0.49912890  0.00211948  0.74981023  1
  Fe  Fe37  1  0.62549675  0.87470992  0.87354162  1
  Fe  Fe38  1  0.12077288  0.62331645  0.37687619  1
  Fe  Fe39  1  0.62926008  0.62236735  0.62854158  1
  Fe  Fe40  1  0.75088992  0.49835064  0.25038827  1
  Fe  Fe41  1  0.62590067  0.12490196  0.12702330  1
  Fe  Fe42  1  0.62694885  0.87722518  0.62494707  1
  Fe  Fe43  1  0.87554320  0.62399523  0.12457929  1
  Fe  Fe44  1  0.50183380  0.75021641  0.00004717  1
  Fe  Fe45  1  0.37414609  0.62586294  0.12539370  1
  Fe  Fe46  1  0.24918657  0.50330224  0.74969553  1
  Fe  Fe47  1  0.62601984  0.12601505  0.62448731  1
  Fe  Fe48  1  0.12232041  0.87741540  0.12429317  1
  Fe  Fe49  1  0.74975572  0.75041232  0.49986545  1
  Fe  Fe50  1  0.37483136  0.87618810  0.87434954  1
  Fe  Fe51  1  0.37661109  0.87464235  0.37550885  1
  Fe  Fe52  1  0.62570609  0.12594012  0.87348733  1
  Fe  Fe53  1  0.00017523  0.75023124  -0.00078062  1
  Fe  Fe54  1  0.62601174  0.62527064  0.12522825  1
  Fe  Fe55  1  0.12440116  0.87185797  0.62783784  1
  Fe  Fe56  1  0.37842745  0.37601487  0.87438834  1
  Fe  Fe57  1  0.49885158  0.25040952  0.25100001  1
  Fe  Fe58  1  0.37844564  0.62322306  0.87623145  1
  Fe  Fe59  1  0.00188079  0.50054155  0.00129162  1
  Fe  Fe60  1  0.87601629  0.37129153  0.87932253  1
  Fe  Fe61  1  0.87346045  0.62651440  0.87388669  1
  Fe  Fe62  1  0.37463826  0.12569276  0.37597985  1
  Fe  Fe63  1  0.12211808  0.37286449  0.37308165  1
  Fe  Fe64  1  0.50139814  0.24995951  -0.00132053  1
  Fe  Fe65  1  0.37691006  0.37464779  0.62608645  1
  Fe  Fe66  1  0.87642334  0.62537961  0.62557288  1
  Fe  Fe67  1  0.24828470  0.75021217  0.25054249  1
  Fe  Fe68  1  0.12677465  0.12620814  0.62741062  1
  Fe  Fe69  1  0.24791904  0.00035253  0.50166636  1
  Fe  Fe70  1  0.50356910  0.74835905  0.49929895  1
  Fe  Fe71  1  0.24950933  0.50099755  0.00045993  1
  Fe  Fe72  1  0.74956335  0.00225926  -0.00318780  1
  Fe  Fe73  1  0.12248488  0.87704442  0.37574164  1
  Fe  Fe74  1  0.00006519  0.00143329  0.75199918  1
  Fe  Fe75  1  0.12339468  0.12622972  0.37279379  1
  Fe  Fe76  1  0.37637506  0.62396246  0.37517329  1
  Fe  Fe77  1  0.87423914  0.37353162  0.62581850  1
  Fe  Fe78  1  0.24929953  0.74855144  -0.00077713  1
  Fe  Fe79  1  0.25098457  0.25152545  0.49936809  1
  Fe  Fe80  1  0.49888331  0.25093863  0.50099520  1
  Fe  Fe81  1  0.74655033  0.49971994  -0.00387886  1
  Fe  Fe82  1  -0.00491466  0.24910217  0.24280420  1
  Fe  Fe83  1  0.37683331  0.87684255  0.12475765  1
  Fe  Fe84  1  0.50154078  0.49998216  0.50122281  1
  Fe  Fe85  1  0.87667216  0.62333287  0.37567644  1
  Fe  Fe86  1  0.37441252  0.87561251  0.62519093  1
  Fe  Fe87  1  0.87278485  0.12433578  0.62710490  1
  Fe  Fe88  1  0.37373954  0.12463370  0.87438051  1
  Fe  Fe89  1  0.24772081  0.00128621  -0.00129976  1
  Co  Co90  1  0.12322881  0.12173561  0.12593362  1
  Co  Co91  1  0.00092227  0.24716306  0.00486782  1
  Co  Co92  1  0.87147739  0.37748695  0.11977007  1
  Co  Co93  1  0.74873565  0.24773618  -0.00080477  1
  Co  Co94  1  0.75003261  0.00069112  0.75145881  1
  Co  Co95  1  0.25050256  0.00046075  0.74925135  1
  Co  Co96  1  -0.00022085  0.49670267  0.50251057  1
  Co  Co97  1  0.12465310  0.62633649  0.12500243  1
  Co  Co98  1  0.00058288  0.00130564  -0.00657078  1
  Co  Co99  1  0.25186700  0.74658978  0.75061434  1
  Co  Co100  1  0.62404260  0.62456196  0.87296255  1
  Co  Co101  1  0.75285380  0.49618054  0.75256550  1
  Co  Co102  1  0.25106240  0.24869511  0.24953448  1
  Co  Co103  1  0.62530556  0.37405038  0.62458952  1
  Co  Co104  1  0.12400347  0.62485160  0.87518923  1
  Co  Co105  1  0.74878521  0.00183068  0.49834774  1
  Co  Co106  1  0.12576099  0.12840646  0.87316089  1
  Co  Co107  1  0.75491335  0.24938125  0.24938226  1
  Co  Co108  1  0.62060253  0.37695710  0.87426812  1
  Co  Co109  1  0.50122306  0.00160877  -0.00177409  1
  Co  Co110  1  -0.00086389  0.49856977  0.24707369  1
  Co  Co111  1  0.87373854  0.11907728  0.12182401  1
  Co  Co112  1  0.37621885  0.37594882  0.37515736  1
  Co  Co113  1  0.49976368  0.00096466  0.25256831  1
  Co  Co114  1  0.74966721  0.75072030  0.74898666  1
  Co  Co115  1  0.37534241  0.12391083  0.62281090  1
  Co  Co116  1  0.49967335  0.24752551  0.74992158  1
  Co  Co117  1  0.50089733  0.49920966  0.00418702  1
  Co  Co118  1  0.00151045  0.00186178  0.50363979  1
  Co  Co119  1  -0.00118706  -0.00000129  0.25193892  1
  Co  Co120  1  0.62568717  0.87330558  0.37455891  1
  Co  Co121  1  0.62483606  0.12944549  0.37458338  1
  Co  Co122  1  -0.00121088  0.75175954  0.49945285  1
  Co  Co123  1  0.62642108  0.62336289  0.37492252  1
  Co  Co124  1  0.87540700  0.12865170  0.87470215  1
  Co  Co125  1  0.12285159  0.62607370  0.62388653  1
  Co  Co126  1  -0.00137656  0.74920770  0.75088560  1
  Co  Co127  1  0.50048336  0.50057188  0.74735229  1
