# generated using pymatgen
data_Fe45Co19
_symmetry_space_group_name_H-M   'P 1'
_cell_length_a   11.41479549
_cell_length_b   11.41359349
_cell_length_c   11.41489296
_cell_angle_alpha   90.00435194
_cell_angle_beta   89.99917171
_cell_angle_gamma   89.99958023
_symmetry_Int_Tables_number   1
_chemical_formula_structural   Fe45Co19
_chemical_formula_sum   'Fe90 Co38'
_cell_volume   1487.17603271
_cell_formula_units_Z   2
loop_
 _symmetry_equiv_pos_site_id
 _symmetry_equiv_pos_as_xyz
  1  'x, y, z'
loop_
 _atom_site_type_symbol
 _atom_site_label
 _atom_site_symmetry_multiplicity
 _atom_site_fract_x
 _atom_site_fract_y
 _atom_site_fract_z
 _atom_site_occupancy
  Fe  Fe0  1  0.50168766  0.75010067  -0.00178067  1
  Fe  Fe1  1  0.62541289  0.12344052  0.12591951  1
  Fe  Fe2  1  0.37530654  0.37460289  0.87678562  1
  Fe  Fe3  1  0.50075821  0.74912571  0.74888213  1
  Fe  Fe4  1  0.24802751  0.25211580  0.75168078  1
  Fe  Fe5  1  0.12258908  0.12751559  0.37733086  1
  Fe  Fe6  1  -0.00856115  0.49829893  0.74989437  1
  Fe  Fe7  1  0.50417419  0.25035800  0.00010237  1
  Fe  Fe8  1  0.37600388  0.62575668  0.12367514  1
  Fe  Fe9  1  0.37550324  0.12829074  0.62646078  1
  Fe  Fe10  1  0.25010908  0.25181391  0.50044802  1
  Fe  Fe11  1  0.12418495  0.87462055  0.87334338  1
  Fe  Fe12  1  0.74695250  0.25142658  0.25092477  1
  Fe  Fe13  1  0.25010207  0.00114798  0.25161394  1
  Fe  Fe14  1  0.37262634  0.87409462  0.62587714  1
  Fe  Fe15  1  -0.00639893  0.50003661  -0.00061598  1
  Fe  Fe16  1  0.37656951  0.87255715  0.37679404  1
  Fe  Fe17  1  0.25202233  0.49888831  0.74929926  1
  Fe  Fe18  1  0.37348609  0.37673047  0.37517999  1
  Fe  Fe19  1  0.75023793  0.50103796  0.50212257  1
  Fe  Fe20  1  0.74832199  0.24694242  0.75002589  1
  Fe  Fe21  1  0.49839851  0.00075839  0.50240780  1
  Fe  Fe22  1  0.24889696  0.00221329  0.74910678  1
  Fe  Fe23  1  0.25090054  0.49980946  -0.00081920  1
  Fe  Fe24  1  0.50468886  0.24878460  0.75107262  1
  Fe  Fe25  1  0.50146755  0.25321794  0.25023713  1
  Fe  Fe26  1  0.37699200  0.62527181  0.37513762  1
  Fe  Fe27  1  0.62572472  0.62738679  0.12688256  1
  Fe  Fe28  1  -0.00012261  0.25356733  0.75080630  1
  Fe  Fe29  1  0.12330432  0.12537117  0.87490700  1
  Fe  Fe30  1  0.50044378  0.25122736  0.49960419  1
  Fe  Fe31  1  0.74861105  0.50145966  0.24991021  1
  Fe  Fe32  1  0.50170864  0.49984519  0.00010071  1
  Fe  Fe33  1  0.25088389  0.25128102  0.24991827  1
  Fe  Fe34  1  0.87758451  0.12813635  0.62216593  1
  Fe  Fe35  1  0.75149422  0.00163531  -0.00034991  1
  Fe  Fe36  1  0.24806218  0.74491874  0.50204183  1
  Fe  Fe37  1  0.50182981  0.49856168  0.75059079  1
  Fe  Fe38  1  0.37602899  0.12672107  0.87538734  1
  Fe  Fe39  1  0.24999780  0.74774173  0.25094801  1
  Fe  Fe40  1  0.12694486  0.37671675  0.12453685  1
  Fe  Fe41  1  0.74726689  0.74995372  0.49864066  1
  Fe  Fe42  1  0.00440808  0.74795759  0.50186063  1
  Fe  Fe43  1  0.24623633  0.74644647  0.74865199  1
  Fe  Fe44  1  0.75154346  0.74671994  0.74597179  1
  Fe  Fe45  1  0.37667002  0.62353908  0.62720956  1
  Fe  Fe46  1  0.12449284  0.87576728  0.37712065  1
  Fe  Fe47  1  0.87479505  0.87378644  0.87176708  1
  Fe  Fe48  1  0.62391573  0.12405391  0.37674876  1
  Fe  Fe49  1  0.12258094  0.62240395  0.12592143  1
  Fe  Fe50  1  0.37470917  0.87408984  0.87302110  1
  Fe  Fe51  1  0.24889800  0.00284254  0.50028256  1
  Fe  Fe52  1  0.74935500  -0.00516095  0.25408309  1
  Fe  Fe53  1  0.50132736  -0.00127862  -0.00133218  1
  Fe  Fe54  1  0.37486247  0.12720971  0.12417202  1
  Fe  Fe55  1  0.00007276  0.25623628  0.25364418  1
  Fe  Fe56  1  0.62484157  0.87727822  0.62570295  1
  Fe  Fe57  1  0.74948763  0.25112592  0.49857764  1
  Fe  Fe58  1  0.62660815  0.37548410  0.62447758  1
  Fe  Fe59  1  -0.00110696  -0.00084646  0.00083202  1
  Fe  Fe60  1  0.87568920  0.12558449  0.12813323  1
  Fe  Fe61  1  0.75083222  0.74777718  0.00041394  1
  Fe  Fe62  1  0.87555551  0.62490612  0.37407473  1
  Fe  Fe63  1  0.12599149  0.61754444  0.37406063  1
  Fe  Fe64  1  0.12565688  0.87444673  0.12513743  1
  Fe  Fe65  1  0.87031271  0.37565424  0.12443208  1
  Fe  Fe66  1  0.24914515  0.00190719  -0.00022833  1
  Fe  Fe67  1  0.24879542  0.74752737  -0.00212907  1
  Fe  Fe68  1  0.12383196  0.12641750  0.12564020  1
  Fe  Fe69  1  0.87721424  0.12629046  0.37597139  1
  Fe  Fe70  1  0.00067690  0.74940094  0.25128169  1
  Fe  Fe71  1  0.12482063  0.37639666  0.62432223  1
  Fe  Fe72  1  -0.00155022  0.74868971  -0.00109920  1
  Fe  Fe73  1  0.63321800  0.37676807  0.87803543  1
  Fe  Fe74  1  0.50017556  -0.00250641  0.25010190  1
  Fe  Fe75  1  0.87800257  0.87274643  0.62303147  1
  Fe  Fe76  1  -0.00037073  -0.00177079  0.25203991  1
  Fe  Fe77  1  -0.00066068  0.25294939  -0.00096370  1
  Fe  Fe78  1  -0.00280066  0.49425465  0.49807100  1
  Fe  Fe79  1  0.62101065  0.62727447  0.37559067  1
  Fe  Fe80  1  0.49939655  0.49776292  0.24765084  1
  Fe  Fe81  1  0.87331751  0.87197956  0.12731715  1
  Fe  Fe82  1  0.12172582  0.62186258  0.87218861  1
  Fe  Fe83  1  0.62822189  0.62304780  0.87201056  1
  Fe  Fe84  1  0.49875161  0.49981146  0.50247210  1
  Fe  Fe85  1  0.37378518  0.87386153  0.12390684  1
  Fe  Fe86  1  0.87592567  0.12597480  0.87426471  1
  Fe  Fe87  1  0.75169117  -0.00189948  0.49891528  1
  Fe  Fe88  1  0.00069663  -0.00044794  0.74593524  1
  Fe  Fe89  1  0.62713980  0.87796598  0.87133045  1
  Co  Co90  1  0.62848279  0.37576422  0.12232763  1
  Co  Co91  1  0.75024640  0.24425943  0.00105037  1
  Co  Co92  1  0.87515064  0.62692838  0.13052704  1
  Co  Co93  1  0.49925106  0.00197584  0.74807523  1
  Co  Co94  1  0.13119133  0.37812498  0.37560283  1
  Co  Co95  1  0.12403066  0.12899570  0.62364149  1
  Co  Co96  1  0.12415350  0.37941484  0.87407637  1
  Co  Co97  1  0.24696433  0.25041042  -0.00212798  1
  Co  Co98  1  0.37447176  0.37345653  0.12225901  1
  Co  Co99  1  0.61907085  0.87352026  0.37785200  1
  Co  Co100  1  0.62455359  0.37724260  0.37704848  1
  Co  Co101  1  0.12130764  0.61748404  0.62694328  1
  Co  Co102  1  0.00124535  0.74959869  0.74840237  1
  Co  Co103  1  0.49939649  0.74892754  0.50569560  1
  Co  Co104  1  0.12623139  0.87577109  0.62431737  1
  Co  Co105  1  0.62549488  0.12455025  0.62148805  1
  Co  Co106  1  0.49941347  0.75190879  0.24737170  1
  Co  Co107  1  0.87688814  0.62664837  0.62104536  1
  Co  Co108  1  0.37545613  0.62409117  0.87368023  1
  Co  Co109  1  0.00023895  0.25657508  0.49679609  1
  Co  Co110  1  0.62606237  0.12138509  0.87532514  1
  Co  Co111  1  0.86760963  0.37392655  0.87691840  1
  Co  Co112  1  0.74854105  0.75210970  0.25484464  1
  Co  Co113  1  0.75290404  0.50565865  0.00210222  1
  Co  Co114  1  0.62387934  0.62290505  0.62517468  1
  Co  Co115  1  0.87377860  0.62684482  0.87282551  1
  Co  Co116  1  0.25300354  0.50087081  0.24725866  1
  Co  Co117  1  0.25340391  0.50111501  0.50397656  1
  Co  Co118  1  0.87156248  0.37206026  0.62460152  1
  Co  Co119  1  0.37683703  0.12616797  0.37472608  1
  Co  Co120  1  -0.00141552  0.49568960  0.25093666  1
  Co  Co121  1  0.62736063  0.87447907  0.12349482  1
  Co  Co122  1  0.00044327  0.00138788  0.50197938  1
  Co  Co123  1  0.37725637  0.37329688  0.62685431  1
  Co  Co124  1  0.86941722  0.37604990  0.37378034  1
  Co  Co125  1  0.75320950  0.50163597  0.74635167  1
  Co  Co126  1  0.87940019  0.87241148  0.37783488  1
  Co  Co127  1  0.75338739  0.00304237  0.74712236  1
