# generated using pymatgen
data_Fe45Co19
_symmetry_space_group_name_H-M   'P 1'
_cell_length_a   11.41519143
_cell_length_b   11.41541136
_cell_length_c   11.41429689
_cell_angle_alpha   89.99924542
_cell_angle_beta   89.99433529
_cell_angle_gamma   90.00385002
_symmetry_Int_Tables_number   1
_chemical_formula_structural   Fe45Co19
_chemical_formula_sum   'Fe90 Co38'
_cell_volume   1487.38681286
_cell_formula_units_Z   2
loop_
 _symmetry_equiv_pos_site_id
 _symmetry_equiv_pos_as_xyz
  1  'x, y, z'
loop_
 _atom_site_type_symbol
 _atom_site_label
 _atom_site_symmetry_multiplicity
 _atom_site_fract_x
 _atom_site_fract_y
 _atom_site_fract_z
 _atom_site_occupancy
  Fe  Fe0  1  0.00269607  0.75171555  0.74624156  1
  Fe  Fe1  1  0.87524181  0.87502744  0.87236592  1
  Fe  Fe2  1  0.87730023  0.12453228  0.62285280  1
  Fe  Fe3  1  0.49928698  0.00039287  0.75192917  1
  Fe  Fe4  1  0.37578266  0.62460882  0.37529676  1
  Fe  Fe5  1  0.12106830  0.12315035  0.87574972  1
  Fe  Fe6  1  -0.00069335  0.50173240  0.74680034  1
  Fe  Fe7  1  -0.00178847  0.50000925  0.00156298  1
  Fe  Fe8  1  0.87496536  0.62694396  0.12627223  1
  Fe  Fe9  1  0.24866331  -0.00059334  -0.00011171  1
  Fe  Fe10  1  0.37258734  0.37388910  0.37502495  1
  Fe  Fe11  1  0.12468802  0.37718577  0.87311358  1
  Fe  Fe12  1  0.75214058  0.25002589  0.74861099  1
  Fe  Fe13  1  0.62701408  0.87796811  0.62597872  1
  Fe  Fe14  1  0.25096218  0.74903965  0.50032399  1
  Fe  Fe15  1  0.50116825  0.00069101  -0.00030756  1
  Fe  Fe16  1  0.49919032  0.49749298  0.00111703  1
  Fe  Fe17  1  0.37283116  0.87442383  0.87507757  1
  Fe  Fe18  1  0.75123700  0.25124301  0.49992525  1
  Fe  Fe19  1  0.62436075  0.62352355  0.12626948  1
  Fe  Fe20  1  0.12410183  0.37694120  0.12604967  1
  Fe  Fe21  1  0.62527267  0.87425329  0.12583576  1
  Fe  Fe22  1  0.12507496  0.62519275  0.12616106  1
  Fe  Fe23  1  0.87757208  0.12710962  0.12354719  1
  Fe  Fe24  1  0.37313148  0.62696219  0.87286820  1
  Fe  Fe25  1  0.75257752  0.25201747  -0.00084965  1
  Fe  Fe26  1  0.75214418  0.49811561  0.24915467  1
  Fe  Fe27  1  0.37218141  0.37266548  0.87366050  1
  Fe  Fe28  1  0.50044323  0.00078259  0.24869642  1
  Fe  Fe29  1  0.49599796  0.49779762  0.74653286  1
  Fe  Fe30  1  0.50041716  0.75130861  0.74976982  1
  Fe  Fe31  1  0.12557211  0.87568525  0.37768659  1
  Fe  Fe32  1  0.24701789  0.25016029  0.25072302  1
  Fe  Fe33  1  0.62744158  0.12360226  0.37316185  1
  Fe  Fe34  1  0.87707651  0.37478376  0.87276268  1
  Fe  Fe35  1  0.37672868  0.87521461  0.37421470  1
  Fe  Fe36  1  0.74744065  0.75003906  0.75158120  1
  Fe  Fe37  1  0.24749264  0.24888110  -0.00146314  1
  Fe  Fe38  1  0.36991503  0.12532845  0.62754138  1
  Fe  Fe39  1  0.00018535  0.74828570  0.49974384  1
  Fe  Fe40  1  0.00011847  0.25164156  0.25146422  1
  Fe  Fe41  1  0.50054959  0.25120430  0.00012524  1
  Fe  Fe42  1  0.75220280  0.00005331  -0.00181002  1
  Fe  Fe43  1  0.49587762  0.49718487  0.50383390  1
  Fe  Fe44  1  0.74883076  0.74974868  -0.00235441  1
  Fe  Fe45  1  0.37485975  0.62641729  0.12533923  1
  Fe  Fe46  1  0.50073391  0.75029998  -0.00064820  1
  Fe  Fe47  1  0.74530116  0.74962356  0.49749385  1
  Fe  Fe48  1  0.00153022  0.74739762  0.25402305  1
  Fe  Fe49  1  0.87635662  0.62619011  0.87375867  1
  Fe  Fe50  1  0.00205189  0.75121663  0.00048854  1
  Fe  Fe51  1  0.87564558  0.12349535  0.37661182  1
  Fe  Fe52  1  0.62473055  0.37555019  0.37567921  1
  Fe  Fe53  1  0.12395947  0.38190164  0.37700484  1
  Fe  Fe54  1  -0.00089126  -0.00199081  0.25091994  1
  Fe  Fe55  1  0.12159947  0.12333629  0.12395299  1
  Fe  Fe56  1  0.62581696  0.37622907  0.87183464  1
  Fe  Fe57  1  0.00215272  0.24915122  0.74738743  1
  Fe  Fe58  1  0.37505396  0.12608497  0.37365529  1
  Fe  Fe59  1  0.37444592  0.87374415  0.12575288  1
  Fe  Fe60  1  0.74554443  0.74933927  0.25422131  1
  Fe  Fe61  1  0.62400346  0.62238260  0.62555957  1
  Fe  Fe62  1  0.24899017  0.74912777  0.25023570  1
  Fe  Fe63  1  0.75131646  0.49856429  0.50356731  1
  Fe  Fe64  1  0.49985639  0.24970205  0.50158436  1
  Fe  Fe65  1  0.24903986  0.00056438  0.25109720  1
  Fe  Fe66  1  0.62841464  0.12808488  0.12673097  1
  Fe  Fe67  1  0.49850943  0.25013610  0.74939514  1
  Fe  Fe68  1  0.87276077  0.62697425  0.62543337  1
  Fe  Fe69  1  0.75166103  0.49903248  -0.00048686  1
  Fe  Fe70  1  0.12604314  0.87344068  0.87537151  1
  Fe  Fe71  1  0.87619732  0.87320298  0.12629483  1
  Fe  Fe72  1  0.24787837  0.24864823  0.49925189  1
  Fe  Fe73  1  0.12637900  0.37588787  0.62377906  1
  Fe  Fe74  1  0.50081471  0.25166199  0.24864494  1
  Fe  Fe75  1  0.12598150  0.62482423  0.87416743  1
  Fe  Fe76  1  0.37399022  0.12700805  0.12421010  1
  Fe  Fe77  1  0.87944346  0.37849592  0.37684593  1
  Fe  Fe78  1  0.49736049  0.49738458  0.24818224  1
  Fe  Fe79  1  0.62580480  0.12503360  0.62554547  1
  Fe  Fe80  1  0.49933965  0.00166518  0.50031857  1
  Fe  Fe81  1  0.00056804  -0.00252150  0.74525729  1
  Fe  Fe82  1  0.25102224  0.50065520  0.00014078  1
  Fe  Fe83  1  0.37182754  0.87591532  0.62598428  1
  Fe  Fe84  1  0.62363146  0.62298290  0.87330790  1
  Fe  Fe85  1  0.87231485  0.87541933  0.37756916  1
  Fe  Fe86  1  0.62627500  0.12428653  0.87374704  1
  Fe  Fe87  1  0.12202564  0.12221781  0.37902402  1
  Fe  Fe88  1  0.12888807  0.62475417  0.62390434  1
  Fe  Fe89  1  0.50306205  0.75046562  0.49788803  1
  Co  Co90  1  0.00115801  0.25296250  -0.00076600  1
  Co  Co91  1  0.62554941  0.37450330  0.62573686  1
  Co  Co92  1  -0.00203446  -0.00367874  0.50222133  1
  Co  Co93  1  0.87259779  0.62391855  0.37646718  1
  Co  Co94  1  0.24574731  0.24706128  0.75185544  1
  Co  Co95  1  0.74950044  0.00138482  0.50140647  1
  Co  Co96  1  0.75368752  0.25230211  0.25280232  1
  Co  Co97  1  0.87792623  0.37401202  0.12528953  1
  Co  Co98  1  0.62554996  0.87657964  0.87442305  1
  Co  Co99  1  -0.00128915  -0.00367297  -0.00051446  1
  Co  Co100  1  0.12436676  0.87544857  0.12703689  1
  Co  Co101  1  0.87135568  0.87191935  0.62372973  1
  Co  Co102  1  0.87894053  0.12565303  0.87468517  1
  Co  Co103  1  0.37057787  0.36878753  0.62604682  1
  Co  Co104  1  0.50264259  0.74921309  0.25243661  1
  Co  Co105  1  0.37222076  0.37136527  0.12404287  1
  Co  Co106  1  -0.00101976  0.50482336  0.50358169  1
  Co  Co107  1  0.62439661  0.88089687  0.37434659  1
  Co  Co108  1  0.75248380  0.00180461  0.75001753  1
  Co  Co109  1  0.25190265  0.50069422  0.24915366  1
  Co  Co110  1  0.25307647  0.00167851  0.49760546  1
  Co  Co111  1  0.00054190  0.25160577  0.49941555  1
  Co  Co112  1  0.62635489  0.37442838  0.12589436  1
  Co  Co113  1  0.12536515  0.12316543  0.62091440  1
  Co  Co114  1  0.24723965  0.00063558  0.75194264  1
  Co  Co115  1  0.12747856  0.62182180  0.37689732  1
  Co  Co116  1  0.75210405  0.00019228  0.24798038  1
  Co  Co117  1  0.24834700  0.74985550  0.74923547  1
  Co  Co118  1  0.37579840  0.62902683  0.62518332  1
  Co  Co119  1  0.25389624  0.50058254  0.50285458  1
  Co  Co120  1  0.12901139  0.87674057  0.62041411  1
  Co  Co121  1  0.25224742  0.50096159  0.74779021  1
  Co  Co122  1  0.37535064  0.12537396  0.87569440  1
  Co  Co123  1  0.75220560  0.50014322  0.74987533  1
  Co  Co124  1  0.87743790  0.37442580  0.62532277  1
  Co  Co125  1  0.62318240  0.61833292  0.37553424  1
  Co  Co126  1  0.24863298  0.74945196  0.00119250  1
  Co  Co127  1  -0.00088910  0.50365266  0.24949531  1
