# generated using pymatgen
data_Fe45Co19
_symmetry_space_group_name_H-M   'P 1'
_cell_length_a   11.41617566
_cell_length_b   11.41585341
_cell_length_c   11.41672279
_cell_angle_alpha   89.99990557
_cell_angle_beta   89.99661326
_cell_angle_gamma   90.00531402
_symmetry_Int_Tables_number   1
_chemical_formula_structural   Fe45Co19
_chemical_formula_sum   'Fe90 Co38'
_cell_volume   1487.88881668
_cell_formula_units_Z   2
loop_
 _symmetry_equiv_pos_site_id
 _symmetry_equiv_pos_as_xyz
  1  'x, y, z'
loop_
 _atom_site_type_symbol
 _atom_site_label
 _atom_site_symmetry_multiplicity
 _atom_site_fract_x
 _atom_site_fract_y
 _atom_site_fract_z
 _atom_site_occupancy
  Fe  Fe0  1  -0.00163370  0.49881201  0.75144389  1
  Fe  Fe1  1  0.50083035  0.25007053  0.00048355  1
  Fe  Fe2  1  0.12490199  0.62258759  0.37170859  1
  Fe  Fe3  1  0.87599928  0.37557517  0.37609412  1
  Fe  Fe4  1  0.75101418  0.50283231  0.50031810  1
  Fe  Fe5  1  0.62626966  0.12466950  0.62679225  1
  Fe  Fe6  1  0.12363550  0.87609668  0.37289174  1
  Fe  Fe7  1  0.37429329  0.37383841  0.12303556  1
  Fe  Fe8  1  0.37070277  0.62765600  0.62444494  1
  Fe  Fe9  1  0.87530654  0.87531530  0.87688728  1
  Fe  Fe10  1  0.49952251  0.74793816  0.49951920  1
  Fe  Fe11  1  0.75163978  0.50126677  0.24915319  1
  Fe  Fe12  1  0.62604540  0.62617244  0.62622946  1
  Fe  Fe13  1  0.74965477  0.24962821  -0.00160733  1
  Fe  Fe14  1  0.00048512  -0.00183244  0.74950702  1
  Fe  Fe15  1  0.62529776  0.87641729  0.37471716  1
  Fe  Fe16  1  0.37767690  0.62521297  0.12799102  1
  Fe  Fe17  1  0.75096949  0.75143158  0.75105333  1
  Fe  Fe18  1  0.37395090  0.87208119  0.87677420  1
  Fe  Fe19  1  0.62641982  0.12419395  0.87347806  1
  Fe  Fe20  1  0.37281444  0.12781940  0.87671068  1
  Fe  Fe21  1  0.74876910  0.24665942  0.49865579  1
  Fe  Fe22  1  0.62596373  0.37471343  0.87311487  1
  Fe  Fe23  1  0.49817328  -0.00076214  0.75044605  1
  Fe  Fe24  1  0.37523983  0.87499159  0.37547317  1
  Fe  Fe25  1  0.37354883  0.87330839  0.62297694  1
  Fe  Fe26  1  0.24789417  0.25092111  0.49871236  1
  Fe  Fe27  1  0.62417579  0.87574886  0.87416157  1
  Fe  Fe28  1  0.12592189  0.62531407  0.87214324  1
  Fe  Fe29  1  0.75111722  0.49884382  0.75016548  1
  Fe  Fe30  1  0.62273671  0.37654652  0.37843750  1
  Fe  Fe31  1  0.00001717  0.50134748  0.49958837  1
  Fe  Fe32  1  0.00320611  0.74655895  0.00250043  1
  Fe  Fe33  1  0.37770884  0.37732979  0.38069362  1
  Fe  Fe34  1  0.87416975  0.87575198  0.12456778  1
  Fe  Fe35  1  0.87363022  0.37457767  0.62392219  1
  Fe  Fe36  1  0.12384667  0.12545222  0.62456955  1
  Fe  Fe37  1  0.87588914  0.62607528  0.87539333  1
  Fe  Fe38  1  0.87434576  0.12364028  0.87482572  1
  Fe  Fe39  1  0.75107554  0.74863659  0.49931133  1
  Fe  Fe40  1  0.37284310  0.12645677  0.62433537  1
  Fe  Fe41  1  0.00142549  0.00030560  0.00140280  1
  Fe  Fe42  1  0.12654678  0.37578715  0.62559959  1
  Fe  Fe43  1  0.00009409  0.74801243  0.49964626  1
  Fe  Fe44  1  0.49986066  0.25317593  0.74699910  1
  Fe  Fe45  1  0.49992919  0.74931084  0.00185957  1
  Fe  Fe46  1  0.37618548  0.12634667  0.37527472  1
  Fe  Fe47  1  0.37268613  0.37535570  0.87504454  1
  Fe  Fe48  1  0.12683684  0.87440558  0.87702317  1
  Fe  Fe49  1  0.62241467  0.62340048  0.37286753  1
  Fe  Fe50  1  0.50133989  0.49957265  0.00127923  1
  Fe  Fe51  1  0.24770090  0.25151640  0.75257402  1
  Fe  Fe52  1  0.12259080  0.12338832  0.37545703  1
  Fe  Fe53  1  0.87709505  0.37730125  0.12237524  1
  Fe  Fe54  1  0.12330346  0.37733185  0.37355224  1
  Fe  Fe55  1  0.49988514  0.25237985  0.25036090  1
  Fe  Fe56  1  0.00302309  0.25130697  -0.00281889  1
  Fe  Fe57  1  0.13004668  0.12372342  0.12393934  1
  Fe  Fe58  1  0.87815429  0.12104072  0.37651586  1
  Fe  Fe59  1  0.62467512  0.87509926  0.12586904  1
  Fe  Fe60  1  0.24895203  0.50248203  0.00105581  1
  Fe  Fe61  1  0.87390162  0.12387880  0.12377155  1
  Fe  Fe62  1  0.62470069  0.87471309  0.62533743  1
  Fe  Fe63  1  0.12572581  0.62652898  0.62686147  1
  Fe  Fe64  1  0.62644597  0.37575907  0.12518550  1
  Fe  Fe65  1  0.87628067  0.87683649  0.37463330  1
  Fe  Fe66  1  0.13043790  0.87604911  0.12484807  1
  Fe  Fe67  1  0.37598016  0.62538591  0.87335694  1
  Fe  Fe68  1  -0.00040674  0.24919177  0.24977502  1
  Fe  Fe69  1  0.74947158  0.50157230  -0.00013014  1
  Fe  Fe70  1  -0.00121407  0.74800042  0.24735050  1
  Fe  Fe71  1  0.24964434  -0.00115661  0.75133233  1
  Fe  Fe72  1  0.62277843  0.62508238  0.87318980  1
  Fe  Fe73  1  0.87476345  0.87391371  0.62355879  1
  Fe  Fe74  1  0.75005668  0.74812430  0.24868349  1
  Fe  Fe75  1  0.75070952  0.24924239  0.25174656  1
  Fe  Fe76  1  0.25179815  0.74912760  0.25032817  1
  Fe  Fe77  1  0.12657080  0.87194118  0.62483518  1
  Fe  Fe78  1  0.49690199  0.00094257  0.00202161  1
  Fe  Fe79  1  0.25031864  0.25213390  0.25062492  1
  Fe  Fe80  1  0.87609322  0.12444554  0.62394955  1
  Fe  Fe81  1  0.12275009  0.37942354  0.12504379  1
  Fe  Fe82  1  0.37637794  0.62164256  0.37433862  1
  Fe  Fe83  1  0.50129386  0.00198729  0.50035362  1
  Fe  Fe84  1  0.24796828  -0.00090952  0.49875682  1
  Fe  Fe85  1  0.74810075  0.74856511  0.00090301  1
  Fe  Fe86  1  0.62518348  0.12464852  0.12663386  1
  Fe  Fe87  1  -0.00013252  0.25184079  0.75277792  1
  Fe  Fe88  1  0.49712242  -0.00027210  0.24784278  1
  Fe  Fe89  1  0.49818600  0.49772476  0.74481320  1
  Co  Co90  1  0.74864485  -0.00019434  0.00006788  1
  Co  Co91  1  0.87519882  0.62333584  0.12340335  1
  Co  Co92  1  0.87428808  0.37543439  0.87738263  1
  Co  Co93  1  0.75124738  0.00051121  0.25027376  1
  Co  Co94  1  0.37182330  0.87339919  0.12489292  1
  Co  Co95  1  0.00071096  0.00108856  0.24658121  1
  Co  Co96  1  0.12699122  0.37843301  0.87524059  1
  Co  Co97  1  0.87546363  0.62656201  0.37481557  1
  Co  Co98  1  -0.00036903  0.75160870  0.75055066  1
  Co  Co99  1  0.75151427  0.25017619  0.75043294  1
  Co  Co100  1  0.00175837  0.50292430  -0.00275022  1
  Co  Co101  1  0.74939712  0.00069305  0.49973502  1
  Co  Co102  1  0.62248309  0.12397155  0.37237869  1
  Co  Co103  1  0.50182027  0.24888958  0.50275538  1
  Co  Co104  1  0.24788220  0.50063965  0.49976757  1
  Co  Co105  1  0.50016151  0.49656085  0.24840556  1
  Co  Co106  1  0.49882771  0.75028410  0.74860866  1
  Co  Co107  1  0.49915539  0.50198967  0.50612197  1
  Co  Co108  1  -0.00459627  0.50070776  0.25183276  1
  Co  Co109  1  0.75136781  -0.00165320  0.74979918  1
  Co  Co110  1  0.37082706  0.37254982  0.62256910  1
  Co  Co111  1  0.25406148  0.00026122  -0.00138341  1
  Co  Co112  1  0.87604363  0.62538905  0.62632540  1
  Co  Co113  1  0.37271718  0.12827434  0.12503451  1
  Co  Co114  1  0.25154964  0.00082340  0.25220509  1
  Co  Co115  1  0.12494798  0.62141741  0.12996126  1
  Co  Co116  1  0.25346702  0.49721822  0.24998619  1
  Co  Co117  1  0.24960452  0.74466115  0.00116850  1
  Co  Co118  1  0.25079062  0.75134438  0.75165767  1
  Co  Co119  1  0.00040523  0.25232704  0.49953505  1
  Co  Co120  1  0.12529950  0.12256291  0.87547743  1
  Co  Co121  1  0.62842242  0.37427152  0.62265011  1
  Co  Co122  1  0.24649939  0.25272030  -0.00054288  1
  Co  Co123  1  0.25182342  0.50064607  0.74923844  1
  Co  Co124  1  0.24864973  0.74927604  0.49615141  1
  Co  Co125  1  0.49944609  0.75129559  0.25075574  1
  Co  Co126  1  0.62348751  0.62486398  0.12676514  1
  Co  Co127  1  0.00156238  -0.00276657  0.50192774  1
