# generated using pymatgen
data_Fe45Co19
_symmetry_space_group_name_H-M   'P 1'
_cell_length_a   11.41542378
_cell_length_b   11.41476751
_cell_length_c   11.41530289
_cell_angle_alpha   90.00379091
_cell_angle_beta   90.00050784
_cell_angle_gamma   89.99462140
_symmetry_Int_Tables_number   1
_chemical_formula_structural   Fe45Co19
_chemical_formula_sum   'Fe90 Co38'
_cell_volume   1487.46428093
_cell_formula_units_Z   2
loop_
 _symmetry_equiv_pos_site_id
 _symmetry_equiv_pos_as_xyz
  1  'x, y, z'
loop_
 _atom_site_type_symbol
 _atom_site_label
 _atom_site_symmetry_multiplicity
 _atom_site_fract_x
 _atom_site_fract_y
 _atom_site_fract_z
 _atom_site_occupancy
  Fe  Fe0  1  0.87620320  0.12362959  0.61764343  1
  Fe  Fe1  1  0.50050966  0.25002543  0.50249650  1
  Fe  Fe2  1  0.00115004  0.00075477  0.74893740  1
  Fe  Fe3  1  0.00049293  0.75000728  0.25047560  1
  Fe  Fe4  1  0.87180184  0.12571973  0.87467111  1
  Fe  Fe5  1  0.37575042  0.87326010  0.12052852  1
  Fe  Fe6  1  0.50208840  0.49929079  0.00064345  1
  Fe  Fe7  1  0.62515450  0.87689462  0.12612628  1
  Fe  Fe8  1  -0.00049353  0.00141900  0.25149048  1
  Fe  Fe9  1  0.87738670  0.37610342  0.62370129  1
  Fe  Fe10  1  0.87306348  0.62712454  0.12642932  1
  Fe  Fe11  1  0.87544864  0.62390957  0.62364591  1
  Fe  Fe12  1  0.62057349  0.87823334  0.62475965  1
  Fe  Fe13  1  -0.00203650  0.00071291  -0.00017847  1
  Fe  Fe14  1  0.37665959  0.12720416  0.11972159  1
  Fe  Fe15  1  0.25120497  0.75316854  0.75556660  1
  Fe  Fe16  1  0.49566465  0.00186746  0.75313908  1
  Fe  Fe17  1  0.74954295  0.49941224  0.25158595  1
  Fe  Fe18  1  0.49584402  0.75032948  0.49865694  1
  Fe  Fe19  1  0.62664794  0.12555176  0.37762140  1
  Fe  Fe20  1  0.24991205  0.00018415  -0.00281543  1
  Fe  Fe21  1  0.12607828  0.12449947  0.62260607  1
  Fe  Fe22  1  0.00008415  0.49919229  0.75192008  1
  Fe  Fe23  1  0.12924673  0.62246492  0.62665228  1
  Fe  Fe24  1  -0.00000376  0.50042020  0.24974935  1
  Fe  Fe25  1  0.87421652  0.87348409  0.12445961  1
  Fe  Fe26  1  0.74812199  0.75186867  0.50048271  1
  Fe  Fe27  1  0.62367682  0.62583813  0.37400864  1
  Fe  Fe28  1  0.25196388  0.00049713  0.24734785  1
  Fe  Fe29  1  -0.00086968  0.50053984  0.00009345  1
  Fe  Fe30  1  0.37282185  0.62522604  0.62578596  1
  Fe  Fe31  1  0.62460950  0.37362495  0.37536939  1
  Fe  Fe32  1  0.12368849  0.37356554  0.12568232  1
  Fe  Fe33  1  0.87645699  0.87514342  0.62324382  1
  Fe  Fe34  1  0.50147386  0.75150023  0.75368808  1
  Fe  Fe35  1  0.12759461  0.87547067  0.62692160  1
  Fe  Fe36  1  0.12650525  0.12405425  0.87616561  1
  Fe  Fe37  1  0.37797340  0.62859968  0.88051710  1
  Fe  Fe38  1  0.50107423  0.24806618  0.74993761  1
  Fe  Fe39  1  0.74766684  0.25004091  0.74350499  1
  Fe  Fe40  1  0.12708667  0.62802649  0.12444315  1
  Fe  Fe41  1  0.00170662  0.24910088  0.74874202  1
  Fe  Fe42  1  0.87368856  0.12507097  0.12608699  1
  Fe  Fe43  1  0.37401893  0.37751841  0.37168729  1
  Fe  Fe44  1  0.37464571  0.37044648  0.87788301  1
  Fe  Fe45  1  0.49704881  0.50052552  0.75254176  1
  Fe  Fe46  1  0.74695415  0.75082628  -0.00163995  1
  Fe  Fe47  1  0.37296094  0.37705610  0.62719426  1
  Fe  Fe48  1  0.37653644  0.37396219  0.12448080  1
  Fe  Fe49  1  0.74799676  0.74979288  0.74922872  1
  Fe  Fe50  1  0.50316752  0.00272646  -0.00375215  1
  Fe  Fe51  1  0.00185099  0.24817209  0.00003076  1
  Fe  Fe52  1  0.87409635  0.37117681  0.37533998  1
  Fe  Fe53  1  0.75115169  0.00148993  0.25213880  1
  Fe  Fe54  1  0.50068637  0.24889923  0.24905511  1
  Fe  Fe55  1  0.12356694  0.62534292  0.87602975  1
  Fe  Fe56  1  0.87317597  0.62565125  0.87398117  1
  Fe  Fe57  1  0.87426564  0.37321737  0.12492468  1
  Fe  Fe58  1  0.87412386  0.37274255  0.87558044  1
  Fe  Fe59  1  0.74558387  0.24675773  0.00211950  1
  Fe  Fe60  1  0.24905598  0.24954193  0.75230101  1
  Fe  Fe61  1  0.12463232  0.87376373  0.12306971  1
  Fe  Fe62  1  0.37427500  0.12391711  0.62539687  1
  Fe  Fe63  1  0.87589933  0.87466743  0.37653624  1
  Fe  Fe64  1  0.49698608  0.00255983  0.25100708  1
  Fe  Fe65  1  0.12841928  0.87529998  0.37295082  1
  Fe  Fe66  1  0.12548330  0.12457741  0.37625238  1
  Fe  Fe67  1  0.25329107  -0.00242685  0.50143922  1
  Fe  Fe68  1  0.74943903  0.50046281  -0.00110369  1
  Fe  Fe69  1  0.24901629  0.49830272  -0.00053701  1
  Fe  Fe70  1  0.75055456  0.00045277  0.74799842  1
  Fe  Fe71  1  0.00587669  0.49698945  0.49860881  1
  Fe  Fe72  1  0.87443191  0.87511721  0.87540263  1
  Fe  Fe73  1  -0.00021848  0.24679984  0.25144414  1
  Fe  Fe74  1  0.49446297  0.74710959  0.24860974  1
  Fe  Fe75  1  0.25383046  0.75146538  0.49807190  1
  Fe  Fe76  1  0.13008450  0.62391362  0.37323283  1
  Fe  Fe77  1  0.00292381  0.75020611  0.50022549  1
  Fe  Fe78  1  0.25008826  0.24823997  0.24643404  1
  Fe  Fe79  1  0.24817436  0.25480271  0.50019037  1
  Fe  Fe80  1  0.74830075  0.49850384  0.50121069  1
  Fe  Fe81  1  0.87469818  0.62555322  0.37614008  1
  Fe  Fe82  1  0.62391138  0.62225090  0.62712876  1
  Fe  Fe83  1  0.62506620  0.37393973  0.12738317  1
  Fe  Fe84  1  0.49715879  0.50052967  0.49913208  1
  Fe  Fe85  1  0.62066223  0.87502804  0.37397802  1
  Fe  Fe86  1  0.62520475  0.62520761  0.12657651  1
  Fe  Fe87  1  0.62665023  0.37511824  0.87180171  1
  Fe  Fe88  1  0.00069319  0.75074996  0.75022877  1
  Fe  Fe89  1  0.37340477  0.12567363  0.37615910  1
  Co  Co90  1  0.62680629  0.87910728  0.87410807  1
  Co  Co91  1  0.37521394  0.87657730  0.37301861  1
  Co  Co92  1  0.24942059  0.49645196  0.49984472  1
  Co  Co93  1  0.24822685  0.75148712  -0.00271019  1
  Co  Co94  1  0.12469266  0.12309375  0.12411442  1
  Co  Co95  1  0.74921155  0.24810639  0.24874812  1
  Co  Co96  1  0.75234343  0.49881823  0.74920427  1
  Co  Co97  1  0.00242093  -0.00290363  0.49929029  1
  Co  Co98  1  0.12340820  0.37415012  0.87470842  1
  Co  Co99  1  0.37209043  0.62106450  0.37356188  1
  Co  Co100  1  0.37633188  0.87456423  0.62778424  1
  Co  Co101  1  0.74986196  0.75128715  0.25160872  1
  Co  Co102  1  0.75006203  0.00166666  0.00170468  1
  Co  Co103  1  0.12757307  0.37756759  0.63091050  1
  Co  Co104  1  0.50073326  0.50121092  0.24868413  1
  Co  Co105  1  0.12140158  0.87742795  0.87601291  1
  Co  Co106  1  0.25431661  0.75079381  0.24836548  1
  Co  Co107  1  0.50551099  0.24971063  -0.00044930  1
  Co  Co108  1  0.37475870  0.62530107  0.12033062  1
  Co  Co109  1  0.00402136  0.25371625  0.50012499  1
  Co  Co110  1  0.49634986  0.00067508  0.49845712  1
  Co  Co111  1  0.50618235  0.75088455  0.00001100  1
  Co  Co112  1  0.74817227  -0.00321169  0.49857988  1
  Co  Co113  1  0.74648942  0.25170257  0.50563006  1
  Co  Co114  1  0.87428722  0.12673010  0.37982096  1
  Co  Co115  1  0.12725349  0.37369359  0.36887259  1
  Co  Co116  1  0.62727548  0.12489701  0.87191165  1
  Co  Co117  1  0.62537673  0.62203917  0.87284878  1
  Co  Co118  1  0.37720529  0.87454591  0.87783555  1
  Co  Co119  1  0.25046421  0.50033780  0.24502436  1
  Co  Co120  1  0.24718585  0.25079491  0.00146244  1
  Co  Co121  1  0.25160618  -0.00008878  0.75196280  1
  Co  Co122  1  -0.00174138  0.74943180  -0.00056741  1
  Co  Co123  1  0.62212335  0.12021198  0.62413844  1
  Co  Co124  1  0.37405711  0.12831467  0.87811900  1
  Co  Co125  1  0.25343579  0.50143447  0.75669274  1
  Co  Co126  1  0.62077690  0.37977848  0.62676019  1
  Co  Co127  1  0.62337425  0.12290949  0.12712517  1
