# generated using pymatgen
data_Fe45Co19
_symmetry_space_group_name_H-M   'P 1'
_cell_length_a   11.41481815
_cell_length_b   11.41621456
_cell_length_c   11.41455062
_cell_angle_alpha   89.99905512
_cell_angle_beta   89.99482723
_cell_angle_gamma   90.00849706
_symmetry_Int_Tables_number   1
_chemical_formula_structural   Fe45Co19
_chemical_formula_sum   'Fe90 Co38'
_cell_volume   1487.47587689
_cell_formula_units_Z   2
loop_
 _symmetry_equiv_pos_site_id
 _symmetry_equiv_pos_as_xyz
  1  'x, y, z'
loop_
 _atom_site_type_symbol
 _atom_site_label
 _atom_site_symmetry_multiplicity
 _atom_site_fract_x
 _atom_site_fract_y
 _atom_site_fract_z
 _atom_site_occupancy
  Fe  Fe0  1  0.87679195  0.87877085  0.37682245  1
  Fe  Fe1  1  0.12471894  0.37611264  0.87542874  1
  Fe  Fe2  1  0.24952294  0.24858282  0.24927942  1
  Fe  Fe3  1  0.25091063  0.74857042  0.24980179  1
  Fe  Fe4  1  0.87230725  0.87521481  0.12748684  1
  Fe  Fe5  1  -0.00015107  0.25015179  0.25031808  1
  Fe  Fe6  1  -0.00245578  0.50118041  0.74855137  1
  Fe  Fe7  1  0.62049177  0.87403886  0.37971158  1
  Fe  Fe8  1  0.74798117  0.24758088  0.25152167  1
  Fe  Fe9  1  0.37511981  0.62301347  0.62550001  1
  Fe  Fe10  1  0.49994548  0.50091437  0.24823755  1
  Fe  Fe11  1  0.24942254  -0.00110144  0.50287300  1
  Fe  Fe12  1  0.12399542  0.62476322  0.62375366  1
  Fe  Fe13  1  0.50000588  0.00006262  0.75201349  1
  Fe  Fe14  1  0.37656149  0.12452860  0.37446186  1
  Fe  Fe15  1  0.87419367  0.62223321  0.37984571  1
  Fe  Fe16  1  0.00213369  0.00052459  0.25034574  1
  Fe  Fe17  1  0.50249779  0.75513817  -0.00054994  1
  Fe  Fe18  1  0.12518949  0.37554964  0.62379207  1
  Fe  Fe19  1  0.87591617  0.12308983  0.37798206  1
  Fe  Fe20  1  0.74721453  0.50203026  0.25190674  1
  Fe  Fe21  1  -0.00104006  0.75182440  -0.00088407  1
  Fe  Fe22  1  0.74711470  0.00019531  0.25103413  1
  Fe  Fe23  1  0.37713475  0.37383308  0.37329877  1
  Fe  Fe24  1  0.87335863  0.37591680  0.37647270  1
  Fe  Fe25  1  0.62364096  0.12346640  0.12050387  1
  Fe  Fe26  1  0.25220315  0.25000264  0.50088811  1
  Fe  Fe27  1  0.25128385  0.75220313  0.50110760  1
  Fe  Fe28  1  0.62273192  0.12570371  0.37966571  1
  Fe  Fe29  1  -0.00029503  0.25099781  0.49887370  1
  Fe  Fe30  1  0.50323108  0.49994211  0.74717477  1
  Fe  Fe31  1  -0.00335556  0.74884474  0.74854508  1
  Fe  Fe32  1  0.25018064  0.75000433  -0.00064365  1
  Fe  Fe33  1  0.37606073  0.37315191  0.87124074  1
  Fe  Fe34  1  0.37619229  0.87595293  0.37563528  1
  Fe  Fe35  1  0.00003208  0.75040948  0.25101186  1
  Fe  Fe36  1  0.12586159  0.62320412  0.12282287  1
  Fe  Fe37  1  0.62781506  0.62898565  0.61859620  1
  Fe  Fe38  1  0.62409417  0.12259016  0.87943412  1
  Fe  Fe39  1  0.24915101  0.50010811  0.75111827  1
  Fe  Fe40  1  -0.00229397  -0.00155603  -0.00064716  1
  Fe  Fe41  1  0.12617296  0.37566521  0.12419332  1
  Fe  Fe42  1  0.37952116  0.62519638  0.37595242  1
  Fe  Fe43  1  0.25158610  0.50114076  0.24872614  1
  Fe  Fe44  1  0.87154500  0.37501534  0.12442042  1
  Fe  Fe45  1  0.12553179  0.62419557  0.87568317  1
  Fe  Fe46  1  0.50355745  0.74954385  0.74862361  1
  Fe  Fe47  1  0.12610828  0.87585115  0.12547322  1
  Fe  Fe48  1  0.87355788  0.62613920  0.12569579  1
  Fe  Fe49  1  0.74734864  0.75020386  0.25522590  1
  Fe  Fe50  1  0.87060063  0.87681276  0.87142802  1
  Fe  Fe51  1  0.74758064  0.00291443  0.74560238  1
  Fe  Fe52  1  -0.00536534  0.24987333  -0.00328366  1
  Fe  Fe53  1  0.24956216  0.00070201  0.24955494  1
  Fe  Fe54  1  0.74841321  0.75241807  -0.00110503  1
  Fe  Fe55  1  0.25554705  0.00020010  -0.00405638  1
  Fe  Fe56  1  0.25251206  0.25063322  -0.00169128  1
  Fe  Fe57  1  0.62302028  0.37444189  0.37776866  1
  Fe  Fe58  1  0.12513755  0.12443847  0.37627077  1
  Fe  Fe59  1  0.62540580  0.62439351  0.87599258  1
  Fe  Fe60  1  0.62583456  0.37191377  0.12353258  1
  Fe  Fe61  1  0.12455163  0.12501658  0.12193440  1
  Fe  Fe62  1  0.12475489  0.12482104  0.62582433  1
  Fe  Fe63  1  -0.00069368  0.75397989  0.50175663  1
  Fe  Fe64  1  -0.00048385  -0.00093473  0.74658809  1
  Fe  Fe65  1  0.74995254  0.50310159  0.74584586  1
  Fe  Fe66  1  0.37690342  0.37320674  0.62790651  1
  Fe  Fe67  1  0.87311530  0.12354045  0.12501269  1
  Fe  Fe68  1  0.37723491  0.87539818  0.62711221  1
  Fe  Fe69  1  0.12601164  0.12357391  0.87352739  1
  Fe  Fe70  1  -0.00258458  0.25043276  0.75206072  1
  Fe  Fe71  1  -0.00306422  0.49932742  -0.00083467  1
  Fe  Fe72  1  0.62533846  0.37005172  0.62200580  1
  Fe  Fe73  1  0.12464562  0.62535736  0.37711351  1
  Fe  Fe74  1  0.62988286  0.37689332  0.87683998  1
  Fe  Fe75  1  0.37688093  0.62557252  0.87519901  1
  Fe  Fe76  1  0.50139657  -0.00016147  0.24963309  1
  Fe  Fe77  1  0.87148921  0.62345133  0.87503736  1
  Fe  Fe78  1  0.75069155  0.24626806  0.75150960  1
  Fe  Fe79  1  0.62348763  0.62828356  0.12666080  1
  Fe  Fe80  1  0.37770064  0.12853715  0.63015234  1
  Fe  Fe81  1  0.37965680  0.12758505  0.12360831  1
  Fe  Fe82  1  0.24979959  0.74973010  0.74908302  1
  Fe  Fe83  1  0.12714534  0.87598425  0.87187759  1
  Fe  Fe84  1  0.25083405  0.49864716  0.49908834  1
  Fe  Fe85  1  0.87334309  0.37437584  0.62402084  1
  Fe  Fe86  1  0.74826083  0.00076610  0.50425802  1
  Fe  Fe87  1  0.49835982  0.49745163  0.00145357  1
  Fe  Fe88  1  0.00068724  0.49917012  0.25159870  1
  Fe  Fe89  1  0.37665807  0.87425381  0.12664465  1
  Co  Co90  1  0.37721937  0.62740179  0.12240250  1
  Co  Co91  1  0.62446593  0.87370142  0.62501919  1
  Co  Co92  1  0.00145552  0.49769479  0.49979008  1
  Co  Co93  1  0.62147445  0.62562887  0.37835364  1
  Co  Co94  1  0.74942214  0.74740416  0.74977193  1
  Co  Co95  1  0.12588517  0.87382667  0.62794130  1
  Co  Co96  1  0.74710155  0.49848555  0.50042458  1
  Co  Co97  1  0.62570970  0.87604663  0.12646908  1
  Co  Co98  1  0.75280394  0.24728663  -0.00207323  1
  Co  Co99  1  0.50062835  0.75143716  0.25115504  1
  Co  Co100  1  0.37612325  0.12954266  0.87195047  1
  Co  Co101  1  0.49697109  0.24948524  0.49946837  1
  Co  Co102  1  0.49620011  -0.00346654  -0.00276388  1
  Co  Co103  1  0.50024892  0.49881135  0.50346667  1
  Co  Co104  1  0.49812100  0.00179012  0.50267321  1
  Co  Co105  1  0.87113035  0.87556430  0.62619874  1
  Co  Co106  1  0.62153953  0.12772622  0.62361635  1
  Co  Co107  1  0.74856720  0.50327404  0.00374948  1
  Co  Co108  1  0.62780416  0.87731035  0.87127147  1
  Co  Co109  1  0.49722551  0.74968100  0.50275106  1
  Co  Co110  1  0.50034209  0.25308230  -0.00298249  1
  Co  Co111  1  0.86964900  0.37933143  0.87338728  1
  Co  Co112  1  0.37565344  0.37175754  0.12830159  1
  Co  Co113  1  0.87373347  0.62482186  0.62042956  1
  Co  Co114  1  0.00311930  -0.00233185  0.50230236  1
  Co  Co115  1  0.87670096  0.12545857  0.62296516  1
  Co  Co116  1  0.87425214  0.12040350  0.87286648  1
  Co  Co117  1  0.75139601  0.75327347  0.49701143  1
  Co  Co118  1  0.24638531  0.25111559  0.74995946  1
  Co  Co119  1  0.50621128  0.25108035  0.75345948  1
  Co  Co120  1  0.50377796  0.24756931  0.25153963  1
  Co  Co121  1  0.25431343  0.49847265  -0.00132168  1
  Co  Co122  1  0.12627668  0.87503131  0.37394182  1
  Co  Co123  1  0.75061472  0.24803944  0.49930985  1
  Co  Co124  1  0.25291226  0.00014305  0.74989571  1
  Co  Co125  1  0.12743802  0.37364810  0.37375568  1
  Co  Co126  1  0.75127612  -0.00206448  0.00145865  1
  Co  Co127  1  0.37530064  0.87043031  0.87122494  1
