# generated using pymatgen
data_Fe45Co19
_symmetry_space_group_name_H-M   'P 1'
_cell_length_a   11.41576004
_cell_length_b   11.41650478
_cell_length_c   11.41533379
_cell_angle_alpha   89.99829404
_cell_angle_beta   89.99757064
_cell_angle_gamma   90.00076303
_symmetry_Int_Tables_number   1
_chemical_formula_structural   Fe45Co19
_chemical_formula_sum   'Fe90 Co38'
_cell_volume   1487.73852246
_cell_formula_units_Z   2
loop_
 _symmetry_equiv_pos_site_id
 _symmetry_equiv_pos_as_xyz
  1  'x, y, z'
loop_
 _atom_site_type_symbol
 _atom_site_label
 _atom_site_symmetry_multiplicity
 _atom_site_fract_x
 _atom_site_fract_y
 _atom_site_fract_z
 _atom_site_occupancy
  Fe  Fe0  1  0.87243812  0.37404990  0.62445982  1
  Fe  Fe1  1  0.12251861  0.62518180  0.37279428  1
  Fe  Fe2  1  0.62059841  0.12353782  0.87252525  1
  Fe  Fe3  1  0.50161793  0.75392272  0.74935801  1
  Fe  Fe4  1  0.75151357  0.00098171  0.75197778  1
  Fe  Fe5  1  0.37312416  0.87628318  0.12657477  1
  Fe  Fe6  1  0.12462962  0.62308194  0.62673716  1
  Fe  Fe7  1  0.12340859  0.37385456  0.37382938  1
  Fe  Fe8  1  0.12320485  0.12254923  0.62346838  1
  Fe  Fe9  1  0.37974573  0.62511362  0.37678921  1
  Fe  Fe10  1  0.49922858  -0.00118427  0.00113004  1
  Fe  Fe11  1  0.24982873  0.00129545  0.49778265  1
  Fe  Fe12  1  0.12481832  0.87778816  0.13048216  1
  Fe  Fe13  1  0.00219331  0.49857624  -0.00160848  1
  Fe  Fe14  1  0.75056791  0.24396221  0.25098740  1
  Fe  Fe15  1  0.25243639  0.50047001  0.25098954  1
  Fe  Fe16  1  -0.00063986  0.75185037  0.74831772  1
  Fe  Fe17  1  0.24945094  0.24951477  0.49891136  1
  Fe  Fe18  1  0.74910679  0.49956001  -0.00253283  1
  Fe  Fe19  1  0.25086438  0.50077101  0.49776050  1
  Fe  Fe20  1  0.37341376  0.87411538  0.37484281  1
  Fe  Fe21  1  0.62657158  0.87786418  0.37278786  1
  Fe  Fe22  1  0.24925582  0.00124770  0.00113793  1
  Fe  Fe23  1  0.87444488  0.87471717  0.87536655  1
  Fe  Fe24  1  0.87383504  0.62499280  0.62493415  1
  Fe  Fe25  1  0.12887240  0.37683899  0.62742567  1
  Fe  Fe26  1  0.62371534  0.62049668  0.62734068  1
  Fe  Fe27  1  0.62594195  0.37611999  0.12680601  1
  Fe  Fe28  1  0.12022646  0.12208568  0.12889986  1
  Fe  Fe29  1  0.50113666  0.25074541  0.00314577  1
  Fe  Fe30  1  0.74819542  0.24781375  0.49949369  1
  Fe  Fe31  1  0.00167826  0.75277047  0.49845550  1
  Fe  Fe32  1  0.62761346  0.87840526  0.12751245  1
  Fe  Fe33  1  0.87380157  0.87790818  0.12825043  1
  Fe  Fe34  1  0.62404771  0.37367149  0.37326016  1
  Fe  Fe35  1  0.24997345  0.74726829  0.24905030  1
  Fe  Fe36  1  -0.00195232  0.49815767  0.24843448  1
  Fe  Fe37  1  0.75172499  0.00375543  0.49474315  1
  Fe  Fe38  1  0.75049790  0.00160147  -0.00030410  1
  Fe  Fe39  1  0.74683410  0.74846253  0.50164986  1
  Fe  Fe40  1  0.50035646  0.75073671  0.24935355  1
  Fe  Fe41  1  0.37717569  0.37342609  0.37228394  1
  Fe  Fe42  1  0.74963964  0.74836889  0.24986008  1
  Fe  Fe43  1  0.62559599  0.62368047  0.12541354  1
  Fe  Fe44  1  0.75113754  0.49959095  0.25085507  1
  Fe  Fe45  1  0.25515299  0.50235695  0.75450250  1
  Fe  Fe46  1  0.24914964  0.74868695  0.50052901  1
  Fe  Fe47  1  0.25077586  0.74875432  0.74988520  1
  Fe  Fe48  1  0.87854273  0.12369659  0.62156716  1
  Fe  Fe49  1  0.87199434  0.37026386  0.12135573  1
  Fe  Fe50  1  0.50016848  0.25421756  0.50497249  1
  Fe  Fe51  1  0.11931764  0.12725104  0.37365453  1
  Fe  Fe52  1  0.25290284  0.24812738  0.74960151  1
  Fe  Fe53  1  0.25045339  0.50138168  -0.00453397  1
  Fe  Fe54  1  0.62238867  0.12424629  0.62556612  1
  Fe  Fe55  1  0.12854341  0.37627282  0.12506905  1
  Fe  Fe56  1  0.24814524  0.24837787  0.00122187  1
  Fe  Fe57  1  0.12590425  0.87775817  0.62479490  1
  Fe  Fe58  1  0.74841622  0.75068865  -0.00085333  1
  Fe  Fe59  1  0.49720892  -0.00221879  0.50130847  1
  Fe  Fe60  1  0.62238224  0.62321084  0.37475534  1
  Fe  Fe61  1  0.62660670  0.87828215  0.62560116  1
  Fe  Fe62  1  0.87455883  0.37086805  0.87758723  1
  Fe  Fe63  1  0.62499465  0.12191527  0.12773658  1
  Fe  Fe64  1  0.74966545  0.24810004  0.75073672  1
  Fe  Fe65  1  0.87495906  0.62719953  0.87490268  1
  Fe  Fe66  1  0.12335523  0.12396228  0.87444910  1
  Fe  Fe67  1  0.49835991  0.49913939  -0.00016897  1
  Fe  Fe68  1  0.87744562  0.12712033  0.88020027  1
  Fe  Fe69  1  0.87550492  0.62473805  0.12429544  1
  Fe  Fe70  1  0.62285152  0.37432042  0.87123326  1
  Fe  Fe71  1  0.87556737  0.62644836  0.37556438  1
  Fe  Fe72  1  0.87419813  0.87722405  0.62308087  1
  Fe  Fe73  1  0.62475647  0.62449065  0.87184745  1
  Fe  Fe74  1  -0.00161722  0.49839475  0.75182968  1
  Fe  Fe75  1  0.87582393  0.37152812  0.37686139  1
  Fe  Fe76  1  0.37818444  0.12597344  0.87398618  1
  Fe  Fe77  1  0.12507911  0.87629593  0.87323486  1
  Fe  Fe78  1  0.00269948  0.75083426  0.00262653  1
  Fe  Fe79  1  0.37878830  0.12722636  0.37359005  1
  Fe  Fe80  1  0.37911022  0.62531255  0.62271105  1
  Fe  Fe81  1  0.00075078  0.24955799  0.74915577  1
  Fe  Fe82  1  0.74868509  0.49971419  0.49975510  1
  Fe  Fe83  1  0.24677524  0.74905350  -0.00012481  1
  Fe  Fe84  1  0.37458034  0.62404946  0.12299071  1
  Fe  Fe85  1  0.25337847  0.00102588  0.74882925  1
  Fe  Fe86  1  0.50231791  0.75224329  0.00049984  1
  Fe  Fe87  1  0.37521349  0.12596257  0.12819264  1
  Fe  Fe88  1  0.37492084  0.87511281  0.87540624  1
  Fe  Fe89  1  0.00032813  0.49847064  0.50095608  1
  Co  Co90  1  0.74350239  0.24790763  -0.00046038  1
  Co  Co91  1  0.75327309  0.49923462  0.75200105  1
  Co  Co92  1  -0.00185266  0.00078708  0.75159849  1
  Co  Co93  1  0.50112028  0.49518956  0.50080635  1
  Co  Co94  1  -0.00133450  0.25286315  0.24636320  1
  Co  Co95  1  0.12966985  0.87298129  0.37210233  1
  Co  Co96  1  0.37533898  0.12503531  0.62325468  1
  Co  Co97  1  0.49740777  -0.00216343  0.74820486  1
  Co  Co98  1  0.12786142  0.37421006  0.87216881  1
  Co  Co99  1  0.74884127  0.75139521  0.74888057  1
  Co  Co100  1  0.49786166  -0.00168747  0.24952379  1
  Co  Co101  1  -0.00454729  -0.00175009  0.25549352  1
  Co  Co102  1  0.61809131  0.12502021  0.37685651  1
  Co  Co103  1  0.49809167  0.25261432  0.74463217  1
  Co  Co104  1  0.50309063  0.75258636  0.50040554  1
  Co  Co105  1  0.37559286  0.36986440  0.87793579  1
  Co  Co106  1  0.25082956  0.00401678  0.25236118  1
  Co  Co107  1  -0.00029062  0.75057363  0.24968838  1
  Co  Co108  1  0.88208871  0.13073512  0.37918001  1
  Co  Co109  1  0.12274674  0.62611822  0.87372671  1
  Co  Co110  1  0.49502650  0.49645670  0.74971124  1
  Co  Co111  1  0.37227946  0.87383679  0.62374211  1
  Co  Co112  1  0.49895057  0.50006268  0.24843305  1
  Co  Co113  1  0.00127770  -0.00222816  -0.00044130  1
  Co  Co114  1  0.75467953  0.00778814  0.25432079  1
  Co  Co115  1  0.00312306  0.25410122  0.50538658  1
  Co  Co116  1  0.50123834  0.25095718  0.24623405  1
  Co  Co117  1  0.00600178  0.25156285  0.00049448  1
  Co  Co118  1  0.24889608  0.24873299  0.25024740  1
  Co  Co119  1  0.87773105  0.12637413  0.12075230  1
  Co  Co120  1  0.86978068  0.87072583  0.37527709  1
  Co  Co121  1  0.37761579  0.62940958  0.87643388  1
  Co  Co122  1  0.36900929  0.37623557  0.62377783  1
  Co  Co123  1  0.12530969  0.62225597  0.12591125  1
  Co  Co124  1  0.62938803  0.37631512  0.62779641  1
  Co  Co125  1  0.62536083  0.87806479  0.87560745  1
  Co  Co126  1  0.37212902  0.37513996  0.12409801  1
  Co  Co127  1  0.00114134  -0.00496189  0.49479704  1
