# generated using pymatgen
data_Fe45Co19
_symmetry_space_group_name_H-M   'P 1'
_cell_length_a   11.42238149
_cell_length_b   11.42311980
_cell_length_c   11.42248567
_cell_angle_alpha   90.00464194
_cell_angle_beta   89.99088132
_cell_angle_gamma   89.99870732
_symmetry_Int_Tables_number   1
_chemical_formula_structural   Fe45Co19
_chemical_formula_sum   'Fe90 Co38'
_cell_volume   1490.39713619
_cell_formula_units_Z   2
loop_
 _symmetry_equiv_pos_site_id
 _symmetry_equiv_pos_as_xyz
  1  'x, y, z'
loop_
 _atom_site_type_symbol
 _atom_site_label
 _atom_site_symmetry_multiplicity
 _atom_site_fract_x
 _atom_site_fract_y
 _atom_site_fract_z
 _atom_site_occupancy
  Fe  Fe0  1  0.37624162  0.62514968  0.12474534  1
  Fe  Fe1  1  0.74800400  0.75207925  0.25169637  1
  Fe  Fe2  1  0.24846592  0.25299343  0.50040133  1
  Fe  Fe3  1  -0.00224908  -0.00422459  0.49956979  1
  Fe  Fe4  1  0.75354818  -0.00146731  0.50214514  1
  Fe  Fe5  1  0.62614304  0.37432009  0.12409515  1
  Fe  Fe6  1  0.87484133  0.62853619  0.62431719  1
  Fe  Fe7  1  0.24624301  0.00268541  0.25065416  1
  Fe  Fe8  1  0.12421897  0.87629466  0.12439260  1
  Fe  Fe9  1  0.49782618  -0.00157355  0.49977594  1
  Fe  Fe10  1  0.00002972  0.25089997  0.50042139  1
  Fe  Fe11  1  0.75020778  0.75387590  0.49838073  1
  Fe  Fe12  1  0.12363504  0.87250256  0.62414444  1
  Fe  Fe13  1  0.87553306  0.37221331  0.12480513  1
  Fe  Fe14  1  0.24787616  0.49981029  0.24938318  1
  Fe  Fe15  1  0.25043711  0.49900162  0.50032732  1
  Fe  Fe16  1  0.12342904  0.37788230  0.12006872  1
  Fe  Fe17  1  0.74528590  0.75087332  0.75129908  1
  Fe  Fe18  1  0.50022059  0.49863911  0.25160362  1
  Fe  Fe19  1  0.37735895  0.12586029  0.87286683  1
  Fe  Fe20  1  0.62428048  0.37627107  0.62507830  1
  Fe  Fe21  1  0.24529554  0.25009631  0.25086981  1
  Fe  Fe22  1  0.37316053  0.12672281  0.37543387  1
  Fe  Fe23  1  0.62270735  0.62385518  0.62123128  1
  Fe  Fe24  1  0.50138593  0.75131546  0.25257713  1
  Fe  Fe25  1  0.37843802  0.62471152  0.62458988  1
  Fe  Fe26  1  0.87286893  0.37332175  0.87530813  1
  Fe  Fe27  1  0.74812299  0.50227450  0.74974695  1
  Fe  Fe28  1  0.37647183  0.87182066  0.62702150  1
  Fe  Fe29  1  0.25059189  -0.00005359  0.50165534  1
  Fe  Fe30  1  0.12311955  0.12443235  0.62455751  1
  Fe  Fe31  1  0.87676339  0.12221545  0.37358879  1
  Fe  Fe32  1  0.62373888  0.12335427  0.12351399  1
  Fe  Fe33  1  0.00365631  0.75096930  0.25419003  1
  Fe  Fe34  1  0.62319681  0.87779058  0.12736113  1
  Fe  Fe35  1  0.24778587  0.25146394  0.75080692  1
  Fe  Fe36  1  0.00092106  0.74972373  -0.00146031  1
  Fe  Fe37  1  0.62691137  0.37611594  0.37643410  1
  Fe  Fe38  1  0.12474214  0.61683601  0.87512013  1
  Fe  Fe39  1  0.50123402  0.49912360  -0.00229012  1
  Fe  Fe40  1  0.37848070  0.62596040  0.87465549  1
  Fe  Fe41  1  0.75210441  -0.00166056  -0.00021951  1
  Fe  Fe42  1  0.62427135  0.62410953  0.37807660  1
  Fe  Fe43  1  0.37832002  0.87181250  0.87274708  1
  Fe  Fe44  1  0.62562572  0.12044371  0.37522058  1
  Fe  Fe45  1  0.12351989  0.12381630  0.87680888  1
  Fe  Fe46  1  0.12453226  0.87546148  0.87454507  1
  Fe  Fe47  1  0.87281350  0.37361338  0.62660354  1
  Fe  Fe48  1  0.37390278  0.12711674  0.12429771  1
  Fe  Fe49  1  0.62431013  0.62519902  0.12387704  1
  Fe  Fe50  1  0.87544381  0.62611939  0.37584254  1
  Fe  Fe51  1  0.50063767  0.25131741  0.49892665  1
  Fe  Fe52  1  0.37770923  0.12766023  0.62678259  1
  Fe  Fe53  1  0.00114091  0.74808461  0.75054117  1
  Fe  Fe54  1  0.00453733  0.24713472  0.24968826  1
  Fe  Fe55  1  0.00134395  0.50156980  0.24856067  1
  Fe  Fe56  1  0.24914489  0.74780072  -0.00047429  1
  Fe  Fe57  1  0.62309962  0.87617406  0.62516583  1
  Fe  Fe58  1  0.87573052  0.62799049  0.12542457  1
  Fe  Fe59  1  0.50293358  0.25107640  -0.00389928  1
  Fe  Fe60  1  0.87594311  0.37508619  0.37391198  1
  Fe  Fe61  1  0.24688146  0.74799268  0.25065043  1
  Fe  Fe62  1  0.87304534  0.62660052  0.87516387  1
  Fe  Fe63  1  0.75045420  0.24792348  0.50035999  1
  Fe  Fe64  1  0.24790701  0.74770859  0.49965835  1
  Fe  Fe65  1  0.24864755  0.74646482  0.75010818  1
  Fe  Fe66  1  0.50114027  0.24936280  0.25156901  1
  Fe  Fe67  1  0.37543170  0.37388860  0.12555659  1
  Fe  Fe68  1  0.75131783  0.49966959  0.00071367  1
  Fe  Fe69  1  0.25083409  -0.00009144  0.74916971  1
  Fe  Fe70  1  0.87813828  0.87612676  0.12808963  1
  Fe  Fe71  1  0.25093204  -0.00079788  -0.00119933  1
  Fe  Fe72  1  0.00124403  0.25152706  0.75224621  1
  Fe  Fe73  1  0.49833792  -0.00139875  -0.00079376  1
  Fe  Fe74  1  0.24786761  0.25259996  -0.00267797  1
  Fe  Fe75  1  0.37549468  0.37641396  0.87220511  1
  Fe  Fe76  1  0.37828576  0.37538107  0.62756617  1
  Fe  Fe77  1  0.37365531  0.87492389  0.37387096  1
  Fe  Fe78  1  0.87972358  0.12425691  0.12341052  1
  Fe  Fe79  1  -0.00069706  0.50142695  0.50169787  1
  Fe  Fe80  1  0.37542156  0.62383970  0.37585225  1
  Fe  Fe81  1  0.74963451  0.00043926  0.74922089  1
  Fe  Fe82  1  0.87497047  0.12557838  0.87644703  1
  Fe  Fe83  1  -0.00254898  -0.00111563  0.75003426  1
  Fe  Fe84  1  0.74775315  0.75396547  -0.00022749  1
  Fe  Fe85  1  0.37444070  0.87419158  0.12653065  1
  Fe  Fe86  1  0.74995726  0.24693020  0.24940997  1
  Fe  Fe87  1  0.74502162  0.24564921  0.75013670  1
  Fe  Fe88  1  0.75058393  0.50114571  0.25034271  1
  Fe  Fe89  1  0.12415823  0.37964074  0.62880380  1
  Co  Co90  1  0.12398177  0.62441586  0.12292075  1
  Co  Co91  1  0.50105358  0.75143921  0.00148351  1
  Co  Co92  1  -0.00561621  0.50050841  0.74960092  1
  Co  Co93  1  0.12488043  0.62277450  0.37682931  1
  Co  Co94  1  0.50027139  0.75260039  0.49801165  1
  Co  Co95  1  0.49788228  0.49729095  0.49872666  1
  Co  Co96  1  0.75138244  0.00169254  0.24689898  1
  Co  Co97  1  0.87437950  0.87638992  0.37108461  1
  Co  Co98  1  0.62476938  0.12099539  0.87699694  1
  Co  Co99  1  -0.00042173  0.75135843  0.49787053  1
  Co  Co100  1  0.62572290  0.62549243  0.87855257  1
  Co  Co101  1  0.75274061  0.49987779  0.50062768  1
  Co  Co102  1  0.87419140  0.87331023  0.87332773  1
  Co  Co103  1  0.50419859  0.74765769  0.74949073  1
  Co  Co104  1  0.00463412  0.00152863  0.25112161  1
  Co  Co105  1  0.50449877  0.25004064  0.75166251  1
  Co  Co106  1  0.74962280  0.24760114  0.00137884  1
  Co  Co107  1  0.37334000  0.37421762  0.37301943  1
  Co  Co108  1  0.87498157  0.87144427  0.62772323  1
  Co  Co109  1  0.25360623  0.50156582  0.74812636  1
  Co  Co110  1  0.49957901  0.00043659  0.74882387  1
  Co  Co111  1  0.62284374  0.87747460  0.87442361  1
  Co  Co112  1  0.12384362  0.62373948  0.62554140  1
  Co  Co113  1  0.12534577  0.12429698  0.11968784  1
  Co  Co114  1  0.12445233  0.12430112  0.38024070  1
  Co  Co115  1  0.50284972  0.50148802  0.75190160  1
  Co  Co116  1  0.87665464  0.12619612  0.62610428  1
  Co  Co117  1  -0.00119634  -0.00210822  -0.00166949  1
  Co  Co118  1  0.62588173  0.87947079  0.37448322  1
  Co  Co119  1  0.12519520  0.38129991  0.87461561  1
  Co  Co120  1  0.62892206  0.37596706  0.87488726  1
  Co  Co121  1  0.62289224  0.12306854  0.62240008  1
  Co  Co122  1  0.12270008  0.37709335  0.37565696  1
  Co  Co123  1  0.00154827  0.25205916  -0.00247313  1
  Co  Co124  1  0.25367635  0.50041758  0.00109193  1
  Co  Co125  1  -0.00514456  0.50033724  0.00009208  1
  Co  Co126  1  0.49648407  0.00141616  0.25042502  1
  Co  Co127  1  0.12710344  0.87600021  0.37688561  1
