# generated using pymatgen
data_Fe45Co19
_symmetry_space_group_name_H-M   'P 1'
_cell_length_a   11.41453576
_cell_length_b   11.41548992
_cell_length_c   11.41608061
_cell_angle_alpha   89.99789432
_cell_angle_beta   89.99573268
_cell_angle_gamma   90.01246544
_symmetry_Int_Tables_number   1
_chemical_formula_structural   Fe45Co19
_chemical_formula_sum   'Fe90 Co38'
_cell_volume   1487.54400710
_cell_formula_units_Z   2
loop_
 _symmetry_equiv_pos_site_id
 _symmetry_equiv_pos_as_xyz
  1  'x, y, z'
loop_
 _atom_site_type_symbol
 _atom_site_label
 _atom_site_symmetry_multiplicity
 _atom_site_fract_x
 _atom_site_fract_y
 _atom_site_fract_z
 _atom_site_occupancy
  Fe  Fe0  1  0.00120088  0.24931243  0.74883425  1
  Fe  Fe1  1  0.74791567  -0.00209248  0.50074938  1
  Fe  Fe2  1  0.25096824  0.24980632  0.24978275  1
  Fe  Fe3  1  0.37355775  0.87920293  0.62173834  1
  Fe  Fe4  1  0.62182860  0.37766433  0.37347828  1
  Fe  Fe5  1  0.74673885  0.75151270  0.50086910  1
  Fe  Fe6  1  0.74807619  0.75050845  -0.00088233  1
  Fe  Fe7  1  0.74971793  -0.00156521  0.75060542  1
  Fe  Fe8  1  0.37165370  0.12485770  0.62078696  1
  Fe  Fe9  1  0.12348544  0.37394441  0.37276140  1
  Fe  Fe10  1  0.87607927  0.62387029  0.12433588  1
  Fe  Fe11  1  0.87505499  0.87390247  0.12231345  1
  Fe  Fe12  1  0.00114055  -0.00210077  -0.00262750  1
  Fe  Fe13  1  0.37427970  0.62339917  0.62408635  1
  Fe  Fe14  1  0.74858016  0.49694277  0.00222542  1
  Fe  Fe15  1  0.87595125  0.62602908  0.37536665  1
  Fe  Fe16  1  0.50201908  0.00417780  0.00094954  1
  Fe  Fe17  1  0.25036733  0.00014989  0.25141132  1
  Fe  Fe18  1  0.37217118  0.12491793  0.37782603  1
  Fe  Fe19  1  0.62205724  0.62213245  0.87296773  1
  Fe  Fe20  1  -0.00182898  0.50166054  0.24995050  1
  Fe  Fe21  1  0.24770141  0.75002208  0.50075206  1
  Fe  Fe22  1  0.74746748  0.25098195  0.50101388  1
  Fe  Fe23  1  0.49854009  0.00122882  0.25103558  1
  Fe  Fe24  1  0.00074244  0.74994592  -0.00320955  1
  Fe  Fe25  1  0.25116272  0.74914135  0.25066920  1
  Fe  Fe26  1  0.87685241  0.87498925  0.62578015  1
  Fe  Fe27  1  0.00289363  0.00143921  0.49886869  1
  Fe  Fe28  1  0.62498740  0.12461720  0.62624561  1
  Fe  Fe29  1  0.62340768  0.87573667  0.12601373  1
  Fe  Fe30  1  0.24951405  -0.00009416  -0.00195578  1
  Fe  Fe31  1  0.62691056  0.12476763  0.37233783  1
  Fe  Fe32  1  -0.00112743  0.00168119  0.25031368  1
  Fe  Fe33  1  0.00115658  0.25019845  0.00136241  1
  Fe  Fe34  1  0.62017817  0.37595241  0.87526890  1
  Fe  Fe35  1  0.12437252  0.87391460  0.37378645  1
  Fe  Fe36  1  0.87593612  0.37462511  0.87684756  1
  Fe  Fe37  1  0.75185518  -0.00261784  0.24962416  1
  Fe  Fe38  1  0.13187141  0.63070334  0.86999829  1
  Fe  Fe39  1  0.12431055  0.37538219  0.12623520  1
  Fe  Fe40  1  0.87151832  0.12678747  0.12124751  1
  Fe  Fe41  1  0.25146528  0.49955616  -0.00205422  1
  Fe  Fe42  1  0.75046943  0.74898693  0.25008973  1
  Fe  Fe43  1  0.87530984  0.62471146  0.62610240  1
  Fe  Fe44  1  0.87648292  0.37502790  0.62493950  1
  Fe  Fe45  1  0.87770161  0.37437063  0.37539805  1
  Fe  Fe46  1  0.00440540  0.74775174  0.50360636  1
  Fe  Fe47  1  0.87456071  0.12689717  0.37494766  1
  Fe  Fe48  1  0.75103972  0.25579408  0.24609978  1
  Fe  Fe49  1  0.49830939  0.24830552  0.24919159  1
  Fe  Fe50  1  0.50075703  0.75233695  0.49902011  1
  Fe  Fe51  1  0.49604415  0.00145984  0.75129507  1
  Fe  Fe52  1  0.49772305  0.74707787  -0.00103616  1
  Fe  Fe53  1  0.87215157  0.12496210  0.87738294  1
  Fe  Fe54  1  0.25313650  0.50067494  0.25215550  1
  Fe  Fe55  1  0.49821188  0.25022207  0.74777787  1
  Fe  Fe56  1  0.62259554  0.62488769  0.62743325  1
  Fe  Fe57  1  0.37549986  0.87685147  0.12403108  1
  Fe  Fe58  1  0.12550253  0.62565556  0.12612458  1
  Fe  Fe59  1  0.12843616  0.12808999  0.87421435  1
  Fe  Fe60  1  0.87352764  0.62509282  0.87459707  1
  Fe  Fe61  1  0.62239105  0.87653823  0.87423097  1
  Fe  Fe62  1  0.62363652  0.62058472  0.12751710  1
  Fe  Fe63  1  0.24736578  0.50010049  0.49882105  1
  Fe  Fe64  1  0.37724195  0.37287515  0.61978325  1
  Fe  Fe65  1  0.00356412  0.24853405  0.50098206  1
  Fe  Fe66  1  0.50409666  0.24585832  0.00358878  1
  Fe  Fe67  1  0.37453376  0.62371105  0.12459339  1
  Fe  Fe68  1  0.12743428  0.37195761  0.87371837  1
  Fe  Fe69  1  0.37641246  0.37405135  0.12163011  1
  Fe  Fe70  1  0.00304527  -0.00272813  0.75298467  1
  Fe  Fe71  1  0.12543149  0.87374417  0.12394184  1
  Fe  Fe72  1  0.50276414  -0.00053728  0.49724023  1
  Fe  Fe73  1  0.62240802  0.62283937  0.37310956  1
  Fe  Fe74  1  0.00326304  0.50223131  0.50178025  1
  Fe  Fe75  1  0.49719363  0.74915890  0.25159957  1
  Fe  Fe76  1  0.25508203  0.49397625  0.75085092  1
  Fe  Fe77  1  0.37243516  0.12889632  0.87672361  1
  Fe  Fe78  1  0.74940562  0.25140163  0.75091848  1
  Fe  Fe79  1  0.49502115  0.75083454  0.75142653  1
  Fe  Fe80  1  0.74840744  0.49768497  0.74871184  1
  Fe  Fe81  1  0.00356539  0.50210327  -0.00303236  1
  Fe  Fe82  1  0.12959034  0.12390724  0.62546975  1
  Fe  Fe83  1  0.74781908  0.49950716  0.50045586  1
  Fe  Fe84  1  0.87610056  0.87274645  0.37669093  1
  Fe  Fe85  1  0.75037537  0.75179899  0.75049202  1
  Fe  Fe86  1  0.12637038  0.12543618  0.12599113  1
  Fe  Fe87  1  0.37738894  0.37515749  0.37845759  1
  Fe  Fe88  1  0.87470711  0.12462510  0.62552905  1
  Fe  Fe89  1  0.00106099  0.50142894  0.75094372  1
  Co  Co90  1  0.25272207  0.25218996  0.74694275  1
  Co  Co91  1  0.37789011  0.37012432  0.88037821  1
  Co  Co92  1  -0.00034104  0.75054013  0.24892329  1
  Co  Co93  1  0.12511763  0.62501394  0.37252040  1
  Co  Co94  1  0.75297207  0.49846134  0.25020471  1
  Co  Co95  1  0.12346665  0.37629647  0.62661267  1
  Co  Co96  1  0.50239538  0.50097738  0.50226960  1
  Co  Co97  1  0.62480126  0.87490837  0.37197367  1
  Co  Co98  1  0.37209353  0.62512519  0.87300138  1
  Co  Co99  1  0.25321710  0.74911625  0.00326670  1
  Co  Co100  1  0.12890515  0.62376779  0.63131401  1
  Co  Co101  1  0.62927717  0.12415497  0.12931193  1
  Co  Co102  1  0.49573755  0.49763221  0.74909190  1
  Co  Co103  1  0.24668229  0.25208341  0.49949515  1
  Co  Co104  1  0.62423099  0.37421564  0.62572899  1
  Co  Co105  1  -0.00152815  0.75031906  0.75047200  1
  Co  Co106  1  0.12958014  0.86947028  0.87413357  1
  Co  Co107  1  0.12654812  0.12649161  0.37319101  1
  Co  Co108  1  0.61969971  0.37877804  0.12629016  1
  Co  Co109  1  0.37223099  0.12383808  0.12420209  1
  Co  Co110  1  -0.00068295  0.24748431  0.24760511  1
  Co  Co111  1  0.37519902  0.87623709  0.87980746  1
  Co  Co112  1  0.74628033  0.25386131  0.00045078  1
  Co  Co113  1  0.25138225  0.00012653  0.75348729  1
  Co  Co114  1  0.24815171  0.25030338  0.00276507  1
  Co  Co115  1  0.87340607  0.87551664  0.87475804  1
  Co  Co116  1  0.87917886  0.37667387  0.12197167  1
  Co  Co117  1  0.37571818  0.62523334  0.37886584  1
  Co  Co118  1  0.49654737  0.50372749  -0.00108666  1
  Co  Co119  1  0.25731946  0.75591910  0.74646397  1
  Co  Co120  1  0.24693025  -0.00151560  0.49746992  1
  Co  Co121  1  0.62592911  0.12488081  0.87211479  1
  Co  Co122  1  0.49418675  0.50058532  0.25008638  1
  Co  Co123  1  0.50300177  0.24728939  0.49916590  1
  Co  Co124  1  0.62242589  0.87586106  0.62864938  1
  Co  Co125  1  0.74682720  -0.00154969  -0.00082954  1
  Co  Co126  1  0.37385780  0.87459384  0.37519199  1
  Co  Co127  1  0.12593395  0.87649460  0.62750721  1
