# generated using pymatgen
data_Fe45Co19
_symmetry_space_group_name_H-M   'P 1'
_cell_length_a   11.41630739
_cell_length_b   11.41626666
_cell_length_c   11.41460934
_cell_angle_alpha   90.00225346
_cell_angle_beta   89.99574417
_cell_angle_gamma   89.99607950
_symmetry_Int_Tables_number   1
_chemical_formula_structural   Fe45Co19
_chemical_formula_sum   'Fe90 Co38'
_cell_volume   1487.68439819
_cell_formula_units_Z   2
loop_
 _symmetry_equiv_pos_site_id
 _symmetry_equiv_pos_as_xyz
  1  'x, y, z'
loop_
 _atom_site_type_symbol
 _atom_site_label
 _atom_site_symmetry_multiplicity
 _atom_site_fract_x
 _atom_site_fract_y
 _atom_site_fract_z
 _atom_site_occupancy
  Fe  Fe0  1  0.37194583  0.62186818  0.62527079  1
  Fe  Fe1  1  0.62447934  0.87300972  0.37428221  1
  Fe  Fe2  1  0.49773253  0.74961372  0.50120741  1
  Fe  Fe3  1  0.12418925  0.87562931  0.87795046  1
  Fe  Fe4  1  0.00102734  0.49699515  0.24773070  1
  Fe  Fe5  1  0.74804320  0.25014458  0.50232151  1
  Fe  Fe6  1  0.37703635  0.12831426  0.37663454  1
  Fe  Fe7  1  0.49995895  -0.00087269  0.25000543  1
  Fe  Fe8  1  -0.00014909  0.75152826  0.24554456  1
  Fe  Fe9  1  0.25063198  0.74950473  0.75002316  1
  Fe  Fe10  1  0.24903939  0.00211522  0.75154654  1
  Fe  Fe11  1  0.37547761  0.87508249  0.87476561  1
  Fe  Fe12  1  0.24970643  0.75132811  0.24630084  1
  Fe  Fe13  1  0.37501202  0.62718806  0.87621493  1
  Fe  Fe14  1  0.49903745  0.75074780  0.00300564  1
  Fe  Fe15  1  0.37509411  0.62317780  0.12566282  1
  Fe  Fe16  1  0.74978675  0.49858371  0.24908243  1
  Fe  Fe17  1  0.87246347  0.62518596  0.62849603  1
  Fe  Fe18  1  0.62625234  0.12688396  0.87384499  1
  Fe  Fe19  1  0.62210205  0.87161665  0.87347358  1
  Fe  Fe20  1  0.87814750  0.87506614  0.87617864  1
  Fe  Fe21  1  0.74980769  0.49925299  0.50174528  1
  Fe  Fe22  1  0.74851054  0.25067457  0.25024797  1
  Fe  Fe23  1  0.75094267  0.75201000  0.00003376  1
  Fe  Fe24  1  0.24947412  0.74932151  0.50110774  1
  Fe  Fe25  1  0.87339090  0.12268554  0.62493072  1
  Fe  Fe26  1  0.50244925  0.49802532  0.25004710  1
  Fe  Fe27  1  0.74961839  -0.00206876  -0.00047489  1
  Fe  Fe28  1  0.62712373  0.62763845  0.62958387  1
  Fe  Fe29  1  0.74893239  -0.00007017  0.25025354  1
  Fe  Fe30  1  0.00200231  0.25244766  0.50309138  1
  Fe  Fe31  1  0.50210923  0.49973766  -0.00289137  1
  Fe  Fe32  1  0.00054595  0.24517035  0.75126450  1
  Fe  Fe33  1  0.12449819  0.87740072  0.62547187  1
  Fe  Fe34  1  0.37556556  0.87722417  0.62722479  1
  Fe  Fe35  1  0.74836745  -0.00159514  0.74814675  1
  Fe  Fe36  1  0.49970596  0.00091300  -0.00238724  1
  Fe  Fe37  1  0.37497225  0.62414544  0.37394214  1
  Fe  Fe38  1  0.37351320  0.37816748  0.62728603  1
  Fe  Fe39  1  0.87599312  0.37603400  0.12054338  1
  Fe  Fe40  1  0.62510336  0.62538145  0.12328021  1
  Fe  Fe41  1  0.00180080  0.49887023  0.50032522  1
  Fe  Fe42  1  0.24765454  0.74975355  0.00260115  1
  Fe  Fe43  1  0.87195082  0.12389398  0.12335776  1
  Fe  Fe44  1  0.00131243  0.74914995  0.50188217  1
  Fe  Fe45  1  -0.00029480  0.00057384  0.24716956  1
  Fe  Fe46  1  0.37689902  0.12230058  0.62434987  1
  Fe  Fe47  1  0.12511547  0.12477778  0.12306941  1
  Fe  Fe48  1  0.37464322  0.87355172  0.37209452  1
  Fe  Fe49  1  0.25295958  0.25061182  0.00055837  1
  Fe  Fe50  1  0.50117000  0.50336335  0.75320107  1
  Fe  Fe51  1  -0.00102094  0.25060557  0.24843778  1
  Fe  Fe52  1  0.12604027  0.87626776  0.37296984  1
  Fe  Fe53  1  0.00010823  0.74881308  0.75048075  1
  Fe  Fe54  1  0.24777764  0.25395717  0.50343724  1
  Fe  Fe55  1  0.25162814  0.00075782  0.00074991  1
  Fe  Fe56  1  0.50001125  0.24551752  0.74939327  1
  Fe  Fe57  1  0.87393370  0.37493792  0.37562923  1
  Fe  Fe58  1  0.25054153  0.25099510  0.24757718  1
  Fe  Fe59  1  0.62129142  0.87661424  0.62585899  1
  Fe  Fe60  1  0.12539054  0.62379637  0.37348308  1
  Fe  Fe61  1  0.62468242  0.12566398  0.12363300  1
  Fe  Fe62  1  0.50169199  0.49887296  0.50041881  1
  Fe  Fe63  1  0.24758985  0.49541687  0.24797209  1
  Fe  Fe64  1  0.37805625  0.37253014  0.87610561  1
  Fe  Fe65  1  0.24678925  0.49899494  -0.00070279  1
  Fe  Fe66  1  0.62216628  0.12639492  0.37938412  1
  Fe  Fe67  1  0.87632301  0.62312946  0.12031407  1
  Fe  Fe68  1  0.75254055  0.75350088  0.50327181  1
  Fe  Fe69  1  0.37659292  0.37417460  0.37480620  1
  Fe  Fe70  1  0.87405760  0.37567824  0.63010287  1
  Fe  Fe71  1  0.24888164  0.24843052  0.74904234  1
  Fe  Fe72  1  0.87482737  0.62467940  0.37502399  1
  Fe  Fe73  1  0.12363236  0.37243974  0.87498951  1
  Fe  Fe74  1  -0.00066091  -0.00021677  0.49902848  1
  Fe  Fe75  1  0.87472208  0.87454050  0.37406593  1
  Fe  Fe76  1  0.74811188  0.49810743  -0.00817848  1
  Fe  Fe77  1  0.12562526  0.12628492  0.37587135  1
  Fe  Fe78  1  0.00238524  0.00395977  0.75301037  1
  Fe  Fe79  1  -0.00322046  0.24623246  -0.00309709  1
  Fe  Fe80  1  0.62616987  0.62613469  0.37549021  1
  Fe  Fe81  1  0.62613398  0.37465230  0.62997411  1
  Fe  Fe82  1  0.62330089  0.37306823  0.12273645  1
  Fe  Fe83  1  0.37805469  0.12550129  0.12460676  1
  Fe  Fe84  1  0.75031774  0.74993737  0.24666009  1
  Fe  Fe85  1  0.12906383  0.62019009  0.62716929  1
  Fe  Fe86  1  0.87411625  0.12590874  0.37656636  1
  Fe  Fe87  1  -0.00079749  0.50262581  0.75509305  1
  Fe  Fe88  1  0.25093077  -0.00017790  0.49859079  1
  Fe  Fe89  1  0.75052956  0.25198153  -0.00466003  1
  Co  Co90  1  0.12815758  0.12568791  0.87858131  1
  Co  Co91  1  0.49586259  0.74890438  0.74872887  1
  Co  Co92  1  0.87245828  0.62798978  0.87633952  1
  Co  Co93  1  0.37554940  0.87643019  0.12472510  1
  Co  Co94  1  0.62328867  0.12218720  0.62232989  1
  Co  Co95  1  -0.00122581  0.00238806  0.00096268  1
  Co  Co96  1  0.62530074  0.63120117  0.87349447  1
  Co  Co97  1  0.75247232  0.75480181  0.74953438  1
  Co  Co98  1  0.12573237  0.12277425  0.62256818  1
  Co  Co99  1  0.37367931  0.12586027  0.87419060  1
  Co  Co100  1  0.87964590  0.87796898  0.62664136  1
  Co  Co101  1  0.12484526  0.37911981  0.63070451  1
  Co  Co102  1  0.12498147  0.62413480  0.12683514  1
  Co  Co103  1  0.50161737  0.25133580  0.24877164  1
  Co  Co104  1  0.12263867  0.37184658  0.12092233  1
  Co  Co105  1  0.87069877  0.12176430  0.87436821  1
  Co  Co106  1  0.62654240  0.37486326  0.37541989  1
  Co  Co107  1  0.87782397  0.37464454  0.87266982  1
  Co  Co108  1  0.12636402  0.62772773  0.87422934  1
  Co  Co109  1  0.00214316  0.74910436  0.00190137  1
  Co  Co110  1  0.62124953  0.37047559  0.87219629  1
  Co  Co111  1  0.50025891  0.00184170  0.75399724  1
  Co  Co112  1  0.25170125  0.00307239  0.24952981  1
  Co  Co113  1  0.50012035  0.24704852  -0.00058120  1
  Co  Co114  1  0.49763504  -0.00306767  0.49741128  1
  Co  Co115  1  0.62372557  0.87558985  0.12460662  1
  Co  Co116  1  0.74816423  0.50002436  0.75614522  1
  Co  Co117  1  0.24841081  0.49698428  0.49692877  1
  Co  Co118  1  0.00315392  0.50270839  -0.00359651  1
  Co  Co119  1  0.87430228  0.87634893  0.12367608  1
  Co  Co120  1  0.12373304  0.37234733  0.37396018  1
  Co  Co121  1  0.75075162  0.24770990  0.75017125  1
  Co  Co122  1  0.12589754  0.87863006  0.12376723  1
  Co  Co123  1  0.50060504  0.74931250  0.24770511  1
  Co  Co124  1  0.25215603  0.49948855  0.75765845  1
  Co  Co125  1  0.50001323  0.25437274  0.50346672  1
  Co  Co126  1  0.37786572  0.37574021  0.12313646  1
  Co  Co127  1  0.75051087  -0.00231663  0.49999638  1
