# generated using pymatgen
data_Fe45Co19
_symmetry_space_group_name_H-M   'P 1'
_cell_length_a   11.41375108
_cell_length_b   11.41485761
_cell_length_c   11.41388440
_cell_angle_alpha   89.99808876
_cell_angle_beta   89.99345807
_cell_angle_gamma   90.00349327
_symmetry_Int_Tables_number   1
_chemical_formula_structural   Fe45Co19
_chemical_formula_sum   'Fe90 Co38'
_cell_volume   1487.07324904
_cell_formula_units_Z   2
loop_
 _symmetry_equiv_pos_site_id
 _symmetry_equiv_pos_as_xyz
  1  'x, y, z'
loop_
 _atom_site_type_symbol
 _atom_site_label
 _atom_site_symmetry_multiplicity
 _atom_site_fract_x
 _atom_site_fract_y
 _atom_site_fract_z
 _atom_site_occupancy
  Fe  Fe0  1  -0.00144359  0.50037284  0.74748713  1
  Fe  Fe1  1  -0.00351914  0.24814458  0.25247045  1
  Fe  Fe2  1  0.37702968  0.37428559  0.87605529  1
  Fe  Fe3  1  0.62975156  0.12483129  0.12859308  1
  Fe  Fe4  1  0.25104186  -0.00044346  0.00232825  1
  Fe  Fe5  1  0.25039362  0.49936204  0.50212565  1
  Fe  Fe6  1  0.12350160  0.37566766  0.87369874  1
  Fe  Fe7  1  0.50367166  0.75132116  0.49719183  1
  Fe  Fe8  1  0.25172872  0.00132514  0.25020952  1
  Fe  Fe9  1  -0.00392510  -0.00161179  0.00261323  1
  Fe  Fe10  1  0.24975989  0.50113363  0.74652949  1
  Fe  Fe11  1  0.50359632  0.74946878  0.75037379  1
  Fe  Fe12  1  0.49977491  0.00289301  0.74784677  1
  Fe  Fe13  1  0.12291479  0.87534489  0.12740848  1
  Fe  Fe14  1  0.25154658  0.00135697  0.49857060  1
  Fe  Fe15  1  0.24938765  0.24883305  0.49763737  1
  Fe  Fe16  1  -0.00687274  0.00160432  0.24885050  1
  Fe  Fe17  1  0.37538809  0.87530100  0.87445081  1
  Fe  Fe18  1  0.62958092  0.87306421  0.62172813  1
  Fe  Fe19  1  0.12165477  0.37353486  0.62466367  1
  Fe  Fe20  1  0.24952930  0.25215856  0.00194372  1
  Fe  Fe21  1  0.37626499  0.62411135  0.12547396  1
  Fe  Fe22  1  -0.00797070  0.50026887  0.50100053  1
  Fe  Fe23  1  0.37847537  0.87253032  0.12797111  1
  Fe  Fe24  1  0.50139369  0.49996223  0.74914254  1
  Fe  Fe25  1  0.12370177  0.87713166  0.37485813  1
  Fe  Fe26  1  0.50138241  0.74941435  0.00004020  1
  Fe  Fe27  1  0.37731360  0.12865136  0.12557029  1
  Fe  Fe28  1  0.12591847  0.87466048  0.87398925  1
  Fe  Fe29  1  -0.00149293  0.74946844  -0.00014883  1
  Fe  Fe30  1  0.87327573  0.87487529  0.87414830  1
  Fe  Fe31  1  0.87614195  0.37830967  0.12904742  1
  Fe  Fe32  1  0.12292041  0.62401925  0.12455061  1
  Fe  Fe33  1  0.75032512  0.75051636  -0.00100155  1
  Fe  Fe34  1  0.37665404  0.37249296  0.62407354  1
  Fe  Fe35  1  0.74803137  0.25009365  0.75057054  1
  Fe  Fe36  1  0.87493566  0.62333057  0.12769649  1
  Fe  Fe37  1  0.74872881  0.25401940  -0.00042245  1
  Fe  Fe38  1  0.24899610  0.49670509  0.00248133  1
  Fe  Fe39  1  0.62418759  0.37744748  0.12489264  1
  Fe  Fe40  1  0.50124741  0.50032167  0.25059624  1
  Fe  Fe41  1  0.62529725  0.37693878  0.62270712  1
  Fe  Fe42  1  0.87118301  0.12482287  0.87771944  1
  Fe  Fe43  1  0.24962864  0.75151741  0.00103963  1
  Fe  Fe44  1  0.12379176  0.62393593  0.37832539  1
  Fe  Fe45  1  -0.00262174  0.00126610  0.50030814  1
  Fe  Fe46  1  -0.00142964  0.00196318  0.74933073  1
  Fe  Fe47  1  -0.00271210  0.25064367  0.49701723  1
  Fe  Fe48  1  0.50374045  0.24995760  -0.00174060  1
  Fe  Fe49  1  0.62774881  0.62074972  0.38082879  1
  Fe  Fe50  1  0.37556795  0.87417713  0.62513610  1
  Fe  Fe51  1  0.00003711  0.75024993  0.74784842  1
  Fe  Fe52  1  0.75102410  0.25110455  0.49653745  1
  Fe  Fe53  1  0.62595901  0.87861538  0.87583553  1
  Fe  Fe54  1  0.62661336  0.62168611  0.87602190  1
  Fe  Fe55  1  0.25029866  0.24821748  0.75020363  1
  Fe  Fe56  1  0.87277090  0.62405164  0.87344107  1
  Fe  Fe57  1  0.12262021  0.37543981  0.37487097  1
  Fe  Fe58  1  0.75072763  0.00039578  0.74791462  1
  Fe  Fe59  1  0.74898961  0.49922263  0.74612008  1
  Fe  Fe60  1  0.25216298  0.00273915  0.74958649  1
  Fe  Fe61  1  0.87477630  0.12788893  0.62426858  1
  Fe  Fe62  1  0.24953036  0.25083948  0.24980156  1
  Fe  Fe63  1  0.24754807  0.49768514  0.24813487  1
  Fe  Fe64  1  0.12490972  0.12656011  0.62359206  1
  Fe  Fe65  1  0.12494772  0.87458071  0.62469942  1
  Fe  Fe66  1  0.37906720  0.87443168  0.37224423  1
  Fe  Fe67  1  0.62614288  0.87565257  0.12876463  1
  Fe  Fe68  1  0.12233311  0.12572926  0.12639331  1
  Fe  Fe69  1  0.24900059  0.74931397  0.25091928  1
  Fe  Fe70  1  0.62588435  0.62240342  0.12220580  1
  Fe  Fe71  1  0.24982010  0.75027595  0.50062849  1
  Fe  Fe72  1  0.87054775  0.87511716  0.37679007  1
  Fe  Fe73  1  0.37574667  0.37572702  0.37317020  1
  Fe  Fe74  1  0.37802771  0.62618194  0.62356892  1
  Fe  Fe75  1  0.50193933  0.00246930  0.00173777  1
  Fe  Fe76  1  0.37514720  0.62413501  0.37504350  1
  Fe  Fe77  1  0.62464026  0.12560894  0.62246951  1
  Fe  Fe78  1  -0.00449001  0.74816249  0.50096395  1
  Fe  Fe79  1  -0.00024935  0.74932461  0.25223605  1
  Fe  Fe80  1  0.37405888  0.62566866  0.87507852  1
  Fe  Fe81  1  0.12616620  0.62491991  0.87424684  1
  Fe  Fe82  1  0.50152168  0.24809188  0.75207079  1
  Fe  Fe83  1  0.12511190  0.12459389  0.87764749  1
  Fe  Fe84  1  0.62843045  0.37736121  0.37554537  1
  Fe  Fe85  1  -0.00166832  0.25253623  -0.00143154  1
  Fe  Fe86  1  0.74660403  0.74881810  0.25323217  1
  Fe  Fe87  1  0.50169687  0.24970960  0.49657622  1
  Fe  Fe88  1  0.37937753  0.12496056  0.37507591  1
  Fe  Fe89  1  0.87372285  0.37574897  0.87188816  1
  Co  Co90  1  0.62626505  0.12121047  0.37335635  1
  Co  Co91  1  0.87033046  0.62909587  0.62807887  1
  Co  Co92  1  0.62806874  0.12257717  0.87560306  1
  Co  Co93  1  0.75597760  0.00097421  0.24927808  1
  Co  Co94  1  0.74679082  0.75061510  0.75249280  1
  Co  Co95  1  0.11993743  0.37306829  0.12683885  1
  Co  Co96  1  0.24950377  0.74866595  0.74746656  1
  Co  Co97  1  0.87336032  0.37825633  0.37061517  1
  Co  Co98  1  0.62691058  0.88027552  0.37377804  1
  Co  Co99  1  0.75089758  0.74789668  0.49749629  1
  Co  Co100  1  0.75051656  0.00203773  0.50143332  1
  Co  Co101  1  0.12312866  0.12343240  0.37305805  1
  Co  Co102  1  0.37616699  0.12781271  0.62242189  1
  Co  Co103  1  0.87117383  0.12513056  0.37654961  1
  Co  Co104  1  0.87217348  0.12885146  0.12140281  1
  Co  Co105  1  0.87535140  0.37043146  0.62747456  1
  Co  Co106  1  0.75092740  0.25054169  0.25139661  1
  Co  Co107  1  0.75119666  -0.00296104  0.00353562  1
  Co  Co108  1  0.00014803  0.24712115  0.75282943  1
  Co  Co109  1  0.50107722  -0.00074525  0.50164298  1
  Co  Co110  1  0.75713434  0.49834264  0.50361823  1
  Co  Co111  1  0.00293366  0.50119527  0.25174822  1
  Co  Co112  1  0.37615557  0.12548164  0.87729818  1
  Co  Co113  1  0.87275412  0.87361322  0.62505106  1
  Co  Co114  1  0.87288404  0.86924789  0.12695921  1
  Co  Co115  1  0.87332688  0.62308953  0.37079173  1
  Co  Co116  1  0.49928401  0.50029202  -0.00121039  1
  Co  Co117  1  0.12215521  0.62465751  0.62213890  1
  Co  Co118  1  0.75335362  0.49818578  0.00043935  1
  Co  Co119  1  0.37942878  0.37428861  0.12539510  1
  Co  Co120  1  -0.00099170  0.49963264  -0.00152135  1
  Co  Co121  1  0.50450300  0.74552763  0.25227173  1
  Co  Co122  1  0.49867675  0.49808652  0.49942575  1
  Co  Co123  1  0.74660878  0.50057752  0.24941823  1
  Co  Co124  1  0.62515238  0.37775760  0.87452618  1
  Co  Co125  1  0.62590242  0.62402405  0.62184342  1
  Co  Co126  1  0.50380826  0.25144292  0.25214839  1
  Co  Co127  1  0.50041510  0.00179819  0.24898808  1
