# generated using pymatgen
data_Fe45Co19
_symmetry_space_group_name_H-M   'P 1'
_cell_length_a   11.41522353
_cell_length_b   11.41440041
_cell_length_c   11.41493160
_cell_angle_alpha   90.00585242
_cell_angle_beta   90.00943347
_cell_angle_gamma   90.00110396
_symmetry_Int_Tables_number   1
_chemical_formula_structural   Fe45Co19
_chemical_formula_sum   'Fe90 Co38'
_cell_volume   1487.34195636
_cell_formula_units_Z   2
loop_
 _symmetry_equiv_pos_site_id
 _symmetry_equiv_pos_as_xyz
  1  'x, y, z'
loop_
 _atom_site_type_symbol
 _atom_site_label
 _atom_site_symmetry_multiplicity
 _atom_site_fract_x
 _atom_site_fract_y
 _atom_site_fract_z
 _atom_site_occupancy
  Fe  Fe0  1  0.37684827  0.62408944  0.62505049  1
  Fe  Fe1  1  0.24681727  0.74930986  0.74532753  1
  Fe  Fe2  1  0.49860989  0.50017781  -0.00015983  1
  Fe  Fe3  1  0.74722662  0.00280184  0.74807041  1
  Fe  Fe4  1  0.75111761  -0.00017342  0.00299125  1
  Fe  Fe5  1  0.62328537  0.37017976  0.62100302  1
  Fe  Fe6  1  0.00373654  0.50323011  0.75106805  1
  Fe  Fe7  1  0.24673811  0.50235527  0.74749433  1
  Fe  Fe8  1  0.00075242  -0.00001154  0.00130886  1
  Fe  Fe9  1  0.75029177  0.24917680  -0.00112612  1
  Fe  Fe10  1  0.87448144  0.62229890  0.12322847  1
  Fe  Fe11  1  0.87597711  0.37630342  0.87587003  1
  Fe  Fe12  1  0.87533303  0.12465920  0.12829711  1
  Fe  Fe13  1  0.87412658  0.37458223  0.37398250  1
  Fe  Fe14  1  0.25019422  0.50122306  0.50024669  1
  Fe  Fe15  1  0.00059313  0.24913881  0.00165845  1
  Fe  Fe16  1  0.13010340  0.12324075  0.12905851  1
  Fe  Fe17  1  0.75258985  0.00548186  0.50006501  1
  Fe  Fe18  1  0.25218235  0.75261153  0.25209586  1
  Fe  Fe19  1  0.37377091  0.12269333  0.87601067  1
  Fe  Fe20  1  0.50025412  0.49923399  0.50018975  1
  Fe  Fe21  1  0.50133968  0.75136059  0.25107830  1
  Fe  Fe22  1  0.49766843  0.75152769  0.00118290  1
  Fe  Fe23  1  0.62405925  0.62553869  0.12408709  1
  Fe  Fe24  1  0.62638699  0.62645514  0.37559565  1
  Fe  Fe25  1  0.62347398  0.37384494  0.87631590  1
  Fe  Fe26  1  0.62347197  0.62585071  0.87570760  1
  Fe  Fe27  1  0.37539162  0.62647311  0.37472767  1
  Fe  Fe28  1  0.87462671  0.87645326  0.87472838  1
  Fe  Fe29  1  0.50003086  0.24700484  0.75049162  1
  Fe  Fe30  1  0.37377867  0.87705287  0.62497042  1
  Fe  Fe31  1  0.74844218  0.50020446  0.25044237  1
  Fe  Fe32  1  0.24829794  0.24758333  0.74760361  1
  Fe  Fe33  1  0.25147037  0.50113563  0.00195605  1
  Fe  Fe34  1  0.37320542  0.87619833  0.87269257  1
  Fe  Fe35  1  0.00311657  0.25147132  0.24990303  1
  Fe  Fe36  1  0.37422047  0.12237537  0.62216875  1
  Fe  Fe37  1  0.75149223  0.75163878  0.00222839  1
  Fe  Fe38  1  0.12445975  0.62964483  0.37863651  1
  Fe  Fe39  1  0.74614119  0.50040705  0.74835540  1
  Fe  Fe40  1  0.25178292  0.75232755  0.00200271  1
  Fe  Fe41  1  0.37550005  0.62553666  0.87319402  1
  Fe  Fe42  1  0.37434567  0.87888250  0.12804713  1
  Fe  Fe43  1  0.12593097  0.62585460  0.12500889  1
  Fe  Fe44  1  0.87670344  0.87638059  0.62638774  1
  Fe  Fe45  1  0.86985845  0.87694989  0.37018065  1
  Fe  Fe46  1  0.12461740  0.37312684  0.37656422  1
  Fe  Fe47  1  0.62391238  0.37372347  0.12388538  1
  Fe  Fe48  1  -0.00196436  0.50222329  0.49913452  1
  Fe  Fe49  1  0.62554902  0.87625196  0.87472139  1
  Fe  Fe50  1  0.25187704  0.25083970  0.49948166  1
  Fe  Fe51  1  0.12405934  0.87555232  0.12749741  1
  Fe  Fe52  1  0.50101237  0.75228672  0.50038682  1
  Fe  Fe53  1  0.74885279  0.74967496  0.74807202  1
  Fe  Fe54  1  -0.00081389  0.75060410  -0.00099567  1
  Fe  Fe55  1  0.62187308  0.12751299  0.12358844  1
  Fe  Fe56  1  0.00165260  0.49963647  0.24958807  1
  Fe  Fe57  1  0.12718160  0.87494821  0.87353760  1
  Fe  Fe58  1  0.50202800  0.75161015  0.74730038  1
  Fe  Fe59  1  0.87498549  0.12397885  0.87419666  1
  Fe  Fe60  1  0.62685396  0.87406368  0.12718436  1
  Fe  Fe61  1  0.37644573  0.37266670  0.12727884  1
  Fe  Fe62  1  0.37621186  0.37529925  0.62681085  1
  Fe  Fe63  1  0.75335792  0.74752335  0.50091077  1
  Fe  Fe64  1  0.00203291  0.24905214  0.74997712  1
  Fe  Fe65  1  0.50399867  0.00037252  0.25292127  1
  Fe  Fe66  1  0.50247132  -0.00218564  0.49838036  1
  Fe  Fe67  1  0.74942456  0.24753172  0.74884793  1
  Fe  Fe68  1  0.37541658  0.37542418  0.37337026  1
  Fe  Fe69  1  0.49902386  0.00031710  -0.00017236  1
  Fe  Fe70  1  -0.00523246  0.74836539  0.25093318  1
  Fe  Fe71  1  0.12353922  0.37510046  0.62263280  1
  Fe  Fe72  1  0.50227248  0.00114551  0.74831039  1
  Fe  Fe73  1  0.37433090  0.37498213  0.87277131  1
  Fe  Fe74  1  0.87437919  0.62390190  0.87459078  1
  Fe  Fe75  1  0.74618063  0.24920645  0.25360782  1
  Fe  Fe76  1  0.75071774  0.50041182  0.50107808  1
  Fe  Fe77  1  0.25176647  0.24768981  0.00303397  1
  Fe  Fe78  1  -0.00401029  0.24674760  0.49926240  1
  Fe  Fe79  1  0.87608779  0.37483772  0.62616636  1
  Fe  Fe80  1  0.24828235  0.49940183  0.25073249  1
  Fe  Fe81  1  0.24633766  -0.00569140  0.49384235  1
  Fe  Fe82  1  0.00278617  0.00048282  0.25472274  1
  Fe  Fe83  1  0.12369294  0.12100149  0.62021341  1
  Fe  Fe84  1  0.00247686  -0.00110461  0.74925809  1
  Fe  Fe85  1  0.87474097  0.37553984  0.12403985  1
  Fe  Fe86  1  0.12640578  0.12354455  0.87554928  1
  Fe  Fe87  1  0.37394493  0.12458223  0.37202666  1
  Fe  Fe88  1  0.12576664  0.37531213  0.87838972  1
  Fe  Fe89  1  0.50170723  0.49966927  0.25105203  1
  Co  Co90  1  0.62614742  0.12269783  0.87640501  1
  Co  Co91  1  0.12779785  0.62603468  0.87827874  1
  Co  Co92  1  0.25001116  -0.00124046  0.00077401  1
  Co  Co93  1  0.87809834  0.12401292  0.62813000  1
  Co  Co94  1  0.49807529  0.24914022  -0.00147861  1
  Co  Co95  1  0.87366255  0.62195866  0.37355189  1
  Co  Co96  1  0.62430738  0.12654784  0.37973800  1
  Co  Co97  1  0.25412163  0.75247694  0.50081996  1
  Co  Co98  1  0.12190695  0.87428065  0.62146291  1
  Co  Co99  1  0.00134168  0.74931140  0.75128859  1
  Co  Co100  1  0.12093004  0.86723687  0.37648256  1
  Co  Co101  1  0.00022756  0.50122535  0.00026393  1
  Co  Co102  1  0.37888357  0.87435035  0.37399530  1
  Co  Co103  1  0.62305643  0.12814929  0.62091127  1
  Co  Co104  1  0.62392768  0.62576264  0.62315712  1
  Co  Co105  1  0.62768006  0.87605808  0.62275624  1
  Co  Co106  1  0.24989186  0.25248917  0.25043441  1
  Co  Co107  1  0.87626201  0.87774686  0.12785368  1
  Co  Co108  1  0.37457984  0.12243678  0.12951320  1
  Co  Co109  1  0.12647557  0.12903572  0.37634748  1
  Co  Co110  1  0.24832318  0.00072814  0.74827048  1
  Co  Co111  1  0.87499090  0.12561233  0.36971983  1
  Co  Co112  1  0.49505853  0.25058876  0.49711307  1
  Co  Co113  1  0.75148181  0.74726169  0.24716465  1
  Co  Co114  1  -0.00898311  0.75146950  0.49916263  1
  Co  Co115  1  -0.00216085  -0.00090411  0.49458368  1
  Co  Co116  1  0.63094072  0.87377705  0.37571584  1
  Co  Co117  1  0.12219309  0.62877825  0.61845998  1
  Co  Co118  1  0.75576658  0.24757168  0.49972500  1
  Co  Co119  1  0.87657235  0.62328432  0.62865819  1
  Co  Co120  1  0.37506205  0.62536228  0.12749786  1
  Co  Co121  1  0.50287780  0.49908113  0.74933000  1
  Co  Co122  1  0.50140882  0.25027731  0.25291067  1
  Co  Co123  1  0.74544398  0.00405791  0.24841490  1
  Co  Co124  1  0.62608400  0.37434759  0.37937139  1
  Co  Co125  1  0.12548987  0.37566495  0.12306657  1
  Co  Co126  1  0.24720408  -0.00434370  0.25629142  1
  Co  Co127  1  0.74840214  0.49975546  -0.00024823  1
