# generated using pymatgen
data_Fe45Co19
_symmetry_space_group_name_H-M   'P 1'
_cell_length_a   11.41628090
_cell_length_b   11.41553283
_cell_length_c   11.41624628
_cell_angle_alpha   89.99517999
_cell_angle_beta   89.99494308
_cell_angle_gamma   89.98943677
_symmetry_Int_Tables_number   1
_chemical_formula_structural   Fe45Co19
_chemical_formula_sum   'Fe90 Co38'
_cell_volume   1487.79862288
_cell_formula_units_Z   2
loop_
 _symmetry_equiv_pos_site_id
 _symmetry_equiv_pos_as_xyz
  1  'x, y, z'
loop_
 _atom_site_type_symbol
 _atom_site_label
 _atom_site_symmetry_multiplicity
 _atom_site_fract_x
 _atom_site_fract_y
 _atom_site_fract_z
 _atom_site_occupancy
  Fe  Fe0  1  0.87536108  0.87773218  0.37605662  1
  Fe  Fe1  1  0.37761766  0.87679932  0.12236613  1
  Fe  Fe2  1  0.12914666  0.12394873  0.87681322  1
  Fe  Fe3  1  0.00309647  0.50019006  0.49809149  1
  Fe  Fe4  1  0.74836466  0.75137867  0.50211552  1
  Fe  Fe5  1  0.00107214  0.24887492  -0.00154257  1
  Fe  Fe6  1  0.49968415  0.74956313  0.75065231  1
  Fe  Fe7  1  0.37569197  0.87363189  0.87870079  1
  Fe  Fe8  1  0.37626824  0.12624642  0.62766827  1
  Fe  Fe9  1  0.12390707  0.12306794  0.12351542  1
  Fe  Fe10  1  0.49962508  0.49985956  0.49821213  1
  Fe  Fe11  1  0.37397120  0.37139959  0.37469237  1
  Fe  Fe12  1  0.87433772  0.12539138  0.87215812  1
  Fe  Fe13  1  0.00051851  -0.00087282  0.75242062  1
  Fe  Fe14  1  0.37398295  0.62520188  0.62452812  1
  Fe  Fe15  1  0.24951539  0.75152833  0.25105897  1
  Fe  Fe16  1  0.74703808  0.25156854  0.74683778  1
  Fe  Fe17  1  0.25082257  0.00105202  0.25022247  1
  Fe  Fe18  1  0.87502121  0.12547786  0.12395778  1
  Fe  Fe19  1  0.87509783  0.62373124  0.87152576  1
  Fe  Fe20  1  0.49836669  0.49819259  0.75139255  1
  Fe  Fe21  1  0.12454200  0.12231965  0.37649755  1
  Fe  Fe22  1  0.87600504  0.62286977  0.62727074  1
  Fe  Fe23  1  0.12258770  0.87873145  0.12283817  1
  Fe  Fe24  1  0.00019114  0.24850931  0.50128153  1
  Fe  Fe25  1  0.62385118  0.12740228  0.87588323  1
  Fe  Fe26  1  0.49696829  0.49878521  -0.00181976  1
  Fe  Fe27  1  0.50131073  0.74838214  0.49880631  1
  Fe  Fe28  1  0.75177229  0.49942019  -0.00066409  1
  Fe  Fe29  1  0.24943967  0.75023539  0.00027557  1
  Fe  Fe30  1  0.49913094  0.49921711  0.25160985  1
  Fe  Fe31  1  0.75132401  0.74961445  0.00048952  1
  Fe  Fe32  1  0.74823281  0.24556276  0.50463065  1
  Fe  Fe33  1  0.87641006  0.37515639  0.87404886  1
  Fe  Fe34  1  0.12614455  0.37547340  0.62391867  1
  Fe  Fe35  1  0.62369578  0.87677036  0.12299431  1
  Fe  Fe36  1  0.37483599  0.37310657  0.62661756  1
  Fe  Fe37  1  -0.00076256  0.75218812  -0.00284697  1
  Fe  Fe38  1  0.00249009  0.75164194  0.49999911  1
  Fe  Fe39  1  0.50086185  0.24862194  0.50122006  1
  Fe  Fe40  1  0.62726844  0.37133398  0.37483758  1
  Fe  Fe41  1  0.24969010  0.24783235  0.24893376  1
  Fe  Fe42  1  0.62277902  0.37358926  0.87505162  1
  Fe  Fe43  1  0.87351096  0.12359939  0.37720547  1
  Fe  Fe44  1  0.62503704  0.62461016  0.62761066  1
  Fe  Fe45  1  0.75452555  0.49580483  0.24949457  1
  Fe  Fe46  1  0.62550147  0.87752845  0.37630203  1
  Fe  Fe47  1  0.00213167  0.25024455  0.74903409  1
  Fe  Fe48  1  0.62584250  0.87277446  0.87559308  1
  Fe  Fe49  1  0.37451532  0.87645111  0.37570135  1
  Fe  Fe50  1  0.74979595  0.00133029  0.25020439  1
  Fe  Fe51  1  0.12683799  0.87688971  0.62417784  1
  Fe  Fe52  1  0.75032182  0.25079883  0.00063958  1
  Fe  Fe53  1  0.12069352  0.37677636  0.12643956  1
  Fe  Fe54  1  0.87618488  0.62520769  0.37494777  1
  Fe  Fe55  1  0.62476762  0.62398854  0.12542474  1
  Fe  Fe56  1  0.00102108  0.75338340  0.25164535  1
  Fe  Fe57  1  0.74813292  0.50072411  0.50163068  1
  Fe  Fe58  1  0.50007945  0.00284308  0.49908074  1
  Fe  Fe59  1  0.37570302  0.62568261  0.12424310  1
  Fe  Fe60  1  0.50045200  0.24535046  0.24715137  1
  Fe  Fe61  1  0.87483763  0.37583366  0.62532048  1
  Fe  Fe62  1  0.49845998  0.00206684  0.75417870  1
  Fe  Fe63  1  0.62621331  0.37299510  0.12516291  1
  Fe  Fe64  1  0.62565263  0.62592305  0.87448550  1
  Fe  Fe65  1  0.62613985  0.62448119  0.37218095  1
  Fe  Fe66  1  0.12472458  0.62605053  0.87281656  1
  Fe  Fe67  1  0.75050945  0.00059076  -0.00122467  1
  Fe  Fe68  1  0.25050687  0.49971176  0.75056374  1
  Fe  Fe69  1  0.25017823  0.24677635  0.50135906  1
  Fe  Fe70  1  0.87355703  0.87716593  0.62640945  1
  Fe  Fe71  1  -0.00326020  0.25259377  0.25280408  1
  Fe  Fe72  1  0.87685442  0.87814088  0.12293542  1
  Fe  Fe73  1  0.24985956  0.50042183  0.25273123  1
  Fe  Fe74  1  0.37637328  0.87513881  0.62367488  1
  Fe  Fe75  1  0.25244542  0.00026446  0.75184074  1
  Fe  Fe76  1  0.12425360  0.12157617  0.62484644  1
  Fe  Fe77  1  0.12143917  0.62252606  0.12725079  1
  Fe  Fe78  1  0.00002482  0.75202494  0.74996693  1
  Fe  Fe79  1  0.24822684  0.74947006  0.49743469  1
  Fe  Fe80  1  0.49994820  0.00478474  0.24853418  1
  Fe  Fe81  1  0.25103150  0.75110633  0.75023200  1
  Fe  Fe82  1  0.87884893  0.62206340  0.12565921  1
  Fe  Fe83  1  0.24927753  0.50207307  0.49748301  1
  Fe  Fe84  1  0.37468833  0.37328866  0.12485009  1
  Fe  Fe85  1  0.12628858  0.37419016  0.87444073  1
  Fe  Fe86  1  0.50012723  0.75009056  0.24993921  1
  Fe  Fe87  1  0.25063884  0.49878312  -0.00158593  1
  Fe  Fe88  1  0.75088538  0.75122257  0.24862908  1
  Fe  Fe89  1  0.74764201  -0.00048653  0.74754965  1
  Co  Co90  1  0.37404357  0.62631526  0.87547077  1
  Co  Co91  1  0.24771065  0.25341417  0.00367788  1
  Co  Co92  1  0.87270743  0.87638815  0.87375668  1
  Co  Co93  1  0.62362858  0.37588441  0.62408140  1
  Co  Co94  1  0.37441867  0.12642001  0.37491270  1
  Co  Co95  1  0.74882546  0.49750002  0.75037259  1
  Co  Co96  1  -0.00065684  0.00129638  0.25031499  1
  Co  Co97  1  0.87621752  0.12450296  0.62864926  1
  Co  Co98  1  -0.00375121  0.49422672  0.25549567  1
  Co  Co99  1  -0.00161126  -0.00072881  0.50159945  1
  Co  Co100  1  0.12796975  0.37250248  0.37581257  1
  Co  Co101  1  0.37224043  0.12445683  0.11938469  1
  Co  Co102  1  0.75408981  0.25177384  0.24893466  1
  Co  Co103  1  0.62243191  0.12262263  0.62600158  1
  Co  Co104  1  0.12571953  0.87558804  0.87491995  1
  Co  Co105  1  0.37381596  0.36825466  0.87301151  1
  Co  Co106  1  0.12579219  0.87933685  0.37619172  1
  Co  Co107  1  0.25247343  0.00212401  0.50114441  1
  Co  Co108  1  0.62874639  0.12568880  0.12421366  1
  Co  Co109  1  0.12553586  0.62587513  0.62656461  1
  Co  Co110  1  0.87782329  0.37453025  0.12021285  1
  Co  Co111  1  0.37483112  0.62600369  0.37396205  1
  Co  Co112  1  0.50110510  0.74855616  0.00057760  1
  Co  Co113  1  0.50039798  0.00391434  -0.00187084  1
  Co  Co114  1  0.62187916  0.87610629  0.62524957  1
  Co  Co115  1  0.00195475  0.49749920  0.74925487  1
  Co  Co116  1  0.62783222  0.12614730  0.37453149  1
  Co  Co117  1  -0.00131286  0.00165671  -0.00338168  1
  Co  Co118  1  0.24687801  0.24872615  0.74735688  1
  Co  Co119  1  0.12307020  0.62533139  0.37143632  1
  Co  Co120  1  0.75012358  0.75046430  0.74768436  1
  Co  Co121  1  0.74981074  0.00038575  0.50298669  1
  Co  Co122  1  0.00116352  0.50000139  -0.00375401  1
  Co  Co123  1  0.25076687  -0.00180667  -0.00089997  1
  Co  Co124  1  0.87154657  0.37328236  0.38228809  1
  Co  Co125  1  0.50193349  0.24972456  0.74913017  1
  Co  Co126  1  0.49963327  0.24878938  0.00306606  1
  Co  Co127  1  0.37151089  0.13166119  0.87734553  1
