# generated using pymatgen
data_Fe45Co19
_symmetry_space_group_name_H-M   'P 1'
_cell_length_a   11.41559070
_cell_length_b   11.41541070
_cell_length_c   11.41440393
_cell_angle_alpha   89.99958221
_cell_angle_beta   89.99904121
_cell_angle_gamma   89.99986210
_symmetry_Int_Tables_number   1
_chemical_formula_structural   Fe45Co19
_chemical_formula_sum   'Fe90 Co38'
_cell_volume   1487.45270967
_cell_formula_units_Z   2
loop_
 _symmetry_equiv_pos_site_id
 _symmetry_equiv_pos_as_xyz
  1  'x, y, z'
loop_
 _atom_site_type_symbol
 _atom_site_label
 _atom_site_symmetry_multiplicity
 _atom_site_fract_x
 _atom_site_fract_y
 _atom_site_fract_z
 _atom_site_occupancy
  Fe  Fe0  1  0.00083798  -0.00022946  0.25148352  1
  Fe  Fe1  1  0.50000314  0.00038217  -0.00137313  1
  Fe  Fe2  1  0.12725580  0.37029489  0.37627221  1
  Fe  Fe3  1  0.49714204  0.74802194  0.25049483  1
  Fe  Fe4  1  0.87345221  0.12509463  0.62622322  1
  Fe  Fe5  1  0.50067503  0.25217455  0.74745006  1
  Fe  Fe6  1  0.75019452  0.74831132  -0.00127143  1
  Fe  Fe7  1  0.62638771  0.12708215  0.87321832  1
  Fe  Fe8  1  0.25107514  0.50184713  0.25313976  1
  Fe  Fe9  1  0.87303091  0.37592103  0.37437133  1
  Fe  Fe10  1  0.87632526  0.87265376  0.37403165  1
  Fe  Fe11  1  0.37379247  0.12472455  0.62452397  1
  Fe  Fe12  1  0.37540461  0.37443244  0.37316009  1
  Fe  Fe13  1  0.00092556  0.50058896  0.25288666  1
  Fe  Fe14  1  0.74674194  0.50193738  0.25189562  1
  Fe  Fe15  1  0.87446653  0.37627268  0.12742797  1
  Fe  Fe16  1  0.12624617  0.62427482  0.87634466  1
  Fe  Fe17  1  0.62655141  0.87305259  0.87255770  1
  Fe  Fe18  1  0.00510306  0.74904233  0.74701663  1
  Fe  Fe19  1  0.25073399  0.74945651  0.00177380  1
  Fe  Fe20  1  0.25083825  0.49687365  -0.00156145  1
  Fe  Fe21  1  0.50116472  0.00288528  0.25151413  1
  Fe  Fe22  1  0.74837558  0.24720404  0.25031394  1
  Fe  Fe23  1  0.24856005  0.00346894  0.25350950  1
  Fe  Fe24  1  0.62664136  0.12466445  0.62408044  1
  Fe  Fe25  1  0.75245265  0.50218843  0.49931798  1
  Fe  Fe26  1  0.87486536  0.87348227  0.62760007  1
  Fe  Fe27  1  0.62264094  0.37547256  0.12790676  1
  Fe  Fe28  1  0.62497311  0.87378196  0.37604332  1
  Fe  Fe29  1  0.37062447  0.37830082  0.62531345  1
  Fe  Fe30  1  0.87584176  0.62518586  0.87132203  1
  Fe  Fe31  1  0.00693049  0.49828018  0.74748173  1
  Fe  Fe32  1  0.37237281  0.87435599  0.87174605  1
  Fe  Fe33  1  0.49751917  0.49928998  0.49753064  1
  Fe  Fe34  1  0.62424724  0.37701572  0.87237674  1
  Fe  Fe35  1  -0.00145287  0.25173021  0.49926930  1
  Fe  Fe36  1  0.49976194  0.00067218  0.75019510  1
  Fe  Fe37  1  0.37474774  0.62192913  0.12548846  1
  Fe  Fe38  1  0.49826867  0.75063104  -0.00020878  1
  Fe  Fe39  1  0.87571616  0.37664735  0.87233275  1
  Fe  Fe40  1  0.49869224  0.49774312  -0.00009141  1
  Fe  Fe41  1  0.12682688  0.87186652  0.12891518  1
  Fe  Fe42  1  0.00077577  0.74877651  0.50145554  1
  Fe  Fe43  1  0.75031703  0.50001901  -0.00109453  1
  Fe  Fe44  1  0.49923339  0.25126803  0.50001137  1
  Fe  Fe45  1  0.00185751  0.74934983  0.00266012  1
  Fe  Fe46  1  0.00211800  0.00001010  0.74919110  1
  Fe  Fe47  1  0.75049306  0.74881113  0.25023624  1
  Fe  Fe48  1  0.24777385  0.25439451  0.74928432  1
  Fe  Fe49  1  0.25037439  0.75109165  0.49950816  1
  Fe  Fe50  1  0.12457408  0.12776950  0.12819783  1
  Fe  Fe51  1  0.37137060  0.87546129  0.62797025  1
  Fe  Fe52  1  0.87612722  0.37903653  0.62550969  1
  Fe  Fe53  1  0.74955464  0.25106170  0.50026098  1
  Fe  Fe54  1  0.00020054  0.50040566  0.00147935  1
  Fe  Fe55  1  0.62318965  0.62505885  0.12346245  1
  Fe  Fe56  1  0.62223111  0.62674051  0.37875223  1
  Fe  Fe57  1  0.49847945  0.24680673  0.25038356  1
  Fe  Fe58  1  0.25295673  0.25347434  0.00298379  1
  Fe  Fe59  1  0.49742398  0.25105008  0.00243888  1
  Fe  Fe60  1  0.49959472  -0.00140907  0.50049189  1
  Fe  Fe61  1  0.87396011  0.12533772  0.87329986  1
  Fe  Fe62  1  0.75086372  -0.00051469  0.49908455  1
  Fe  Fe63  1  0.87411604  0.87319567  0.87202238  1
  Fe  Fe64  1  0.37359304  0.12716300  0.87470761  1
  Fe  Fe65  1  0.75224522  0.74698829  0.50303190  1
  Fe  Fe66  1  0.75093707  0.25074501  0.00097419  1
  Fe  Fe67  1  0.12777011  0.87431206  0.87223094  1
  Fe  Fe68  1  0.87562614  0.62384578  0.12685781  1
  Fe  Fe69  1  0.37085627  0.62151520  0.62404548  1
  Fe  Fe70  1  0.12547935  0.12804424  0.87532974  1
  Fe  Fe71  1  0.87552607  0.12516712  0.37381183  1
  Fe  Fe72  1  0.87456492  0.87568215  0.12589638  1
  Fe  Fe73  1  0.00113527  0.25212711  0.74830388  1
  Fe  Fe74  1  0.12574379  0.12699591  0.62291996  1
  Fe  Fe75  1  0.37407413  0.87739384  0.12623991  1
  Fe  Fe76  1  0.00109925  -0.00020819  0.00052785  1
  Fe  Fe77  1  0.50118697  0.74565103  0.74783611  1
  Fe  Fe78  1  0.24691257  0.00075039  0.49834917  1
  Fe  Fe79  1  0.00280988  -0.00128552  0.49916054  1
  Fe  Fe80  1  0.24917151  0.00016290  -0.00053782  1
  Fe  Fe81  1  0.37420525  0.87483755  0.37450125  1
  Fe  Fe82  1  0.62623266  0.37873748  0.62445751  1
  Fe  Fe83  1  0.12471862  0.62911669  0.37465208  1
  Fe  Fe84  1  0.62591811  0.87384932  0.62559527  1
  Fe  Fe85  1  0.62527700  0.87605127  0.12617418  1
  Fe  Fe86  1  0.12591185  0.37553334  0.12683480  1
  Fe  Fe87  1  -0.00253825  0.25032483  0.00297030  1
  Fe  Fe88  1  0.75014776  0.00118202  0.00064239  1
  Fe  Fe89  1  0.37452075  0.62254323  0.87304576  1
  Co  Co90  1  0.12765034  0.87523815  0.62532689  1
  Co  Co91  1  0.37482697  0.12217587  0.12350303  1
  Co  Co92  1  0.24905292  0.50005732  0.49429343  1
  Co  Co93  1  0.12249673  0.37340137  0.87925031  1
  Co  Co94  1  0.12646597  0.37518930  0.61850310  1
  Co  Co95  1  0.49963687  0.50174281  0.74831333  1
  Co  Co96  1  0.24897265  0.00345365  0.75011951  1
  Co  Co97  1  0.87563503  0.62570674  0.37446731  1
  Co  Co98  1  0.62401359  0.37453623  0.37519979  1
  Co  Co99  1  0.12347472  0.12960281  0.37550159  1
  Co  Co100  1  0.25387629  0.74726952  0.24925850  1
  Co  Co101  1  0.87589099  0.12441735  0.12683062  1
  Co  Co102  1  -0.00152418  0.74830452  0.24733838  1
  Co  Co103  1  0.62455450  0.12449872  0.12402632  1
  Co  Co104  1  0.37606804  0.62649075  0.37813476  1
  Co  Co105  1  0.37669180  0.12421881  0.37836790  1
  Co  Co106  1  0.87972986  0.62264715  0.62717010  1
  Co  Co107  1  0.24903049  0.74597074  0.74907920  1
  Co  Co108  1  0.12789298  0.62189386  0.62110554  1
  Co  Co109  1  0.12658187  0.62304720  0.12558505  1
  Co  Co110  1  0.37722834  0.37470677  0.87244347  1
  Co  Co111  1  0.37603041  0.37805248  0.12983818  1
  Co  Co112  1  0.24537077  0.49652386  0.75200574  1
  Co  Co113  1  0.62322577  0.62275918  0.87783261  1
  Co  Co114  1  0.74959811  0.00015915  0.74948879  1
  Co  Co115  1  0.49655976  0.75175896  0.50254316  1
  Co  Co116  1  0.50094634  0.50357211  0.25321505  1
  Co  Co117  1  -0.00159867  0.25300927  0.25041199  1
  Co  Co118  1  0.00089454  0.50003183  0.49538454  1
  Co  Co119  1  0.74987409  0.25288648  0.74851331  1
  Co  Co120  1  0.12479247  0.87039858  0.37322912  1
  Co  Co121  1  0.74652837  0.74431133  0.74750944  1
  Co  Co122  1  0.25413847  0.24788212  0.24983419  1
  Co  Co123  1  0.74810605  0.50348791  0.74914013  1
  Co  Co124  1  0.62228926  0.62205262  0.61955001  1
  Co  Co125  1  0.75013978  0.00086837  0.25175421  1
  Co  Co126  1  0.25313271  0.24919962  0.49915772  1
  Co  Co127  1  0.62405991  0.12504877  0.37860125  1
