# generated using pymatgen
data_Fe45Co19
_symmetry_space_group_name_H-M   'P 1'
_cell_length_a   11.41555040
_cell_length_b   11.41524740
_cell_length_c   11.41561299
_cell_angle_alpha   90.00243556
_cell_angle_beta   89.99393239
_cell_angle_gamma   90.00853894
_symmetry_Int_Tables_number   1
_chemical_formula_structural   Fe45Co19
_chemical_formula_sum   'Fe90 Co38'
_cell_volume   1487.58370732
_cell_formula_units_Z   2
loop_
 _symmetry_equiv_pos_site_id
 _symmetry_equiv_pos_as_xyz
  1  'x, y, z'
loop_
 _atom_site_type_symbol
 _atom_site_label
 _atom_site_symmetry_multiplicity
 _atom_site_fract_x
 _atom_site_fract_y
 _atom_site_fract_z
 _atom_site_occupancy
  Fe  Fe0  1  0.25029228  0.75069144  0.00110319  1
  Fe  Fe1  1  0.25203385  0.00030008  0.25106049  1
  Fe  Fe2  1  0.75273192  0.24537240  0.75142006  1
  Fe  Fe3  1  0.75152735  0.74930976  0.50170441  1
  Fe  Fe4  1  0.62421001  0.37409970  0.87264282  1
  Fe  Fe5  1  0.37518835  0.62463088  0.87543655  1
  Fe  Fe6  1  0.25085527  0.75065963  0.24762783  1
  Fe  Fe7  1  -0.00142904  -0.00080245  0.24938785  1
  Fe  Fe8  1  0.37521820  0.87269605  0.37477267  1
  Fe  Fe9  1  0.25003991  0.24781729  0.74974522  1
  Fe  Fe10  1  0.25119050  0.25038862  0.00121986  1
  Fe  Fe11  1  0.49892448  0.75083074  0.74846608  1
  Fe  Fe12  1  0.37337940  0.62357623  0.62317596  1
  Fe  Fe13  1  0.62746076  0.37771290  0.12586235  1
  Fe  Fe14  1  0.75122274  0.00072443  0.49728518  1
  Fe  Fe15  1  0.12596442  0.88002965  0.62578467  1
  Fe  Fe16  1  0.37521009  0.37373623  0.87516270  1
  Fe  Fe17  1  0.12441809  0.87629582  0.87409030  1
  Fe  Fe18  1  0.12474373  0.12395949  0.87687976  1
  Fe  Fe19  1  0.24811066  0.24906298  0.24958977  1
  Fe  Fe20  1  0.12493065  0.37649633  0.12357977  1
  Fe  Fe21  1  0.37640140  0.12841830  0.37699452  1
  Fe  Fe22  1  0.50332201  0.50135719  -0.00077185  1
  Fe  Fe23  1  0.37486539  0.37579145  0.12357577  1
  Fe  Fe24  1  0.50003149  -0.00088473  0.49962217  1
  Fe  Fe25  1  -0.00019980  0.75290430  0.50201887  1
  Fe  Fe26  1  0.50121660  0.25036056  0.24712166  1
  Fe  Fe27  1  0.37333955  0.62555602  0.37794395  1
  Fe  Fe28  1  -0.00192455  0.75131473  0.24597817  1
  Fe  Fe29  1  0.61991388  0.87413241  0.12705363  1
  Fe  Fe30  1  0.62354768  0.87379110  0.87321447  1
  Fe  Fe31  1  0.87377918  0.87261860  0.37336782  1
  Fe  Fe32  1  0.12472955  0.62450822  0.12344030  1
  Fe  Fe33  1  0.75185552  0.49887245  0.49728707  1
  Fe  Fe34  1  0.74952879  0.25128958  0.49929945  1
  Fe  Fe35  1  0.75172770  0.74986453  0.74974655  1
  Fe  Fe36  1  0.24821791  0.74993330  0.74996790  1
  Fe  Fe37  1  0.74939112  0.00100299  0.25015772  1
  Fe  Fe38  1  -0.00065474  0.50166606  -0.00350481  1
  Fe  Fe39  1  0.12635693  0.37555828  0.62679545  1
  Fe  Fe40  1  -0.00156276  0.24598875  0.74853806  1
  Fe  Fe41  1  0.74536485  0.00060310  -0.00034393  1
  Fe  Fe42  1  -0.00067211  -0.00145811  0.00079473  1
  Fe  Fe43  1  0.12622442  0.87556097  0.37476270  1
  Fe  Fe44  1  0.12264890  0.62474523  0.62761890  1
  Fe  Fe45  1  0.62450461  0.87420498  0.37415298  1
  Fe  Fe46  1  0.87406097  0.37401068  0.62549174  1
  Fe  Fe47  1  0.74693385  0.74436561  0.00059209  1
  Fe  Fe48  1  0.24796345  0.50100458  0.75293514  1
  Fe  Fe49  1  0.12541142  0.12221688  0.12537545  1
  Fe  Fe50  1  0.12271984  0.62721022  0.37442288  1
  Fe  Fe51  1  0.87406261  0.87589664  0.87526347  1
  Fe  Fe52  1  0.50271484  0.49642715  0.50204016  1
  Fe  Fe53  1  0.87319209  0.12399026  0.12275331  1
  Fe  Fe54  1  0.37902675  0.12580366  0.87476704  1
  Fe  Fe55  1  0.87457662  0.88092385  0.62819641  1
  Fe  Fe56  1  -0.00141843  0.49874977  0.49925434  1
  Fe  Fe57  1  0.25222778  -0.00168091  0.00066935  1
  Fe  Fe58  1  0.62672075  0.62441427  0.37459760  1
  Fe  Fe59  1  0.62696243  0.87732466  0.62582785  1
  Fe  Fe60  1  0.49945286  0.49696194  0.74750739  1
  Fe  Fe61  1  0.50224182  0.25521240  0.50542305  1
  Fe  Fe62  1  0.75319949  0.50141267  0.75376122  1
  Fe  Fe63  1  -0.00078369  0.75064431  0.00111690  1
  Fe  Fe64  1  0.37759597  0.12369367  0.12359535  1
  Fe  Fe65  1  0.49880395  0.50107402  0.25176757  1
  Fe  Fe66  1  0.75039597  0.74804730  0.24736448  1
  Fe  Fe67  1  0.24954618  0.49951389  0.25017857  1
  Fe  Fe68  1  0.75317843  0.25208138  0.24925812  1
  Fe  Fe69  1  0.62005340  0.12613485  0.87327493  1
  Fe  Fe70  1  0.87527216  0.37294654  0.87694285  1
  Fe  Fe71  1  0.37517182  0.37329587  0.37675363  1
  Fe  Fe72  1  0.62614156  0.12342457  0.62677830  1
  Fe  Fe73  1  0.74722687  0.24972430  0.00058730  1
  Fe  Fe74  1  0.87790421  0.62449880  0.62735210  1
  Fe  Fe75  1  0.75543938  0.49887412  0.25231420  1
  Fe  Fe76  1  0.62579864  0.62382789  0.62660185  1
  Fe  Fe77  1  0.12604927  0.37393291  0.87566413  1
  Fe  Fe78  1  0.37709655  0.87642236  0.87620184  1
  Fe  Fe79  1  0.50124314  0.74929560  0.50007125  1
  Fe  Fe80  1  0.62324835  0.12716980  0.37414060  1
  Fe  Fe81  1  0.12165551  0.36980840  0.37432762  1
  Fe  Fe82  1  0.37230241  0.87633354  0.62432682  1
  Fe  Fe83  1  -0.00372339  0.49835654  0.24989519  1
  Fe  Fe84  1  0.12555706  0.11988192  0.62112150  1
  Fe  Fe85  1  0.37438680  0.12436461  0.62494392  1
  Fe  Fe86  1  0.00037659  0.24911007  0.00246976  1
  Fe  Fe87  1  0.24690240  0.49872425  0.49789242  1
  Fe  Fe88  1  0.87936249  0.12857654  0.37625438  1
  Fe  Fe89  1  0.37662983  0.62592293  0.12376903  1
  Co  Co90  1  -0.00241972  -0.00273551  0.49711063  1
  Co  Co91  1  0.50262002  0.00080601  0.00070914  1
  Co  Co92  1  0.25193187  0.00081592  0.49556905  1
  Co  Co93  1  0.49895558  0.25246905  0.74542472  1
  Co  Co94  1  0.62332914  0.62542538  0.86886575  1
  Co  Co95  1  0.50185700  0.25168610  0.00276479  1
  Co  Co96  1  0.87888387  0.37032701  0.37733961  1
  Co  Co97  1  0.62445377  0.37471641  0.37249487  1
  Co  Co98  1  0.63160508  0.37591080  0.62864098  1
  Co  Co99  1  -0.00077358  0.25012127  0.24392474  1
  Co  Co100  1  0.87641742  0.62869416  0.37513395  1
  Co  Co101  1  0.62588746  0.12549695  0.12710146  1
  Co  Co102  1  0.37941277  0.87449178  0.12499881  1
  Co  Co103  1  0.50227531  0.74719217  -0.00133254  1
  Co  Co104  1  0.25080022  0.00143091  0.75265399  1
  Co  Co105  1  0.62510996  0.62255839  0.12874701  1
  Co  Co106  1  0.12390813  0.62733959  0.87520509  1
  Co  Co107  1  0.12600208  0.87677064  0.12475596  1
  Co  Co108  1  0.75009572  0.00313731  0.75403357  1
  Co  Co109  1  0.87349143  0.37688056  0.11945594  1
  Co  Co110  1  0.00152132  0.24982590  0.50600317  1
  Co  Co111  1  -0.00060812  0.49677315  0.75296452  1
  Co  Co112  1  0.24816694  0.24973446  0.49962576  1
  Co  Co113  1  0.50010595  -0.00153763  0.74887657  1
  Co  Co114  1  0.87578173  0.12403209  0.88050360  1
  Co  Co115  1  0.12159535  0.12592588  0.37503539  1
  Co  Co116  1  0.87272663  0.12243524  0.62221356  1
  Co  Co117  1  0.87154481  0.87582475  0.12275501  1
  Co  Co118  1  0.00050499  0.75383811  0.74886563  1
  Co  Co119  1  0.24978742  0.50054139  -0.00040043  1
  Co  Co120  1  0.36935541  0.37656727  0.62478982  1
  Co  Co121  1  0.87477540  0.62289128  0.12313547  1
  Co  Co122  1  -0.00155150  0.00382830  0.75220026  1
  Co  Co123  1  0.74766546  0.50361735  -0.00471305  1
  Co  Co124  1  0.87770144  0.62835337  0.87375728  1
  Co  Co125  1  0.24680864  0.74958457  0.50152634  1
  Co  Co126  1  0.49958267  0.00154588  0.25154159  1
  Co  Co127  1  0.49963373  0.74746992  0.25304909  1
