# generated using pymatgen
data_Fe45Co19
_symmetry_space_group_name_H-M   'P 1'
_cell_length_a   11.41473024
_cell_length_b   11.41385221
_cell_length_c   11.41411673
_cell_angle_alpha   89.98184981
_cell_angle_beta   89.99731604
_cell_angle_gamma   90.00381542
_symmetry_Int_Tables_number   1
_chemical_formula_structural   Fe45Co19
_chemical_formula_sum   'Fe90 Co38'
_cell_volume   1487.10003517
_cell_formula_units_Z   2
loop_
 _symmetry_equiv_pos_site_id
 _symmetry_equiv_pos_as_xyz
  1  'x, y, z'
loop_
 _atom_site_type_symbol
 _atom_site_label
 _atom_site_symmetry_multiplicity
 _atom_site_fract_x
 _atom_site_fract_y
 _atom_site_fract_z
 _atom_site_occupancy
  Fe  Fe0  1  0.37710704  0.87423508  0.12681424  1
  Fe  Fe1  1  0.37694794  0.87573396  0.87331129  1
  Fe  Fe2  1  0.00044306  0.50416708  0.75093736  1
  Fe  Fe3  1  0.87644451  0.12740545  0.12354980  1
  Fe  Fe4  1  0.37452347  0.37610983  0.37417265  1
  Fe  Fe5  1  0.62374436  0.62656382  0.62555887  1
  Fe  Fe6  1  0.36487648  0.62462163  0.87319323  1
  Fe  Fe7  1  0.37364830  0.12484680  0.12407296  1
  Fe  Fe8  1  0.74923066  -0.00597098  0.50614630  1
  Fe  Fe9  1  0.87452575  0.62952339  0.62474604  1
  Fe  Fe10  1  0.87350024  0.12327764  0.87382231  1
  Fe  Fe11  1  0.00001522  0.50078015  0.25252120  1
  Fe  Fe12  1  0.24858926  0.49925361  0.24776350  1
  Fe  Fe13  1  0.00182511  0.24752245  0.75183972  1
  Fe  Fe14  1  0.38297207  0.87638246  0.62747376  1
  Fe  Fe15  1  0.25132693  -0.00004092  0.74838351  1
  Fe  Fe16  1  0.62713336  0.12473521  0.12375350  1
  Fe  Fe17  1  0.49681331  0.50353575  0.75079747  1
  Fe  Fe18  1  0.50158265  0.00288822  -0.00404502  1
  Fe  Fe19  1  0.87432271  0.37489158  0.37727152  1
  Fe  Fe20  1  0.49920959  0.74866718  0.49687879  1
  Fe  Fe21  1  0.00429319  0.74840685  0.75323548  1
  Fe  Fe22  1  0.49872558  0.50192185  -0.00167333  1
  Fe  Fe23  1  0.75000667  0.49705555  0.50522693  1
  Fe  Fe24  1  0.12363487  0.87418280  0.12529840  1
  Fe  Fe25  1  0.74750001  0.75555558  0.74718171  1
  Fe  Fe26  1  0.37499948  0.12373447  0.37654317  1
  Fe  Fe27  1  0.37339494  0.37453138  0.87573826  1
  Fe  Fe28  1  0.12632896  0.62782177  0.12247925  1
  Fe  Fe29  1  0.87533692  0.12447699  0.62578316  1
  Fe  Fe30  1  0.24882442  -0.00175834  0.25024870  1
  Fe  Fe31  1  0.37706298  0.37303459  0.12475878  1
  Fe  Fe32  1  0.49851673  0.50035177  0.50154706  1
  Fe  Fe33  1  0.75016095  0.25162877  0.24793335  1
  Fe  Fe34  1  0.25223639  -0.00322954  0.49948722  1
  Fe  Fe35  1  0.24660002  0.25071350  0.00060772  1
  Fe  Fe36  1  0.50171229  0.24854032  0.25128114  1
  Fe  Fe37  1  0.50123063  0.49982119  0.24928296  1
  Fe  Fe38  1  0.25014162  0.24839754  0.74975679  1
  Fe  Fe39  1  0.37782257  0.37215149  0.62563950  1
  Fe  Fe40  1  0.87201966  0.62639051  0.37767837  1
  Fe  Fe41  1  0.12944122  0.62644394  0.62693330  1
  Fe  Fe42  1  0.87139167  0.12453644  0.37696041  1
  Fe  Fe43  1  0.12079827  0.37272763  0.12621827  1
  Fe  Fe44  1  0.12463238  0.12363555  0.37496521  1
  Fe  Fe45  1  0.50200810  0.00212430  0.25113900  1
  Fe  Fe46  1  0.12198802  0.37384914  0.62421765  1
  Fe  Fe47  1  -0.00071482  -0.00041134  0.50154234  1
  Fe  Fe48  1  0.62898679  0.62566016  0.87459335  1
  Fe  Fe49  1  0.49877722  0.74747760  -0.00319405  1
  Fe  Fe50  1  -0.00151241  0.00099603  0.24942907  1
  Fe  Fe51  1  0.25265446  0.75345935  0.49789793  1
  Fe  Fe52  1  0.87467875  0.37441535  0.87361470  1
  Fe  Fe53  1  0.75101138  0.75206438  -0.00154262  1
  Fe  Fe54  1  0.62728871  0.37419967  0.37668796  1
  Fe  Fe55  1  0.00132169  0.74893647  0.25266646  1
  Fe  Fe56  1  0.00072870  0.50337688  -0.00421052  1
  Fe  Fe57  1  0.24748478  0.24947476  0.25074333  1
  Fe  Fe58  1  0.49676189  0.24372900  0.75156165  1
  Fe  Fe59  1  0.00016089  0.50214405  0.50083967  1
  Fe  Fe60  1  0.87490832  0.87397513  0.12553140  1
  Fe  Fe61  1  0.87703668  0.87835932  0.87055916  1
  Fe  Fe62  1  0.62450126  0.37335118  0.87311499  1
  Fe  Fe63  1  0.12647187  0.12532390  0.62279526  1
  Fe  Fe64  1  0.62512159  0.87647083  0.37452003  1
  Fe  Fe65  1  0.87447436  0.62533038  0.12457170  1
  Fe  Fe66  1  0.74997810  0.49781631  0.00087880  1
  Fe  Fe67  1  0.87791142  0.37427708  0.12423123  1
  Fe  Fe68  1  0.75020874  -0.00047506  -0.00157027  1
  Fe  Fe69  1  0.62688716  0.62453276  0.12488572  1
  Fe  Fe70  1  -0.00086122  0.24927462  0.49826760  1
  Fe  Fe71  1  0.75059573  0.49811245  0.74679929  1
  Fe  Fe72  1  0.25132284  0.25098670  0.49966171  1
  Fe  Fe73  1  0.62779272  0.62258630  0.37530490  1
  Fe  Fe74  1  0.00145265  0.74907984  -0.00573712  1
  Fe  Fe75  1  0.50029400  0.74853349  0.25160618  1
  Fe  Fe76  1  0.74939596  0.75050901  0.25132408  1
  Fe  Fe77  1  0.87649609  0.87301411  0.37788011  1
  Fe  Fe78  1  0.24929469  -0.00278297  0.00176211  1
  Fe  Fe79  1  0.12460109  0.12016783  0.87753547  1
  Fe  Fe80  1  0.25187775  0.49860070  0.50296920  1
  Fe  Fe81  1  0.62112600  0.12347158  0.62358054  1
  Fe  Fe82  1  0.50157907  0.24768173  -0.00148069  1
  Fe  Fe83  1  0.12895153  0.62546736  0.37584008  1
  Fe  Fe84  1  0.12202806  0.87526088  0.62424129  1
  Fe  Fe85  1  0.37192793  0.62723860  0.12618520  1
  Fe  Fe86  1  0.75016966  0.25123106  0.74544114  1
  Fe  Fe87  1  0.62431644  0.87514689  0.12344953  1
  Fe  Fe88  1  0.12622769  0.37868057  0.87366007  1
  Fe  Fe89  1  0.62864025  0.12516070  0.37816286  1
  Co  Co90  1  0.75045497  0.25182480  0.00148700  1
  Co  Co91  1  0.37735302  0.87581288  0.37173172  1
  Co  Co92  1  0.12400644  0.12460307  0.12491575  1
  Co  Co93  1  0.24988577  0.49686019  0.00441909  1
  Co  Co94  1  0.00360752  0.74781955  0.49964254  1
  Co  Co95  1  0.25232733  0.49570642  0.74460528  1
  Co  Co96  1  0.13416201  0.62303004  0.87406274  1
  Co  Co97  1  0.74601006  0.75423749  0.50232009  1
  Co  Co98  1  0.49926655  0.74490170  0.75485046  1
  Co  Co99  1  0.49916885  0.25003115  0.49798707  1
  Co  Co100  1  0.75113510  0.49822286  0.24842084  1
  Co  Co101  1  0.62263831  0.37566907  0.12328129  1
  Co  Co102  1  0.24932282  0.75223869  0.25222185  1
  Co  Co103  1  0.12494398  0.37586713  0.37658015  1
  Co  Co104  1  0.88145378  0.37493023  0.62606071  1
  Co  Co105  1  0.00142236  0.00247287  0.74635478  1
  Co  Co106  1  0.62339845  0.87456179  0.87479402  1
  Co  Co107  1  0.12267513  0.87946159  0.87442117  1
  Co  Co108  1  0.87046185  0.62627526  0.87294258  1
  Co  Co109  1  -0.00214067  -0.00043568  0.00244186  1
  Co  Co110  1  0.24935918  0.75631705  0.74886677  1
  Co  Co111  1  0.37574787  0.12252207  0.62227847  1
  Co  Co112  1  0.00140013  0.24925007  -0.00390495  1
  Co  Co113  1  0.37386290  0.62918767  0.62559965  1
  Co  Co114  1  0.37260654  0.62308929  0.37356334  1
  Co  Co115  1  0.75127043  -0.00085210  0.24914244  1
  Co  Co116  1  0.75001857  0.25239126  0.50583344  1
  Co  Co117  1  0.50010510  -0.00006624  0.49644174  1
  Co  Co118  1  -0.00103728  0.24868459  0.25383612  1
  Co  Co119  1  0.50058786  0.00626402  0.75635801  1
  Co  Co120  1  0.63127419  0.12762753  0.87411759  1
  Co  Co121  1  0.61422845  0.87516367  0.62812632  1
  Co  Co122  1  0.74744385  -0.00288703  0.74537508  1
  Co  Co123  1  0.24946228  0.75458577  -0.00154478  1
  Co  Co124  1  0.36919793  0.12457013  0.87856477  1
  Co  Co125  1  0.61848492  0.37408460  0.62838451  1
  Co  Co126  1  0.12181562  0.87662803  0.37529768  1
  Co  Co127  1  0.88067078  0.87126743  0.62609049  1
