# generated using pymatgen
data_Fe45Co19
_symmetry_space_group_name_H-M   'P 1'
_cell_length_a   11.41509196
_cell_length_b   11.41460890
_cell_length_c   11.41474935
_cell_angle_alpha   89.99966011
_cell_angle_beta   89.99689106
_cell_angle_gamma   90.00407343
_symmetry_Int_Tables_number   1
_chemical_formula_structural   Fe45Co19
_chemical_formula_sum   'Fe90 Co38'
_cell_volume   1487.32825354
_cell_formula_units_Z   2
loop_
 _symmetry_equiv_pos_site_id
 _symmetry_equiv_pos_as_xyz
  1  'x, y, z'
loop_
 _atom_site_type_symbol
 _atom_site_label
 _atom_site_symmetry_multiplicity
 _atom_site_fract_x
 _atom_site_fract_y
 _atom_site_fract_z
 _atom_site_occupancy
  Fe  Fe0  1  0.49918189  0.24936408  0.74955774  1
  Fe  Fe1  1  0.12244418  0.37453494  0.37370845  1
  Fe  Fe2  1  0.50144501  0.50187963  0.50046340  1
  Fe  Fe3  1  0.00032059  0.49806593  0.75023876  1
  Fe  Fe4  1  0.62391843  0.62514384  0.12733650  1
  Fe  Fe5  1  0.37410059  0.37454866  0.12506215  1
  Fe  Fe6  1  -0.00131255  -0.00142204  0.25192400  1
  Fe  Fe7  1  0.75158762  0.75259192  0.75338061  1
  Fe  Fe8  1  0.37624751  0.12370325  0.37372491  1
  Fe  Fe9  1  0.00103195  0.75153571  0.25245097  1
  Fe  Fe10  1  0.12548394  0.12554040  0.12813489  1
  Fe  Fe11  1  0.49834255  0.75140947  0.00472885  1
  Fe  Fe12  1  0.11887900  0.37341450  0.12681789  1
  Fe  Fe13  1  0.62211447  0.37474338  0.87558658  1
  Fe  Fe14  1  -0.00133399  0.74839834  -0.00240378  1
  Fe  Fe15  1  0.50211174  0.74857375  0.50036460  1
  Fe  Fe16  1  0.62581020  0.12384377  0.62680266  1
  Fe  Fe17  1  0.37383746  0.37606002  0.62410399  1
  Fe  Fe18  1  0.87621995  0.62400126  0.12458428  1
  Fe  Fe19  1  0.62201044  0.87587243  0.62976518  1
  Fe  Fe20  1  0.50292337  -0.00177194  0.24554906  1
  Fe  Fe21  1  -0.00046465  0.75003978  0.75024686  1
  Fe  Fe22  1  0.12324190  0.87441655  0.87612379  1
  Fe  Fe23  1  -0.00021617  0.50022388  0.49895932  1
  Fe  Fe24  1  0.37437171  0.12429954  0.62329217  1
  Fe  Fe25  1  0.00042880  0.25065173  0.50394057  1
  Fe  Fe26  1  0.24762632  0.49814531  -0.00033462  1
  Fe  Fe27  1  0.75116878  0.74965343  0.24970544  1
  Fe  Fe28  1  0.37806082  0.87648565  0.87757721  1
  Fe  Fe29  1  0.24770938  -0.00165353  0.00064746  1
  Fe  Fe30  1  0.87253999  0.12692591  0.12252952  1
  Fe  Fe31  1  0.74629248  -0.00193873  -0.00112294  1
  Fe  Fe32  1  0.74916306  -0.00145421  0.50107442  1
  Fe  Fe33  1  0.37301283  0.62412937  0.62437165  1
  Fe  Fe34  1  -0.00014101  0.00032502  0.74873068  1
  Fe  Fe35  1  0.62627197  0.37580023  0.37555533  1
  Fe  Fe36  1  0.62355403  0.62758057  0.87423450  1
  Fe  Fe37  1  0.50106910  0.24819359  0.00112848  1
  Fe  Fe38  1  0.37408292  0.12458595  0.12537703  1
  Fe  Fe39  1  0.62627817  0.87472690  0.37271118  1
  Fe  Fe40  1  0.49901711  0.50173030  0.74982573  1
  Fe  Fe41  1  0.37477891  0.37524427  0.37454001  1
  Fe  Fe42  1  0.75170409  0.50047028  -0.00036112  1
  Fe  Fe43  1  0.25099276  -0.00098950  0.74907250  1
  Fe  Fe44  1  0.87546809  0.87551945  0.62428800  1
  Fe  Fe45  1  0.24955341  0.74963310  0.49799717  1
  Fe  Fe46  1  0.87500151  0.12468658  0.62576776  1
  Fe  Fe47  1  0.62416918  0.12249114  0.87389632  1
  Fe  Fe48  1  0.74803800  0.74892532  0.50136335  1
  Fe  Fe49  1  0.37680710  0.87606615  0.62350165  1
  Fe  Fe50  1  0.87595668  0.87460998  0.12407615  1
  Fe  Fe51  1  0.87483908  0.62503442  0.37560595  1
  Fe  Fe52  1  0.25056917  0.75147932  0.75075235  1
  Fe  Fe53  1  0.12569360  0.62540861  0.87489843  1
  Fe  Fe54  1  0.00057917  0.75149857  0.49774000  1
  Fe  Fe55  1  0.75207039  0.25134875  0.75220373  1
  Fe  Fe56  1  0.37651642  0.62392631  0.37109668  1
  Fe  Fe57  1  0.49954004  0.50001129  0.00244099  1
  Fe  Fe58  1  0.62547408  0.12528951  0.37323775  1
  Fe  Fe59  1  0.24808744  0.25268386  0.74919823  1
  Fe  Fe60  1  0.24810114  0.49987376  0.25006108  1
  Fe  Fe61  1  0.12562576  0.87749608  0.62162688  1
  Fe  Fe62  1  0.12391888  0.12331320  0.37664234  1
  Fe  Fe63  1  0.62752338  0.37285872  0.12407116  1
  Fe  Fe64  1  0.00177770  0.00167484  0.00099246  1
  Fe  Fe65  1  0.75063911  0.49916264  0.75252548  1
  Fe  Fe66  1  0.50095403  0.24916035  0.49981042  1
  Fe  Fe67  1  0.37404227  0.12579932  0.87735138  1
  Fe  Fe68  1  0.37594928  0.87661709  0.37518988  1
  Fe  Fe69  1  0.24677830  0.25209202  0.00067722  1
  Fe  Fe70  1  0.75093196  0.25184415  0.50045989  1
  Fe  Fe71  1  0.75169877  0.75116644  -0.00307336  1
  Fe  Fe72  1  0.75479154  0.25284916  0.24952533  1
  Fe  Fe73  1  0.87459848  0.12463949  0.37735307  1
  Fe  Fe74  1  0.62379425  0.62370469  0.37167037  1
  Fe  Fe75  1  0.12514874  0.12730772  0.87157301  1
  Fe  Fe76  1  0.50000295  0.25125729  0.24915089  1
  Fe  Fe77  1  0.37387856  0.62485909  0.87790046  1
  Fe  Fe78  1  0.75427223  0.49668924  0.24989982  1
  Fe  Fe79  1  0.62696992  0.37694708  0.62467568  1
  Fe  Fe80  1  0.25019853  0.49750231  0.75261078  1
  Fe  Fe81  1  0.75093071  -0.00012316  0.24870148  1
  Fe  Fe82  1  0.87985848  0.37376602  0.87940628  1
  Fe  Fe83  1  0.12700162  0.62300910  0.62346731  1
  Fe  Fe84  1  0.87314451  0.62346742  0.62554655  1
  Fe  Fe85  1  0.87568010  0.12456040  0.87473237  1
  Fe  Fe86  1  0.12557881  0.62730982  0.12472993  1
  Fe  Fe87  1  0.24981354  0.75168654  0.24922258  1
  Fe  Fe88  1  0.24860898  0.24934459  0.49961810  1
  Fe  Fe89  1  0.24806280  -0.00185303  0.25028657  1
  Co  Co90  1  0.25082667  0.50018273  0.49628217  1
  Co  Co91  1  0.87792942  0.87774573  0.87684042  1
  Co  Co92  1  0.25077226  0.75129504  -0.00040385  1
  Co  Co93  1  0.87259599  0.37718019  0.62422930  1
  Co  Co94  1  0.49667092  0.00299480  0.74965863  1
  Co  Co95  1  0.37663298  0.37398034  0.87630893  1
  Co  Co96  1  0.24933668  0.25011724  0.25115925  1
  Co  Co97  1  0.74963410  0.50178773  0.49749265  1
  Co  Co98  1  0.37230973  0.87759086  0.12436159  1
  Co  Co99  1  0.87195052  0.87415151  0.37496170  1
  Co  Co100  1  0.12268170  0.87317076  0.12405796  1
  Co  Co101  1  0.00124477  0.50390761  0.00056352  1
  Co  Co102  1  -0.00060221  0.25103153  0.74705120  1
  Co  Co103  1  0.62844253  0.87174436  0.12533852  1
  Co  Co104  1  0.75177976  -0.00190213  0.75088209  1
  Co  Co105  1  0.49843735  0.75242476  0.24771125  1
  Co  Co106  1  0.12102892  0.37332819  0.87566114  1
  Co  Co107  1  0.37334252  0.62320225  0.12617840  1
  Co  Co108  1  0.50317378  0.00101827  0.00397007  1
  Co  Co109  1  0.50248551  0.00039668  0.49971814  1
  Co  Co110  1  0.87786794  0.37472687  0.37669380  1
  Co  Co111  1  0.00243589  0.24518463  0.00109071  1
  Co  Co112  1  -0.00221512  -0.00113668  0.49890848  1
  Co  Co113  1  0.12612799  0.87653134  0.37658762  1
  Co  Co114  1  0.74949365  0.25007578  -0.00334655  1
  Co  Co115  1  0.12529765  0.62509554  0.37526186  1
  Co  Co116  1  0.50059164  0.49666502  0.24839178  1
  Co  Co117  1  -0.00325900  0.24671381  0.24970805  1
  Co  Co118  1  0.62034692  0.87448369  0.87323630  1
  Co  Co119  1  0.12701303  0.37805660  0.62397452  1
  Co  Co120  1  0.49653743  0.74767376  0.74925613  1
  Co  Co121  1  0.25136735  0.00150490  0.50014733  1
  Co  Co122  1  0.62809164  0.62444010  0.62881841  1
  Co  Co123  1  0.62747072  0.12862859  0.12690146  1
  Co  Co124  1  0.12488367  0.12277584  0.62511287  1
  Co  Co125  1  -0.00144525  0.50185518  0.25009447  1
  Co  Co126  1  0.87570937  0.62368277  0.87273435  1
  Co  Co127  1  0.87846423  0.37347548  0.12022854  1
