# generated using pymatgen
data_Fe45Co19
_symmetry_space_group_name_H-M   'P 1'
_cell_length_a   11.41466127
_cell_length_b   11.41465076
_cell_length_c   11.41562721
_cell_angle_alpha   90.00265034
_cell_angle_beta   90.00879508
_cell_angle_gamma   90.00812165
_symmetry_Int_Tables_number   1
_chemical_formula_structural   Fe45Co19
_chemical_formula_sum   'Fe90 Co38'
_cell_volume   1487.39194485
_cell_formula_units_Z   2
loop_
 _symmetry_equiv_pos_site_id
 _symmetry_equiv_pos_as_xyz
  1  'x, y, z'
loop_
 _atom_site_type_symbol
 _atom_site_label
 _atom_site_symmetry_multiplicity
 _atom_site_fract_x
 _atom_site_fract_y
 _atom_site_fract_z
 _atom_site_occupancy
  Fe  Fe0  1  0.00143265  0.00173314  0.75153763  1
  Fe  Fe1  1  0.25068616  0.75422243  0.49753628  1
  Fe  Fe2  1  0.25176164  0.25199775  0.24900639  1
  Fe  Fe3  1  0.25069163  0.49884258  0.49764045  1
  Fe  Fe4  1  0.37441325  0.12655179  0.87848136  1
  Fe  Fe5  1  0.00058329  0.00078833  0.00148057  1
  Fe  Fe6  1  0.25469881  -0.00069134  0.25418481  1
  Fe  Fe7  1  0.50018534  0.24848537  0.50252838  1
  Fe  Fe8  1  0.87636210  0.87338964  0.87435992  1
  Fe  Fe9  1  0.62305881  0.87565430  0.37400128  1
  Fe  Fe10  1  0.87598486  0.37520934  0.62508832  1
  Fe  Fe11  1  0.49883267  0.74901910  0.24841142  1
  Fe  Fe12  1  0.87800586  0.87353115  0.37479462  1
  Fe  Fe13  1  0.49968646  0.49863866  0.00187621  1
  Fe  Fe14  1  0.62169327  0.87631125  0.87151989  1
  Fe  Fe15  1  -0.00204799  0.49550827  -0.00154808  1
  Fe  Fe16  1  0.87798892  0.12517398  0.62459658  1
  Fe  Fe17  1  0.49740971  0.50091438  0.74884141  1
  Fe  Fe18  1  0.00169050  0.25117644  0.75193492  1
  Fe  Fe19  1  0.12751219  0.62351910  0.87663942  1
  Fe  Fe20  1  0.87681302  0.12494021  0.37518508  1
  Fe  Fe21  1  0.12101514  0.87374670  0.37041160  1
  Fe  Fe22  1  0.75015902  -0.00061508  0.50002023  1
  Fe  Fe23  1  0.37169470  0.62616128  0.12486115  1
  Fe  Fe24  1  0.62447914  0.37324799  0.12670813  1
  Fe  Fe25  1  0.74937066  0.50101305  0.50043806  1
  Fe  Fe26  1  0.12776583  0.62380067  0.12553902  1
  Fe  Fe27  1  0.12950245  0.87835491  0.62698396  1
  Fe  Fe28  1  0.87268244  0.62515372  0.87736193  1
  Fe  Fe29  1  0.25549093  0.75209193  0.75536077  1
  Fe  Fe30  1  0.24606871  0.24726665  0.49810118  1
  Fe  Fe31  1  0.00158192  0.74995032  0.00267866  1
  Fe  Fe32  1  0.62577975  0.12471752  0.87510309  1
  Fe  Fe33  1  0.62473034  0.62583210  0.37533431  1
  Fe  Fe34  1  0.00525353  0.00248378  0.49958432  1
  Fe  Fe35  1  0.74849858  0.75026070  0.50280987  1
  Fe  Fe36  1  0.12704768  0.12374410  0.12600502  1
  Fe  Fe37  1  0.50104625  0.24375033  0.24625254  1
  Fe  Fe38  1  0.62376282  0.37306192  0.37357294  1
  Fe  Fe39  1  0.37387547  0.62677851  0.37421299  1
  Fe  Fe40  1  0.49740668  0.24738340  0.74802863  1
  Fe  Fe41  1  0.49888115  0.49949987  0.49975710  1
  Fe  Fe42  1  0.25089525  0.25139320  0.75108230  1
  Fe  Fe43  1  0.12325087  0.37538936  0.37305625  1
  Fe  Fe44  1  0.49966518  0.00311590  0.00220050  1
  Fe  Fe45  1  -0.00013027  0.49996049  0.75090193  1
  Fe  Fe46  1  0.36830551  0.12060991  0.62330974  1
  Fe  Fe47  1  0.12343585  0.87386406  0.87568983  1
  Fe  Fe48  1  0.25101884  -0.00374923  -0.00223320  1
  Fe  Fe49  1  0.74877343  0.74897436  0.74887832  1
  Fe  Fe50  1  0.12499837  0.37410638  0.62489225  1
  Fe  Fe51  1  0.49910742  0.00405889  0.24765994  1
  Fe  Fe52  1  0.25281064  0.49602366  0.00053781  1
  Fe  Fe53  1  0.37427672  0.62586494  0.62458062  1
  Fe  Fe54  1  0.87528123  0.37457856  0.37278921  1
  Fe  Fe55  1  0.00097126  0.50093000  0.50016798  1
  Fe  Fe56  1  0.37660610  0.37198028  0.37429322  1
  Fe  Fe57  1  0.74880952  0.00203306  0.25167059  1
  Fe  Fe58  1  0.49699939  -0.00040001  0.50018686  1
  Fe  Fe59  1  0.49976899  0.75125525  0.50325031  1
  Fe  Fe60  1  0.87717688  0.87524149  0.62535778  1
  Fe  Fe61  1  0.62523855  0.62526390  0.87753368  1
  Fe  Fe62  1  0.12283218  0.37702650  0.12633970  1
  Fe  Fe63  1  0.49876968  0.50184272  0.24920096  1
  Fe  Fe64  1  -0.00129157  0.24944042  0.24789284  1
  Fe  Fe65  1  0.74977255  0.24858113  0.74858636  1
  Fe  Fe66  1  0.49752642  0.75002920  -0.00040314  1
  Fe  Fe67  1  0.62198609  0.37328503  0.87394420  1
  Fe  Fe68  1  0.12420752  0.62647731  0.37243834  1
  Fe  Fe69  1  0.62423397  0.37648340  0.62505598  1
  Fe  Fe70  1  0.12698413  0.62624854  0.62558573  1
  Fe  Fe71  1  0.12512584  0.12729120  0.87717606  1
  Fe  Fe72  1  0.87699958  0.62792874  0.37718148  1
  Fe  Fe73  1  0.62655486  0.12197371  0.62456061  1
  Fe  Fe74  1  0.87555717  0.12642056  0.87642511  1
  Fe  Fe75  1  0.87250160  0.12572374  0.12361073  1
  Fe  Fe76  1  0.62442106  0.87531452  0.12569979  1
  Fe  Fe77  1  0.74964170  -0.00270544  -0.00286177  1
  Fe  Fe78  1  0.74943714  0.24965082  0.49875192  1
  Fe  Fe79  1  0.25249705  0.49692469  0.75074067  1
  Fe  Fe80  1  0.25101291  0.25451184  0.00135955  1
  Fe  Fe81  1  0.74916000  0.50129954  0.24787991  1
  Fe  Fe82  1  0.74998932  0.50130188  0.74990757  1
  Fe  Fe83  1  0.62235123  0.87687909  0.62956382  1
  Fe  Fe84  1  0.12716598  0.87513379  0.12714097  1
  Fe  Fe85  1  0.75008663  0.74891427  0.24835765  1
  Fe  Fe86  1  0.87456347  0.87511898  0.12500069  1
  Fe  Fe87  1  0.87239588  0.62372550  0.12133046  1
  Fe  Fe88  1  0.00070703  0.74819067  0.74857382  1
  Fe  Fe89  1  0.75034587  0.25367062  0.00003657  1
  Co  Co90  1  -0.00132976  0.50222318  0.25013585  1
  Co  Co91  1  0.75213729  0.00023903  0.75046020  1
  Co  Co92  1  0.37999282  0.87779752  0.87517231  1
  Co  Co93  1  0.00343159  0.75112249  0.50257657  1
  Co  Co94  1  0.37913833  0.87456680  0.37406596  1
  Co  Co95  1  -0.00215312  0.00117267  0.24750496  1
  Co  Co96  1  0.37499510  0.87517258  0.12497882  1
  Co  Co97  1  0.25022834  0.75082857  0.25100394  1
  Co  Co98  1  0.37804367  0.37387546  0.87561804  1
  Co  Co99  1  0.62512186  0.62644697  0.12246343  1
  Co  Co100  1  0.74889990  0.24756354  0.25211616  1
  Co  Co101  1  0.87449338  0.37460016  0.12708135  1
  Co  Co102  1  0.87618379  0.62501130  0.62417447  1
  Co  Co103  1  0.24997574  -0.00008915  0.75659260  1
  Co  Co104  1  0.63048563  0.12437270  0.12229198  1
  Co  Co105  1  -0.00105407  0.74760042  0.24521325  1
  Co  Co106  1  0.62365858  0.62354331  0.62433517  1
  Co  Co107  1  0.25176459  0.49863193  0.25133265  1
  Co  Co108  1  0.12607474  0.37534357  0.87540766  1
  Co  Co109  1  0.37377107  0.37424374  0.62295815  1
  Co  Co110  1  0.12387857  0.12616593  0.36905981  1
  Co  Co111  1  0.37815545  0.37419402  0.12650537  1
  Co  Co112  1  0.12707256  0.12427914  0.62780845  1
  Co  Co113  1  0.24683228  -0.00038436  0.49318231  1
  Co  Co114  1  0.62354349  0.12371118  0.37767892  1
  Co  Co115  1  0.00165238  0.24968312  0.49875931  1
  Co  Co116  1  0.74773659  0.49487026  0.00106590  1
  Co  Co117  1  0.37055121  0.12387407  0.12304760  1
  Co  Co118  1  0.87390478  0.37452977  0.87338781  1
  Co  Co119  1  0.74808698  0.75404289  -0.00080822  1
  Co  Co120  1  0.37629920  0.12741673  0.37567182  1
  Co  Co121  1  0.37360009  0.62172593  0.87761900  1
  Co  Co122  1  0.50062198  0.24793483  0.00241737  1
  Co  Co123  1  0.25077948  0.75252157  -0.00173558  1
  Co  Co124  1  0.49744348  0.74709668  0.75050145  1
  Co  Co125  1  0.00071184  0.25088423  0.00198128  1
  Co  Co126  1  0.49665904  0.00534470  0.74994442  1
  Co  Co127  1  0.37227975  0.87806486  0.62632462  1
