# generated using pymatgen
data_Fe45Co19
_symmetry_space_group_name_H-M   'P 1'
_cell_length_a   11.41528029
_cell_length_b   11.41522906
_cell_length_c   11.41431020
_cell_angle_alpha   90.00155133
_cell_angle_beta   90.00557457
_cell_angle_gamma   89.99758523
_symmetry_Int_Tables_number   1
_chemical_formula_structural   Fe45Co19
_chemical_formula_sum   'Fe90 Co38'
_cell_volume   1487.37637290
_cell_formula_units_Z   2
loop_
 _symmetry_equiv_pos_site_id
 _symmetry_equiv_pos_as_xyz
  1  'x, y, z'
loop_
 _atom_site_type_symbol
 _atom_site_label
 _atom_site_symmetry_multiplicity
 _atom_site_fract_x
 _atom_site_fract_y
 _atom_site_fract_z
 _atom_site_occupancy
  Fe  Fe0  1  0.12429141  0.62532024  0.37687510  1
  Fe  Fe1  1  0.37307379  0.37540778  0.62814690  1
  Fe  Fe2  1  0.49828867  -0.00328226  -0.00131897  1
  Fe  Fe3  1  0.62601145  0.87502908  0.37675211  1
  Fe  Fe4  1  0.62514892  0.87435826  0.12329633  1
  Fe  Fe5  1  0.00158957  0.25002193  0.24903349  1
  Fe  Fe6  1  0.75042984  0.74752871  0.24706005  1
  Fe  Fe7  1  0.74971496  0.25083583  0.24864575  1
  Fe  Fe8  1  0.12882241  0.87948414  0.87256108  1
  Fe  Fe9  1  0.12552237  0.37489280  0.37552191  1
  Fe  Fe10  1  0.37381766  0.87040352  0.12242813  1
  Fe  Fe11  1  0.50021694  0.25130765  0.75194682  1
  Fe  Fe12  1  -0.00028612  -0.00253913  -0.00431276  1
  Fe  Fe13  1  0.87546316  0.37169144  0.62777431  1
  Fe  Fe14  1  0.00266421  0.75236508  0.50134428  1
  Fe  Fe15  1  0.12841774  0.62074102  0.87484245  1
  Fe  Fe16  1  0.37345592  0.87347813  0.62252383  1
  Fe  Fe17  1  0.75037097  0.74923319  0.50401367  1
  Fe  Fe18  1  0.62705157  0.37352943  0.62699476  1
  Fe  Fe19  1  0.24844509  0.74662594  0.74562332  1
  Fe  Fe20  1  0.49922966  0.49891068  0.50142130  1
  Fe  Fe21  1  0.87501990  0.12455793  0.12179409  1
  Fe  Fe22  1  0.49689008  0.50143877  0.24870241  1
  Fe  Fe23  1  0.87647360  0.62697062  0.37621582  1
  Fe  Fe24  1  0.87535755  0.87443793  0.37533887  1
  Fe  Fe25  1  0.62422760  0.37678419  0.87561341  1
  Fe  Fe26  1  0.49912325  -0.00107784  0.24880161  1
  Fe  Fe27  1  0.62533987  0.12219278  0.87436298  1
  Fe  Fe28  1  0.24747491  0.24948329  0.24836980  1
  Fe  Fe29  1  0.74936374  0.74653066  -0.00035145  1
  Fe  Fe30  1  0.49783170  0.25109119  -0.00168080  1
  Fe  Fe31  1  0.87959042  0.62766609  0.62852090  1
  Fe  Fe32  1  0.62089306  0.62637059  0.62841726  1
  Fe  Fe33  1  0.49773353  -0.00333965  0.75049033  1
  Fe  Fe34  1  0.00489618  0.24919511  0.75408218  1
  Fe  Fe35  1  0.37327801  0.12573555  0.62786102  1
  Fe  Fe36  1  0.24548747  0.25080198  0.75348403  1
  Fe  Fe37  1  0.87500920  0.12460365  0.37518959  1
  Fe  Fe38  1  0.37459703  0.12575126  0.37359111  1
  Fe  Fe39  1  0.12605604  0.12338562  0.12071024  1
  Fe  Fe40  1  0.24845773  0.50362747  0.50560431  1
  Fe  Fe41  1  0.62632199  0.12525549  0.62704306  1
  Fe  Fe42  1  0.37182919  0.86907910  0.87729085  1
  Fe  Fe43  1  0.00478981  0.75194781  -0.00237284  1
  Fe  Fe44  1  0.00353686  0.24632946  0.50083628  1
  Fe  Fe45  1  0.00013413  0.49893377  0.50128825  1
  Fe  Fe46  1  0.62682239  0.37597837  0.37572674  1
  Fe  Fe47  1  0.24956544  0.50184186  0.24621158  1
  Fe  Fe48  1  0.87862873  0.62647858  0.87380108  1
  Fe  Fe49  1  0.24573877  0.74976702  0.24797424  1
  Fe  Fe50  1  0.37243645  0.87359144  0.37635312  1
  Fe  Fe51  1  0.87556761  0.12729452  0.62882175  1
  Fe  Fe52  1  0.75099350  0.50038884  0.75204284  1
  Fe  Fe53  1  0.50079854  0.25200905  0.24961437  1
  Fe  Fe54  1  0.37425995  0.12548321  0.12199063  1
  Fe  Fe55  1  0.49949331  0.74939942  0.50035425  1
  Fe  Fe56  1  -0.00023392  0.50074468  0.24908145  1
  Fe  Fe57  1  0.62548281  0.62450490  0.37488762  1
  Fe  Fe58  1  0.75267683  0.50275657  0.24775880  1
  Fe  Fe59  1  0.50081118  0.74825387  0.24881524  1
  Fe  Fe60  1  0.62053205  0.62611141  0.87296794  1
  Fe  Fe61  1  0.62442234  0.12457645  0.12232175  1
  Fe  Fe62  1  0.00083520  0.49925141  0.00131844  1
  Fe  Fe63  1  0.87626821  0.87301596  0.12197445  1
  Fe  Fe64  1  0.37229941  0.12530975  0.87647220  1
  Fe  Fe65  1  0.37263477  0.62626777  0.37645333  1
  Fe  Fe66  1  0.87463125  0.37386595  0.37641578  1
  Fe  Fe67  1  0.62879272  0.87487056  0.87265563  1
  Fe  Fe68  1  0.49810264  0.00066531  0.50090807  1
  Fe  Fe69  1  0.37267644  0.37331025  0.12292847  1
  Fe  Fe70  1  0.00339696  0.49780119  0.74844985  1
  Fe  Fe71  1  0.75196845  0.50134863  0.50327119  1
  Fe  Fe72  1  0.00357986  0.25105618  -0.00378580  1
  Fe  Fe73  1  0.37217891  0.37532277  0.37645085  1
  Fe  Fe74  1  0.75075897  -0.00036747  0.24795643  1
  Fe  Fe75  1  0.24674812  0.24608624  0.50124513  1
  Fe  Fe76  1  0.49327203  0.50353703  -0.00224480  1
  Fe  Fe77  1  0.00191131  0.74945997  0.24797689  1
  Fe  Fe78  1  0.62563720  0.37908333  0.12124087  1
  Fe  Fe79  1  0.87485273  0.37662626  0.12136374  1
  Fe  Fe80  1  0.75267367  -0.00107667  0.50418427  1
  Fe  Fe81  1  0.75093325  0.25203531  -0.00316567  1
  Fe  Fe82  1  0.12562793  0.87888759  0.37730230  1
  Fe  Fe83  1  -0.00016918  0.00032407  0.24922746  1
  Fe  Fe84  1  0.87741275  0.87251366  0.63168414  1
  Fe  Fe85  1  0.62522770  0.12473595  0.37611918  1
  Fe  Fe86  1  0.49946771  0.25110634  0.50043410  1
  Fe  Fe87  1  0.12486754  0.88091155  0.62611917  1
  Fe  Fe88  1  0.24996778  -0.00032383  0.24795724  1
  Fe  Fe89  1  0.87259796  0.12296249  0.87404385  1
  Co  Co90  1  0.25467407  0.50112872  0.00163316  1
  Co  Co91  1  0.87104249  0.87193598  0.87459453  1
  Co  Co92  1  0.00556370  0.75238988  0.75442367  1
  Co  Co93  1  0.74970120  0.25145454  0.75504379  1
  Co  Co94  1  0.25117478  0.00298765  0.49980848  1
  Co  Co95  1  0.75080279  0.24948034  0.49984846  1
  Co  Co96  1  0.12536133  0.37349359  0.62522702  1
  Co  Co97  1  0.75126922  0.50354328  -0.00471849  1
  Co  Co98  1  0.12388479  0.62294522  0.12397325  1
  Co  Co99  1  0.87850920  0.62661649  0.12177203  1
  Co  Co100  1  0.75053609  -0.00083798  0.00029605  1
  Co  Co101  1  0.37126118  0.37570717  0.87235042  1
  Co  Co102  1  0.37339672  0.63123644  0.12242306  1
  Co  Co103  1  0.49855719  0.49752366  0.75168397  1
  Co  Co104  1  0.50268620  0.74990259  -0.00103856  1
  Co  Co105  1  0.24981115  0.50335657  0.74646584  1
  Co  Co106  1  0.12472406  0.12221933  0.37388012  1
  Co  Co107  1  0.87840857  0.37707953  0.87401989  1
  Co  Co108  1  0.25551545  -0.00162434  0.75085062  1
  Co  Co109  1  0.12752503  0.38021012  0.87615643  1
  Co  Co110  1  0.49834014  0.75526042  0.75018547  1
  Co  Co111  1  0.62314291  0.62188653  0.12373929  1
  Co  Co112  1  0.12369662  0.87818369  0.12435083  1
  Co  Co113  1  0.75148996  -0.00088086  0.74841183  1
  Co  Co114  1  0.12479180  0.37547644  0.12369476  1
  Co  Co115  1  0.11973305  0.62571245  0.62542922  1
  Co  Co116  1  0.24778617  0.25181404  -0.00300826  1
  Co  Co117  1  0.37292974  0.62892948  0.87295191  1
  Co  Co118  1  0.24357775  0.74909598  0.00057326  1
  Co  Co119  1  0.74928950  0.74699361  0.75023845  1
  Co  Co120  1  0.12545572  0.11950850  0.62992679  1
  Co  Co121  1  0.24760036  0.74819156  0.50390366  1
  Co  Co122  1  0.37979177  0.62520610  0.62779282  1
  Co  Co123  1  0.25239583  -0.00221462  0.00120558  1
  Co  Co124  1  0.62394786  0.87472169  0.62559691  1
  Co  Co125  1  0.12887603  0.11972782  0.87553007  1
  Co  Co126  1  -0.00239869  0.00085623  0.50248522  1
  Co  Co127  1  -0.00345301  -0.00008196  0.75424111  1
