# generated using pymatgen
data_Fe45Co19
_symmetry_space_group_name_H-M   'P 1'
_cell_length_a   11.41439959
_cell_length_b   11.41405839
_cell_length_c   11.41438633
_cell_angle_alpha   90.00006179
_cell_angle_beta   89.98517598
_cell_angle_gamma   90.00004337
_symmetry_Int_Tables_number   1
_chemical_formula_structural   Fe45Co19
_chemical_formula_sum   'Fe90 Co38'
_cell_volume   1487.11897563
_cell_formula_units_Z   2
loop_
 _symmetry_equiv_pos_site_id
 _symmetry_equiv_pos_as_xyz
  1  'x, y, z'
loop_
 _atom_site_type_symbol
 _atom_site_label
 _atom_site_symmetry_multiplicity
 _atom_site_fract_x
 _atom_site_fract_y
 _atom_site_fract_z
 _atom_site_occupancy
  Fe  Fe0  1  0.50065993  -0.00141269  0.25245965  1
  Fe  Fe1  1  0.12599869  0.87335299  0.37610157  1
  Fe  Fe2  1  0.25201628  0.50340451  0.00288364  1
  Fe  Fe3  1  0.87244023  0.62789256  0.37232306  1
  Fe  Fe4  1  0.50181266  0.75382518  0.75072728  1
  Fe  Fe5  1  0.74592975  0.24682757  0.24612426  1
  Fe  Fe6  1  0.74887114  0.75287162  0.24868449  1
  Fe  Fe7  1  0.62901000  0.12610117  0.87205219  1
  Fe  Fe8  1  0.24958501  0.00077308  0.00122347  1
  Fe  Fe9  1  -0.00174691  0.50116993  0.49604940  1
  Fe  Fe10  1  0.12351273  0.87620913  0.62422673  1
  Fe  Fe11  1  -0.00163163  0.00214849  0.49988458  1
  Fe  Fe12  1  0.37719765  0.12125321  0.62799507  1
  Fe  Fe13  1  0.12875488  0.62753684  0.37158644  1
  Fe  Fe14  1  0.50370208  0.24992886  0.25042423  1
  Fe  Fe15  1  0.12654955  0.87230210  0.87855520  1
  Fe  Fe16  1  0.37214634  0.87098490  0.37405091  1
  Fe  Fe17  1  0.25266469  0.50209873  0.49828083  1
  Fe  Fe18  1  0.37477671  0.37307423  0.37519009  1
  Fe  Fe19  1  -0.00054511  0.74875068  0.49916281  1
  Fe  Fe20  1  0.12469525  0.12591355  0.37505432  1
  Fe  Fe21  1  0.87198080  0.37367144  0.87460740  1
  Fe  Fe22  1  0.50011752  0.49917855  0.75097509  1
  Fe  Fe23  1  -0.00341666  0.50411867  -0.00204542  1
  Fe  Fe24  1  0.75055337  0.00143338  -0.00022042  1
  Fe  Fe25  1  0.87566640  0.12372743  0.62887352  1
  Fe  Fe26  1  0.74907908  0.50231720  0.49874974  1
  Fe  Fe27  1  0.37713826  0.37581339  0.12394377  1
  Fe  Fe28  1  -0.00045146  -0.00198206  0.24964393  1
  Fe  Fe29  1  0.62467497  0.62476329  0.62447162  1
  Fe  Fe30  1  0.00117018  0.74849037  0.75191159  1
  Fe  Fe31  1  0.50136550  0.75065675  0.49660776  1
  Fe  Fe32  1  0.87288605  0.87511547  0.37677371  1
  Fe  Fe33  1  0.62695464  0.37542614  0.87567221  1
  Fe  Fe34  1  0.12323674  0.37515033  0.62188351  1
  Fe  Fe35  1  0.37342289  0.37473715  0.87680109  1
  Fe  Fe36  1  0.87482745  0.37578733  0.62397007  1
  Fe  Fe37  1  0.50011505  0.50178160  0.49355231  1
  Fe  Fe38  1  0.12145082  0.62353763  0.12929207  1
  Fe  Fe39  1  0.62956655  0.87923417  0.37777785  1
  Fe  Fe40  1  0.37699943  0.62608969  0.62350652  1
  Fe  Fe41  1  0.12498035  0.62408586  0.62525484  1
  Fe  Fe42  1  0.75056827  0.74683004  0.00262007  1
  Fe  Fe43  1  0.00158475  0.25076366  0.74919346  1
  Fe  Fe44  1  0.62419916  0.37618708  0.62301169  1
  Fe  Fe45  1  0.50209303  0.24629168  0.50009582  1
  Fe  Fe46  1  0.12491827  0.37343601  0.37639802  1
  Fe  Fe47  1  0.50131344  0.24885823  -0.00103336  1
  Fe  Fe48  1  0.24958837  0.25110173  0.74698325  1
  Fe  Fe49  1  0.00098450  -0.00029797  0.75265471  1
  Fe  Fe50  1  0.25148022  0.49872762  0.74793182  1
  Fe  Fe51  1  0.62222003  0.62350746  0.12886627  1
  Fe  Fe52  1  0.12672971  0.12601210  0.87611411  1
  Fe  Fe53  1  0.62457560  0.88225123  0.62181802  1
  Fe  Fe54  1  0.87402047  0.62603819  0.62697992  1
  Fe  Fe55  1  0.00182775  0.24953170  0.00215054  1
  Fe  Fe56  1  0.24884153  0.75037532  0.74877711  1
  Fe  Fe57  1  0.87437042  0.87306410  0.87594385  1
  Fe  Fe58  1  -0.00101156  0.50099118  0.75204243  1
  Fe  Fe59  1  0.00250349  0.25160965  0.24762198  1
  Fe  Fe60  1  0.87642099  0.87478392  0.12323548  1
  Fe  Fe61  1  0.74845619  0.75424644  0.74691595  1
  Fe  Fe62  1  0.37242583  0.87319837  0.87693543  1
  Fe  Fe63  1  0.24720237  0.25183735  0.24467457  1
  Fe  Fe64  1  0.87578379  0.37666098  0.12517970  1
  Fe  Fe65  1  0.37242834  0.12568655  0.87333417  1
  Fe  Fe66  1  0.50073703  0.00126651  -0.00455853  1
  Fe  Fe67  1  0.87221385  0.37156837  0.37521072  1
  Fe  Fe68  1  0.75093690  0.50238628  -0.00048971  1
  Fe  Fe69  1  0.50112044  0.25082279  0.74879792  1
  Fe  Fe70  1  0.37463628  0.12647294  0.37260849  1
  Fe  Fe71  1  0.37950664  0.62407149  0.13274636  1
  Fe  Fe72  1  0.37663583  0.12367919  0.12535130  1
  Fe  Fe73  1  0.62313873  0.87774968  0.12265897  1
  Fe  Fe74  1  0.49830983  0.74880045  0.00157098  1
  Fe  Fe75  1  0.25043270  0.24828186  0.50288043  1
  Fe  Fe76  1  0.62315252  0.37676722  0.12329623  1
  Fe  Fe77  1  0.87633429  0.12353086  0.12432018  1
  Fe  Fe78  1  0.62591784  0.62632139  0.87400916  1
  Fe  Fe79  1  0.12682364  0.37631255  0.87807835  1
  Fe  Fe80  1  -0.00162645  0.74463525  -0.00093998  1
  Fe  Fe81  1  0.74785896  0.24415885  0.50320810  1
  Fe  Fe82  1  0.74833197  0.49890408  0.25147531  1
  Fe  Fe83  1  0.87304718  0.12708402  0.87511643  1
  Fe  Fe84  1  0.37542749  0.87638313  0.62604115  1
  Fe  Fe85  1  0.24933911  -0.00191077  0.24892140  1
  Fe  Fe86  1  0.25107143  -0.00007378  0.50061986  1
  Fe  Fe87  1  0.87393298  0.12537545  0.37161811  1
  Fe  Fe88  1  0.37446462  0.62622206  0.87364221  1
  Fe  Fe89  1  0.12302254  0.87452547  0.12268180  1
  Co  Co90  1  0.12876955  0.62417817  0.87510023  1
  Co  Co91  1  -0.00048284  0.00107873  -0.00172468  1
  Co  Co92  1  0.62781440  0.37101294  0.37724861  1
  Co  Co93  1  0.50121429  0.49618407  0.25630344  1
  Co  Co94  1  0.49522891  -0.00057784  0.49548443  1
  Co  Co95  1  0.24924511  0.24920747  0.00380288  1
  Co  Co96  1  0.49964216  0.50160884  -0.00220943  1
  Co  Co97  1  0.75094496  -0.00045466  0.24695331  1
  Co  Co98  1  0.50105244  -0.00337874  0.75624417  1
  Co  Co99  1  0.75527939  0.00391176  0.50251321  1
  Co  Co100  1  0.74859778  0.49863601  0.74967787  1
  Co  Co101  1  0.75068316  -0.00327978  0.75096531  1
  Co  Co102  1  0.74923196  0.24969999  0.00350322  1
  Co  Co103  1  0.87831297  0.87443692  0.62526878  1
  Co  Co104  1  0.62099375  0.11832642  0.62638186  1
  Co  Co105  1  0.87554972  0.62435408  0.13054132  1
  Co  Co106  1  -0.00248742  0.24825710  0.50020982  1
  Co  Co107  1  0.37422076  0.62907645  0.37160271  1
  Co  Co108  1  0.62725536  0.87253072  0.87931781  1
  Co  Co109  1  0.37809462  0.87879020  0.12306828  1
  Co  Co110  1  0.12254924  0.38035202  0.12203088  1
  Co  Co111  1  0.87005095  0.62702456  0.87062368  1
  Co  Co112  1  0.62208777  0.12146945  0.12440212  1
  Co  Co113  1  0.25187450  0.74642878  0.00580260  1
  Co  Co114  1  0.62588426  0.12163037  0.37528183  1
  Co  Co115  1  -0.00075333  0.75277778  0.25157913  1
  Co  Co116  1  0.37757791  0.37559576  0.62246297  1
  Co  Co117  1  -0.00082019  0.49785653  0.25508941  1
  Co  Co118  1  0.25093247  0.49765522  0.25041203  1
  Co  Co119  1  0.12511662  0.12426148  0.62369992  1
  Co  Co120  1  0.74973738  0.75050884  0.50235967  1
  Co  Co121  1  0.25011917  0.74993785  0.50252451  1
  Co  Co122  1  0.74835429  0.25108766  0.74587229  1
  Co  Co123  1  0.25038551  0.75306470  0.24452844  1
  Co  Co124  1  0.24807381  -0.00162042  0.75061572  1
  Co  Co125  1  0.62601962  0.62780138  0.37238401  1
  Co  Co126  1  0.12415062  0.12161175  0.12545197  1
  Co  Co127  1  0.50248921  0.75578906  0.25227244  1
