# generated using pymatgen
data_Fe45Co19
_symmetry_space_group_name_H-M   'P 1'
_cell_length_a   11.41436946
_cell_length_b   11.41547435
_cell_length_c   11.41543430
_cell_angle_alpha   90.00348161
_cell_angle_beta   89.99373255
_cell_angle_gamma   89.99147971
_symmetry_Int_Tables_number   1
_chemical_formula_structural   Fe45Co19
_chemical_formula_sum   'Fe90 Co38'
_cell_volume   1487.43610446
_cell_formula_units_Z   2
loop_
 _symmetry_equiv_pos_site_id
 _symmetry_equiv_pos_as_xyz
  1  'x, y, z'
loop_
 _atom_site_type_symbol
 _atom_site_label
 _atom_site_symmetry_multiplicity
 _atom_site_fract_x
 _atom_site_fract_y
 _atom_site_fract_z
 _atom_site_occupancy
  Fe  Fe0  1  0.12564889  0.12360854  0.62504528  1
  Fe  Fe1  1  0.62267622  0.12654699  0.37391753  1
  Fe  Fe2  1  -0.00042317  0.74941859  0.25092966  1
  Fe  Fe3  1  -0.00023857  -0.00106804  -0.00194300  1
  Fe  Fe4  1  0.25187519  -0.00288691  0.25115409  1
  Fe  Fe5  1  0.87479464  0.12471643  0.12549490  1
  Fe  Fe6  1  0.37553799  0.62684972  0.37263490  1
  Fe  Fe7  1  0.62257075  0.62706148  0.12225455  1
  Fe  Fe8  1  0.37795580  0.12693676  0.37291930  1
  Fe  Fe9  1  0.75044659  0.00133582  0.50108005  1
  Fe  Fe10  1  0.62369929  0.12433545  0.12471452  1
  Fe  Fe11  1  0.12347012  0.62344952  0.62527842  1
  Fe  Fe12  1  0.62854929  0.62881008  0.87392127  1
  Fe  Fe13  1  0.00049040  0.49849561  0.25229980  1
  Fe  Fe14  1  0.74958843  0.74961585  0.24768818  1
  Fe  Fe15  1  0.62164228  0.87381346  0.12217425  1
  Fe  Fe16  1  0.62254245  0.37518643  0.37728476  1
  Fe  Fe17  1  0.74870138  -0.00525073  0.74973384  1
  Fe  Fe18  1  0.37531224  0.37452123  0.87535911  1
  Fe  Fe19  1  0.12518244  0.87477021  0.37661560  1
  Fe  Fe20  1  0.25031285  0.50130573  0.75082265  1
  Fe  Fe21  1  0.62594025  0.12304405  0.87544862  1
  Fe  Fe22  1  0.50124717  -0.00314928  0.75002734  1
  Fe  Fe23  1  0.87626348  0.37691852  0.62452169  1
  Fe  Fe24  1  0.75189279  0.74889776  0.50316515  1
  Fe  Fe25  1  0.74972673  0.24819376  0.50161814  1
  Fe  Fe26  1  0.24844670  -0.00176674  0.74946423  1
  Fe  Fe27  1  0.12701014  0.12523911  0.87590400  1
  Fe  Fe28  1  -0.00126031  0.50267981  -0.00187428  1
  Fe  Fe29  1  0.87492742  0.12513166  0.37283816  1
  Fe  Fe30  1  0.87583377  0.87401790  0.12383420  1
  Fe  Fe31  1  0.12540618  0.12556009  0.12553769  1
  Fe  Fe32  1  0.75173663  0.50273953  0.50247009  1
  Fe  Fe33  1  0.50204078  0.75445191  0.75066369  1
  Fe  Fe34  1  0.00052854  0.75029960  0.75127435  1
  Fe  Fe35  1  0.86983237  0.62670805  0.87242371  1
  Fe  Fe36  1  -0.00008342  0.24958604  0.75081629  1
  Fe  Fe37  1  0.74941098  0.50180130  0.24852255  1
  Fe  Fe38  1  -0.00068529  0.74819885  -0.00154469  1
  Fe  Fe39  1  0.62215184  0.37554379  0.62385953  1
  Fe  Fe40  1  0.62546224  0.37508398  0.12088225  1
  Fe  Fe41  1  0.87399928  0.12132760  0.87318435  1
  Fe  Fe42  1  0.50042442  0.24925979  0.74882955  1
  Fe  Fe43  1  0.49704467  -0.00417544  -0.00159062  1
  Fe  Fe44  1  0.37680516  0.37592193  0.62455678  1
  Fe  Fe45  1  0.12567485  0.37515208  0.12406825  1
  Fe  Fe46  1  0.49940813  0.00261781  0.50142971  1
  Fe  Fe47  1  0.49944083  0.24937666  -0.00060319  1
  Fe  Fe48  1  -0.00108680  0.00198591  0.50032692  1
  Fe  Fe49  1  -0.00068623  -0.00019987  0.25008250  1
  Fe  Fe50  1  0.37519945  0.37762972  0.12323698  1
  Fe  Fe51  1  0.37615633  0.12400381  0.12678251  1
  Fe  Fe52  1  0.87350368  0.37636370  0.12338115  1
  Fe  Fe53  1  0.12611315  0.87505638  0.62204604  1
  Fe  Fe54  1  -0.00198520  0.74655482  0.49958277  1
  Fe  Fe55  1  0.37698175  0.87171686  0.37496912  1
  Fe  Fe56  1  0.87599003  0.37609023  0.37570879  1
  Fe  Fe57  1  0.50052132  0.50297529  -0.00298475  1
  Fe  Fe58  1  0.12409424  0.37739531  0.62357798  1
  Fe  Fe59  1  0.25084974  0.50117737  0.49901341  1
  Fe  Fe60  1  0.37351760  0.87455309  0.62341557  1
  Fe  Fe61  1  -0.00130672  0.24932817  -0.00050159  1
  Fe  Fe62  1  0.74804390  -0.00176907  0.24866085  1
  Fe  Fe63  1  0.87069085  0.37698801  0.87677148  1
  Fe  Fe64  1  0.12752266  0.87187996  0.87547960  1
  Fe  Fe65  1  0.37616728  0.62669054  0.62604458  1
  Fe  Fe66  1  0.50016550  0.50099459  0.24980844  1
  Fe  Fe67  1  0.25267133  -0.00347083  0.00133208  1
  Fe  Fe68  1  0.62535889  0.62642398  0.62639054  1
  Fe  Fe69  1  0.87402631  0.87417822  0.37456515  1
  Fe  Fe70  1  0.12429360  0.12610990  0.37309592  1
  Fe  Fe71  1  0.25052056  0.25257784  0.24855132  1
  Fe  Fe72  1  -0.00088744  0.24868931  0.50095714  1
  Fe  Fe73  1  0.62547430  0.62621940  0.37642743  1
  Fe  Fe74  1  0.37204604  0.63020405  0.87464050  1
  Fe  Fe75  1  0.25178468  0.24869867  0.50127087  1
  Fe  Fe76  1  0.50173844  0.50020309  0.75196753  1
  Fe  Fe77  1  -0.00076925  0.50074655  0.75190192  1
  Fe  Fe78  1  0.37787900  0.37438239  0.37655351  1
  Fe  Fe79  1  0.62373121  0.87343540  0.37702303  1
  Fe  Fe80  1  0.12552606  0.87421168  0.12597671  1
  Fe  Fe81  1  0.37344574  0.12431117  0.87369769  1
  Fe  Fe82  1  0.12574633  0.62429168  0.37397431  1
  Fe  Fe83  1  0.87729167  0.87590837  0.62610353  1
  Fe  Fe84  1  0.12691320  0.62482183  0.12580100  1
  Fe  Fe85  1  0.24979488  0.25085842  0.74992112  1
  Fe  Fe86  1  0.25039296  0.50259131  -0.00126074  1
  Fe  Fe87  1  0.12618480  0.37544795  0.87627489  1
  Fe  Fe88  1  0.74887382  0.25089835  0.24909138  1
  Fe  Fe89  1  0.74873343  0.25166520  0.75024558  1
  Co  Co90  1  0.37778027  0.87109455  0.12807144  1
  Co  Co91  1  0.87496829  0.62456579  0.62945129  1
  Co  Co92  1  0.12728103  0.62621965  0.87514325  1
  Co  Co93  1  0.12494037  0.37317008  0.37738146  1
  Co  Co94  1  0.37435195  0.62599776  0.12522904  1
  Co  Co95  1  0.87408545  0.12312063  0.62882948  1
  Co  Co96  1  0.25101075  0.49836586  0.25155280  1
  Co  Co97  1  0.74733235  0.49770730  0.74847937  1
  Co  Co98  1  0.75079875  -0.00057377  0.00233962  1
  Co  Co99  1  0.25107339  0.75171542  0.00313046  1
  Co  Co100  1  0.25001604  0.74754564  0.49963670  1
  Co  Co101  1  0.62503061  0.37436982  0.87702022  1
  Co  Co102  1  0.62772184  0.87377008  0.87957325  1
  Co  Co103  1  0.74861809  0.50325934  0.00033759  1
  Co  Co104  1  0.87396591  0.87474553  0.87575201  1
  Co  Co105  1  0.37375573  0.12264474  0.62816285  1
  Co  Co106  1  0.24816473  0.74933372  0.74629724  1
  Co  Co107  1  0.25124528  0.24993954  0.00097807  1
  Co  Co108  1  0.50208207  0.74821421  0.25055072  1
  Co  Co109  1  0.37162311  0.87276748  0.87189551  1
  Co  Co110  1  -0.00055517  0.25169003  0.24847303  1
  Co  Co111  1  0.24940285  0.75154871  0.25021866  1
  Co  Co112  1  0.74881934  0.75568158  0.74714147  1
  Co  Co113  1  0.75182124  0.74969122  0.00276192  1
  Co  Co114  1  0.00348414  -0.00180290  0.75130057  1
  Co  Co115  1  -0.00088791  0.50276104  0.49827018  1
  Co  Co116  1  0.49973343  0.50330159  0.49998090  1
  Co  Co117  1  0.62653620  0.12371814  0.62721928  1
  Co  Co118  1  0.50087018  0.25351376  0.24728820  1
  Co  Co119  1  0.75044678  0.24784270  -0.00066325  1
  Co  Co120  1  0.62364159  0.87615174  0.62107307  1
  Co  Co121  1  0.25174410  0.00065292  0.49686067  1
  Co  Co122  1  0.49988176  0.74880464  0.50104811  1
  Co  Co123  1  0.49998043  0.24673395  0.50370687  1
  Co  Co124  1  0.50103907  -0.00240199  0.25110201  1
  Co  Co125  1  0.87353042  0.62522030  0.37252073  1
  Co  Co126  1  0.49733115  0.75140815  -0.00342480  1
  Co  Co127  1  0.87714944  0.62445999  0.12629803  1
