# generated using pymatgen
data_Fe45Co19
_symmetry_space_group_name_H-M   'P 1'
_cell_length_a   11.41520806
_cell_length_b   11.41596248
_cell_length_c   11.41560966
_cell_angle_alpha   90.00162044
_cell_angle_beta   90.00210045
_cell_angle_gamma   89.99657725
_symmetry_Int_Tables_number   1
_chemical_formula_structural   Fe45Co19
_chemical_formula_sum   'Fe90 Co38'
_cell_volume   1487.63186773
_cell_formula_units_Z   2
loop_
 _symmetry_equiv_pos_site_id
 _symmetry_equiv_pos_as_xyz
  1  'x, y, z'
loop_
 _atom_site_type_symbol
 _atom_site_label
 _atom_site_symmetry_multiplicity
 _atom_site_fract_x
 _atom_site_fract_y
 _atom_site_fract_z
 _atom_site_occupancy
  Fe  Fe0  1  0.37504209  0.87664216  0.62542604  1
  Fe  Fe1  1  -0.00269999  0.25202291  0.25112553  1
  Fe  Fe2  1  0.49954592  -0.00049332  -0.00186518  1
  Fe  Fe3  1  0.87701487  0.12558153  0.37640416  1
  Fe  Fe4  1  0.24729035  0.00112040  0.50031344  1
  Fe  Fe5  1  0.12499752  0.37704292  0.12742209  1
  Fe  Fe6  1  0.37475106  0.62633187  0.62291072  1
  Fe  Fe7  1  0.75156953  0.50143520  0.00052031  1
  Fe  Fe8  1  0.75137279  0.50198304  0.50091396  1
  Fe  Fe9  1  0.37397769  0.87301488  0.12456681  1
  Fe  Fe10  1  0.24530028  0.24868305  0.50345976  1
  Fe  Fe11  1  0.49739947  0.49861836  0.24924609  1
  Fe  Fe12  1  0.62589850  0.62446188  0.62633046  1
  Fe  Fe13  1  0.12285510  0.62541126  0.87493698  1
  Fe  Fe14  1  0.75034291  0.24834840  0.24913473  1
  Fe  Fe15  1  0.37345186  0.37360220  0.62498952  1
  Fe  Fe16  1  0.87571112  0.12347390  0.12143883  1
  Fe  Fe17  1  0.62804462  0.87587757  0.62510358  1
  Fe  Fe18  1  0.62630078  0.37620528  0.87269263  1
  Fe  Fe19  1  0.37406045  0.62565415  0.12447297  1
  Fe  Fe20  1  0.50260658  0.74846867  0.25206746  1
  Fe  Fe21  1  0.74973264  0.74773418  0.00028046  1
  Fe  Fe22  1  0.00239190  0.75369184  0.49985845  1
  Fe  Fe23  1  0.62626967  0.87624330  0.87413758  1
  Fe  Fe24  1  0.24902953  0.24756385  0.74711700  1
  Fe  Fe25  1  0.75228405  0.50174074  0.25079576  1
  Fe  Fe26  1  0.87607810  0.62658817  0.62290607  1
  Fe  Fe27  1  0.50019070  0.49966312  -0.00023237  1
  Fe  Fe28  1  0.24770704  0.75023128  0.49814815  1
  Fe  Fe29  1  0.49933676  0.75107590  0.75035333  1
  Fe  Fe30  1  0.25082611  0.50158117  0.74923053  1
  Fe  Fe31  1  0.74890116  0.74706110  0.25256005  1
  Fe  Fe32  1  0.25174869  0.00239313  0.74898695  1
  Fe  Fe33  1  0.24987253  0.00089947  0.00012447  1
  Fe  Fe34  1  0.37228112  0.37429110  0.37468661  1
  Fe  Fe35  1  -0.00042989  0.49713358  0.25343923  1
  Fe  Fe36  1  0.25168248  0.74905435  0.75084186  1
  Fe  Fe37  1  0.87824632  0.62308087  0.12452694  1
  Fe  Fe38  1  0.75398232  0.24846516  0.75047470  1
  Fe  Fe39  1  0.00105605  0.75071564  0.00071895  1
  Fe  Fe40  1  0.62760477  0.37447032  0.37534768  1
  Fe  Fe41  1  0.24748996  0.74555888  0.25217051  1
  Fe  Fe42  1  0.37486254  0.62573561  0.87652137  1
  Fe  Fe43  1  0.12770992  0.87475912  0.12626090  1
  Fe  Fe44  1  0.25237432  0.00165992  0.25015676  1
  Fe  Fe45  1  0.62275520  0.12511416  0.62592566  1
  Fe  Fe46  1  0.62734024  0.62302377  0.87272263  1
  Fe  Fe47  1  0.74937185  0.24812207  0.00015523  1
  Fe  Fe48  1  0.25212535  0.25022177  0.24788291  1
  Fe  Fe49  1  0.00013348  0.25212773  -0.00006791  1
  Fe  Fe50  1  0.62572601  0.37459584  0.62700157  1
  Fe  Fe51  1  0.74890725  0.00127580  0.25076202  1
  Fe  Fe52  1  0.74904233  0.00259509  0.49892733  1
  Fe  Fe53  1  0.24799621  0.50052703  0.49831943  1
  Fe  Fe54  1  0.75395770  0.75017633  0.75078986  1
  Fe  Fe55  1  -0.00213704  0.49893615  0.75089730  1
  Fe  Fe56  1  -0.00363237  0.75470510  0.74997043  1
  Fe  Fe57  1  0.62066737  0.12501375  0.12828103  1
  Fe  Fe58  1  0.62506610  0.37562083  0.12453231  1
  Fe  Fe59  1  0.88194954  0.12600709  0.62549574  1
  Fe  Fe60  1  0.50225849  0.00012035  0.49782968  1
  Fe  Fe61  1  0.37505716  0.87396114  0.37431804  1
  Fe  Fe62  1  0.00280662  -0.00346833  0.50157102  1
  Fe  Fe63  1  0.62403991  0.12468834  0.87298048  1
  Fe  Fe64  1  0.74990196  0.24801128  0.50045740  1
  Fe  Fe65  1  0.00035686  0.75173176  0.25074463  1
  Fe  Fe66  1  0.87245582  0.87736702  0.12190289  1
  Fe  Fe67  1  -0.00084366  -0.00168570  0.24893154  1
  Fe  Fe68  1  0.12330978  0.12548873  0.37368099  1
  Fe  Fe69  1  0.24830933  0.24880695  0.00027110  1
  Fe  Fe70  1  0.50358096  0.75017100  0.49870908  1
  Fe  Fe71  1  0.87685504  0.37310995  0.62401691  1
  Fe  Fe72  1  0.37426563  0.37293950  0.87684858  1
  Fe  Fe73  1  0.37830753  0.12801542  0.37656644  1
  Fe  Fe74  1  0.87323267  0.37588566  0.87667647  1
  Fe  Fe75  1  0.12418570  0.62502776  0.62470741  1
  Fe  Fe76  1  0.24786226  0.50213312  0.00188163  1
  Fe  Fe77  1  0.49819738  0.50026644  0.74933393  1
  Fe  Fe78  1  0.62464055  0.87560462  0.12654064  1
  Fe  Fe79  1  0.75541853  0.00024195  0.75162614  1
  Fe  Fe80  1  0.12305373  0.12555591  0.12675979  1
  Fe  Fe81  1  0.50063686  0.75007874  -0.00144672  1
  Fe  Fe82  1  0.37897541  0.12758475  0.12325004  1
  Fe  Fe83  1  0.12624730  0.87545902  0.87431131  1
  Fe  Fe84  1  0.12025154  0.12354885  0.87147615  1
  Fe  Fe85  1  0.12614998  0.37599573  0.87360403  1
  Fe  Fe86  1  0.00134006  0.49523181  0.49635958  1
  Fe  Fe87  1  0.49726203  0.24849699  0.74920895  1
  Fe  Fe88  1  0.49929916  0.49865531  0.50077334  1
  Fe  Fe89  1  0.87213222  0.87429896  0.37703138  1
  Co  Co90  1  -0.00135335  0.25406515  0.75253124  1
  Co  Co91  1  0.12627262  0.87665014  0.37211641  1
  Co  Co92  1  0.62368340  0.62075792  0.37525473  1
  Co  Co93  1  0.75381483  0.50008491  0.74734117  1
  Co  Co94  1  0.37364868  0.87551787  0.87507529  1
  Co  Co95  1  0.25066314  0.50285137  0.24961009  1
  Co  Co96  1  0.87515967  0.62467839  0.87638337  1
  Co  Co97  1  0.62464473  0.62357538  0.12496941  1
  Co  Co98  1  0.62289437  0.12714449  0.37301734  1
  Co  Co99  1  0.50161792  0.25241352  0.50065788  1
  Co  Co100  1  0.49934680  0.25475433  0.25082232  1
  Co  Co101  1  -0.00412781  -0.00676851  0.74886084  1
  Co  Co102  1  0.49789882  -0.00122707  0.25175239  1
  Co  Co103  1  0.87061278  0.37254337  0.37563655  1
  Co  Co104  1  0.49915567  -0.00013414  0.75051074  1
  Co  Co105  1  0.12221715  0.62481149  0.37586959  1
  Co  Co106  1  0.12908417  0.87487429  0.62805827  1
  Co  Co107  1  0.50289293  0.25037043  -0.00163603  1
  Co  Co108  1  0.37688384  0.12372186  0.62231998  1
  Co  Co109  1  0.87423759  0.37553250  0.12408043  1
  Co  Co110  1  0.87770944  0.62611056  0.37615431  1
  Co  Co111  1  0.87911382  0.12260112  0.87798052  1
  Co  Co112  1  0.74699487  0.74603771  0.49751775  1
  Co  Co113  1  0.37643404  0.62546596  0.37588961  1
  Co  Co114  1  0.74518908  0.00325131  0.00092503  1
  Co  Co115  1  0.00326695  0.25325820  0.49781213  1
  Co  Co116  1  0.87040958  0.87434402  0.62026418  1
  Co  Co117  1  0.62748113  0.87598165  0.37429286  1
  Co  Co118  1  0.12457270  0.37664615  0.62695901  1
  Co  Co119  1  0.12178861  0.62323611  0.12628069  1
  Co  Co120  1  0.11865581  0.12421377  0.62780993  1
  Co  Co121  1  0.12897871  0.37237407  0.37136153  1
  Co  Co122  1  0.00458883  -0.00147726  0.00255323  1
  Co  Co123  1  0.87346462  0.87802555  0.88186093  1
  Co  Co124  1  0.24781190  0.74858675  -0.00065034  1
  Co  Co125  1  0.37486748  0.12637651  0.87631451  1
  Co  Co126  1  0.37413275  0.37439940  0.12161820  1
  Co  Co127  1  0.00041347  0.49808703  -0.00171730  1
