# generated using pymatgen
data_Fe45Co19
_symmetry_space_group_name_H-M   'P 1'
_cell_length_a   11.41596618
_cell_length_b   11.41631138
_cell_length_c   11.41476611
_cell_angle_alpha   89.99703144
_cell_angle_beta   89.99595172
_cell_angle_gamma   89.99707607
_symmetry_Int_Tables_number   1
_chemical_formula_structural   Fe45Co19
_chemical_formula_sum   'Fe90 Co38'
_cell_volume   1487.66619500
_cell_formula_units_Z   2
loop_
 _symmetry_equiv_pos_site_id
 _symmetry_equiv_pos_as_xyz
  1  'x, y, z'
loop_
 _atom_site_type_symbol
 _atom_site_label
 _atom_site_symmetry_multiplicity
 _atom_site_fract_x
 _atom_site_fract_y
 _atom_site_fract_z
 _atom_site_occupancy
  Fe  Fe0  1  0.37463367  0.37570978  0.87334233  1
  Fe  Fe1  1  0.24659755  0.50019958  0.74864022  1
  Fe  Fe2  1  0.24935011  0.49995170  0.24956139  1
  Fe  Fe3  1  -0.00274171  0.74930423  0.24963968  1
  Fe  Fe4  1  0.62371456  0.37336106  0.62604516  1
  Fe  Fe5  1  0.50244612  0.75322855  0.49975232  1
  Fe  Fe6  1  0.37570244  0.37534238  0.37435149  1
  Fe  Fe7  1  0.87438569  0.62268753  0.12268066  1
  Fe  Fe8  1  0.62508370  0.37125715  0.87546518  1
  Fe  Fe9  1  0.62142480  0.87555025  0.12557421  1
  Fe  Fe10  1  0.00117536  0.00029954  0.75472279  1
  Fe  Fe11  1  0.74856470  0.49867324  0.50148884  1
  Fe  Fe12  1  0.49969693  0.74745043  0.75206885  1
  Fe  Fe13  1  0.62379519  0.62268630  0.12450089  1
  Fe  Fe14  1  0.25087350  -0.00094343  0.25019956  1
  Fe  Fe15  1  0.87159068  0.87589784  0.37438862  1
  Fe  Fe16  1  0.12438923  0.12900229  0.37506861  1
  Fe  Fe17  1  0.38073344  0.37830807  0.12556443  1
  Fe  Fe18  1  0.87233666  0.12295892  0.87954936  1
  Fe  Fe19  1  0.62751782  0.12463904  0.37595367  1
  Fe  Fe20  1  0.37661507  0.62331876  0.62397819  1
  Fe  Fe21  1  0.63003595  0.62504505  0.87550337  1
  Fe  Fe22  1  0.12331436  0.87304960  0.37508143  1
  Fe  Fe23  1  0.87626992  0.87883286  0.12270892  1
  Fe  Fe24  1  0.62456757  0.87331170  0.87344061  1
  Fe  Fe25  1  0.37871538  0.87755047  0.12089996  1
  Fe  Fe26  1  -0.00082080  0.50046304  -0.00412045  1
  Fe  Fe27  1  0.62512645  0.12636895  0.11979456  1
  Fe  Fe28  1  0.74884910  0.75340742  0.50282913  1
  Fe  Fe29  1  0.25269721  0.25210460  0.00120184  1
  Fe  Fe30  1  0.50495629  -0.00206837  0.49975964  1
  Fe  Fe31  1  -0.00203549  0.75067318  -0.00361402  1
  Fe  Fe32  1  0.24917016  0.00026808  0.75103019  1
  Fe  Fe33  1  0.37710339  0.62247144  0.12160341  1
  Fe  Fe34  1  0.24766572  0.49841696  0.50278709  1
  Fe  Fe35  1  0.37106784  0.62516329  0.87900605  1
  Fe  Fe36  1  0.24999645  0.75192905  0.50146698  1
  Fe  Fe37  1  0.87732447  0.37526131  0.62802655  1
  Fe  Fe38  1  0.12416453  0.12343989  0.12306351  1
  Fe  Fe39  1  0.12542971  0.62826509  0.37623384  1
  Fe  Fe40  1  0.74768681  0.00170189  0.75033216  1
  Fe  Fe41  1  0.75047153  0.74906074  0.74808308  1
  Fe  Fe42  1  -0.00089757  0.24723735  0.75047700  1
  Fe  Fe43  1  0.50065143  0.00204190  0.75186961  1
  Fe  Fe44  1  0.37722363  0.12238377  0.12317602  1
  Fe  Fe45  1  0.12339682  0.87621993  0.12355820  1
  Fe  Fe46  1  0.50076533  0.24839902  0.24965720  1
  Fe  Fe47  1  0.87339167  0.62418244  0.62581664  1
  Fe  Fe48  1  0.25211915  0.25213852  0.50589667  1
  Fe  Fe49  1  0.25187057  0.75191155  0.24790622  1
  Fe  Fe50  1  0.12140345  0.87373831  0.62446230  1
  Fe  Fe51  1  0.12774243  0.87326122  0.87721484  1
  Fe  Fe52  1  0.37491106  0.12260695  0.37629702  1
  Fe  Fe53  1  0.49871994  0.75073858  0.25090420  1
  Fe  Fe54  1  0.75000080  0.49389827  -0.00121169  1
  Fe  Fe55  1  0.50326129  0.50193150  0.75165648  1
  Fe  Fe56  1  0.75249040  0.25045656  0.24332817  1
  Fe  Fe57  1  0.62628012  0.37147823  0.37399066  1
  Fe  Fe58  1  0.24996195  0.74965940  0.74927320  1
  Fe  Fe59  1  0.00095873  0.50014840  0.50065959  1
  Fe  Fe60  1  0.25135616  0.25054319  0.24800454  1
  Fe  Fe61  1  0.75032941  0.75299537  0.00160613  1
  Fe  Fe62  1  0.12572641  0.62546581  0.12159774  1
  Fe  Fe63  1  -0.00535851  0.25003665  0.00255075  1
  Fe  Fe64  1  0.62700894  0.62884046  0.37390120  1
  Fe  Fe65  1  0.00101678  0.50412062  0.75213447  1
  Fe  Fe66  1  0.12740861  0.12708401  0.87776254  1
  Fe  Fe67  1  0.37689019  0.87688037  0.62669558  1
  Fe  Fe68  1  0.12485745  0.12625787  0.62519331  1
  Fe  Fe69  1  0.12523222  0.37301092  0.87414371  1
  Fe  Fe70  1  0.37297918  0.12380488  0.87636143  1
  Fe  Fe71  1  0.87267498  0.62675739  0.37509752  1
  Fe  Fe72  1  0.74802923  0.49903504  0.25034746  1
  Fe  Fe73  1  0.87689325  0.37168782  0.37255335  1
  Fe  Fe74  1  0.87534357  0.87797554  0.62750137  1
  Fe  Fe75  1  -0.00058361  0.74743678  0.75326296  1
  Fe  Fe76  1  0.00132372  0.50177389  0.25229346  1
  Fe  Fe77  1  0.24832731  -0.00134877  0.50003754  1
  Fe  Fe78  1  0.50295915  0.49967459  0.49805092  1
  Fe  Fe79  1  0.75192222  0.24970269  0.74947335  1
  Fe  Fe80  1  0.12256353  0.37080324  0.37538957  1
  Fe  Fe81  1  0.12256757  0.37563955  0.12496843  1
  Fe  Fe82  1  0.62704994  0.12909211  0.87846741  1
  Fe  Fe83  1  0.37404649  0.62534860  0.37567245  1
  Fe  Fe84  1  -0.00394182  0.00357872  0.49859147  1
  Fe  Fe85  1  0.49779004  0.24903007  0.50259788  1
  Fe  Fe86  1  0.74863788  0.00062810  0.24831184  1
  Fe  Fe87  1  -0.00025469  0.00271230  0.25160196  1
  Fe  Fe88  1  0.49612503  0.24749672  0.74771729  1
  Fe  Fe89  1  0.75449888  0.24619179  0.50360494  1
  Co  Co90  1  0.50256031  0.00024236  -0.00445534  1
  Co  Co91  1  0.75498988  0.25528744  0.00323565  1
  Co  Co92  1  0.62471528  0.62501185  0.62468046  1
  Co  Co93  1  0.74776584  0.49766889  0.74888958  1
  Co  Co94  1  0.25024173  0.49584312  0.00094862  1
  Co  Co95  1  0.37472440  0.87505045  0.87497883  1
  Co  Co96  1  0.12894562  0.62612627  0.87841277  1
  Co  Co97  1  -0.00139961  0.24696535  0.24545657  1
  Co  Co98  1  0.87657862  0.37537321  0.87123091  1
  Co  Co99  1  0.12164737  0.37283910  0.62813026  1
  Co  Co100  1  0.74590310  -0.00353442  -0.00148036  1
  Co  Co101  1  0.87406933  0.11907462  0.12098885  1
  Co  Co102  1  0.37519634  0.11971480  0.62362481  1
  Co  Co103  1  0.50108167  0.00135613  0.25073670  1
  Co  Co104  1  0.00145230  -0.00140954  -0.00441658  1
  Co  Co105  1  -0.00373315  0.24696036  0.50258434  1
  Co  Co106  1  0.87556012  0.12180510  0.63030674  1
  Co  Co107  1  0.75178104  0.75015410  0.24531947  1
  Co  Co108  1  0.25087603  0.75324402  0.00215303  1
  Co  Co109  1  0.62418036  0.87566768  0.62922019  1
  Co  Co110  1  0.87253629  0.12692719  0.37098106  1
  Co  Co111  1  0.75018033  0.00105735  0.50220881  1
  Co  Co112  1  0.62813779  0.87465556  0.37186445  1
  Co  Co113  1  0.86963110  0.62460195  0.87557389  1
  Co  Co114  1  0.50183768  0.74915430  -0.00246704  1
  Co  Co115  1  0.37799759  0.37968516  0.62688744  1
  Co  Co116  1  0.62471262  0.12629864  0.62516423  1
  Co  Co117  1  0.12396028  0.62743154  0.62369795  1
  Co  Co118  1  0.87789592  0.37995840  0.12817477  1
  Co  Co119  1  0.37552357  0.87707120  0.37571511  1
  Co  Co120  1  -0.00407210  0.75017156  0.49977144  1
  Co  Co121  1  0.25036334  -0.00047749  -0.00025470  1
  Co  Co122  1  0.49704705  0.25047057  -0.00068203  1
  Co  Co123  1  0.62066204  0.37552668  0.12480397  1
  Co  Co124  1  0.50205896  0.50110527  0.25409583  1
  Co  Co125  1  0.50222411  0.50022534  -0.00496421  1
  Co  Co126  1  0.25283535  0.24903796  0.74748106  1
  Co  Co127  1  0.87201879  0.87537024  0.87332329  1
