# generated using pymatgen
data_Fe45Co19
_symmetry_space_group_name_H-M   'P 1'
_cell_length_a   11.41482935
_cell_length_b   11.41504803
_cell_length_c   11.41646459
_cell_angle_alpha   90.00440310
_cell_angle_beta   90.00411938
_cell_angle_gamma   89.98399120
_symmetry_Int_Tables_number   1
_chemical_formula_structural   Fe45Co19
_chemical_formula_sum   'Fe90 Co38'
_cell_volume   1487.57469162
_cell_formula_units_Z   2
loop_
 _symmetry_equiv_pos_site_id
 _symmetry_equiv_pos_as_xyz
  1  'x, y, z'
loop_
 _atom_site_type_symbol
 _atom_site_label
 _atom_site_symmetry_multiplicity
 _atom_site_fract_x
 _atom_site_fract_y
 _atom_site_fract_z
 _atom_site_occupancy
  Fe  Fe0  1  0.37203729  0.62690961  0.87692536  1
  Fe  Fe1  1  0.37205488  0.87025834  0.12894062  1
  Fe  Fe2  1  0.37285655  0.37634561  0.87633336  1
  Fe  Fe3  1  0.12655645  0.87251369  0.13015907  1
  Fe  Fe4  1  0.24990099  0.50506175  0.74636049  1
  Fe  Fe5  1  0.87476075  0.87398812  0.37385940  1
  Fe  Fe6  1  0.62321118  0.62787125  0.12382850  1
  Fe  Fe7  1  0.24973613  -0.00224679  0.49856302  1
  Fe  Fe8  1  -0.00335183  0.49886074  0.49678950  1
  Fe  Fe9  1  0.37258782  0.12585420  0.12140205  1
  Fe  Fe10  1  0.37517274  0.87396256  0.62490379  1
  Fe  Fe11  1  0.00096963  -0.00095130  -0.00032520  1
  Fe  Fe12  1  0.12555088  0.37770345  0.87520772  1
  Fe  Fe13  1  0.12474365  0.87458387  0.62620213  1
  Fe  Fe14  1  0.62655508  0.87448135  0.87423988  1
  Fe  Fe15  1  0.62701919  0.37484282  0.87409258  1
  Fe  Fe16  1  0.75430554  0.00039410  0.24665753  1
  Fe  Fe17  1  0.75212038  -0.00196656  0.00152680  1
  Fe  Fe18  1  0.37418117  0.12461409  0.37598368  1
  Fe  Fe19  1  0.00083043  0.00159214  0.75170997  1
  Fe  Fe20  1  0.49737027  -0.00238788  -0.00159842  1
  Fe  Fe21  1  0.62126025  0.62151357  0.62290867  1
  Fe  Fe22  1  0.24768697  0.24927786  0.24711324  1
  Fe  Fe23  1  0.50072557  0.24968109  -0.00190975  1
  Fe  Fe24  1  0.87496720  0.87345745  0.62779453  1
  Fe  Fe25  1  0.49775654  0.24642659  0.75312341  1
  Fe  Fe26  1  0.87195000  0.37667558  0.36808366  1
  Fe  Fe27  1  0.12507291  0.12499498  0.62352088  1
  Fe  Fe28  1  0.13183662  0.12418170  0.87759059  1
  Fe  Fe29  1  0.75318630  0.49768065  0.00452188  1
  Fe  Fe30  1  0.49663723  -0.00083079  0.24977415  1
  Fe  Fe31  1  0.49992840  0.24866785  0.25020072  1
  Fe  Fe32  1  0.87503860  0.87224000  0.87411323  1
  Fe  Fe33  1  0.24604971  0.50212764  0.00297676  1
  Fe  Fe34  1  0.37804518  0.37827013  0.62593102  1
  Fe  Fe35  1  0.37506601  0.62787077  0.12410946  1
  Fe  Fe36  1  0.00357228  0.74848917  -0.00014650  1
  Fe  Fe37  1  0.75131683  0.00138260  0.75062077  1
  Fe  Fe38  1  0.75049848  0.50080417  0.74859215  1
  Fe  Fe39  1  0.62423901  0.87319516  0.12570800  1
  Fe  Fe40  1  0.75142668  0.75131826  0.00237711  1
  Fe  Fe41  1  0.62667445  0.12339580  0.37407144  1
  Fe  Fe42  1  0.87181435  0.12733741  0.87773057  1
  Fe  Fe43  1  0.87565263  0.12587544  0.62407763  1
  Fe  Fe44  1  0.87840238  0.62374680  0.12808647  1
  Fe  Fe45  1  0.62526048  0.87577072  0.62840383  1
  Fe  Fe46  1  0.87703271  0.62561263  0.62320646  1
  Fe  Fe47  1  -0.00234201  0.00276953  0.24904847  1
  Fe  Fe48  1  0.25186446  0.24848145  0.74820793  1
  Fe  Fe49  1  0.62706020  0.62575409  0.87757207  1
  Fe  Fe50  1  0.49967464  0.25189923  0.49828668  1
  Fe  Fe51  1  0.12545654  0.12331621  0.37577633  1
  Fe  Fe52  1  0.25196296  0.50117918  0.50053381  1
  Fe  Fe53  1  0.49631505  0.00381111  0.75264633  1
  Fe  Fe54  1  0.00275113  0.74758160  0.74884079  1
  Fe  Fe55  1  0.75033475  0.74969563  0.50117691  1
  Fe  Fe56  1  0.50007864  0.74736879  0.75051714  1
  Fe  Fe57  1  0.50044115  -0.00237642  0.49915613  1
  Fe  Fe58  1  0.87420303  0.37296182  0.87642715  1
  Fe  Fe59  1  0.24873788  0.75122309  0.49979609  1
  Fe  Fe60  1  0.12394303  0.37677957  0.62428671  1
  Fe  Fe61  1  0.12661847  0.37549358  0.37437872  1
  Fe  Fe62  1  -0.00105630  0.25110227  0.49641536  1
  Fe  Fe63  1  0.62475127  0.37462968  0.12714848  1
  Fe  Fe64  1  0.62564024  0.12363712  0.12376622  1
  Fe  Fe65  1  -0.00053344  -0.00249792  0.50024381  1
  Fe  Fe66  1  0.37345412  0.37505892  0.37174914  1
  Fe  Fe67  1  0.00147133  0.24829837  0.75236883  1
  Fe  Fe68  1  0.12840369  0.87315877  0.87213818  1
  Fe  Fe69  1  0.50060666  0.50255776  0.25067162  1
  Fe  Fe70  1  0.12199853  0.62598294  0.37810100  1
  Fe  Fe71  1  0.25131954  0.25120773  0.50137735  1
  Fe  Fe72  1  0.50041426  0.50058067  -0.00080795  1
  Fe  Fe73  1  0.75057447  -0.00167846  0.50074583  1
  Fe  Fe74  1  0.37823321  0.62777998  0.37760783  1
  Fe  Fe75  1  0.00056712  0.50194592  0.75125939  1
  Fe  Fe76  1  0.62286925  0.37716925  0.62624574  1
  Fe  Fe77  1  0.24816326  0.50403135  0.24963798  1
  Fe  Fe78  1  0.11801272  0.37704754  0.12577909  1
  Fe  Fe79  1  0.62451777  0.12563229  0.62554157  1
  Fe  Fe80  1  0.87469178  0.62627400  0.87499486  1
  Fe  Fe81  1  0.37605798  0.37669371  0.12579517  1
  Fe  Fe82  1  0.12489675  0.12470654  0.12315881  1
  Fe  Fe83  1  0.36998435  0.87294015  0.87313682  1
  Fe  Fe84  1  0.87618614  0.37399063  0.62655313  1
  Fe  Fe85  1  0.62744242  0.62524946  0.37536150  1
  Fe  Fe86  1  0.62742681  0.37673725  0.37269335  1
  Fe  Fe87  1  0.62543894  0.87434732  0.37168232  1
  Fe  Fe88  1  0.75056592  0.25117958  0.49926005  1
  Fe  Fe89  1  -0.00098175  0.74864195  0.25346251  1
  Co  Co90  1  0.25196336  0.00193426  0.24998092  1
  Co  Co91  1  0.00202100  0.24968184  -0.00323927  1
  Co  Co92  1  0.62736657  0.12356461  0.87666061  1
  Co  Co93  1  0.49944935  0.49662910  0.49520236  1
  Co  Co94  1  0.37952087  0.62478014  0.62151153  1
  Co  Co95  1  0.74939818  0.24996403  0.74803096  1
  Co  Co96  1  0.25128793  0.00186679  0.74778464  1
  Co  Co97  1  0.74855033  0.25271262  0.00365732  1
  Co  Co98  1  0.87881957  0.87255813  0.12449211  1
  Co  Co99  1  0.50087571  0.74939501  0.25124085  1
  Co  Co100  1  0.75033699  0.75071197  0.24795797  1
  Co  Co101  1  0.12271009  0.62652952  0.12715451  1
  Co  Co102  1  0.00197237  0.50162476  0.25384822  1
  Co  Co103  1  0.12654378  0.62417869  0.87475801  1
  Co  Co104  1  0.24903160  -0.00621359  0.00336181  1
  Co  Co105  1  0.12123796  0.62310157  0.61986237  1
  Co  Co106  1  0.00077410  0.24647827  0.25358255  1
  Co  Co107  1  0.36958754  0.12491689  0.88090896  1
  Co  Co108  1  0.49922653  0.75269629  -0.00179833  1
  Co  Co109  1  0.24876177  0.74522472  0.74507953  1
  Co  Co110  1  -0.00130392  0.50161480  -0.00162312  1
  Co  Co111  1  0.74835518  0.74695304  0.74819781  1
  Co  Co112  1  0.24646303  0.75032242  0.00171791  1
  Co  Co113  1  0.24775429  0.25549626  0.00334215  1
  Co  Co114  1  0.74833887  0.50206108  0.24593394  1
  Co  Co115  1  0.24939202  0.74605185  0.25454332  1
  Co  Co116  1  0.87616043  0.12924306  0.12121913  1
  Co  Co117  1  -0.00143797  0.75285426  0.49913823  1
  Co  Co118  1  0.75054111  0.24704934  0.24886187  1
  Co  Co119  1  0.87291888  0.62585856  0.37358850  1
  Co  Co120  1  0.37578451  0.12399450  0.62121680  1
  Co  Co121  1  0.12364142  0.87639104  0.37125001  1
  Co  Co122  1  0.49995735  0.50272953  0.75487443  1
  Co  Co123  1  0.88026659  0.37308965  0.12805334  1
  Co  Co124  1  0.50380088  0.75384608  0.49992913  1
  Co  Co125  1  0.37540471  0.87456851  0.37424156  1
  Co  Co126  1  0.75219119  0.49926977  0.50141179  1
  Co  Co127  1  0.87385197  0.12247900  0.37698414  1
