# generated using pymatgen
data_Fe45Co19
_symmetry_space_group_name_H-M   'P 1'
_cell_length_a   11.41462357
_cell_length_b   11.41647782
_cell_length_c   11.41493587
_cell_angle_alpha   90.00266096
_cell_angle_beta   90.00369012
_cell_angle_gamma   89.98911406
_symmetry_Int_Tables_number   1
_chemical_formula_structural   Fe45Co19
_chemical_formula_sum   'Fe90 Co38'
_cell_volume   1487.53501758
_cell_formula_units_Z   2
loop_
 _symmetry_equiv_pos_site_id
 _symmetry_equiv_pos_as_xyz
  1  'x, y, z'
loop_
 _atom_site_type_symbol
 _atom_site_label
 _atom_site_symmetry_multiplicity
 _atom_site_fract_x
 _atom_site_fract_y
 _atom_site_fract_z
 _atom_site_occupancy
  Fe  Fe0  1  0.12483751  0.62674161  0.62289356  1
  Fe  Fe1  1  0.74968187  0.75192518  0.00104731  1
  Fe  Fe2  1  0.12746677  0.37602943  0.12262055  1
  Fe  Fe3  1  0.12581307  0.12291513  0.12243815  1
  Fe  Fe4  1  0.62352112  0.62396596  0.37490639  1
  Fe  Fe5  1  0.12266007  0.87523513  0.62333117  1
  Fe  Fe6  1  0.62662905  0.12443460  0.12294988  1
  Fe  Fe7  1  0.50073670  0.24905120  0.74909843  1
  Fe  Fe8  1  0.87326808  0.87701627  0.12665692  1
  Fe  Fe9  1  0.37524955  0.87436578  0.62593873  1
  Fe  Fe10  1  0.62538570  0.12508745  0.87600298  1
  Fe  Fe11  1  0.00281014  -0.00205054  0.25139766  1
  Fe  Fe12  1  0.75542203  0.24883442  0.49993804  1
  Fe  Fe13  1  0.37171560  0.12509642  0.12518779  1
  Fe  Fe14  1  0.24688884  0.50052441  0.75156305  1
  Fe  Fe15  1  0.62482310  0.12473751  0.37854507  1
  Fe  Fe16  1  0.87573356  0.62732280  0.87409966  1
  Fe  Fe17  1  0.50000551  0.00110986  0.74812901  1
  Fe  Fe18  1  0.75374791  0.50041280  0.49862966  1
  Fe  Fe19  1  0.87491289  0.62894162  0.62822323  1
  Fe  Fe20  1  0.49899671  0.75028709  0.49929126  1
  Fe  Fe21  1  -0.00334594  0.75271322  0.49774524  1
  Fe  Fe22  1  0.74895653  0.00214022  0.25132480  1
  Fe  Fe23  1  0.74741944  0.74826356  0.24880051  1
  Fe  Fe24  1  0.12632724  0.87531168  0.12355775  1
  Fe  Fe25  1  0.37363846  0.37362566  0.87289324  1
  Fe  Fe26  1  0.50321751  0.75005268  0.74905218  1
  Fe  Fe27  1  0.62561871  0.37506799  0.37485622  1
  Fe  Fe28  1  0.37232172  0.12547900  0.62410638  1
  Fe  Fe29  1  0.25112746  0.49680444  0.50091357  1
  Fe  Fe30  1  0.50121339  0.75147600  0.24914574  1
  Fe  Fe31  1  0.62967613  0.87556637  0.61971694  1
  Fe  Fe32  1  0.50146909  0.49766619  0.24598786  1
  Fe  Fe33  1  0.49932053  0.00126465  0.25185680  1
  Fe  Fe34  1  0.75009098  -0.00154260  0.75048131  1
  Fe  Fe35  1  0.75132482  0.50070372  0.74979264  1
  Fe  Fe36  1  0.36956245  0.12508282  0.37697908  1
  Fe  Fe37  1  0.00365484  0.25025637  0.24957720  1
  Fe  Fe38  1  0.49885574  0.49723796  0.00240385  1
  Fe  Fe39  1  -0.00347694  0.24788234  0.50205304  1
  Fe  Fe40  1  0.37247246  0.87651000  0.37495752  1
  Fe  Fe41  1  0.87788179  0.62333634  0.12872277  1
  Fe  Fe42  1  0.37479290  0.62290001  0.37424640  1
  Fe  Fe43  1  0.62581829  0.37480162  0.87596551  1
  Fe  Fe44  1  0.87855850  0.87423633  0.87319043  1
  Fe  Fe45  1  0.24814180  0.00021384  0.75178082  1
  Fe  Fe46  1  0.49890200  0.00133603  -0.00015150  1
  Fe  Fe47  1  0.25079818  -0.00220950  -0.00397809  1
  Fe  Fe48  1  0.75305825  0.24935833  -0.00057466  1
  Fe  Fe49  1  0.49643228  0.49727009  0.50217772  1
  Fe  Fe50  1  0.24453021  0.24671512  0.75054639  1
  Fe  Fe51  1  0.62667195  0.62608192  0.62365750  1
  Fe  Fe52  1  0.24903326  0.25048125  -0.00239423  1
  Fe  Fe53  1  0.37431397  0.87567230  0.12537016  1
  Fe  Fe54  1  0.24705817  0.75099340  0.25012607  1
  Fe  Fe55  1  0.87799356  0.12302619  0.87550722  1
  Fe  Fe56  1  -0.00601877  -0.00186794  0.49900676  1
  Fe  Fe57  1  0.62704655  0.12392111  0.62176502  1
  Fe  Fe58  1  0.24723336  0.49921989  0.24950468  1
  Fe  Fe59  1  0.25051114  0.75113643  0.49868225  1
  Fe  Fe60  1  0.00132920  0.75061941  0.00275077  1
  Fe  Fe61  1  0.24739741  0.75270697  0.75209063  1
  Fe  Fe62  1  0.87525582  0.37632392  0.12882197  1
  Fe  Fe63  1  0.37419468  0.62768069  0.87597567  1
  Fe  Fe64  1  0.87619886  0.12316681  0.12603534  1
  Fe  Fe65  1  -0.00226581  0.50021320  0.50061764  1
  Fe  Fe66  1  -0.00006518  0.25006367  0.00006571  1
  Fe  Fe67  1  0.12438114  0.37311103  0.37703231  1
  Fe  Fe68  1  0.62561266  0.62450261  0.87758172  1
  Fe  Fe69  1  0.75050217  0.25032933  0.25099686  1
  Fe  Fe70  1  0.12712780  0.12287763  0.37916000  1
  Fe  Fe71  1  0.62765926  0.87644853  0.37794404  1
  Fe  Fe72  1  0.49543106  0.25251478  0.50048272  1
  Fe  Fe73  1  0.49940492  0.25044219  0.00097257  1
  Fe  Fe74  1  0.75264012  0.25011963  0.74997042  1
  Fe  Fe75  1  0.12272596  0.62672183  0.37359344  1
  Fe  Fe76  1  0.50057058  0.50032581  0.74956819  1
  Fe  Fe77  1  0.49799861  0.24984725  0.24906638  1
  Fe  Fe78  1  0.00200373  0.00182098  0.74879498  1
  Fe  Fe79  1  0.87993972  0.37595096  0.87083875  1
  Fe  Fe80  1  0.12077514  0.37405830  0.62802608  1
  Fe  Fe81  1  0.37372540  0.62554378  0.62601878  1
  Fe  Fe82  1  0.75050475  0.49910130  0.00258246  1
  Fe  Fe83  1  0.62356006  0.87653461  0.87723668  1
  Fe  Fe84  1  0.50045476  0.75152323  0.00199853  1
  Fe  Fe85  1  0.00222869  0.50041089  0.00020217  1
  Fe  Fe86  1  0.87827816  0.62438319  0.36894933  1
  Fe  Fe87  1  0.12560676  0.62724089  0.87824483  1
  Fe  Fe88  1  0.37157241  0.62543847  0.12350359  1
  Fe  Fe89  1  0.62725175  0.37457494  0.62429133  1
  Co  Co90  1  0.74798969  0.50010554  0.24991631  1
  Co  Co91  1  0.00303212  0.75456657  0.24816079  1
  Co  Co92  1  0.24934301  0.49862520  -0.00236190  1
  Co  Co93  1  0.12551772  0.87586840  0.37757453  1
  Co  Co94  1  0.74685947  0.75119230  0.75259288  1
  Co  Co95  1  0.37765403  0.87436232  0.87340548  1
  Co  Co96  1  0.37492916  0.12553111  0.87420772  1
  Co  Co97  1  0.87615091  0.37488779  0.37304889  1
  Co  Co98  1  0.37311017  0.37461796  0.63083212  1
  Co  Co99  1  0.87403967  0.87281027  0.62792854  1
  Co  Co100  1  0.87181754  0.87361614  0.37134330  1
  Co  Co101  1  0.25144804  0.25443134  0.50178922  1
  Co  Co102  1  0.00484785  0.49616310  0.24932722  1
  Co  Co103  1  0.24792896  -0.00025018  0.24989617  1
  Co  Co104  1  0.62528782  0.87841138  0.12507071  1
  Co  Co105  1  0.75171904  0.00012348  -0.00181586  1
  Co  Co106  1  0.12232421  0.12346497  0.87905639  1
  Co  Co107  1  0.62460346  0.62533374  0.12339458  1
  Co  Co108  1  0.87446190  0.12359368  0.62810401  1
  Co  Co109  1  -0.00088700  -0.00162393  0.00211951  1
  Co  Co110  1  0.12573057  0.62507861  0.12508597  1
  Co  Co111  1  0.12166339  0.37407777  0.87303170  1
  Co  Co112  1  0.24660297  0.24882328  0.25029230  1
  Co  Co113  1  0.87797493  0.37518399  0.62785750  1
  Co  Co114  1  0.00145274  0.24500320  0.74991601  1
  Co  Co115  1  0.24870393  0.75369801  -0.00084630  1
  Co  Co116  1  0.75629561  0.00264231  0.49861978  1
  Co  Co117  1  0.37133214  0.37368349  0.12572444  1
  Co  Co118  1  0.75334970  0.74673384  0.49741613  1
  Co  Co119  1  0.00172453  0.50553784  0.75027276  1
  Co  Co120  1  0.87814313  0.12583391  0.37075369  1
  Co  Co121  1  0.62735432  0.37211249  0.12457881  1
  Co  Co122  1  0.37408808  0.37584559  0.37059866  1
  Co  Co123  1  0.00368857  0.74828790  0.74999647  1
  Co  Co124  1  0.12154840  0.87595421  0.87566624  1
  Co  Co125  1  0.49718086  0.00004852  0.49983456  1
  Co  Co126  1  0.25120264  -0.00279992  0.50219007  1
  Co  Co127  1  0.12527731  0.12365779  0.61976519  1
