# generated using pymatgen
data_Fe45Co19
_symmetry_space_group_name_H-M   'P 1'
_cell_length_a   11.41474791
_cell_length_b   11.41628898
_cell_length_c   11.41453409
_cell_angle_alpha   89.99879325
_cell_angle_beta   89.99059544
_cell_angle_gamma   89.99949136
_symmetry_Int_Tables_number   1
_chemical_formula_structural   Fe45Co19
_chemical_formula_sum   'Fe90 Co38'
_cell_volume   1487.47426940
_cell_formula_units_Z   2
loop_
 _symmetry_equiv_pos_site_id
 _symmetry_equiv_pos_as_xyz
  1  'x, y, z'
loop_
 _atom_site_type_symbol
 _atom_site_label
 _atom_site_symmetry_multiplicity
 _atom_site_fract_x
 _atom_site_fract_y
 _atom_site_fract_z
 _atom_site_occupancy
  Fe  Fe0  1  0.25087657  0.00074990  0.00075237  1
  Fe  Fe1  1  0.50190702  0.75069760  0.50132972  1
  Fe  Fe2  1  0.24957586  0.74841298  0.49695062  1
  Fe  Fe3  1  0.49770117  0.50220974  0.75098723  1
  Fe  Fe4  1  0.37294949  0.37440331  0.87337508  1
  Fe  Fe5  1  0.24706920  0.25106683  0.49984659  1
  Fe  Fe6  1  0.00050694  -0.00067376  0.25084695  1
  Fe  Fe7  1  0.87452977  0.37560928  0.12459552  1
  Fe  Fe8  1  0.50181116  0.75143400  0.00220230  1
  Fe  Fe9  1  0.37401582  0.12647351  0.87451884  1
  Fe  Fe10  1  0.62543765  0.37433623  0.37493080  1
  Fe  Fe11  1  0.12514147  0.87417178  0.62479702  1
  Fe  Fe12  1  0.12795656  0.87271024  0.37160948  1
  Fe  Fe13  1  -0.00176785  0.49886778  0.25253639  1
  Fe  Fe14  1  0.12489499  0.37695550  0.62537214  1
  Fe  Fe15  1  0.62521596  0.37641139  0.12524036  1
  Fe  Fe16  1  0.49677152  0.25168550  0.24703865  1
  Fe  Fe17  1  0.87575513  0.62592933  0.12458230  1
  Fe  Fe18  1  0.12456885  0.37562280  0.87246471  1
  Fe  Fe19  1  0.87539340  0.62684767  0.87831823  1
  Fe  Fe20  1  0.37649064  0.62216080  0.12469731  1
  Fe  Fe21  1  0.12653457  0.37645521  0.12811591  1
  Fe  Fe22  1  0.37438960  0.87311106  0.87532125  1
  Fe  Fe23  1  0.75078814  0.49981472  0.00010714  1
  Fe  Fe24  1  0.25077190  0.74800644  0.74946161  1
  Fe  Fe25  1  0.12589335  0.12394471  0.12679307  1
  Fe  Fe26  1  0.62550713  0.62429036  0.37624749  1
  Fe  Fe27  1  0.75495371  -0.00201136  0.74889925  1
  Fe  Fe28  1  0.37418519  0.87733753  0.12732455  1
  Fe  Fe29  1  0.62690419  0.12276834  0.62691430  1
  Fe  Fe30  1  0.24599955  0.50254418  0.49569254  1
  Fe  Fe31  1  -0.00238522  0.24842144  0.74946260  1
  Fe  Fe32  1  0.62641112  0.12606503  0.37260564  1
  Fe  Fe33  1  0.87524638  0.12532830  0.12462200  1
  Fe  Fe34  1  0.12456450  0.62327840  0.12772870  1
  Fe  Fe35  1  0.75128052  -0.00100928  0.24774719  1
  Fe  Fe36  1  0.75082105  0.50071953  0.25149747  1
  Fe  Fe37  1  0.50259126  0.24911116  0.50133783  1
  Fe  Fe38  1  0.75019550  0.75278766  0.74642028  1
  Fe  Fe39  1  -0.00292797  -0.00382081  0.00031648  1
  Fe  Fe40  1  0.00071493  -0.00012080  0.49852872  1
  Fe  Fe41  1  0.24966517  0.00003289  0.75052080  1
  Fe  Fe42  1  0.87335126  0.12765298  0.37736846  1
  Fe  Fe43  1  0.49853723  -0.00024588  0.75157861  1
  Fe  Fe44  1  0.87497764  0.37170891  0.37849891  1
  Fe  Fe45  1  0.24799427  0.74923660  0.00287066  1
  Fe  Fe46  1  0.25244111  0.50001950  0.25549822  1
  Fe  Fe47  1  0.37339468  0.12801360  0.37445650  1
  Fe  Fe48  1  0.12351769  0.62447378  0.87410130  1
  Fe  Fe49  1  0.49782038  0.24989730  0.00163982  1
  Fe  Fe50  1  0.87486722  0.62728778  0.62076382  1
  Fe  Fe51  1  0.87297871  0.87208186  0.37408008  1
  Fe  Fe52  1  0.62637026  0.37467859  0.87333113  1
  Fe  Fe53  1  0.50015396  0.49955770  -0.00284752  1
  Fe  Fe54  1  0.00193116  0.75164410  0.24704430  1
  Fe  Fe55  1  0.49948560  0.24952880  0.74907847  1
  Fe  Fe56  1  0.87431580  0.62770279  0.37642983  1
  Fe  Fe57  1  0.49860946  0.49864323  0.25209914  1
  Fe  Fe58  1  0.50100255  0.74888356  0.24834679  1
  Fe  Fe59  1  0.74963779  -0.00242946  0.50137987  1
  Fe  Fe60  1  0.37661273  0.87694443  0.62264787  1
  Fe  Fe61  1  0.62676947  0.87649514  0.87578950  1
  Fe  Fe62  1  -0.00186966  0.50132344  0.74814563  1
  Fe  Fe63  1  0.49696012  0.00097052  0.25259420  1
  Fe  Fe64  1  0.75130570  0.25029852  -0.00099522  1
  Fe  Fe65  1  0.12359405  0.12534039  0.87514212  1
  Fe  Fe66  1  0.75234084  0.49997504  0.74984781  1
  Fe  Fe67  1  0.62456264  0.87449294  0.37453918  1
  Fe  Fe68  1  0.49993235  0.74929138  0.74945229  1
  Fe  Fe69  1  0.62628309  0.62340608  0.62382929  1
  Fe  Fe70  1  0.62424814  0.12273084  0.12344892  1
  Fe  Fe71  1  -0.00022357  0.25273429  -0.00001904  1
  Fe  Fe72  1  -0.00019354  0.75063888  0.75037248  1
  Fe  Fe73  1  0.62681204  0.37567425  0.62606227  1
  Fe  Fe74  1  0.87377309  0.37143407  0.62144744  1
  Fe  Fe75  1  0.00266934  0.74944944  0.49952683  1
  Fe  Fe76  1  0.62614172  0.62659550  0.87606427  1
  Fe  Fe77  1  0.12454846  0.87444315  0.87574201  1
  Fe  Fe78  1  0.37392090  0.12387320  0.62433882  1
  Fe  Fe79  1  0.12671554  0.12806827  0.37220726  1
  Fe  Fe80  1  0.74776817  0.75295076  0.00633609  1
  Fe  Fe81  1  -0.00064597  0.25027830  0.25038456  1
  Fe  Fe82  1  -0.00312404  -0.00090024  0.74982999  1
  Fe  Fe83  1  0.25088627  0.24968025  0.00264951  1
  Fe  Fe84  1  0.62757719  0.12280733  0.87649366  1
  Fe  Fe85  1  0.37413303  0.62333774  0.62262855  1
  Fe  Fe86  1  0.25041637  -0.00110049  0.49692109  1
  Fe  Fe87  1  0.12417998  0.12356033  0.62530678  1
  Fe  Fe88  1  0.37302398  0.37674092  0.62380157  1
  Fe  Fe89  1  0.24909863  0.50067277  -0.00266066  1
  Co  Co90  1  0.37424439  0.37950230  0.12410988  1
  Co  Co91  1  0.37558187  0.37326775  0.37846659  1
  Co  Co92  1  0.12326249  0.37333944  0.37353306  1
  Co  Co93  1  0.50175868  0.49885794  0.50064609  1
  Co  Co94  1  0.37600762  0.62703817  0.87748153  1
  Co  Co95  1  0.00290280  0.24832467  0.50008598  1
  Co  Co96  1  0.12173955  0.62638581  0.37166354  1
  Co  Co97  1  0.75075169  0.49964194  0.49864528  1
  Co  Co98  1  0.75041721  0.25029087  0.24792003  1
  Co  Co99  1  0.74640434  0.74890972  0.24755997  1
  Co  Co100  1  0.25247938  0.25189797  0.24773008  1
  Co  Co101  1  0.50018772  0.00276165  0.49715460  1
  Co  Co102  1  0.25137918  0.50291347  0.75119358  1
  Co  Co103  1  0.87396541  0.87151975  0.87645273  1
  Co  Co104  1  0.12626199  0.87764308  0.12647093  1
  Co  Co105  1  0.12500363  0.62561044  0.62544691  1
  Co  Co106  1  0.25193238  0.74800290  0.24890260  1
  Co  Co107  1  0.87625723  0.37640317  0.87519940  1
  Co  Co108  1  0.87435505  0.12598680  0.62179583  1
  Co  Co109  1  0.75310020  -0.00214849  0.00314522  1
  Co  Co110  1  0.37500962  0.12210443  0.12636595  1
  Co  Co111  1  0.24873731  0.24856053  0.74900843  1
  Co  Co112  1  0.74555775  0.24912601  0.49991937  1
  Co  Co113  1  0.37632532  0.87279804  0.37506237  1
  Co  Co114  1  0.49768715  -0.00072929  -0.00229065  1
  Co  Co115  1  0.87520120  0.12480279  0.87664807  1
  Co  Co116  1  0.62187519  0.87807485  0.62537897  1
  Co  Co117  1  0.00094349  0.50051208  0.49945765  1
  Co  Co118  1  0.00311412  0.75056186  0.00225484  1
  Co  Co119  1  0.37857762  0.62592332  0.37621647  1
  Co  Co120  1  0.00117270  0.49961880  0.00062896  1
  Co  Co121  1  0.87843490  0.87361011  0.62228081  1
  Co  Co122  1  0.87606192  0.87295038  0.12761181  1
  Co  Co123  1  0.74685145  0.75225789  0.50114834  1
  Co  Co124  1  0.62238217  0.88035074  0.12720505  1
  Co  Co125  1  0.75184628  0.24946618  0.75208598  1
  Co  Co126  1  0.25031069  0.00003949  0.25211718  1
  Co  Co127  1  0.62340852  0.62014214  0.12504572  1
