# generated using pymatgen
data_Fe45Co19
_symmetry_space_group_name_H-M   'P 1'
_cell_length_a   11.41573733
_cell_length_b   11.41595306
_cell_length_c   11.41441712
_cell_angle_alpha   89.99802949
_cell_angle_beta   90.00012592
_cell_angle_gamma   90.00026275
_symmetry_Int_Tables_number   1
_chemical_formula_structural   Fe45Co19
_chemical_formula_sum   'Fe90 Co38'
_cell_volume   1487.54420561
_cell_formula_units_Z   2
loop_
 _symmetry_equiv_pos_site_id
 _symmetry_equiv_pos_as_xyz
  1  'x, y, z'
loop_
 _atom_site_type_symbol
 _atom_site_label
 _atom_site_symmetry_multiplicity
 _atom_site_fract_x
 _atom_site_fract_y
 _atom_site_fract_z
 _atom_site_occupancy
  Fe  Fe0  1  0.12311332  0.62084700  0.62324846  1
  Fe  Fe1  1  0.37181913  0.86892061  0.87306166  1
  Fe  Fe2  1  0.49620411  0.74693542  0.00207149  1
  Fe  Fe3  1  0.62728703  0.12604381  0.87458849  1
  Fe  Fe4  1  0.37208347  0.12882408  0.87283215  1
  Fe  Fe5  1  0.87660063  0.87788477  0.12585017  1
  Fe  Fe6  1  0.12944260  0.87087587  0.87999766  1
  Fe  Fe7  1  0.88007406  0.37892298  0.62398968  1
  Fe  Fe8  1  0.87371401  0.87494181  0.37494239  1
  Fe  Fe9  1  0.24744912  0.49883996  0.25047145  1
  Fe  Fe10  1  0.74911048  0.75174955  0.50361760  1
  Fe  Fe11  1  0.50009410  0.24930607  0.50076451  1
  Fe  Fe12  1  0.75177486  0.75155114  0.00165742  1
  Fe  Fe13  1  0.62326145  0.37635941  0.62447813  1
  Fe  Fe14  1  0.24785255  0.74808146  0.24330238  1
  Fe  Fe15  1  0.87113451  0.37155624  0.37683207  1
  Fe  Fe16  1  0.24919567  0.49974359  0.75198331  1
  Fe  Fe17  1  0.37554627  0.37541132  0.62631045  1
  Fe  Fe18  1  0.75549250  0.24986415  0.00535300  1
  Fe  Fe19  1  0.25120999  0.25135804  0.00251325  1
  Fe  Fe20  1  0.87893958  0.12033684  0.62990954  1
  Fe  Fe21  1  0.00202519  0.75032669  0.75053845  1
  Fe  Fe22  1  0.25377439  0.50317090  0.00086564  1
  Fe  Fe23  1  0.37720794  0.87352381  0.62900153  1
  Fe  Fe24  1  0.74693292  0.00323224  0.24802305  1
  Fe  Fe25  1  0.49698324  0.00103702  0.49847537  1
  Fe  Fe26  1  0.25207463  0.00005046  0.49989468  1
  Fe  Fe27  1  0.24716984  0.25227581  0.74775734  1
  Fe  Fe28  1  0.12120313  0.37758682  0.12326738  1
  Fe  Fe29  1  0.62571595  0.62524358  0.37421624  1
  Fe  Fe30  1  0.25000987  0.00119050  0.24667531  1
  Fe  Fe31  1  0.87235873  0.62691975  0.87281600  1
  Fe  Fe32  1  0.00151105  0.74918217  0.24869052  1
  Fe  Fe33  1  -0.00354967  0.50015078  -0.00449712  1
  Fe  Fe34  1  0.37409267  0.87297958  0.37090477  1
  Fe  Fe35  1  0.74676790  0.75398935  0.74599721  1
  Fe  Fe36  1  0.12525740  0.87534196  0.11959541  1
  Fe  Fe37  1  0.49415665  0.00166059  -0.00149568  1
  Fe  Fe38  1  0.12294065  0.87759928  0.62354575  1
  Fe  Fe39  1  0.87453066  0.87653617  0.87037767  1
  Fe  Fe40  1  0.00125954  0.50093829  0.25449647  1
  Fe  Fe41  1  -0.00370512  0.24913116  -0.00062701  1
  Fe  Fe42  1  0.37556231  0.62510242  0.37011695  1
  Fe  Fe43  1  0.37786651  0.37667053  0.12722101  1
  Fe  Fe44  1  0.49807335  0.50160697  -0.00211079  1
  Fe  Fe45  1  0.24789982  0.25120594  0.24809634  1
  Fe  Fe46  1  0.50091573  0.00266305  0.24946200  1
  Fe  Fe47  1  -0.00069059  0.00222940  -0.00503182  1
  Fe  Fe48  1  0.75164607  0.49843394  0.00106567  1
  Fe  Fe49  1  0.12739879  0.87342298  0.37533191  1
  Fe  Fe50  1  0.12641607  0.62833345  0.87887609  1
  Fe  Fe51  1  0.62545121  0.87725283  0.37702465  1
  Fe  Fe52  1  0.75048436  0.49851544  0.74998000  1
  Fe  Fe53  1  0.87559857  0.62404358  0.12524970  1
  Fe  Fe54  1  0.25138796  0.49871836  0.49813259  1
  Fe  Fe55  1  0.50454149  0.24948301  0.24987673  1
  Fe  Fe56  1  0.74967635  0.25078812  0.74683944  1
  Fe  Fe57  1  0.49977128  0.49802561  0.75409896  1
  Fe  Fe58  1  0.62306886  0.62331415  0.62532238  1
  Fe  Fe59  1  0.62638304  0.62585572  0.87575962  1
  Fe  Fe60  1  0.37694970  0.62503016  0.62821654  1
  Fe  Fe61  1  0.00306248  0.24958312  0.74990197  1
  Fe  Fe62  1  0.62125288  0.12192919  0.62743558  1
  Fe  Fe63  1  0.00221085  0.00035098  0.25149637  1
  Fe  Fe64  1  0.75200874  0.00113756  -0.00065616  1
  Fe  Fe65  1  0.87088614  0.12755196  0.37413221  1
  Fe  Fe66  1  0.25133344  0.74958998  0.50220442  1
  Fe  Fe67  1  0.74638546  0.49716569  0.24712336  1
  Fe  Fe68  1  0.87152391  0.62530068  0.37479049  1
  Fe  Fe69  1  0.87659737  0.62333472  0.62535169  1
  Fe  Fe70  1  0.12423755  0.37305864  0.37909917  1
  Fe  Fe71  1  0.49755360  0.24979055  -0.00118953  1
  Fe  Fe72  1  0.75040015  -0.00021989  0.50405580  1
  Fe  Fe73  1  0.12528797  0.37457263  0.87586007  1
  Fe  Fe74  1  0.62250475  0.87632290  0.12268051  1
  Fe  Fe75  1  0.62696032  0.37294670  0.87710574  1
  Fe  Fe76  1  0.49911727  0.49850314  0.49605753  1
  Fe  Fe77  1  0.12455133  0.12433615  0.12177756  1
  Fe  Fe78  1  0.62318959  0.87527266  0.87519687  1
  Fe  Fe79  1  0.74760624  0.75139914  0.24723209  1
  Fe  Fe80  1  -0.00158454  0.24942739  0.24978912  1
  Fe  Fe81  1  0.24857481  0.25075591  0.50286013  1
  Fe  Fe82  1  0.37394505  0.12804909  0.37331927  1
  Fe  Fe83  1  0.24757157  0.00008583  0.75220618  1
  Fe  Fe84  1  0.37513344  0.12565956  0.62822832  1
  Fe  Fe85  1  0.49982173  0.74992270  0.49897389  1
  Fe  Fe86  1  0.12682014  0.12592122  0.37681353  1
  Fe  Fe87  1  -0.00004830  0.00144511  0.49694134  1
  Fe  Fe88  1  0.63003418  0.36985079  0.37804696  1
  Fe  Fe89  1  -0.00000591  0.74828040  0.49786076  1
  Co  Co90  1  0.88010801  0.87653778  0.62575114  1
  Co  Co91  1  0.37335445  0.37388121  0.87475775  1
  Co  Co92  1  0.62320963  0.12413954  0.11966580  1
  Co  Co93  1  0.50419803  0.75219966  0.24962777  1
  Co  Co94  1  0.37579255  0.87573197  0.12690072  1
  Co  Co95  1  0.50446681  0.74985878  0.75028843  1
  Co  Co96  1  0.12226216  0.37933946  0.62390896  1
  Co  Co97  1  0.50599606  0.49475084  0.25384405  1
  Co  Co98  1  0.12781747  0.12880009  0.87800972  1
  Co  Co99  1  0.74906563  0.24906209  0.24338365  1
  Co  Co100  1  0.24514527  0.74852090  0.74647556  1
  Co  Co101  1  0.75004629  0.49990684  0.50135911  1
  Co  Co102  1  -0.00100627  0.24833928  0.50117566  1
  Co  Co103  1  0.62806265  0.12644800  0.37793778  1
  Co  Co104  1  0.50092894  0.25189511  0.75151072  1
  Co  Co105  1  0.87859734  0.37850304  0.12698687  1
  Co  Co106  1  0.75157199  0.24779635  0.50826949  1
  Co  Co107  1  0.12019820  0.62226754  0.12114303  1
  Co  Co108  1  -0.00037888  0.50147173  0.49378368  1
  Co  Co109  1  0.00647637  -0.00015262  0.75625837  1
  Co  Co110  1  0.12505703  0.12214350  0.62380850  1
  Co  Co111  1  0.87396256  0.37239364  0.87257937  1
  Co  Co112  1  0.25445379  0.00140054  -0.00056596  1
  Co  Co113  1  0.62438971  0.62485615  0.12337822  1
  Co  Co114  1  0.12930541  0.62756510  0.37591443  1
  Co  Co115  1  0.37434055  0.62837330  0.86992350  1
  Co  Co116  1  0.61934274  0.87777363  0.62329536  1
  Co  Co117  1  0.74658788  -0.00322665  0.74810917  1
  Co  Co118  1  0.87751668  0.12108310  0.12583684  1
  Co  Co119  1  0.00089342  0.50119644  0.75565946  1
  Co  Co120  1  -0.00479736  0.75087857  -0.00024789  1
  Co  Co121  1  0.25594462  0.74440482  0.00705831  1
  Co  Co122  1  0.38054309  0.61996507  0.13297457  1
  Co  Co123  1  0.87159803  0.12544120  0.87075535  1
  Co  Co124  1  0.62230378  0.37374007  0.12015823  1
  Co  Co125  1  0.37457599  0.37188974  0.37367084  1
  Co  Co126  1  0.37484789  0.12815776  0.12697348  1
  Co  Co127  1  0.49777144  0.00022528  0.75516245  1
