# generated using pymatgen
data_Fe45Co19
_symmetry_space_group_name_H-M   'P 1'
_cell_length_a   11.41517286
_cell_length_b   11.41510659
_cell_length_c   11.41374770
_cell_angle_alpha   89.99384076
_cell_angle_beta   89.99394766
_cell_angle_gamma   90.00088321
_symmetry_Int_Tables_number   1
_chemical_formula_structural   Fe45Co19
_chemical_formula_sum   'Fe90 Co38'
_cell_volume   1487.27311294
_cell_formula_units_Z   2
loop_
 _symmetry_equiv_pos_site_id
 _symmetry_equiv_pos_as_xyz
  1  'x, y, z'
loop_
 _atom_site_type_symbol
 _atom_site_label
 _atom_site_symmetry_multiplicity
 _atom_site_fract_x
 _atom_site_fract_y
 _atom_site_fract_z
 _atom_site_occupancy
  Fe  Fe0  1  0.37350479  0.87713419  0.87254025  1
  Fe  Fe1  1  0.75019301  0.24872590  0.00252444  1
  Fe  Fe2  1  0.24896405  0.75113234  0.74701216  1
  Fe  Fe3  1  0.87372440  0.62380110  0.87544589  1
  Fe  Fe4  1  0.24838081  0.50051414  0.49991669  1
  Fe  Fe5  1  0.75072182  0.75002050  0.00151662  1
  Fe  Fe6  1  -0.00186787  0.24940719  0.00012385  1
  Fe  Fe7  1  0.87195219  0.12028327  0.12662465  1
  Fe  Fe8  1  0.74686147  -0.00168418  0.49345276  1
  Fe  Fe9  1  0.87443718  0.37896557  0.12228287  1
  Fe  Fe10  1  0.24936071  0.75010784  0.50183082  1
  Fe  Fe11  1  0.37369580  0.12265945  0.13046520  1
  Fe  Fe12  1  0.49846320  0.74868757  0.24857659  1
  Fe  Fe13  1  0.75080195  0.24730467  0.74624976  1
  Fe  Fe14  1  0.12211834  0.62396339  0.62426319  1
  Fe  Fe15  1  0.37711726  0.62275308  0.62706256  1
  Fe  Fe16  1  0.87432095  0.87834358  0.87608747  1
  Fe  Fe17  1  0.50170923  0.50001828  -0.00199331  1
  Fe  Fe18  1  0.37474119  0.62560850  0.37604733  1
  Fe  Fe19  1  0.62543905  0.37437230  0.62209970  1
  Fe  Fe20  1  0.75367082  0.75098179  0.25003321  1
  Fe  Fe21  1  0.75051263  0.75126420  0.50263392  1
  Fe  Fe22  1  0.87442586  0.12351635  0.87677738  1
  Fe  Fe23  1  0.74785543  0.50037840  0.74846613  1
  Fe  Fe24  1  -0.00080754  0.74922813  0.25030011  1
  Fe  Fe25  1  0.62596557  0.12431686  0.87346575  1
  Fe  Fe26  1  0.12572068  0.12409341  0.12857916  1
  Fe  Fe27  1  -0.00119225  0.75014811  0.00072329  1
  Fe  Fe28  1  0.50091125  0.24889872  0.74841867  1
  Fe  Fe29  1  0.37463042  0.12293010  0.87347084  1
  Fe  Fe30  1  -0.00260899  0.75316906  0.74578053  1
  Fe  Fe31  1  0.37610608  0.62394768  0.87147296  1
  Fe  Fe32  1  -0.00041290  -0.00072234  0.74747417  1
  Fe  Fe33  1  0.87331704  0.12042737  0.62065813  1
  Fe  Fe34  1  0.87578165  0.37728786  0.62360900  1
  Fe  Fe35  1  0.24744650  0.50083236  -0.00383315  1
  Fe  Fe36  1  0.25311282  0.24918449  0.49900693  1
  Fe  Fe37  1  0.12412465  0.37418594  0.12448039  1
  Fe  Fe38  1  0.37627463  0.87768136  0.12681893  1
  Fe  Fe39  1  0.37418347  0.62422836  0.12487624  1
  Fe  Fe40  1  0.12436018  0.12572622  0.87435924  1
  Fe  Fe41  1  0.50142106  0.75330774  0.50462422  1
  Fe  Fe42  1  0.24995932  -0.00107752  0.49992806  1
  Fe  Fe43  1  0.49925135  0.24836585  0.00068488  1
  Fe  Fe44  1  0.37735748  0.87549996  0.37620948  1
  Fe  Fe45  1  0.62571854  0.87621199  0.12711843  1
  Fe  Fe46  1  0.25166134  0.24867682  0.74824703  1
  Fe  Fe47  1  0.87654038  0.62146851  0.62313322  1
  Fe  Fe48  1  0.62792557  0.87639915  0.87256299  1
  Fe  Fe49  1  0.37585287  0.37706847  0.62521110  1
  Fe  Fe50  1  0.24730564  -0.00110141  0.00184142  1
  Fe  Fe51  1  0.37888176  0.11950447  0.62427636  1
  Fe  Fe52  1  0.12726516  0.12651769  0.37360904  1
  Fe  Fe53  1  0.87656565  0.62626450  0.37826713  1
  Fe  Fe54  1  0.50259920  0.00081273  -0.00010182  1
  Fe  Fe55  1  0.12401064  0.62585108  0.12555918  1
  Fe  Fe56  1  0.87528192  0.87815456  0.12483012  1
  Fe  Fe57  1  0.00116101  0.49988286  -0.00453860  1
  Fe  Fe58  1  0.24936530  0.49914941  0.25259541  1
  Fe  Fe59  1  0.50053312  0.24635321  0.49699120  1
  Fe  Fe60  1  0.50135644  0.75363003  0.74727844  1
  Fe  Fe61  1  0.87017350  0.37208926  0.37850374  1
  Fe  Fe62  1  0.00263535  0.49707349  0.75363785  1
  Fe  Fe63  1  0.62514274  0.62612499  0.87340947  1
  Fe  Fe64  1  -0.00138274  0.00008466  0.25401808  1
  Fe  Fe65  1  0.12488809  0.12439974  0.62442405  1
  Fe  Fe66  1  0.49992125  0.75148269  -0.00038681  1
  Fe  Fe67  1  -0.00322731  0.24988809  0.25074640  1
  Fe  Fe68  1  0.75011860  0.50059212  0.25166967  1
  Fe  Fe69  1  -0.00202087  0.24829651  0.49927087  1
  Fe  Fe70  1  0.50156075  0.49970929  0.25382391  1
  Fe  Fe71  1  0.12363423  0.87542325  0.87368957  1
  Fe  Fe72  1  0.49845070  0.25012897  0.25400007  1
  Fe  Fe73  1  0.62589663  0.62859604  0.37592303  1
  Fe  Fe74  1  0.50498200  0.00253018  0.25579909  1
  Fe  Fe75  1  0.25065841  0.24834884  0.00205773  1
  Fe  Fe76  1  0.62772220  0.37341041  0.87474265  1
  Fe  Fe77  1  0.12423268  0.37326673  0.62499090  1
  Fe  Fe78  1  0.37353532  0.37620215  0.87214519  1
  Fe  Fe79  1  0.12591801  0.37252844  0.37586254  1
  Fe  Fe80  1  0.24984660  0.75168623  0.00069646  1
  Fe  Fe81  1  0.62454749  0.37427701  0.12607558  1
  Fe  Fe82  1  0.50380096  0.50051433  0.49858376  1
  Fe  Fe83  1  0.24897524  0.75247757  0.25028753  1
  Fe  Fe84  1  -0.00299078  0.24972209  0.74985709  1
  Fe  Fe85  1  -0.00093204  0.49989901  0.25359296  1
  Fe  Fe86  1  0.75205204  0.75210491  0.74575898  1
  Fe  Fe87  1  0.37515164  0.37594519  0.12605277  1
  Fe  Fe88  1  0.62587248  0.62553394  0.12525862  1
  Fe  Fe89  1  0.12098069  0.87300030  0.37888886  1
  Co  Co90  1  0.24586900  0.50029766  0.74960437  1
  Co  Co91  1  0.87643245  0.62315869  0.12372856  1
  Co  Co92  1  0.50062557  -0.00153518  0.75183133  1
  Co  Co93  1  0.12126615  0.87438691  0.12530666  1
  Co  Co94  1  0.25130665  0.25327791  0.25049154  1
  Co  Co95  1  0.62436219  0.62674447  0.62508440  1
  Co  Co96  1  0.74961316  -0.00418779  0.25471363  1
  Co  Co97  1  0.87428996  0.87993538  0.61961835  1
  Co  Co98  1  0.12314724  0.63029140  0.87357513  1
  Co  Co99  1  0.87171496  0.37450600  0.87511542  1
  Co  Co100  1  0.74840405  0.50241058  0.49957432  1
  Co  Co101  1  0.00150053  0.00110302  0.00021099  1
  Co  Co102  1  0.00144303  0.00417559  0.49790756  1
  Co  Co103  1  0.24769741  0.00076488  0.74897802  1
  Co  Co104  1  0.12378277  0.87664198  0.62311425  1
  Co  Co105  1  0.50410429  0.49825852  0.74946509  1
  Co  Co106  1  0.74753239  0.50134603  0.00001151  1
  Co  Co107  1  0.12453354  0.62709763  0.37540326  1
  Co  Co108  1  0.87876540  0.87333066  0.37815897  1
  Co  Co109  1  0.62706185  0.88073944  0.62633365  1
  Co  Co110  1  0.87024926  0.12764462  0.37486715  1
  Co  Co111  1  0.37148679  0.12256734  0.37315966  1
  Co  Co112  1  0.37484129  0.37630758  0.37732330  1
  Co  Co113  1  0.24680765  -0.00579052  0.25217283  1
  Co  Co114  1  0.63202662  0.13245908  0.37318808  1
  Co  Co115  1  0.75342735  0.25263943  0.24496502  1
  Co  Co116  1  0.37579501  0.87895011  0.62500070  1
  Co  Co117  1  -0.00076545  0.74886639  0.50403448  1
  Co  Co118  1  0.12631936  0.36877825  0.87445037  1
  Co  Co119  1  0.62361283  0.86887524  0.37340496  1
  Co  Co120  1  0.50421874  0.00107891  0.49365507  1
  Co  Co121  1  0.74699700  0.00015566  0.00065717  1
  Co  Co122  1  0.62929126  0.37083982  0.37645981  1
  Co  Co123  1  0.62393761  0.11981517  0.62415845  1
  Co  Co124  1  0.75301911  0.00141692  0.75085346  1
  Co  Co125  1  0.62544207  0.12556371  0.12838134  1
  Co  Co126  1  0.00080644  0.49782678  0.49708182  1
  Co  Co127  1  0.75085925  0.24916207  0.50655004  1
