# generated using pymatgen
data_Fe45Co19
_symmetry_space_group_name_H-M   'P 1'
_cell_length_a   11.41590439
_cell_length_b   11.41506980
_cell_length_c   11.41453705
_cell_angle_alpha   90.01828256
_cell_angle_beta   90.00758720
_cell_angle_gamma   89.99859794
_symmetry_Int_Tables_number   1
_chemical_formula_structural   Fe45Co19
_chemical_formula_sum   'Fe90 Co38'
_cell_volume   1487.46642176
_cell_formula_units_Z   2
loop_
 _symmetry_equiv_pos_site_id
 _symmetry_equiv_pos_as_xyz
  1  'x, y, z'
loop_
 _atom_site_type_symbol
 _atom_site_label
 _atom_site_symmetry_multiplicity
 _atom_site_fract_x
 _atom_site_fract_y
 _atom_site_fract_z
 _atom_site_occupancy
  Fe  Fe0  1  0.12693517  0.87546908  0.37588649  1
  Fe  Fe1  1  0.75025923  0.24997533  0.74652470  1
  Fe  Fe2  1  0.49851802  0.25431706  0.25299586  1
  Fe  Fe3  1  0.37576643  0.87510206  0.87829226  1
  Fe  Fe4  1  0.87390434  0.87291895  0.37871284  1
  Fe  Fe5  1  0.74861785  0.25153544  0.00177343  1
  Fe  Fe6  1  0.62602029  0.37636830  0.87427874  1
  Fe  Fe7  1  0.87671988  0.12641374  0.37890636  1
  Fe  Fe8  1  0.37489384  0.87317009  0.62101293  1
  Fe  Fe9  1  0.00107398  0.24836319  0.00131054  1
  Fe  Fe10  1  0.25166492  -0.00085500  0.24823227  1
  Fe  Fe11  1  0.24815994  0.74833193  0.50047568  1
  Fe  Fe12  1  0.62635152  0.87346457  0.62292393  1
  Fe  Fe13  1  0.62481959  0.12556592  0.37566556  1
  Fe  Fe14  1  0.37618666  0.12478779  0.62508780  1
  Fe  Fe15  1  0.12533403  0.87657345  0.12275777  1
  Fe  Fe16  1  0.12608062  0.37546494  0.12506688  1
  Fe  Fe17  1  0.24707636  0.00370755  0.50039081  1
  Fe  Fe18  1  0.74886879  0.74546126  0.50123738  1
  Fe  Fe19  1  0.50127196  -0.00165338  0.49912533  1
  Fe  Fe20  1  0.25095832  0.75233814  0.24969968  1
  Fe  Fe21  1  0.12215032  0.12249396  0.87385436  1
  Fe  Fe22  1  0.37430122  0.37631850  0.12470750  1
  Fe  Fe23  1  0.87457597  0.12605701  0.87525314  1
  Fe  Fe24  1  0.37597263  0.62599913  0.62529069  1
  Fe  Fe25  1  0.75110941  0.74605825  0.00031289  1
  Fe  Fe26  1  0.50019646  0.50197483  0.00110646  1
  Fe  Fe27  1  0.75151510  -0.00087599  0.25222080  1
  Fe  Fe28  1  -0.00010216  0.75092190  0.50175780  1
  Fe  Fe29  1  0.25104824  0.24891106  0.25131085  1
  Fe  Fe30  1  0.25065122  -0.00048329  0.75088721  1
  Fe  Fe31  1  0.12876053  0.37321392  0.37942340  1
  Fe  Fe32  1  0.24736153  0.74712944  -0.00191042  1
  Fe  Fe33  1  0.12384992  0.87715023  0.62634550  1
  Fe  Fe34  1  0.12268692  0.62392992  0.62792050  1
  Fe  Fe35  1  0.24984578  0.24908944  0.74921679  1
  Fe  Fe36  1  0.62647619  0.87358099  0.12494877  1
  Fe  Fe37  1  0.12401632  0.37622249  0.87390353  1
  Fe  Fe38  1  0.50003082  -0.00176435  0.74960134  1
  Fe  Fe39  1  0.87550061  0.37521861  0.87549250  1
  Fe  Fe40  1  0.87340414  0.37495841  0.61978071  1
  Fe  Fe41  1  0.00103809  0.25275655  0.25227391  1
  Fe  Fe42  1  0.37366549  0.62649259  0.37586801  1
  Fe  Fe43  1  0.49816373  -0.00393391  0.24950338  1
  Fe  Fe44  1  0.50094391  0.74969902  0.74823060  1
  Fe  Fe45  1  0.87699074  0.12238674  0.61973200  1
  Fe  Fe46  1  0.37587021  0.12345888  0.12276742  1
  Fe  Fe47  1  0.62549332  0.87357047  0.37593614  1
  Fe  Fe48  1  0.12797041  0.37548171  0.62197301  1
  Fe  Fe49  1  0.00224549  0.50137313  0.00117525  1
  Fe  Fe50  1  0.75176843  -0.00132706  0.74636981  1
  Fe  Fe51  1  0.87540060  0.12570694  0.12625530  1
  Fe  Fe52  1  0.49914976  0.50152975  0.49863042  1
  Fe  Fe53  1  0.37494557  0.37608991  0.87612331  1
  Fe  Fe54  1  0.00080496  0.74934728  0.00228352  1
  Fe  Fe55  1  0.37719524  0.12405936  0.87636909  1
  Fe  Fe56  1  0.62532755  0.37948565  0.12921572  1
  Fe  Fe57  1  0.75111575  0.74893800  0.24962203  1
  Fe  Fe58  1  0.12158469  0.87607453  0.87478212  1
  Fe  Fe59  1  0.62912709  0.37995620  0.62184747  1
  Fe  Fe60  1  0.24776239  0.50417086  -0.00182500  1
  Fe  Fe61  1  0.24963655  0.50017779  0.25191640  1
  Fe  Fe62  1  -0.00193738  -0.00331229  0.24996429  1
  Fe  Fe63  1  0.62533045  0.12445070  0.12720952  1
  Fe  Fe64  1  0.62528238  0.62165199  0.37199063  1
  Fe  Fe65  1  0.50056122  0.25322314  0.74744249  1
  Fe  Fe66  1  0.49690990  0.75180448  0.25135908  1
  Fe  Fe67  1  0.50252541  0.24982042  0.00078626  1
  Fe  Fe68  1  0.87594478  0.87354689  0.87418861  1
  Fe  Fe69  1  0.62573188  0.12528369  0.87265543  1
  Fe  Fe70  1  0.24837053  0.24771249  -0.00001843  1
  Fe  Fe71  1  0.37431973  0.62589852  0.12510895  1
  Fe  Fe72  1  0.50131756  0.25201352  0.49933090  1
  Fe  Fe73  1  0.62470000  0.62233272  0.87022326  1
  Fe  Fe74  1  0.62626402  0.87531502  0.87512103  1
  Fe  Fe75  1  0.37041353  0.37628235  0.62032087  1
  Fe  Fe76  1  0.50187076  0.74884551  0.00044522  1
  Fe  Fe77  1  -0.00237177  0.50082687  0.49679222  1
  Fe  Fe78  1  0.74971476  0.25241063  0.25231926  1
  Fe  Fe79  1  0.75111636  0.50265013  0.00209807  1
  Fe  Fe80  1  0.87922947  0.62415697  0.87038343  1
  Fe  Fe81  1  0.88032233  0.62483282  0.13135842  1
  Fe  Fe82  1  0.87370825  0.62547917  0.62885234  1
  Fe  Fe83  1  0.37522789  0.12387964  0.37600064  1
  Fe  Fe84  1  0.12080552  0.62758585  0.37128802  1
  Fe  Fe85  1  0.75083657  0.00020492  0.00121101  1
  Fe  Fe86  1  0.24903492  0.74890126  0.75157240  1
  Fe  Fe87  1  0.87579763  0.37611486  0.12646774  1
  Fe  Fe88  1  -0.00052408  0.25113686  0.74696199  1
  Fe  Fe89  1  0.25028234  0.50243613  0.75175570  1
  Co  Co90  1  -0.00020871  0.49557022  0.74695087  1
  Co  Co91  1  0.00412733  0.25019341  0.50055818  1
  Co  Co92  1  0.49730272  0.49705612  0.74759403  1
  Co  Co93  1  -0.00309298  0.00022218  0.00187663  1
  Co  Co94  1  0.37134452  0.37518759  0.37932302  1
  Co  Co95  1  0.62332147  0.12341022  0.62531587  1
  Co  Co96  1  0.12286164  0.12351198  0.62829871  1
  Co  Co97  1  0.74760420  0.00000272  0.49922481  1
  Co  Co98  1  0.24803793  0.50661746  0.49808032  1
  Co  Co99  1  0.37274336  0.87526170  0.38012244  1
  Co  Co100  1  0.50334697  0.00049963  0.00121166  1
  Co  Co101  1  0.00112053  0.49395900  0.25509755  1
  Co  Co102  1  0.00283697  -0.00215628  0.49842825  1
  Co  Co103  1  0.12323844  0.12403208  0.37133809  1
  Co  Co104  1  0.74635392  0.24736336  0.50024327  1
  Co  Co105  1  0.00148144  0.75794792  0.24845181  1
  Co  Co106  1  0.62587504  0.62183288  0.62745665  1
  Co  Co107  1  0.12293355  0.12435060  0.12687211  1
  Co  Co108  1  0.12359154  0.62527289  0.12990781  1
  Co  Co109  1  0.11991195  0.62488201  0.87134955  1
  Co  Co110  1  0.75550403  0.50642381  0.49560774  1
  Co  Co111  1  0.74947724  0.75091602  0.74957873  1
  Co  Co112  1  0.24869509  0.00127201  -0.00039102  1
  Co  Co113  1  0.24846043  0.24284453  0.49985834  1
  Co  Co114  1  0.87997448  0.62997495  0.36995001  1
  Co  Co115  1  0.87346386  0.87479792  0.62123708  1
  Co  Co116  1  -0.00015694  0.75321800  0.74717405  1
  Co  Co117  1  0.37520954  0.87354724  0.12053039  1
  Co  Co118  1  -0.00381458  -0.00092022  0.74884884  1
  Co  Co119  1  0.50170852  0.74726597  0.49854781  1
  Co  Co120  1  0.75545303  0.50038371  0.25181856  1
  Co  Co121  1  0.62784295  0.37857863  0.37559033  1
  Co  Co122  1  0.62402056  0.62497472  0.12910070  1
  Co  Co123  1  0.49568263  0.49959754  0.25209196  1
  Co  Co124  1  0.87173982  0.87346105  0.12467712  1
  Co  Co125  1  0.75252200  0.49808407  0.75142633  1
  Co  Co126  1  0.37767702  0.62584933  0.87376564  1
  Co  Co127  1  0.87199069  0.37080851  0.37886502  1
