# generated using pymatgen
data_Fe45Co19
_symmetry_space_group_name_H-M   'P 1'
_cell_length_a   11.41578573
_cell_length_b   11.41405966
_cell_length_c   11.41459077
_cell_angle_alpha   89.99702362
_cell_angle_beta   89.99989995
_cell_angle_gamma   89.99823724
_symmetry_Int_Tables_number   1
_chemical_formula_structural   Fe45Co19
_chemical_formula_sum   'Fe90 Co38'
_cell_volume   1487.32641763
_cell_formula_units_Z   2
loop_
 _symmetry_equiv_pos_site_id
 _symmetry_equiv_pos_as_xyz
  1  'x, y, z'
loop_
 _atom_site_type_symbol
 _atom_site_label
 _atom_site_symmetry_multiplicity
 _atom_site_fract_x
 _atom_site_fract_y
 _atom_site_fract_z
 _atom_site_occupancy
  Fe  Fe0  1  0.37737600  0.62331326  0.87472438  1
  Fe  Fe1  1  0.37300900  0.87670313  0.62287769  1
  Fe  Fe2  1  0.24927952  0.50176626  0.25317947  1
  Fe  Fe3  1  0.62585271  0.12636364  0.62530200  1
  Fe  Fe4  1  0.49977042  0.75049366  0.49886696  1
  Fe  Fe5  1  0.12383278  0.87605812  0.12158319  1
  Fe  Fe6  1  0.37589966  0.62387547  0.12665792  1
  Fe  Fe7  1  0.50023123  0.75028692  0.75045138  1
  Fe  Fe8  1  0.49952579  0.25203569  0.74720647  1
  Fe  Fe9  1  0.37768309  0.12505652  0.87447492  1
  Fe  Fe10  1  0.62765320  0.37683230  0.12605973  1
  Fe  Fe11  1  0.24612837  0.00118311  0.25368645  1
  Fe  Fe12  1  0.12589194  0.37590185  0.87720053  1
  Fe  Fe13  1  0.24686894  0.50168088  0.74908611  1
  Fe  Fe14  1  0.75103787  0.24900849  -0.00141405  1
  Fe  Fe15  1  0.37549796  0.62349076  0.62474935  1
  Fe  Fe16  1  0.25090918  0.24914528  -0.00094298  1
  Fe  Fe17  1  0.87783919  0.12273606  0.12640939  1
  Fe  Fe18  1  0.50326394  0.50167971  0.50006998  1
  Fe  Fe19  1  0.00027068  0.49584901  0.25153361  1
  Fe  Fe20  1  0.74942646  0.25045830  0.75116198  1
  Fe  Fe21  1  0.50236581  -0.00256909  0.00024696  1
  Fe  Fe22  1  0.62750383  0.87007850  0.87767298  1
  Fe  Fe23  1  0.37410009  0.37701826  0.87387002  1
  Fe  Fe24  1  0.50392246  -0.00328158  0.24863440  1
  Fe  Fe25  1  0.75105776  0.00340921  -0.00353783  1
  Fe  Fe26  1  0.86735859  0.38082244  0.62438754  1
  Fe  Fe27  1  0.62528795  0.12511209  0.12513045  1
  Fe  Fe28  1  0.50039672  0.25180556  0.00065375  1
  Fe  Fe29  1  0.50029813  0.49928504  0.00189774  1
  Fe  Fe30  1  0.62900747  0.87079233  0.62569484  1
  Fe  Fe31  1  0.24918229  0.74532370  -0.00085082  1
  Fe  Fe32  1  0.87177582  0.87382270  0.62681116  1
  Fe  Fe33  1  -0.00113800  0.25619924  0.74739937  1
  Fe  Fe34  1  0.62237111  0.62481489  0.12667640  1
  Fe  Fe35  1  0.62664921  0.37618745  0.87568168  1
  Fe  Fe36  1  0.37260715  0.37889373  0.37771339  1
  Fe  Fe37  1  0.12599172  0.87380921  0.62584513  1
  Fe  Fe38  1  0.75056888  0.00129299  0.49864657  1
  Fe  Fe39  1  -0.00123763  -0.00504800  0.75469573  1
  Fe  Fe40  1  0.87954383  0.12677294  0.37267809  1
  Fe  Fe41  1  0.50306021  -0.00248617  0.74921341  1
  Fe  Fe42  1  0.25069918  0.24915863  0.25421653  1
  Fe  Fe43  1  0.24985659  0.74886656  0.25089996  1
  Fe  Fe44  1  0.37307559  0.87395729  0.87577238  1
  Fe  Fe45  1  0.75301719  0.24827104  0.49914478  1
  Fe  Fe46  1  0.37515896  0.12094450  0.62093747  1
  Fe  Fe47  1  0.49887143  0.25282395  0.25145528  1
  Fe  Fe48  1  -0.00086414  -0.00168195  0.50047272  1
  Fe  Fe49  1  -0.00122698  0.75190869  0.24706252  1
  Fe  Fe50  1  0.62839197  0.37692518  0.37669455  1
  Fe  Fe51  1  0.75262319  0.74254364  0.49969458  1
  Fe  Fe52  1  0.87262472  0.38232134  0.87332253  1
  Fe  Fe53  1  0.62841280  0.87316255  0.37535489  1
  Fe  Fe54  1  0.74931562  0.00129965  0.75320430  1
  Fe  Fe55  1  -0.00218186  0.25394860  0.00115109  1
  Fe  Fe56  1  0.24856440  0.00040656  0.75054922  1
  Fe  Fe57  1  0.25057688  0.74711356  0.50000872  1
  Fe  Fe58  1  0.12116072  0.12446529  0.12489137  1
  Fe  Fe59  1  0.11608279  0.62432831  0.87466768  1
  Fe  Fe60  1  0.87403819  0.87831134  0.12445509  1
  Fe  Fe61  1  0.87504344  0.87358559  0.37449205  1
  Fe  Fe62  1  0.12899455  0.37546791  0.12516820  1
  Fe  Fe63  1  0.11959413  0.13109470  0.37759728  1
  Fe  Fe64  1  0.62336545  0.12464647  0.37510380  1
  Fe  Fe65  1  0.12146458  0.62430684  0.12413369  1
  Fe  Fe66  1  0.49996040  0.75326008  0.24881645  1
  Fe  Fe67  1  0.12223532  0.12614151  0.62440194  1
  Fe  Fe68  1  0.25192316  0.25059259  0.74741281  1
  Fe  Fe69  1  0.50515584  0.49936580  0.74686281  1
  Fe  Fe70  1  0.75337576  0.74049837  0.75313067  1
  Fe  Fe71  1  0.37583365  0.12499367  0.12730124  1
  Fe  Fe72  1  0.37401659  0.87794337  0.37685841  1
  Fe  Fe73  1  0.87149625  0.37730375  0.12639870  1
  Fe  Fe74  1  0.87617822  0.12419298  0.62854862  1
  Fe  Fe75  1  0.12311364  0.87202117  0.37657085  1
  Fe  Fe76  1  0.37186213  0.87492862  0.12401524  1
  Fe  Fe77  1  -0.00227250  0.49827372  0.49958811  1
  Fe  Fe78  1  0.37194231  0.37663048  0.12436830  1
  Fe  Fe79  1  0.49740908  0.25150518  0.50032696  1
  Fe  Fe80  1  0.13102175  0.37458441  0.61786271  1
  Fe  Fe81  1  0.12188614  0.62551376  0.37598817  1
  Fe  Fe82  1  0.24763190  0.74696397  0.74983166  1
  Fe  Fe83  1  -0.00281001  0.74861800  0.50433059  1
  Fe  Fe84  1  0.24875375  0.00236069  -0.00133348  1
  Fe  Fe85  1  0.75547205  0.74013441  -0.00089259  1
  Fe  Fe86  1  0.75088661  0.50373715  0.25294666  1
  Fe  Fe87  1  0.75103441  0.24806211  0.25110786  1
  Fe  Fe88  1  0.75189946  0.74800646  0.24871852  1
  Fe  Fe89  1  0.12108828  0.12741193  0.87391423  1
  Co  Co90  1  0.24919039  0.50365550  -0.00168875  1
  Co  Co91  1  0.37762319  0.62553324  0.37376703  1
  Co  Co92  1  -0.00187207  0.75481700  0.75039488  1
  Co  Co93  1  0.12841982  0.87229574  0.87672231  1
  Co  Co94  1  0.62093379  0.62510005  0.87823777  1
  Co  Co95  1  0.74298102  0.50596280  0.74950645  1
  Co  Co96  1  0.88461220  0.61646371  0.87024614  1
  Co  Co97  1  0.63156941  0.87273798  0.12119304  1
  Co  Co98  1  0.49940479  0.49736805  0.24971952  1
  Co  Co99  1  0.00556459  0.49260698  0.74438030  1
  Co  Co100  1  0.24932690  0.50594725  0.49832089  1
  Co  Co101  1  0.25485315  0.24670060  0.49867774  1
  Co  Co102  1  0.87915887  0.62117371  0.62982340  1
  Co  Co103  1  0.62878719  0.37361899  0.62165182  1
  Co  Co104  1  -0.00150354  -0.00195764  -0.00494689  1
  Co  Co105  1  0.12155207  0.62606756  0.62448327  1
  Co  Co106  1  0.86978087  0.87182180  0.87612298  1
  Co  Co107  1  0.62265072  0.62609846  0.37162812  1
  Co  Co108  1  0.49798856  0.75032353  0.00190020  1
  Co  Co109  1  0.62288944  0.12726494  0.87444002  1
  Co  Co110  1  0.75015682  0.00075330  0.25263976  1
  Co  Co111  1  0.87921974  0.62596366  0.37309800  1
  Co  Co112  1  0.37326295  0.37981605  0.62427244  1
  Co  Co113  1  0.00130945  -0.00246755  0.25262632  1
  Co  Co114  1  -0.00528795  0.25451814  0.50475247  1
  Co  Co115  1  0.50591266  -0.00320851  0.50196565  1
  Co  Co116  1  -0.00047249  0.49551703  0.00406223  1
  Co  Co117  1  0.12543853  0.37290334  0.37852382  1
  Co  Co118  1  0.74996279  0.50700279  0.49785949  1
  Co  Co119  1  -0.00363037  0.75184103  -0.00058171  1
  Co  Co120  1  0.87269313  0.37538335  0.37452661  1
  Co  Co121  1  0.74993168  0.50557299  -0.00020013  1
  Co  Co122  1  -0.00053268  0.25530672  0.24655496  1
  Co  Co123  1  0.24428514  0.00091613  0.49783203  1
  Co  Co124  1  0.62355843  0.62836160  0.62272252  1
  Co  Co125  1  0.37846324  0.11971733  0.37546857  1
  Co  Co126  1  0.87860605  0.12911416  0.87241314  1
  Co  Co127  1  0.87953660  0.62219390  0.12727203  1
