# generated using pymatgen
data_Fe45Co19
_symmetry_space_group_name_H-M   'P 1'
_cell_length_a   11.41544744
_cell_length_b   11.41362584
_cell_length_c   11.41485548
_cell_angle_alpha   90.00937760
_cell_angle_beta   90.00645578
_cell_angle_gamma   90.01331303
_symmetry_Int_Tables_number   1
_chemical_formula_structural   Fe45Co19
_chemical_formula_sum   'Fe90 Co38'
_cell_volume   1487.26023924
_cell_formula_units_Z   2
loop_
 _symmetry_equiv_pos_site_id
 _symmetry_equiv_pos_as_xyz
  1  'x, y, z'
loop_
 _atom_site_type_symbol
 _atom_site_label
 _atom_site_symmetry_multiplicity
 _atom_site_fract_x
 _atom_site_fract_y
 _atom_site_fract_z
 _atom_site_occupancy
  Fe  Fe0  1  0.62613574  0.87311560  0.62585078  1
  Fe  Fe1  1  0.87194081  0.86900459  0.62238485  1
  Fe  Fe2  1  0.37413151  0.87324259  0.87250051  1
  Fe  Fe3  1  0.50217765  0.25015840  0.49879391  1
  Fe  Fe4  1  0.74543953  0.25077302  0.25149532  1
  Fe  Fe5  1  -0.00228553  0.25288365  -0.00246172  1
  Fe  Fe6  1  0.25105554  0.00014224  0.00144295  1
  Fe  Fe7  1  0.24889496  0.24986230  0.49742369  1
  Fe  Fe8  1  0.37433620  0.87491162  0.37480945  1
  Fe  Fe9  1  0.50270799  0.74773368  0.49906134  1
  Fe  Fe10  1  0.75041586  0.00107493  0.24831053  1
  Fe  Fe11  1  0.50012662  0.74828579  -0.00126543  1
  Fe  Fe12  1  0.25663340  0.49644244  0.00366202  1
  Fe  Fe13  1  0.62125724  0.37645190  0.87615546  1
  Fe  Fe14  1  0.49965766  0.00253647  0.75174499  1
  Fe  Fe15  1  0.87352587  0.37435124  0.37445028  1
  Fe  Fe16  1  0.25185644  0.49722256  0.24598587  1
  Fe  Fe17  1  0.12472846  0.12656136  0.87535726  1
  Fe  Fe18  1  0.12540097  0.37703739  0.37500828  1
  Fe  Fe19  1  0.24978440  0.74908894  -0.00101343  1
  Fe  Fe20  1  0.62519909  0.12638528  0.62645802  1
  Fe  Fe21  1  0.37444680  0.12675936  0.62676826  1
  Fe  Fe22  1  0.25182050  0.49926604  0.50079291  1
  Fe  Fe23  1  0.49861461  0.00329358  -0.00154670  1
  Fe  Fe24  1  0.24824978  0.25283094  0.75175114  1
  Fe  Fe25  1  0.50325284  0.75008105  0.25137879  1
  Fe  Fe26  1  0.50107839  0.50003720  0.74708585  1
  Fe  Fe27  1  0.87624790  0.87264049  0.12603072  1
  Fe  Fe28  1  0.24820585  0.74908357  0.24948552  1
  Fe  Fe29  1  0.75102633  0.25236509  -0.00218808  1
  Fe  Fe30  1  0.25009207  0.00128801  0.49876201  1
  Fe  Fe31  1  0.24971173  0.00039793  0.75032146  1
  Fe  Fe32  1  0.75089070  0.49990319  0.24818031  1
  Fe  Fe33  1  0.75073128  0.00038394  0.00045718  1
  Fe  Fe34  1  0.87388374  0.12831956  0.12471231  1
  Fe  Fe35  1  0.37448056  0.87245053  0.62685225  1
  Fe  Fe36  1  0.62327754  0.38056506  0.37752493  1
  Fe  Fe37  1  0.37596434  0.87376841  0.12608581  1
  Fe  Fe38  1  0.87458252  0.62570593  0.12366072  1
  Fe  Fe39  1  0.62397590  0.12663144  0.12282912  1
  Fe  Fe40  1  -0.00141769  0.49942863  0.24936976  1
  Fe  Fe41  1  0.12402231  0.62346454  0.12308988  1
  Fe  Fe42  1  0.75245088  0.49914209  0.74735593  1
  Fe  Fe43  1  0.62872176  0.87887867  0.37706413  1
  Fe  Fe44  1  0.87471083  0.62208671  0.87467085  1
  Fe  Fe45  1  0.87780049  0.62765177  0.37891933  1
  Fe  Fe46  1  0.37606530  0.62431747  0.37410780  1
  Fe  Fe47  1  -0.00033415  0.74750653  0.75077964  1
  Fe  Fe48  1  -0.00436468  0.49572747  0.00086260  1
  Fe  Fe49  1  0.75134234  0.00026615  0.74943001  1
  Fe  Fe50  1  0.00013148  0.00123985  0.00098351  1
  Fe  Fe51  1  0.37671258  0.37329980  0.62602216  1
  Fe  Fe52  1  0.25434096  0.25429387  -0.00057589  1
  Fe  Fe53  1  0.62611745  0.62302082  0.87560478  1
  Fe  Fe54  1  0.37498750  0.12941253  0.12969525  1
  Fe  Fe55  1  0.12632536  0.87479348  0.62663631  1
  Fe  Fe56  1  0.00183548  0.25066763  0.25066743  1
  Fe  Fe57  1  0.12398418  0.62324855  0.37622556  1
  Fe  Fe58  1  0.62141479  0.37490300  0.12087092  1
  Fe  Fe59  1  0.12716311  0.12838370  0.12514202  1
  Fe  Fe60  1  0.50187606  0.00086520  0.24944520  1
  Fe  Fe61  1  0.24811686  0.74917636  0.50093405  1
  Fe  Fe62  1  0.24789005  0.49866167  0.74898491  1
  Fe  Fe63  1  -0.00151465  0.00145908  0.74940954  1
  Fe  Fe64  1  0.75191528  0.50116012  0.50217741  1
  Fe  Fe65  1  0.74734122  0.25037343  0.49909774  1
  Fe  Fe66  1  0.62590673  0.62510505  0.12376165  1
  Fe  Fe67  1  0.12017010  0.62136979  0.62296319  1
  Fe  Fe68  1  0.62729632  0.62641876  0.62503588  1
  Fe  Fe69  1  0.37496122  0.62710562  0.62585962  1
  Fe  Fe70  1  0.12463935  0.87419370  0.87467652  1
  Fe  Fe71  1  0.74917041  0.74958211  0.25240666  1
  Fe  Fe72  1  0.87634000  0.12963084  0.62663946  1
  Fe  Fe73  1  0.00133250  0.25274404  0.49944910  1
  Fe  Fe74  1  0.12414231  0.87624523  0.37326324  1
  Fe  Fe75  1  0.12371130  0.62066668  0.87678973  1
  Fe  Fe76  1  0.12353752  0.87300702  0.12542362  1
  Fe  Fe77  1  0.87599350  0.87577688  0.87577066  1
  Fe  Fe78  1  0.37463400  0.12627673  0.37173203  1
  Fe  Fe79  1  0.37745688  0.37550112  0.37347232  1
  Fe  Fe80  1  0.87372711  0.12424147  0.37598419  1
  Fe  Fe81  1  0.37470513  0.62468088  0.87254132  1
  Fe  Fe82  1  -0.00218477  -0.00135516  0.50046383  1
  Fe  Fe83  1  0.49890523  0.50056466  0.24625622  1
  Fe  Fe84  1  0.12400912  0.12696467  0.62521154  1
  Fe  Fe85  1  0.62499700  0.87550156  0.87466449  1
  Fe  Fe86  1  -0.00012663  0.00135921  0.24971251  1
  Fe  Fe87  1  0.75062044  0.75035714  -0.00139628  1
  Fe  Fe88  1  0.74981448  0.25196909  0.75196342  1
  Fe  Fe89  1  0.50019800  0.00140001  0.50136358  1
  Co  Co90  1  -0.00246834  0.49545910  0.49941643  1
  Co  Co91  1  0.62930030  0.12424818  0.87491413  1
  Co  Co92  1  0.12625487  0.37778565  0.87821370  1
  Co  Co93  1  0.74591613  0.74624952  0.49675194  1
  Co  Co94  1  0.24598809  0.74687389  0.74985223  1
  Co  Co95  1  0.87269507  0.87560878  0.37512045  1
  Co  Co96  1  0.50664909  0.25046397  0.25430107  1
  Co  Co97  1  0.75207846  0.00224779  0.50450366  1
  Co  Co98  1  0.00199265  0.25434972  0.75259228  1
  Co  Co99  1  0.87447989  0.37326713  0.62458590  1
  Co  Co100  1  0.62307418  0.61950862  0.37382845  1
  Co  Co101  1  0.49636857  0.50299468  0.00186341  1
  Co  Co102  1  0.75186318  0.74845986  0.75240357  1
  Co  Co103  1  0.37866090  0.37812467  0.87183811  1
  Co  Co104  1  0.62489313  0.37443217  0.62453384  1
  Co  Co105  1  0.75130872  0.49739808  0.00104104  1
  Co  Co106  1  0.24664604  0.25310072  0.25120664  1
  Co  Co107  1  0.37538078  0.62912710  0.12708678  1
  Co  Co108  1  0.87760732  0.62580824  0.62258506  1
  Co  Co109  1  0.49672888  0.24628184  -0.00565238  1
  Co  Co110  1  0.12389456  0.12324099  0.37597564  1
  Co  Co111  1  0.37064216  0.12470141  0.87256820  1
  Co  Co112  1  -0.00127700  0.49636185  0.74930273  1
  Co  Co113  1  0.49858472  0.50133238  0.50423440  1
  Co  Co114  1  0.24885805  0.00051494  0.24931670  1
  Co  Co115  1  0.87574758  0.12489136  0.87441634  1
  Co  Co116  1  0.00271997  0.75374418  0.49987894  1
  Co  Co117  1  0.87355067  0.37586167  0.87310606  1
  Co  Co118  1  0.50159117  0.74852941  0.75052908  1
  Co  Co119  1  0.62461811  0.87449341  0.12359867  1
  Co  Co120  1  0.62678503  0.12038294  0.37678478  1
  Co  Co121  1  -0.00091700  0.74907358  -0.00144183  1
  Co  Co122  1  0.12285294  0.37587202  0.12338269  1
  Co  Co123  1  0.12610064  0.37526570  0.62345068  1
  Co  Co124  1  0.38083555  0.36911943  0.12726517  1
  Co  Co125  1  -0.00004823  0.74795508  0.25066245  1
  Co  Co126  1  0.87424195  0.37290126  0.12763818  1
  Co  Co127  1  0.50055507  0.24819520  0.75226607  1
