# generated using pymatgen
data_Fe45Co19
_symmetry_space_group_name_H-M   'P 1'
_cell_length_a   11.41493144
_cell_length_b   11.41567979
_cell_length_c   11.41472558
_cell_angle_alpha   90.00000436
_cell_angle_beta   89.98677007
_cell_angle_gamma   90.00190783
_symmetry_Int_Tables_number   1
_chemical_formula_structural   Fe45Co19
_chemical_formula_sum   'Fe90 Co38'
_cell_volume   1487.44374187
_cell_formula_units_Z   2
loop_
 _symmetry_equiv_pos_site_id
 _symmetry_equiv_pos_as_xyz
  1  'x, y, z'
loop_
 _atom_site_type_symbol
 _atom_site_label
 _atom_site_symmetry_multiplicity
 _atom_site_fract_x
 _atom_site_fract_y
 _atom_site_fract_z
 _atom_site_occupancy
  Fe  Fe0  1  0.87737461  0.62345236  0.12253177  1
  Fe  Fe1  1  0.24978062  0.74807803  0.49890747  1
  Fe  Fe2  1  0.62362974  0.37268299  0.62313636  1
  Fe  Fe3  1  0.62276796  0.87440571  0.87856246  1
  Fe  Fe4  1  0.62868825  0.12461711  0.87009416  1
  Fe  Fe5  1  -0.00181008  0.24768333  0.50085903  1
  Fe  Fe6  1  0.00126239  0.00014276  0.74710273  1
  Fe  Fe7  1  0.12861974  0.37465005  0.87488905  1
  Fe  Fe8  1  0.62391380  0.87270514  0.12206823  1
  Fe  Fe9  1  0.25236981  0.49974602  0.00109216  1
  Fe  Fe10  1  0.62053060  0.37794605  0.88238044  1
  Fe  Fe11  1  0.49964424  0.75235436  0.75076213  1
  Fe  Fe12  1  0.74980605  0.24903545  0.00058336  1
  Fe  Fe13  1  0.74543434  0.00318695  0.50062318  1
  Fe  Fe14  1  0.00215150  0.49785049  0.75091739  1
  Fe  Fe15  1  0.62505241  0.37487990  0.37601303  1
  Fe  Fe16  1  0.24794624  0.00137573  0.50184623  1
  Fe  Fe17  1  0.62320355  0.87741546  0.62298869  1
  Fe  Fe18  1  0.87356034  0.37648464  0.62336709  1
  Fe  Fe19  1  0.12585434  0.37371260  0.37751530  1
  Fe  Fe20  1  0.37417234  0.11867268  0.36597037  1
  Fe  Fe21  1  0.49946955  0.49914311  0.75040684  1
  Fe  Fe22  1  0.12596319  0.62433446  0.87475521  1
  Fe  Fe23  1  0.74729275  0.49698354  0.75107942  1
  Fe  Fe24  1  0.25179783  0.00293038  0.00341173  1
  Fe  Fe25  1  0.37398821  0.62369088  0.37200107  1
  Fe  Fe26  1  0.00186059  0.50261138  0.49918206  1
  Fe  Fe27  1  0.00075926  0.49883266  0.24899550  1
  Fe  Fe28  1  0.49863644  0.74396396  0.00094017  1
  Fe  Fe29  1  0.49898709  0.25006182  0.75333345  1
  Fe  Fe30  1  0.87573363  0.87608129  0.37846286  1
  Fe  Fe31  1  0.74814562  0.24846929  0.50022044  1
  Fe  Fe32  1  0.25152166  0.75557445  0.25068816  1
  Fe  Fe33  1  0.25577722  0.24584322  -0.00050683  1
  Fe  Fe34  1  0.86927595  0.12561340  0.63070316  1
  Fe  Fe35  1  -0.00196452  0.25047584  0.75079309  1
  Fe  Fe36  1  0.75022676  0.74864937  0.50104014  1
  Fe  Fe37  1  0.49968224  0.75055318  0.49770141  1
  Fe  Fe38  1  0.74839668  0.49612029  0.24483979  1
  Fe  Fe39  1  0.12714968  0.37188133  0.62393770  1
  Fe  Fe40  1  0.25394470  0.24729350  0.49716967  1
  Fe  Fe41  1  0.37735003  0.12077424  0.62860680  1
  Fe  Fe42  1  0.75333242  0.75300369  0.24871006  1
  Fe  Fe43  1  0.74998558  0.25323963  0.24807796  1
  Fe  Fe44  1  0.25168464  0.75248718  0.75037578  1
  Fe  Fe45  1  0.87753865  0.87617831  0.12112321  1
  Fe  Fe46  1  -0.00197962  0.75246927  0.74917766  1
  Fe  Fe47  1  0.87571410  0.12558893  0.12520920  1
  Fe  Fe48  1  0.25191983  0.49477623  0.24876659  1
  Fe  Fe49  1  0.00113020  -0.00116692  0.24872617  1
  Fe  Fe50  1  0.62004815  0.12803959  0.13019364  1
  Fe  Fe51  1  0.37472398  0.62239015  0.87297166  1
  Fe  Fe52  1  0.37550726  0.87861732  0.87673585  1
  Fe  Fe53  1  0.62538170  0.62581390  0.62755096  1
  Fe  Fe54  1  -0.00068086  0.25099881  0.25072387  1
  Fe  Fe55  1  0.50180733  0.50229784  0.49973497  1
  Fe  Fe56  1  0.12503413  0.62699883  0.62704400  1
  Fe  Fe57  1  0.50066593  0.49807644  0.24698991  1
  Fe  Fe58  1  0.75046206  0.74653258  -0.00127967  1
  Fe  Fe59  1  0.12544938  0.62651624  0.12634697  1
  Fe  Fe60  1  0.37504370  0.37517279  0.62415773  1
  Fe  Fe61  1  0.87308531  0.12404599  0.37348509  1
  Fe  Fe62  1  0.87432125  0.37571094  0.37576515  1
  Fe  Fe63  1  0.24933759  0.50192388  0.50096932  1
  Fe  Fe64  1  0.37566770  0.62503075  0.62617781  1
  Fe  Fe65  1  -0.00011580  0.24695036  -0.00111718  1
  Fe  Fe66  1  0.49828799  0.00589395  0.00115667  1
  Fe  Fe67  1  0.12427141  0.87695594  0.87606558  1
  Fe  Fe68  1  0.62584877  0.62687282  0.37117378  1
  Fe  Fe69  1  0.87346353  0.62312721  0.62540891  1
  Fe  Fe70  1  0.12430111  0.37217590  0.12326119  1
  Fe  Fe71  1  0.49731309  0.75584835  0.25127917  1
  Fe  Fe72  1  0.87443264  0.62206600  0.87612540  1
  Fe  Fe73  1  0.00111770  0.00297617  0.50377873  1
  Fe  Fe74  1  0.38132704  0.37011692  0.12035840  1
  Fe  Fe75  1  0.37572591  0.87827208  0.62306267  1
  Fe  Fe76  1  0.87416450  0.62412003  0.37489384  1
  Fe  Fe77  1  0.87708728  0.87901549  0.87811645  1
  Fe  Fe78  1  0.25119808  0.74967673  -0.00040270  1
  Fe  Fe79  1  0.49918314  0.24478737  0.49638504  1
  Fe  Fe80  1  0.74921824  0.00271791  0.00062663  1
  Fe  Fe81  1  0.74745037  -0.00227254  0.24890335  1
  Fe  Fe82  1  0.12614126  0.12395320  0.87280456  1
  Fe  Fe83  1  0.25337572  0.24971758  0.75082904  1
  Fe  Fe84  1  0.87454200  0.37716449  0.88067357  1
  Fe  Fe85  1  0.75018574  0.75380542  0.75087115  1
  Fe  Fe86  1  0.12800087  0.12699591  0.12855878  1
  Fe  Fe87  1  0.12676909  0.12566124  0.37224582  1
  Fe  Fe88  1  0.12193445  0.87337323  0.37828394  1
  Fe  Fe89  1  0.12147681  0.87277843  0.12177438  1
  Co  Co90  1  0.87356726  0.12338218  0.87248750  1
  Co  Co91  1  0.61884777  0.37017003  0.11955020  1
  Co  Co92  1  0.25023529  0.49978171  0.74833330  1
  Co  Co93  1  0.74844449  -0.00609891  0.75141292  1
  Co  Co94  1  0.49902306  0.50809413  0.00392421  1
  Co  Co95  1  -0.00225613  0.75092669  0.24979209  1
  Co  Co96  1  0.37767201  0.87638357  0.12050137  1
  Co  Co97  1  0.37647164  0.37848303  0.87728371  1
  Co  Co98  1  -0.00010669  0.74799352  -0.00180496  1
  Co  Co99  1  0.12766646  0.62532898  0.36999810  1
  Co  Co100  1  0.62474267  0.62474533  0.87218844  1
  Co  Co101  1  -0.00069498  0.74594126  0.50016026  1
  Co  Co102  1  0.00181754  0.00460818  0.00125036  1
  Co  Co103  1  0.12589142  0.87215727  0.62300774  1
  Co  Co104  1  0.62589964  0.12577136  0.36956796  1
  Co  Co105  1  0.37208687  0.62745322  0.12939947  1
  Co  Co106  1  0.50357419  -0.00771349  0.25104749  1
  Co  Co107  1  0.62530079  0.12632906  0.62999762  1
  Co  Co108  1  0.00431533  0.50032118  -0.00028996  1
  Co  Co109  1  0.50287582  0.00383495  0.49637696  1
  Co  Co110  1  0.24717846  -0.00253601  0.74831115  1
  Co  Co111  1  0.37695689  0.12529810  0.13430127  1
  Co  Co112  1  0.24692693  -0.00742521  0.24636613  1
  Co  Co113  1  0.87709872  0.37446349  0.12104123  1
  Co  Co114  1  0.62539223  0.62953307  0.12971504  1
  Co  Co115  1  0.37600277  0.37873781  0.37842182  1
  Co  Co116  1  0.12656550  0.12915835  0.62624906  1
  Co  Co117  1  0.74894439  0.25713341  0.75335816  1
  Co  Co118  1  0.25208204  0.25554514  0.25195028  1
  Co  Co119  1  0.74693857  0.50100331  0.49954600  1
  Co  Co120  1  0.87436756  0.87670329  0.62097568  1
  Co  Co121  1  0.37271437  0.87855078  0.37922159  1
  Co  Co122  1  0.49854474  0.25403591  0.25628822  1
  Co  Co123  1  0.74543802  0.50213857  0.00421646  1
  Co  Co124  1  0.62815791  0.87279215  0.37693044  1
  Co  Co125  1  0.50285198  -0.00200067  0.75204798  1
  Co  Co126  1  0.49637326  0.24082305  -0.00571654  1
  Co  Co127  1  0.37226252  0.11970021  0.86976776  1
