# generated using pymatgen
data_Fe45Co19
_symmetry_space_group_name_H-M   'P 1'
_cell_length_a   11.41466534
_cell_length_b   11.41522038
_cell_length_c   11.41502472
_cell_angle_alpha   90.00410016
_cell_angle_beta   89.99415099
_cell_angle_gamma   89.99003606
_symmetry_Int_Tables_number   1
_chemical_formula_structural   Fe45Co19
_chemical_formula_sum   'Fe90 Co38'
_cell_volume   1487.38819288
_cell_formula_units_Z   2
loop_
 _symmetry_equiv_pos_site_id
 _symmetry_equiv_pos_as_xyz
  1  'x, y, z'
loop_
 _atom_site_type_symbol
 _atom_site_label
 _atom_site_symmetry_multiplicity
 _atom_site_fract_x
 _atom_site_fract_y
 _atom_site_fract_z
 _atom_site_occupancy
  Fe  Fe0  1  0.49919321  0.74805526  0.75191335  1
  Fe  Fe1  1  0.37543964  0.12713845  0.12483954  1
  Fe  Fe2  1  0.25020458  0.00098815  0.49998791  1
  Fe  Fe3  1  0.74947615  0.75148921  0.50113417  1
  Fe  Fe4  1  0.49673092  -0.00003094  -0.00300039  1
  Fe  Fe5  1  0.87362875  0.62541520  0.37361347  1
  Fe  Fe6  1  0.24972377  0.25053074  0.75088123  1
  Fe  Fe7  1  0.12624501  0.87593224  0.62552749  1
  Fe  Fe8  1  0.62458612  0.62509986  0.37402710  1
  Fe  Fe9  1  0.25188553  0.75211209  -0.00056735  1
  Fe  Fe10  1  0.62583230  0.37308126  0.87626428  1
  Fe  Fe11  1  0.62482929  0.87543261  0.87583215  1
  Fe  Fe12  1  0.86934577  0.12829107  0.87498801  1
  Fe  Fe13  1  0.37328289  0.37277064  0.12523962  1
  Fe  Fe14  1  0.12872646  0.12306907  0.87758624  1
  Fe  Fe15  1  0.74994952  0.49870686  0.00175404  1
  Fe  Fe16  1  -0.00140898  0.75034621  0.24954247  1
  Fe  Fe17  1  0.25051865  0.74876102  0.24911457  1
  Fe  Fe18  1  0.74972670  0.75207023  0.00265716  1
  Fe  Fe19  1  0.49992533  0.24877144  0.75432730  1
  Fe  Fe20  1  0.62212696  0.37410325  0.62419321  1
  Fe  Fe21  1  0.12712972  0.37708191  0.36927818  1
  Fe  Fe22  1  0.75229993  -0.00151460  -0.00004604  1
  Fe  Fe23  1  -0.00173248  0.50019957  0.75192410  1
  Fe  Fe24  1  0.25175119  0.74897641  0.75008355  1
  Fe  Fe25  1  0.00248676  0.49833322  0.00306854  1
  Fe  Fe26  1  0.37772508  0.62156766  0.87787050  1
  Fe  Fe27  1  -0.00096088  0.49763064  0.49658553  1
  Fe  Fe28  1  0.37439435  0.87475372  0.37459214  1
  Fe  Fe29  1  0.24993127  0.74911324  0.49991624  1
  Fe  Fe30  1  -0.00107941  0.24956978  0.75204495  1
  Fe  Fe31  1  0.49973974  0.00393038  0.75503134  1
  Fe  Fe32  1  0.62188445  0.12238064  0.12446192  1
  Fe  Fe33  1  0.87808372  0.37410925  0.12500210  1
  Fe  Fe34  1  0.12413347  0.37587204  0.62658397  1
  Fe  Fe35  1  0.74969867  0.75019812  0.74945739  1
  Fe  Fe36  1  0.62583315  0.36962954  0.37527809  1
  Fe  Fe37  1  0.37826190  0.87451264  0.12544748  1
  Fe  Fe38  1  0.87358146  0.12646426  0.37579317  1
  Fe  Fe39  1  0.12626301  0.12510582  0.37445904  1
  Fe  Fe40  1  0.37427070  0.37484958  0.37436662  1
  Fe  Fe41  1  0.87533844  0.62370211  0.62387786  1
  Fe  Fe42  1  0.25002079  0.25052823  0.49961667  1
  Fe  Fe43  1  0.25063491  0.00183591  0.24825330  1
  Fe  Fe44  1  0.74969399  0.24774350  0.24587267  1
  Fe  Fe45  1  0.37719135  0.37590210  0.62408490  1
  Fe  Fe46  1  0.62257106  0.87740301  0.62656358  1
  Fe  Fe47  1  0.74992506  0.00076011  0.24879099  1
  Fe  Fe48  1  0.37689929  0.62130872  0.62236193  1
  Fe  Fe49  1  0.37692718  0.12713811  0.37228416  1
  Fe  Fe50  1  0.50166660  0.25034924  -0.00099471  1
  Fe  Fe51  1  0.87403797  0.62515914  0.87743351  1
  Fe  Fe52  1  0.25156942  0.49916256  0.75100081  1
  Fe  Fe53  1  0.49851578  0.49915944  0.25085003  1
  Fe  Fe54  1  0.75082465  0.49753525  0.49875023  1
  Fe  Fe55  1  0.37751008  0.62573870  0.12293495  1
  Fe  Fe56  1  0.00138347  0.24868178  0.24927386  1
  Fe  Fe57  1  0.12854308  0.87750858  0.87595797  1
  Fe  Fe58  1  0.62381225  0.62233223  0.62453754  1
  Fe  Fe59  1  0.50173632  0.75143681  0.24980941  1
  Fe  Fe60  1  0.12714523  0.62318378  0.37198026  1
  Fe  Fe61  1  0.87903718  0.12474118  0.12188114  1
  Fe  Fe62  1  0.50039964  0.74963016  0.49903208  1
  Fe  Fe63  1  0.12269515  0.87821051  0.12385193  1
  Fe  Fe64  1  -0.00094045  0.25215472  0.49935296  1
  Fe  Fe65  1  0.62294842  0.62321519  0.87772982  1
  Fe  Fe66  1  -0.00049996  -0.00079090  0.25267411  1
  Fe  Fe67  1  0.74862775  0.00329561  0.50200897  1
  Fe  Fe68  1  0.37563706  0.87696726  0.62673228  1
  Fe  Fe69  1  0.50117368  0.00362789  0.49717298  1
  Fe  Fe70  1  -0.00120835  -0.00023453  0.75364667  1
  Fe  Fe71  1  0.12419238  0.62283675  0.62461868  1
  Fe  Fe72  1  0.75151166  0.24766323  0.50523881  1
  Fe  Fe73  1  0.24467395  0.25109649  0.00124100  1
  Fe  Fe74  1  0.75036578  0.75276944  0.24612416  1
  Fe  Fe75  1  0.12573357  0.62414078  0.87661773  1
  Fe  Fe76  1  0.00000417  0.75034763  0.75145073  1
  Fe  Fe77  1  0.62368930  0.62451310  0.12394649  1
  Fe  Fe78  1  0.75204223  0.49879989  0.25003552  1
  Fe  Fe79  1  0.62396618  0.37534149  0.12580814  1
  Fe  Fe80  1  0.00005299  -0.00199981  0.49730931  1
  Fe  Fe81  1  0.12300834  0.12510828  0.62464078  1
  Fe  Fe82  1  0.74999922  0.49860809  0.75022714  1
  Fe  Fe83  1  0.00050181  0.75181184  0.49733187  1
  Fe  Fe84  1  0.87374406  0.37205895  0.87702952  1
  Fe  Fe85  1  0.24758350  0.49754252  0.00219982  1
  Fe  Fe86  1  -0.00161450  0.75175795  0.00044543  1
  Fe  Fe87  1  0.62624099  0.87772554  0.37346590  1
  Fe  Fe88  1  0.37571767  0.12556814  0.62656827  1
  Fe  Fe89  1  0.87532298  0.87678217  0.62571513  1
  Co  Co90  1  0.37366579  0.87619535  0.87214156  1
  Co  Co91  1  0.12524138  0.62727730  0.12445016  1
  Co  Co92  1  0.12441701  0.37428527  0.13044376  1
  Co  Co93  1  0.87290377  0.37090271  0.37234264  1
  Co  Co94  1  0.37016938  0.12735831  0.87735594  1
  Co  Co95  1  0.62995421  0.12678164  0.87733000  1
  Co  Co96  1  0.24920655  0.49886335  0.49965079  1
  Co  Co97  1  0.49922472  0.00039308  0.25141527  1
  Co  Co98  1  0.37453162  0.37427001  0.87754389  1
  Co  Co99  1  0.25333468  0.50278835  0.24660140  1
  Co  Co100  1  0.50054861  0.49882098  0.75164823  1
  Co  Co101  1  0.62617875  0.12813941  0.37300251  1
  Co  Co102  1  0.50021767  0.75243475  -0.00124074  1
  Co  Co103  1  -0.00312089  0.00106575  -0.00506633  1
  Co  Co104  1  0.50049611  0.49647797  0.00227368  1
  Co  Co105  1  0.62311673  0.87817004  0.12365987  1
  Co  Co106  1  0.12279646  0.12152266  0.12396357  1
  Co  Co107  1  -0.00219720  0.50166719  0.24850681  1
  Co  Co108  1  0.25361415  -0.00111500  0.00376246  1
  Co  Co109  1  0.87122717  0.87548183  0.37484920  1
  Co  Co110  1  0.87707012  0.37593790  0.62613253  1
  Co  Co111  1  0.87381906  0.62505142  0.12385445  1
  Co  Co112  1  0.12835808  0.87469876  0.37315979  1
  Co  Co113  1  0.74931787  -0.00039801  0.74944038  1
  Co  Co114  1  0.24928238  0.24682420  0.24985829  1
  Co  Co115  1  0.74865298  0.25067348  0.00574255  1
  Co  Co116  1  0.00324750  0.24986477  -0.00117654  1
  Co  Co117  1  0.50167077  0.49945825  0.49649705  1
  Co  Co118  1  0.12461834  0.37608736  0.87295810  1
  Co  Co119  1  0.74963031  0.25120433  0.74539102  1
  Co  Co120  1  0.49871462  0.24758370  0.49909898  1
  Co  Co121  1  0.50097501  0.25114626  0.24855742  1
  Co  Co122  1  0.87839259  0.12295941  0.62626590  1
  Co  Co123  1  0.87217961  0.87281705  0.87405715  1
  Co  Co124  1  0.37540696  0.62568230  0.37561879  1
  Co  Co125  1  0.87777248  0.87678124  0.12546492  1
  Co  Co126  1  0.62178975  0.12538788  0.62785368  1
  Co  Co127  1  0.24935729  0.00170211  0.74819920  1
