# generated using pymatgen
data_Fe45Co19
_symmetry_space_group_name_H-M   'P 1'
_cell_length_a   11.41574155
_cell_length_b   11.41612096
_cell_length_c   11.41551305
_cell_angle_alpha   89.99718409
_cell_angle_beta   89.99937198
_cell_angle_gamma   89.99711047
_symmetry_Int_Tables_number   1
_chemical_formula_structural   Fe45Co19
_chemical_formula_sum   'Fe90 Co38'
_cell_volume   1487.70945594
_cell_formula_units_Z   2
loop_
 _symmetry_equiv_pos_site_id
 _symmetry_equiv_pos_as_xyz
  1  'x, y, z'
loop_
 _atom_site_type_symbol
 _atom_site_label
 _atom_site_symmetry_multiplicity
 _atom_site_fract_x
 _atom_site_fract_y
 _atom_site_fract_z
 _atom_site_occupancy
  Fe  Fe0  1  0.75296703  0.00017388  0.75096625  1
  Fe  Fe1  1  0.87528068  0.12638684  0.62637362  1
  Fe  Fe2  1  0.12716246  0.37868058  0.37595771  1
  Fe  Fe3  1  0.12390688  0.12245624  0.37421989  1
  Fe  Fe4  1  -0.00168905  0.49862159  0.24747715  1
  Fe  Fe5  1  0.25038392  0.24994887  0.75134383  1
  Fe  Fe6  1  0.50042453  0.25022022  0.49862518  1
  Fe  Fe7  1  0.12236181  0.87114176  0.12631480  1
  Fe  Fe8  1  0.75028619  0.50112081  0.50145969  1
  Fe  Fe9  1  0.25081852  0.00037319  0.49963111  1
  Fe  Fe10  1  0.12424600  0.12520513  0.62516749  1
  Fe  Fe11  1  0.62508164  0.87494345  0.12312172  1
  Fe  Fe12  1  -0.00063279  0.25136397  0.75053254  1
  Fe  Fe13  1  0.62553718  0.62607587  0.62566388  1
  Fe  Fe14  1  0.25032369  0.49998201  0.00127187  1
  Fe  Fe15  1  0.74770108  0.49730060  0.74991694  1
  Fe  Fe16  1  0.62424653  0.12413646  0.62406814  1
  Fe  Fe17  1  0.25080770  0.00120875  0.75020281  1
  Fe  Fe18  1  0.75114180  0.00014196  0.50073592  1
  Fe  Fe19  1  0.37498670  0.37249183  0.12625240  1
  Fe  Fe20  1  0.49861995  -0.00163462  0.75184840  1
  Fe  Fe21  1  0.25106408  -0.00203431  0.24785147  1
  Fe  Fe22  1  0.37587082  0.12538428  0.37191274  1
  Fe  Fe23  1  0.00077309  0.75317546  0.75051756  1
  Fe  Fe24  1  0.37307960  0.87374129  0.37289943  1
  Fe  Fe25  1  0.62394847  0.37404320  0.12412543  1
  Fe  Fe26  1  0.12624843  0.37631159  0.87508757  1
  Fe  Fe27  1  0.74981551  0.25061645  0.49952184  1
  Fe  Fe28  1  0.87581521  0.62695895  0.62522217  1
  Fe  Fe29  1  0.37649334  0.37379017  0.87333385  1
  Fe  Fe30  1  -0.00141293  -0.00202769  0.24736175  1
  Fe  Fe31  1  0.24990075  0.25025604  0.49958657  1
  Fe  Fe32  1  0.87603342  0.62516297  0.37594475  1
  Fe  Fe33  1  0.62717802  0.87548266  0.37474961  1
  Fe  Fe34  1  0.74522313  0.24733626  0.24994240  1
  Fe  Fe35  1  -0.00110377  0.49753885  0.74816722  1
  Fe  Fe36  1  -0.00030990  0.25210993  0.00177692  1
  Fe  Fe37  1  0.37723364  0.12720469  0.62689371  1
  Fe  Fe38  1  0.24993722  0.74985933  0.00053444  1
  Fe  Fe39  1  0.12778801  0.12744342  0.12394699  1
  Fe  Fe40  1  0.87581905  0.62313117  0.87590167  1
  Fe  Fe41  1  0.50103241  0.75177346  -0.00424997  1
  Fe  Fe42  1  0.75081924  0.74719041  0.24975272  1
  Fe  Fe43  1  0.50019186  0.50132303  0.00013643  1
  Fe  Fe44  1  0.37730281  0.62834300  0.12443875  1
  Fe  Fe45  1  0.12134739  0.62695589  0.12686604  1
  Fe  Fe46  1  0.75067582  0.74833600  -0.00142881  1
  Fe  Fe47  1  0.50262316  0.75016024  0.49897912  1
  Fe  Fe48  1  0.49773577  0.24738296  -0.00010925  1
  Fe  Fe49  1  0.87571430  0.12487836  0.37452600  1
  Fe  Fe50  1  0.87836612  0.87876414  0.87769968  1
  Fe  Fe51  1  0.50205275  0.74787311  0.25157859  1
  Fe  Fe52  1  0.24844982  0.74810766  0.75000775  1
  Fe  Fe53  1  0.50225209  0.75212157  0.75293995  1
  Fe  Fe54  1  -0.00041338  0.49791217  0.00263570  1
  Fe  Fe55  1  0.25205069  0.50022819  0.74475185  1
  Fe  Fe56  1  0.49777769  0.50048205  0.50196507  1
  Fe  Fe57  1  0.62459383  0.12450843  0.87642734  1
  Fe  Fe58  1  0.25302120  -0.00123333  0.00200004  1
  Fe  Fe59  1  0.87431527  0.12762656  0.12497824  1
  Fe  Fe60  1  0.00109502  0.25178960  0.24896606  1
  Fe  Fe61  1  0.24904496  0.25073394  0.25058759  1
  Fe  Fe62  1  0.74922268  0.00191387  0.24889960  1
  Fe  Fe63  1  0.75083867  0.75166061  0.75242399  1
  Fe  Fe64  1  0.37506377  0.37657460  0.37395219  1
  Fe  Fe65  1  0.00058825  -0.00258769  0.50273006  1
  Fe  Fe66  1  0.37276454  0.87222005  0.62541541  1
  Fe  Fe67  1  0.62738055  0.87507084  0.62547235  1
  Fe  Fe68  1  0.37453395  0.62370596  0.37490905  1
  Fe  Fe69  1  0.00315077  0.75248179  0.49884038  1
  Fe  Fe70  1  0.12406647  0.62296323  0.87484999  1
  Fe  Fe71  1  0.12360049  0.12342564  0.87740132  1
  Fe  Fe72  1  0.87310551  0.37473670  0.37285075  1
  Fe  Fe73  1  0.25116860  0.50227089  0.24802379  1
  Fe  Fe74  1  0.12434769  0.87769406  0.87611606  1
  Fe  Fe75  1  0.87261479  0.37410785  0.87718635  1
  Fe  Fe76  1  0.24601267  0.74630620  0.49812803  1
  Fe  Fe77  1  0.62353247  0.37750475  0.37424039  1
  Fe  Fe78  1  0.74872149  0.50135723  0.00159659  1
  Fe  Fe79  1  0.75360247  0.00261528  0.00050912  1
  Fe  Fe80  1  0.74785957  0.50352842  0.24742080  1
  Fe  Fe81  1  0.49881813  -0.00151329  0.49923264  1
  Fe  Fe82  1  0.00136933  0.49805067  0.50253594  1
  Fe  Fe83  1  0.37590787  0.62505865  0.87342398  1
  Fe  Fe84  1  0.74674993  0.25200007  0.75151353  1
  Fe  Fe85  1  0.49525464  -0.00089163  -0.00125819  1
  Fe  Fe86  1  -0.00010734  0.25180671  0.49975080  1
  Fe  Fe87  1  0.87373064  0.87536037  0.37561984  1
  Fe  Fe88  1  0.50152519  0.00272556  0.24992546  1
  Fe  Fe89  1  0.50138053  0.49812631  0.74832560  1
  Co  Co90  1  0.62506597  0.12382382  0.37893581  1
  Co  Co91  1  0.12611773  0.87683456  0.37272738  1
  Co  Co92  1  -0.00007340  0.74912248  -0.00277840  1
  Co  Co93  1  0.87402822  0.37398740  0.62514381  1
  Co  Co94  1  0.62359586  0.37469625  0.87951322  1
  Co  Co95  1  0.74842826  0.74855154  0.49892719  1
  Co  Co96  1  0.62770118  0.87850861  0.87706305  1
  Co  Co97  1  0.25075310  0.25180256  -0.00189461  1
  Co  Co98  1  0.87718508  0.62592299  0.12358678  1
  Co  Co99  1  0.50302841  0.24785377  0.25045854  1
  Co  Co100  1  0.75061462  0.24868390  -0.00038751  1
  Co  Co101  1  0.37158465  0.87331681  0.87324354  1
  Co  Co102  1  0.62422326  0.62225053  0.37599508  1
  Co  Co103  1  0.62293210  0.62758041  0.12253283  1
  Co  Co104  1  0.87105857  0.37403711  0.12619733  1
  Co  Co105  1  0.12327430  0.62153990  0.37233147  1
  Co  Co106  1  0.12159953  0.62470071  0.62667463  1
  Co  Co107  1  0.49939493  0.50119381  0.24798267  1
  Co  Co108  1  -0.00012609  0.00198170  0.00411653  1
  Co  Co109  1  0.25101997  0.50236904  0.50450466  1
  Co  Co110  1  0.87326408  0.87339687  0.12306135  1
  Co  Co111  1  -0.00046979  -0.00122627  0.74753057  1
  Co  Co112  1  0.87360524  0.87313914  0.62422788  1
  Co  Co113  1  0.24999375  0.74811244  0.25044570  1
  Co  Co114  1  0.12614307  0.37362719  0.62513386  1
  Co  Co115  1  0.62357191  0.12258188  0.12037424  1
  Co  Co116  1  0.37761420  0.62925943  0.62590755  1
  Co  Co117  1  0.37514733  0.37086938  0.62555187  1
  Co  Co118  1  0.12719542  0.37523424  0.12544292  1
  Co  Co119  1  0.37329242  0.12654981  0.12681942  1
  Co  Co120  1  0.50432771  0.25024049  0.75093283  1
  Co  Co121  1  0.37461732  0.12580231  0.87426744  1
  Co  Co122  1  0.62439894  0.37536583  0.62168864  1
  Co  Co123  1  0.37819232  0.87241592  0.12689806  1
  Co  Co124  1  -0.00356047  0.75155276  0.25267607  1
  Co  Co125  1  0.87714904  0.12617166  0.87469441  1
  Co  Co126  1  0.62496058  0.62352380  0.87427264  1
  Co  Co127  1  0.12893993  0.87526995  0.62528643  1
