# generated using pymatgen
data_Fe45Co19
_symmetry_space_group_name_H-M   'P 1'
_cell_length_a   11.41541503
_cell_length_b   11.41484225
_cell_length_c   11.41584906
_cell_angle_alpha   90.00549298
_cell_angle_beta   89.99851503
_cell_angle_gamma   89.99617099
_symmetry_Int_Tables_number   1
_chemical_formula_structural   Fe45Co19
_chemical_formula_sum   'Fe90 Co38'
_cell_volume   1487.54404842
_cell_formula_units_Z   2
loop_
 _symmetry_equiv_pos_site_id
 _symmetry_equiv_pos_as_xyz
  1  'x, y, z'
loop_
 _atom_site_type_symbol
 _atom_site_label
 _atom_site_symmetry_multiplicity
 _atom_site_fract_x
 _atom_site_fract_y
 _atom_site_fract_z
 _atom_site_occupancy
  Fe  Fe0  1  -0.00009239  0.24915042  -0.00183800  1
  Fe  Fe1  1  0.24389689  0.75268648  0.24917820  1
  Fe  Fe2  1  0.49833602  0.25143360  0.24935344  1
  Fe  Fe3  1  0.37166020  0.12486880  0.12600850  1
  Fe  Fe4  1  0.87235701  0.62842130  0.62847075  1
  Fe  Fe5  1  0.74903907  0.50088319  0.00221375  1
  Fe  Fe6  1  0.62334739  0.12191840  0.87793151  1
  Fe  Fe7  1  0.12848258  0.12435187  0.87668968  1
  Fe  Fe8  1  0.50084391  0.75003854  0.74864919  1
  Fe  Fe9  1  0.24223925  -0.00074361  0.24898217  1
  Fe  Fe10  1  0.49643694  0.25086537  0.00004921  1
  Fe  Fe11  1  -0.00155053  0.24677023  0.49986367  1
  Fe  Fe12  1  0.24958100  0.75008951  0.74975337  1
  Fe  Fe13  1  0.37498376  0.62543636  0.87632341  1
  Fe  Fe14  1  0.87457114  0.62460556  0.87543618  1
  Fe  Fe15  1  0.37570715  0.37711206  0.37304808  1
  Fe  Fe16  1  0.37503508  0.62732323  0.62383372  1
  Fe  Fe17  1  0.49561874  0.75378919  0.00176309  1
  Fe  Fe18  1  0.62632101  0.12472233  0.37410154  1
  Fe  Fe19  1  0.50107581  0.24949372  0.49877083  1
  Fe  Fe20  1  0.49777951  0.24873391  0.75187678  1
  Fe  Fe21  1  0.12393651  0.62683633  0.87553732  1
  Fe  Fe22  1  0.75025341  -0.00142534  0.75020189  1
  Fe  Fe23  1  0.62569274  0.37538882  0.62667867  1
  Fe  Fe24  1  0.50153811  0.50306249  0.50005233  1
  Fe  Fe25  1  0.49595692  -0.00024276  0.74864250  1
  Fe  Fe26  1  0.24886301  0.49737345  0.24807925  1
  Fe  Fe27  1  0.88015931  0.87542152  0.37048621  1
  Fe  Fe28  1  -0.00156526  0.75122613  0.00068843  1
  Fe  Fe29  1  0.49996083  0.74972146  0.25203731  1
  Fe  Fe30  1  0.24981747  0.25027748  0.50048026  1
  Fe  Fe31  1  0.62580854  0.12349651  0.62408791  1
  Fe  Fe32  1  0.75225561  0.24791218  0.00066849  1
  Fe  Fe33  1  0.12494740  0.37581438  0.87280400  1
  Fe  Fe34  1  0.25208616  -0.00048168  0.74762249  1
  Fe  Fe35  1  0.62607567  0.87285561  0.37517957  1
  Fe  Fe36  1  0.62796351  0.62726560  0.37656748  1
  Fe  Fe37  1  0.87403049  0.87767589  0.87704529  1
  Fe  Fe38  1  0.50096172  0.49908112  0.00371221  1
  Fe  Fe39  1  0.49823549  -0.00180779  0.49943537  1
  Fe  Fe40  1  0.00096009  0.00062737  0.75233584  1
  Fe  Fe41  1  0.12295021  0.87310681  0.62365038  1
  Fe  Fe42  1  0.62588510  0.62651597  0.87576092  1
  Fe  Fe43  1  0.87544530  0.37470209  0.62525764  1
  Fe  Fe44  1  -0.00050804  0.50186125  0.74948830  1
  Fe  Fe45  1  0.62648581  0.37576844  0.37210885  1
  Fe  Fe46  1  0.50231901  0.50203786  0.74825076  1
  Fe  Fe47  1  0.24825492  0.74913325  0.49906417  1
  Fe  Fe48  1  0.37213305  0.87522167  0.37401700  1
  Fe  Fe49  1  0.37529130  0.62528613  0.12684721  1
  Fe  Fe50  1  0.00145175  0.24470917  0.25030718  1
  Fe  Fe51  1  0.62546195  0.37569059  0.87612815  1
  Fe  Fe52  1  0.75458367  0.74950108  0.24678571  1
  Fe  Fe53  1  0.62227457  0.87702227  0.87727351  1
  Fe  Fe54  1  0.25275549  0.24889421  0.75029854  1
  Fe  Fe55  1  0.75044703  -0.00044771  0.24917652  1
  Fe  Fe56  1  0.75081656  0.50121801  0.50247380  1
  Fe  Fe57  1  0.87479485  0.37676950  0.87538148  1
  Fe  Fe58  1  0.62502757  0.87444996  0.12483111  1
  Fe  Fe59  1  0.75093752  0.24857682  0.49935169  1
  Fe  Fe60  1  0.62395350  0.12444313  0.12360308  1
  Fe  Fe61  1  -0.00138617  0.24611029  0.75105349  1
  Fe  Fe62  1  0.00040879  0.74317804  0.49580463  1
  Fe  Fe63  1  0.75081753  0.24811261  0.75148371  1
  Fe  Fe64  1  0.12342034  0.37357766  0.12556997  1
  Fe  Fe65  1  0.37633258  0.37467712  0.62573568  1
  Fe  Fe66  1  0.12224764  0.37566665  0.37574357  1
  Fe  Fe67  1  0.62471119  0.87123440  0.62249800  1
  Fe  Fe68  1  0.74723683  0.50210844  0.24504949  1
  Fe  Fe69  1  0.12299734  0.62638856  0.12381921  1
  Fe  Fe70  1  0.00000144  0.50323605  0.25020114  1
  Fe  Fe71  1  0.75243649  0.75232100  0.00194326  1
  Fe  Fe72  1  0.24715631  0.50018496  0.50195625  1
  Fe  Fe73  1  0.24950616  0.50136648  0.74949609  1
  Fe  Fe74  1  0.75197789  -0.00163375  0.49860941  1
  Fe  Fe75  1  0.25261297  -0.00604312  0.00220734  1
  Fe  Fe76  1  0.25244018  0.25410077  -0.00028444  1
  Fe  Fe77  1  0.24992028  0.00002568  0.50214634  1
  Fe  Fe78  1  -0.00000364  0.00422933  0.49828318  1
  Fe  Fe79  1  0.87567183  0.37700964  0.37451860  1
  Fe  Fe80  1  0.12265469  0.37492885  0.62537302  1
  Fe  Fe81  1  0.37219966  0.12469673  0.37418410  1
  Fe  Fe82  1  0.24862447  0.49963850  0.00005463  1
  Fe  Fe83  1  0.12822746  0.87217581  0.87675453  1
  Fe  Fe84  1  0.49973577  -0.00083743  0.24921012  1
  Fe  Fe85  1  0.87942844  0.11814145  0.12300300  1
  Fe  Fe86  1  0.37278191  0.62411133  0.37296954  1
  Fe  Fe87  1  0.87721023  0.87330727  0.62518774  1
  Fe  Fe88  1  0.75228291  0.24849426  0.24783704  1
  Fe  Fe89  1  0.87642718  0.37694920  0.12427016  1
  Co  Co90  1  0.74998737  0.50129531  0.75025964  1
  Co  Co91  1  0.50375987  0.50150423  0.24936982  1
  Co  Co92  1  0.12424764  0.62742426  0.62744915  1
  Co  Co93  1  0.12695919  0.12600305  0.11947334  1
  Co  Co94  1  0.62522884  0.37195910  0.12425178  1
  Co  Co95  1  0.12777224  0.12693023  0.37776883  1
  Co  Co96  1  0.37450561  0.87345281  0.87250018  1
  Co  Co97  1  0.12464264  0.12476486  0.62611601  1
  Co  Co98  1  -0.00045588  0.50479668  0.50182112  1
  Co  Co99  1  0.37436331  0.87161546  0.62430037  1
  Co  Co100  1  0.87333316  0.12356027  0.62607747  1
  Co  Co101  1  0.37580190  0.37746932  0.12627577  1
  Co  Co102  1  0.25161805  0.75006713  0.00235189  1
  Co  Co103  1  0.75444456  0.75249109  0.49858460  1
  Co  Co104  1  0.74853264  -0.00103272  0.00139402  1
  Co  Co105  1  0.00822368  0.00342268  0.25181190  1
  Co  Co106  1  0.87399684  0.12257600  0.87602803  1
  Co  Co107  1  0.87747166  0.62379924  0.12306509  1
  Co  Co108  1  0.00273691  0.49906107  -0.00109083  1
  Co  Co109  1  0.12190107  0.87432642  0.37876244  1
  Co  Co110  1  0.87342102  0.12338625  0.37334197  1
  Co  Co111  1  0.87161174  0.62254084  0.37269720  1
  Co  Co112  1  0.62364453  0.63012724  0.12317259  1
  Co  Co113  1  0.74941390  0.75347496  0.75333579  1
  Co  Co114  1  0.00319221  -0.00077874  -0.00432808  1
  Co  Co115  1  0.12796700  0.62191065  0.37291981  1
  Co  Co116  1  0.37565603  0.12639504  0.62342042  1
  Co  Co117  1  0.62836527  0.62955188  0.62368766  1
  Co  Co118  1  -0.00053309  0.75167479  0.75322876  1
  Co  Co119  1  0.37394131  0.87324751  0.13076964  1
  Co  Co120  1  0.49562899  -0.00303126  0.00380416  1
  Co  Co121  1  0.24865212  0.25149367  0.25015729  1
  Co  Co122  1  0.49780579  0.74986597  0.49700363  1
  Co  Co123  1  0.00115707  0.74631048  0.25078780  1
  Co  Co124  1  0.37593726  0.37920454  0.87403182  1
  Co  Co125  1  0.37362181  0.12224967  0.87702690  1
  Co  Co126  1  0.11886408  0.87343501  0.12318970  1
  Co  Co127  1  0.88013456  0.87950845  0.12764563  1
