# generated using pymatgen
data_Fe45Co19
_symmetry_space_group_name_H-M   'P 1'
_cell_length_a   11.41594991
_cell_length_b   11.41575550
_cell_length_c   11.41603766
_cell_angle_alpha   90.00171796
_cell_angle_beta   90.00014825
_cell_angle_gamma   89.99440023
_symmetry_Int_Tables_number   1
_chemical_formula_structural   Fe45Co19
_chemical_formula_sum   'Fe90 Co38'
_cell_volume   1487.75734751
_cell_formula_units_Z   2
loop_
 _symmetry_equiv_pos_site_id
 _symmetry_equiv_pos_as_xyz
  1  'x, y, z'
loop_
 _atom_site_type_symbol
 _atom_site_label
 _atom_site_symmetry_multiplicity
 _atom_site_fract_x
 _atom_site_fract_y
 _atom_site_fract_z
 _atom_site_occupancy
  Fe  Fe0  1  0.75166325  -0.00116668  0.49906924  1
  Fe  Fe1  1  0.37270694  0.62636686  0.62547080  1
  Fe  Fe2  1  0.62584024  0.12321351  0.37478503  1
  Fe  Fe3  1  0.12793376  0.87829523  0.12389018  1
  Fe  Fe4  1  0.24884523  0.24802125  0.00218849  1
  Fe  Fe5  1  0.87550242  0.87526734  0.87693755  1
  Fe  Fe6  1  0.12599175  0.12693847  0.87405753  1
  Fe  Fe7  1  0.62263498  0.62586075  0.37153960  1
  Fe  Fe8  1  0.12240446  0.62696511  0.37314826  1
  Fe  Fe9  1  0.00015750  0.25086762  0.74876596  1
  Fe  Fe10  1  0.87329841  0.87324815  0.12388457  1
  Fe  Fe11  1  0.12600380  0.87604209  0.62344083  1
  Fe  Fe12  1  0.87896416  0.87069539  0.37531177  1
  Fe  Fe13  1  0.49996511  0.24698993  0.74647656  1
  Fe  Fe14  1  -0.00089944  0.49767488  0.25079901  1
  Fe  Fe15  1  0.37424449  0.37690805  0.12723266  1
  Fe  Fe16  1  0.87308099  0.12645190  0.87427477  1
  Fe  Fe17  1  0.12712309  0.62543911  0.87433541  1
  Fe  Fe18  1  0.00227967  0.49888017  0.75117555  1
  Fe  Fe19  1  0.00007343  0.24930530  0.00157746  1
  Fe  Fe20  1  0.50376943  -0.00390291  0.24681030  1
  Fe  Fe21  1  0.62461287  0.62418192  0.62648527  1
  Fe  Fe22  1  0.24976282  0.49897686  -0.00072542  1
  Fe  Fe23  1  0.74950740  0.00073350  0.74936620  1
  Fe  Fe24  1  -0.00038261  -0.00000386  0.74903808  1
  Fe  Fe25  1  0.50213414  0.24829702  0.00385366  1
  Fe  Fe26  1  0.87420568  0.12645750  0.37604558  1
  Fe  Fe27  1  0.87536832  0.62430903  0.87391648  1
  Fe  Fe28  1  0.50002008  0.50039809  0.49912370  1
  Fe  Fe29  1  0.12581780  0.37503208  0.12674986  1
  Fe  Fe30  1  0.24940361  0.24854805  0.25077970  1
  Fe  Fe31  1  0.87412868  0.62279295  0.62413607  1
  Fe  Fe32  1  0.12605425  0.87473814  0.87602010  1
  Fe  Fe33  1  -0.00095933  0.49814809  -0.00056810  1
  Fe  Fe34  1  0.24832695  0.24781017  0.49984026  1
  Fe  Fe35  1  0.75060345  0.74715650  0.49708356  1
  Fe  Fe36  1  -0.00076924  0.25134088  0.25221865  1
  Fe  Fe37  1  0.87033993  0.37324433  0.12624153  1
  Fe  Fe38  1  0.62539687  0.37293681  0.87452972  1
  Fe  Fe39  1  0.25248243  0.00375805  0.75023665  1
  Fe  Fe40  1  0.37143837  0.62596301  0.87394117  1
  Fe  Fe41  1  0.37734161  0.12394179  0.37382460  1
  Fe  Fe42  1  0.87188644  0.12643914  0.12757903  1
  Fe  Fe43  1  0.37489462  0.37403580  0.62455696  1
  Fe  Fe44  1  0.74784153  0.25330564  0.50426106  1
  Fe  Fe45  1  0.00118417  0.00331369  0.00147107  1
  Fe  Fe46  1  0.37520185  0.87418134  0.62245139  1
  Fe  Fe47  1  0.37397740  0.12139885  0.12601428  1
  Fe  Fe48  1  0.25049388  0.75168060  0.25003349  1
  Fe  Fe49  1  0.49852887  0.75095156  0.75051546  1
  Fe  Fe50  1  0.49705571  0.50002402  0.75113534  1
  Fe  Fe51  1  0.75065467  0.75123144  0.75140960  1
  Fe  Fe52  1  0.74705952  -0.00508432  0.25050309  1
  Fe  Fe53  1  0.37595156  0.62459323  0.12738820  1
  Fe  Fe54  1  0.87316947  0.37310258  0.87444965  1
  Fe  Fe55  1  0.62494245  0.87469114  0.62284724  1
  Fe  Fe56  1  0.50231062  0.25094206  0.24885695  1
  Fe  Fe57  1  0.12483172  0.62322322  0.12578004  1
  Fe  Fe58  1  0.00080832  0.74979482  0.00040298  1
  Fe  Fe59  1  0.12242140  0.87378786  0.37642861  1
  Fe  Fe60  1  0.12590186  0.37437495  0.62512920  1
  Fe  Fe61  1  0.00091495  0.49974421  0.49914804  1
  Fe  Fe62  1  0.87478078  0.87397537  0.62409348  1
  Fe  Fe63  1  0.74979806  0.49587660  0.74765685  1
  Fe  Fe64  1  0.37704808  0.62617382  0.37247657  1
  Fe  Fe65  1  0.87221846  0.37760669  0.37745305  1
  Fe  Fe66  1  0.37449108  0.87608329  0.87974588  1
  Fe  Fe67  1  0.24983482  0.00172116  0.49839402  1
  Fe  Fe68  1  0.87660921  0.12622701  0.62307713  1
  Fe  Fe69  1  0.37787625  0.87403845  0.37732286  1
  Fe  Fe70  1  0.62553754  0.12671771  0.87406555  1
  Fe  Fe71  1  0.62580219  0.62558946  0.87413610  1
  Fe  Fe72  1  0.50075957  0.00132931  0.50118907  1
  Fe  Fe73  1  0.62616960  0.37789459  0.37265962  1
  Fe  Fe74  1  0.50110274  0.49984555  0.00116128  1
  Fe  Fe75  1  0.50218023  0.25019194  0.49965692  1
  Fe  Fe76  1  0.49865254  0.00153715  0.75028038  1
  Fe  Fe77  1  0.25007387  0.50102691  0.49775973  1
  Fe  Fe78  1  0.37400193  0.87715071  0.12052261  1
  Fe  Fe79  1  0.37370051  0.37592317  0.37305036  1
  Fe  Fe80  1  0.62394980  0.87334916  0.87884237  1
  Fe  Fe81  1  0.87440346  0.62808299  0.12842666  1
  Fe  Fe82  1  0.12270189  0.12406302  0.37470233  1
  Fe  Fe83  1  0.62460196  0.62922406  0.12748895  1
  Fe  Fe84  1  0.37304293  0.37137668  0.87404039  1
  Fe  Fe85  1  -0.00051839  0.00020786  0.24978648  1
  Fe  Fe86  1  0.74757831  0.00162442  0.00135743  1
  Fe  Fe87  1  0.74931426  0.50047277  0.00178887  1
  Fe  Fe88  1  -0.00007300  0.75040307  0.74890339  1
  Fe  Fe89  1  0.12847575  0.62663658  0.62640853  1
  Co  Co90  1  0.24993862  0.74984723  0.49758870  1
  Co  Co91  1  0.62608452  0.86950923  0.11954025  1
  Co  Co92  1  0.49849532  0.75553122  0.24863194  1
  Co  Co93  1  0.50111594  0.49752802  0.24836820  1
  Co  Co94  1  0.62798927  0.37490542  0.12583812  1
  Co  Co95  1  0.75239108  0.74767437  -0.00217769  1
  Co  Co96  1  0.12534706  0.12481683  0.12904436  1
  Co  Co97  1  0.75026653  0.50261785  0.24940538  1
  Co  Co98  1  0.12263907  0.12309576  0.62330159  1
  Co  Co99  1  0.12755960  0.37544137  0.37332603  1
  Co  Co100  1  0.87878174  0.62528683  0.37351149  1
  Co  Co101  1  0.24949325  0.74802514  0.00152727  1
  Co  Co102  1  0.50084171  0.74685748  0.50171781  1
  Co  Co103  1  0.74846340  0.25065647  0.25320526  1
  Co  Co104  1  0.62193681  0.87441254  0.37955179  1
  Co  Co105  1  0.24967118  0.50180284  0.25155619  1
  Co  Co106  1  0.37606628  0.12496811  0.62181173  1
  Co  Co107  1  0.74897510  0.24893947  -0.00018595  1
  Co  Co108  1  0.37603904  0.12771626  0.87701423  1
  Co  Co109  1  0.12661940  0.37310235  0.87562249  1
  Co  Co110  1  0.25042301  0.49726533  0.75044591  1
  Co  Co111  1  0.62512639  0.12174072  0.62339064  1
  Co  Co112  1  0.74954491  0.25056432  0.74489556  1
  Co  Co113  1  0.74755963  0.50121531  0.49957600  1
  Co  Co114  1  0.24791206  0.00495790  -0.00275704  1
  Co  Co115  1  0.49764111  0.74646333  -0.00136647  1
  Co  Co116  1  0.62057103  0.37790802  0.62665450  1
  Co  Co117  1  0.25006429  0.24723020  0.74671232  1
  Co  Co118  1  0.62763834  0.12563937  0.12846046  1
  Co  Co119  1  0.50328615  0.00364082  0.00154080  1
  Co  Co120  1  0.00124627  0.25214189  0.49749900  1
  Co  Co121  1  0.00228551  0.75202581  0.24646724  1
  Co  Co122  1  -0.00154141  -0.00078536  0.49932142  1
  Co  Co123  1  0.25141330  0.75353459  0.75026159  1
  Co  Co124  1  0.87807937  0.37665759  0.62429790  1
  Co  Co125  1  0.74877489  0.75302135  0.25433008  1
  Co  Co126  1  0.25077074  -0.00193792  0.25391324  1
  Co  Co127  1  -0.00007380  0.74877814  0.50404029  1
