# generated using pymatgen
data_Fe45Co19
_symmetry_space_group_name_H-M   'P 1'
_cell_length_a   11.41617495
_cell_length_b   11.41499827
_cell_length_c   11.41552382
_cell_angle_alpha   90.00593426
_cell_angle_beta   90.00224776
_cell_angle_gamma   90.00698329
_symmetry_Int_Tables_number   1
_chemical_formula_structural   Fe45Co19
_chemical_formula_sum   'Fe90 Co38'
_cell_volume   1487.62101216
_cell_formula_units_Z   2
loop_
 _symmetry_equiv_pos_site_id
 _symmetry_equiv_pos_as_xyz
  1  'x, y, z'
loop_
 _atom_site_type_symbol
 _atom_site_label
 _atom_site_symmetry_multiplicity
 _atom_site_fract_x
 _atom_site_fract_y
 _atom_site_fract_z
 _atom_site_occupancy
  Fe  Fe0  1  0.74853887  0.24994502  0.25102643  1
  Fe  Fe1  1  0.62577874  0.12224871  0.12257399  1
  Fe  Fe2  1  0.50033517  0.74789440  0.00395908  1
  Fe  Fe3  1  0.75034243  -0.00218476  0.25332151  1
  Fe  Fe4  1  0.25012061  0.24936244  -0.00164457  1
  Fe  Fe5  1  -0.00135074  -0.00029158  0.25103548  1
  Fe  Fe6  1  0.00093884  0.49939551  0.24854472  1
  Fe  Fe7  1  0.37682871  0.37158750  0.37501584  1
  Fe  Fe8  1  0.25256854  0.00051706  0.49639332  1
  Fe  Fe9  1  0.50258679  0.24847992  0.50931263  1
  Fe  Fe10  1  -0.00175051  0.75061635  0.24688839  1
  Fe  Fe11  1  0.00131862  0.25085596  0.00134572  1
  Fe  Fe12  1  0.12623302  0.62373615  0.62582000  1
  Fe  Fe13  1  0.75420900  -0.00092771  0.49556941  1
  Fe  Fe14  1  0.62605164  0.62490298  0.37673214  1
  Fe  Fe15  1  0.12706109  0.87710261  0.62485636  1
  Fe  Fe16  1  -0.00168115  0.75250876  0.50491536  1
  Fe  Fe17  1  0.87642346  0.12645163  0.87401978  1
  Fe  Fe18  1  0.37065634  0.37703363  0.63049093  1
  Fe  Fe19  1  0.62577438  0.87847099  0.62548814  1
  Fe  Fe20  1  0.37506697  0.12560484  0.12443660  1
  Fe  Fe21  1  0.37546303  0.37448975  0.87110342  1
  Fe  Fe22  1  0.24997218  0.74984803  0.24906935  1
  Fe  Fe23  1  0.25100617  -0.00058180  0.75335272  1
  Fe  Fe24  1  0.62458897  0.62616683  0.87408224  1
  Fe  Fe25  1  -0.00148573  -0.00204146  -0.00074287  1
  Fe  Fe26  1  0.00399966  0.25178078  0.74794157  1
  Fe  Fe27  1  0.75140373  0.75157702  0.50304600  1
  Fe  Fe28  1  0.00124633  0.25118326  0.24732741  1
  Fe  Fe29  1  0.12651388  0.12453797  0.12395578  1
  Fe  Fe30  1  0.12345711  0.86996103  0.87609091  1
  Fe  Fe31  1  0.25206701  0.24828206  0.50115271  1
  Fe  Fe32  1  0.25143806  0.50131929  0.49944788  1
  Fe  Fe33  1  0.50027882  0.75000094  0.50130824  1
  Fe  Fe34  1  0.62636767  0.37578005  0.12334435  1
  Fe  Fe35  1  -0.00213697  0.24911380  0.50237442  1
  Fe  Fe36  1  0.00079959  -0.00177826  0.74866067  1
  Fe  Fe37  1  0.62590369  0.62102075  0.62637089  1
  Fe  Fe38  1  0.62229204  0.37403398  0.86930872  1
  Fe  Fe39  1  0.50046988  0.24982207  0.24742898  1
  Fe  Fe40  1  0.87447233  0.62346544  0.62840664  1
  Fe  Fe41  1  0.87486232  0.37266529  0.37586298  1
  Fe  Fe42  1  0.87610035  0.37275031  0.87231318  1
  Fe  Fe43  1  0.12544595  0.37344226  0.37647030  1
  Fe  Fe44  1  0.49870698  -0.00031663  0.25362244  1
  Fe  Fe45  1  0.25073751  0.74615799  0.75164519  1
  Fe  Fe46  1  0.37781611  0.12817526  0.87080406  1
  Fe  Fe47  1  0.12587020  0.87397847  0.12226715  1
  Fe  Fe48  1  0.62387360  0.37407240  0.37803468  1
  Fe  Fe49  1  0.12252734  0.62571635  0.37574287  1
  Fe  Fe50  1  0.50119022  0.74887436  0.74737684  1
  Fe  Fe51  1  0.25130659  -0.00107964  -0.00280740  1
  Fe  Fe52  1  0.12372090  0.12519987  0.87532553  1
  Fe  Fe53  1  0.74828897  -0.00151299  0.75546472  1
  Fe  Fe54  1  0.50135343  0.50083615  0.24930065  1
  Fe  Fe55  1  0.00144142  0.50123432  -0.00003802  1
  Fe  Fe56  1  0.87233902  0.12269710  0.12354767  1
  Fe  Fe57  1  0.12446854  0.12610781  0.37517954  1
  Fe  Fe58  1  0.87602548  0.87204418  0.87275573  1
  Fe  Fe59  1  0.24825961  0.50015223  0.25059812  1
  Fe  Fe60  1  0.49863517  0.49934953  0.50291850  1
  Fe  Fe61  1  0.74773049  0.75331928  0.24876067  1
  Fe  Fe62  1  0.12232995  0.87508760  0.37691194  1
  Fe  Fe63  1  0.37254967  0.37585763  0.12379463  1
  Fe  Fe64  1  0.49646292  0.00048614  0.50059370  1
  Fe  Fe65  1  0.25028659  0.74904591  0.49931099  1
  Fe  Fe66  1  0.74896618  0.75355170  0.00104140  1
  Fe  Fe67  1  0.87212000  0.12476616  0.62611924  1
  Fe  Fe68  1  0.62403074  0.12614431  0.37827842  1
  Fe  Fe69  1  0.50057606  0.50047197  0.00002537  1
  Fe  Fe70  1  0.75006154  0.49927875  -0.00406625  1
  Fe  Fe71  1  0.87358496  0.37486912  0.12319654  1
  Fe  Fe72  1  0.12750677  0.12348119  0.62523174  1
  Fe  Fe73  1  0.37646148  0.62661140  0.37457389  1
  Fe  Fe74  1  0.87450062  0.62707559  0.37546117  1
  Fe  Fe75  1  0.87700975  0.62904131  0.87192405  1
  Fe  Fe76  1  0.24815593  0.50572076  -0.00365835  1
  Fe  Fe77  1  0.37568238  0.87508746  0.12500929  1
  Fe  Fe78  1  0.25221485  0.00093065  0.25297266  1
  Fe  Fe79  1  0.74922318  0.49876128  0.25149899  1
  Fe  Fe80  1  0.00353133  0.49786092  0.74979649  1
  Fe  Fe81  1  0.75205067  0.49752829  0.50094987  1
  Fe  Fe82  1  0.87234437  0.62442752  0.12459297  1
  Fe  Fe83  1  0.62101280  0.12676779  0.87249787  1
  Fe  Fe84  1  0.74813827  0.24892454  -0.00287101  1
  Fe  Fe85  1  0.49990333  0.00081636  -0.00280431  1
  Fe  Fe86  1  0.37766433  0.87164811  0.87489972  1
  Fe  Fe87  1  0.50327240  0.74957269  0.24853732  1
  Fe  Fe88  1  -0.00119632  0.49831920  0.50168691  1
  Fe  Fe89  1  0.37350590  0.87485773  0.62555128  1
  Co  Co90  1  0.24777011  0.50459723  0.75322417  1
  Co  Co91  1  0.37594254  0.87150108  0.37530621  1
  Co  Co92  1  0.12455522  0.62671062  0.12398206  1
  Co  Co93  1  0.12849169  0.37538185  0.62358677  1
  Co  Co94  1  -0.00144441  0.00072397  0.50129190  1
  Co  Co95  1  0.25229460  0.74782185  -0.00051793  1
  Co  Co96  1  0.62146259  0.87219652  0.87546340  1
  Co  Co97  1  0.49907984  -0.00062514  0.74972508  1
  Co  Co98  1  0.12748960  0.37594471  0.12217669  1
  Co  Co99  1  0.50205295  0.24863117  0.74178058  1
  Co  Co100  1  0.62765589  0.62252389  0.12399153  1
  Co  Co101  1  0.37133537  0.12219409  0.62870186  1
  Co  Co102  1  0.62424185  0.87468848  0.37756796  1
  Co  Co103  1  0.74927866  -0.00027756  -0.00658822  1
  Co  Co104  1  0.62863107  0.38041799  0.62901661  1
  Co  Co105  1  0.87249958  0.87890561  0.12440713  1
  Co  Co106  1  0.12646558  0.37504194  0.87602252  1
  Co  Co107  1  0.74752832  0.75043546  0.74793172  1
  Co  Co108  1  0.00028920  0.75244289  0.74387182  1
  Co  Co109  1  0.87354200  0.37370537  0.62830974  1
  Co  Co110  1  0.87198925  0.87908847  0.62733194  1
  Co  Co111  1  0.24738508  0.24851912  0.75169587  1
  Co  Co112  1  0.75164048  0.50131134  0.75327932  1
  Co  Co113  1  0.37775410  0.12944657  0.37624899  1
  Co  Co114  1  0.87760650  0.87221081  0.37565636  1
  Co  Co115  1  0.62990376  0.11784704  0.62496441  1
  Co  Co116  1  0.37861683  0.62551343  0.87519350  1
  Co  Co117  1  0.74837931  0.25141888  0.50191922  1
  Co  Co118  1  0.62385294  0.87993240  0.12351070  1
  Co  Co119  1  0.37408756  0.62532327  0.62445305  1
  Co  Co120  1  0.25040507  0.24955463  0.24924287  1
  Co  Co121  1  0.37514612  0.62349806  0.12667990  1
  Co  Co122  1  0.49796771  0.50233660  0.74896578  1
  Co  Co123  1  0.87574570  0.12729054  0.37388926  1
  Co  Co124  1  -0.00339118  0.75103336  0.00320154  1
  Co  Co125  1  0.74700613  0.24880501  0.74940677  1
  Co  Co126  1  0.50014029  0.25127247  0.00075311  1
  Co  Co127  1  0.11978299  0.63048809  0.87502257  1
