# generated using pymatgen
data_Fe45Co19
_symmetry_space_group_name_H-M   'P 1'
_cell_length_a   11.41547517
_cell_length_b   11.41579355
_cell_length_c   11.41349517
_cell_angle_alpha   89.99602291
_cell_angle_beta   89.98057236
_cell_angle_gamma   90.00126133
_symmetry_Int_Tables_number   1
_chemical_formula_structural   Fe45Co19
_chemical_formula_sum   'Fe90 Co38'
_cell_volume   1487.36902583
_cell_formula_units_Z   2
loop_
 _symmetry_equiv_pos_site_id
 _symmetry_equiv_pos_as_xyz
  1  'x, y, z'
loop_
 _atom_site_type_symbol
 _atom_site_label
 _atom_site_symmetry_multiplicity
 _atom_site_fract_x
 _atom_site_fract_y
 _atom_site_fract_z
 _atom_site_occupancy
  Fe  Fe0  1  0.12487107  0.87462630  0.62566562  1
  Fe  Fe1  1  0.87443870  0.62437404  0.12493468  1
  Fe  Fe2  1  0.12372111  0.62558730  0.87687979  1
  Fe  Fe3  1  0.24709990  0.49801498  0.75024132  1
  Fe  Fe4  1  0.62736445  0.37208720  0.37507896  1
  Fe  Fe5  1  0.24969345  0.24868920  0.25359470  1
  Fe  Fe6  1  0.37337300  0.37623965  0.37452818  1
  Fe  Fe7  1  0.37716908  0.12641845  0.12996695  1
  Fe  Fe8  1  0.37520799  0.12135122  0.87255931  1
  Fe  Fe9  1  0.87719502  0.37458194  0.37104148  1
  Fe  Fe10  1  0.62295935  0.62577429  0.37558814  1
  Fe  Fe11  1  0.25395579  0.75184765  -0.00115428  1
  Fe  Fe12  1  0.62034740  0.87698727  0.88033632  1
  Fe  Fe13  1  0.74905208  0.75012796  0.00046619  1
  Fe  Fe14  1  0.00004817  0.00026894  0.49981625  1
  Fe  Fe15  1  0.24943293  0.49852065  0.00183096  1
  Fe  Fe16  1  0.25085321  0.75135059  0.75224685  1
  Fe  Fe17  1  0.12424312  0.37177989  0.62267079  1
  Fe  Fe18  1  0.24915459  0.00255354  0.49773823  1
  Fe  Fe19  1  0.50371927  0.49721064  0.74694032  1
  Fe  Fe20  1  0.87518546  0.87708814  0.87566202  1
  Fe  Fe21  1  0.74729337  0.49787294  0.74737127  1
  Fe  Fe22  1  0.62644260  0.37103733  0.12346794  1
  Fe  Fe23  1  0.50227427  0.00249827  0.49907604  1
  Fe  Fe24  1  0.37499542  0.62272933  0.12573322  1
  Fe  Fe25  1  0.00104972  0.49847075  0.00259618  1
  Fe  Fe26  1  0.37277005  0.12287571  0.62689136  1
  Fe  Fe27  1  0.62484097  0.62557627  0.12425939  1
  Fe  Fe28  1  0.37713596  0.62168028  0.87607373  1
  Fe  Fe29  1  -0.00152649  0.25175654  0.00622249  1
  Fe  Fe30  1  0.75488075  0.24930939  0.49854990  1
  Fe  Fe31  1  0.00066244  0.24568589  0.49767470  1
  Fe  Fe32  1  0.74970564  -0.00029197  0.49579132  1
  Fe  Fe33  1  0.37321538  0.37521421  0.62272601  1
  Fe  Fe34  1  0.75067746  0.50131616  0.25067946  1
  Fe  Fe35  1  0.74701821  0.00347581  0.00417644  1
  Fe  Fe36  1  -0.00250076  0.75307641  0.24928677  1
  Fe  Fe37  1  0.12640954  0.37733991  0.13074546  1
  Fe  Fe38  1  0.24792444  0.25062288  0.75110438  1
  Fe  Fe39  1  0.12525375  0.87649520  0.37243282  1
  Fe  Fe40  1  0.12387861  0.12201171  0.12992497  1
  Fe  Fe41  1  0.00073396  0.00213904  0.74793337  1
  Fe  Fe42  1  0.49919273  0.49565219  0.24820315  1
  Fe  Fe43  1  0.87635378  0.37398898  0.87676880  1
  Fe  Fe44  1  0.87574953  0.87444820  0.62488491  1
  Fe  Fe45  1  0.37840533  0.87704458  0.12433405  1
  Fe  Fe46  1  0.37374586  0.87861186  0.62752140  1
  Fe  Fe47  1  0.87746538  0.12034485  0.36871739  1
  Fe  Fe48  1  0.62551946  0.87458829  0.62286562  1
  Fe  Fe49  1  0.75131044  0.25025263  0.75130830  1
  Fe  Fe50  1  0.25362732  0.75094033  0.25176664  1
  Fe  Fe51  1  0.00138254  -0.00306333  0.00487530  1
  Fe  Fe52  1  0.87670884  0.62746382  0.37514199  1
  Fe  Fe53  1  0.50238312  0.49890906  0.50107471  1
  Fe  Fe54  1  0.37490932  0.62391713  0.62446215  1
  Fe  Fe55  1  0.74847306  0.49777614  -0.00051033  1
  Fe  Fe56  1  0.00209219  0.50092686  0.49625052  1
  Fe  Fe57  1  0.62308564  0.62398360  0.87598269  1
  Fe  Fe58  1  0.74908717  0.50029519  0.50107708  1
  Fe  Fe59  1  0.12326940  0.62815386  0.62465459  1
  Fe  Fe60  1  0.12535778  0.87501585  0.87647216  1
  Fe  Fe61  1  -0.00180595  0.75220291  0.00158913  1
  Fe  Fe62  1  0.50048687  0.24993520  0.74883925  1
  Fe  Fe63  1  0.49697513  0.24868702  0.49824957  1
  Fe  Fe64  1  0.74930345  0.75174414  0.75169740  1
  Fe  Fe65  1  0.75085612  0.75000770  0.49792161  1
  Fe  Fe66  1  0.62801132  0.12752582  0.62207274  1
  Fe  Fe67  1  0.87659765  0.62766153  0.62549525  1
  Fe  Fe68  1  0.86822653  0.87755861  0.12916640  1
  Fe  Fe69  1  0.50171208  0.75030309  0.24884951  1
  Fe  Fe70  1  0.49935024  0.75204692  0.75107554  1
  Fe  Fe71  1  0.24698741  0.50314428  0.49485588  1
  Fe  Fe72  1  0.12252533  0.12621618  0.87563579  1
  Fe  Fe73  1  0.25162148  0.00000068  0.00191223  1
  Fe  Fe74  1  0.49820239  0.75035103  0.50029389  1
  Fe  Fe75  1  0.24929207  0.24889769  0.00141025  1
  Fe  Fe76  1  0.87532823  0.62441670  0.87475139  1
  Fe  Fe77  1  0.49732014  0.25132131  -0.00019603  1
  Fe  Fe78  1  0.75269456  0.24572806  0.24570528  1
  Fe  Fe79  1  0.62417809  0.12622061  0.87780645  1
  Fe  Fe80  1  0.37814015  0.87878342  0.37389296  1
  Fe  Fe81  1  0.50780555  0.00339106  0.25044900  1
  Fe  Fe82  1  0.87702494  0.12495644  0.87751198  1
  Fe  Fe83  1  0.12592094  0.62655586  0.12817546  1
  Fe  Fe84  1  0.24863776  0.24621057  0.49548551  1
  Fe  Fe85  1  0.37468282  0.37684456  0.87642679  1
  Fe  Fe86  1  0.74770543  0.00067572  0.75033941  1
  Fe  Fe87  1  0.87699502  0.37372420  0.62466269  1
  Fe  Fe88  1  0.25135259  0.74929728  0.49687589  1
  Fe  Fe89  1  0.00181041  0.49851474  0.75042536  1
  Co  Co90  1  -0.00135900  0.24844868  0.74869482  1
  Co  Co91  1  0.87262162  0.87691477  0.37160956  1
  Co  Co92  1  0.12364798  0.37240637  0.87694888  1
  Co  Co93  1  0.00080830  0.75289469  0.49770976  1
  Co  Co94  1  0.87330641  0.37815695  0.12603599  1
  Co  Co95  1  -0.00139029  0.25049207  0.24694140  1
  Co  Co96  1  0.12343116  0.37329071  0.37277665  1
  Co  Co97  1  0.62537050  0.87385339  0.12344256  1
  Co  Co98  1  0.25163531  0.50136303  0.25317942  1
  Co  Co99  1  0.87693089  0.11980265  0.12625767  1
  Co  Co100  1  0.12681264  0.12681854  0.62515130  1
  Co  Co101  1  0.12364609  0.62870070  0.37004178  1
  Co  Co102  1  0.62619455  0.13094982  0.37745851  1
  Co  Co103  1  -0.00023578  0.75120168  0.75227937  1
  Co  Co104  1  0.37552326  0.12173775  0.37161828  1
  Co  Co105  1  0.25174057  -0.00161179  0.24847896  1
  Co  Co106  1  0.50445087  0.00114301  0.74745589  1
  Co  Co107  1  0.62531117  0.62832552  0.62425148  1
  Co  Co108  1  0.62224713  0.13054725  0.12193421  1
  Co  Co109  1  0.12277799  0.12158862  0.36969410  1
  Co  Co110  1  0.12855960  0.87212582  0.12552353  1
  Co  Co111  1  0.37681663  0.87959772  0.87431167  1
  Co  Co112  1  0.49943003  0.25233265  0.25274102  1
  Co  Co113  1  0.49752951  0.00299745  0.00308767  1
  Co  Co114  1  0.50036216  0.49710098  0.00406219  1
  Co  Co115  1  0.74890226  0.74762036  0.25084186  1
  Co  Co116  1  0.62641103  0.36932651  0.62134701  1
  Co  Co117  1  0.37150676  0.37232857  0.12574062  1
  Co  Co118  1  0.87218340  0.12359099  0.62494492  1
  Co  Co119  1  0.37933969  0.62405437  0.37430790  1
  Co  Co120  1  0.62482972  0.87205754  0.37473474  1
  Co  Co121  1  0.00057178  -0.00599304  0.24731128  1
  Co  Co122  1  0.24592306  0.00047497  0.75220145  1
  Co  Co123  1  0.49783260  0.74857161  0.00023352  1
  Co  Co124  1  0.62447492  0.37332355  0.87665161  1
  Co  Co125  1  0.74143676  0.00400974  0.25026996  1
  Co  Co126  1  -0.00181562  0.50157990  0.25144344  1
  Co  Co127  1  0.75395634  0.24933063  0.00170733  1
