# generated using pymatgen
data_Fe45Co19
_symmetry_space_group_name_H-M   'P 1'
_cell_length_a   11.41403704
_cell_length_b   11.41657060
_cell_length_c   11.41550405
_cell_angle_alpha   90.00178295
_cell_angle_beta   89.99724444
_cell_angle_gamma   89.99009009
_symmetry_Int_Tables_number   1
_chemical_formula_structural   Fe45Co19
_chemical_formula_sum   'Fe90 Co38'
_cell_volume   1487.54471588
_cell_formula_units_Z   2
loop_
 _symmetry_equiv_pos_site_id
 _symmetry_equiv_pos_as_xyz
  1  'x, y, z'
loop_
 _atom_site_type_symbol
 _atom_site_label
 _atom_site_symmetry_multiplicity
 _atom_site_fract_x
 _atom_site_fract_y
 _atom_site_fract_z
 _atom_site_occupancy
  Fe  Fe0  1  0.00078347  0.00126402  0.49710392  1
  Fe  Fe1  1  0.62009923  0.37679972  0.12604902  1
  Fe  Fe2  1  0.37881028  0.87923727  0.87371330  1
  Fe  Fe3  1  0.62265962  0.37386230  0.87531783  1
  Fe  Fe4  1  0.62459791  0.87232560  0.37848268  1
  Fe  Fe5  1  0.62345154  0.87716107  0.87422152  1
  Fe  Fe6  1  0.62728713  0.12728603  0.62143943  1
  Fe  Fe7  1  0.75255354  0.24949914  0.00399442  1
  Fe  Fe8  1  0.62531069  0.87447579  0.12328464  1
  Fe  Fe9  1  0.62297956  0.37464456  0.37504692  1
  Fe  Fe10  1  -0.00280895  0.75189091  -0.00470259  1
  Fe  Fe11  1  0.49946906  0.74931752  0.25098361  1
  Fe  Fe12  1  0.74896110  0.50026591  0.00014726  1
  Fe  Fe13  1  0.24906897  0.75176052  0.75235775  1
  Fe  Fe14  1  0.75053129  0.25184268  0.24876598  1
  Fe  Fe15  1  0.37417423  0.12555618  0.37336227  1
  Fe  Fe16  1  -0.00162940  0.75076957  0.50136940  1
  Fe  Fe17  1  -0.00333763  0.24761759  0.49886932  1
  Fe  Fe18  1  -0.00246996  0.25011888  0.74806372  1
  Fe  Fe19  1  0.37881955  0.62288605  0.87049171  1
  Fe  Fe20  1  0.37610814  0.62213764  0.12446579  1
  Fe  Fe21  1  0.74893915  0.50018618  0.24886710  1
  Fe  Fe22  1  0.50145050  -0.00157367  0.25087833  1
  Fe  Fe23  1  0.87579743  0.37631038  0.37274950  1
  Fe  Fe24  1  0.87613122  0.12170654  0.36778875  1
  Fe  Fe25  1  0.37377617  0.12863345  0.62784755  1
  Fe  Fe26  1  -0.00063564  0.50024764  0.00000385  1
  Fe  Fe27  1  0.75165831  0.74908540  0.75056984  1
  Fe  Fe28  1  0.25185982  0.74898213  -0.00263511  1
  Fe  Fe29  1  0.24976818  0.00266219  0.75197714  1
  Fe  Fe30  1  0.49988229  0.75010718  -0.00129785  1
  Fe  Fe31  1  0.87548627  0.62551496  0.37472690  1
  Fe  Fe32  1  0.12192554  0.62526082  0.87357474  1
  Fe  Fe33  1  0.24708530  -0.00222757  0.25242181  1
  Fe  Fe34  1  0.62509618  0.12402416  0.12703166  1
  Fe  Fe35  1  0.12450800  0.37188332  0.62342753  1
  Fe  Fe36  1  0.87448304  0.87731351  0.62574507  1
  Fe  Fe37  1  0.12570691  0.87279689  0.12094597  1
  Fe  Fe38  1  0.25009762  0.75062049  0.50035869  1
  Fe  Fe39  1  0.37457318  0.87478744  0.62613613  1
  Fe  Fe40  1  0.12565047  0.87307468  0.37701592  1
  Fe  Fe41  1  0.75234273  0.00094758  0.00191284  1
  Fe  Fe42  1  0.12279449  0.37255053  0.87610464  1
  Fe  Fe43  1  0.49829176  0.00004237  0.50111489  1
  Fe  Fe44  1  0.62519516  0.12667681  0.37439997  1
  Fe  Fe45  1  0.62327367  0.62476949  0.12489279  1
  Fe  Fe46  1  0.74932014  0.00338795  0.75034568  1
  Fe  Fe47  1  0.49818426  0.25083637  0.49878929  1
  Fe  Fe48  1  0.12493805  0.62594130  0.62663495  1
  Fe  Fe49  1  0.24988780  0.49833792  0.50011319  1
  Fe  Fe50  1  0.62623591  0.62634822  0.37752760  1
  Fe  Fe51  1  0.00031637  0.50012936  0.50010387  1
  Fe  Fe52  1  0.37280658  0.37195152  0.62672866  1
  Fe  Fe53  1  0.25346406  0.24868990  0.00137486  1
  Fe  Fe54  1  0.00158391  0.74961678  0.25001031  1
  Fe  Fe55  1  0.25030699  0.49983589  -0.00114131  1
  Fe  Fe56  1  0.25202426  0.25253402  0.24999283  1
  Fe  Fe57  1  0.49615166  0.24730695  0.00408718  1
  Fe  Fe58  1  0.75212729  0.24878758  0.74883898  1
  Fe  Fe59  1  0.49915520  0.50183103  0.50355000  1
  Fe  Fe60  1  -0.00085197  -0.00043730  0.75261953  1
  Fe  Fe61  1  0.75048579  0.49780705  0.75000518  1
  Fe  Fe62  1  -0.00312974  -0.00060499  0.00047755  1
  Fe  Fe63  1  0.62847484  0.37283466  0.62236806  1
  Fe  Fe64  1  0.62209876  0.62338940  0.87129633  1
  Fe  Fe65  1  0.87510017  0.37436191  0.87570083  1
  Fe  Fe66  1  0.24715522  0.50189588  0.25086710  1
  Fe  Fe67  1  0.75175702  0.00023574  0.49669293  1
  Fe  Fe68  1  -0.00384081  0.24909891  0.00535099  1
  Fe  Fe69  1  0.87634974  0.62435749  0.12468732  1
  Fe  Fe70  1  0.24865629  0.74850567  0.24978898  1
  Fe  Fe71  1  0.24775488  0.49743985  0.75081196  1
  Fe  Fe72  1  0.25216810  0.00305227  -0.00151832  1
  Fe  Fe73  1  0.75152474  0.74872519  -0.00223848  1
  Fe  Fe74  1  0.24985416  0.00157801  0.49872243  1
  Fe  Fe75  1  0.62228087  0.12495782  0.87584850  1
  Fe  Fe76  1  0.37510707  0.87653879  0.12578842  1
  Fe  Fe77  1  0.12534585  0.12664625  0.62404115  1
  Fe  Fe78  1  0.37734933  0.37285268  0.87353535  1
  Fe  Fe79  1  0.75089738  0.50036078  0.50023712  1
  Fe  Fe80  1  0.12296803  0.12637571  0.87609180  1
  Fe  Fe81  1  0.12411731  0.37704513  0.12557717  1
  Fe  Fe82  1  0.75120068  0.75267434  0.25100322  1
  Fe  Fe83  1  0.12507450  0.87576101  0.62664607  1
  Fe  Fe84  1  0.37353751  0.62455677  0.37683019  1
  Fe  Fe85  1  0.62704336  0.87357446  0.62387547  1
  Fe  Fe86  1  0.12397319  0.37323732  0.37519665  1
  Fe  Fe87  1  0.87631296  0.62321863  0.62801241  1
  Fe  Fe88  1  0.49913202  0.74741260  0.50406264  1
  Fe  Fe89  1  0.12402045  0.12520795  0.12794942  1
  Co  Co90  1  0.12646442  0.87696115  0.87655550  1
  Co  Co91  1  0.50237048  0.00125292  0.74543536  1
  Co  Co92  1  0.87096191  0.87743405  0.87388803  1
  Co  Co93  1  0.12580883  0.62622495  0.37872800  1
  Co  Co94  1  0.87569005  0.37955005  0.12554616  1
  Co  Co95  1  0.00266984  0.50231146  0.25112016  1
  Co  Co96  1  0.24686612  0.24933720  0.75310092  1
  Co  Co97  1  0.87646726  0.87574838  0.37431265  1
  Co  Co98  1  0.75467595  0.24849904  0.49603171  1
  Co  Co99  1  -0.00120548  0.25215935  0.24808192  1
  Co  Co100  1  0.00503700  -0.00474326  0.24931764  1
  Co  Co101  1  0.12366004  0.62588665  0.12055451  1
  Co  Co102  1  0.37633189  0.38003211  0.12637707  1
  Co  Co103  1  -0.00020908  0.75320410  0.75153152  1
  Co  Co104  1  0.00180248  0.49648913  0.74895266  1
  Co  Co105  1  0.87482331  0.12126685  0.13053270  1
  Co  Co106  1  0.50351282  0.24985559  0.74790163  1
  Co  Co107  1  0.50052541  0.49738741  0.74537239  1
  Co  Co108  1  0.87491533  0.87450743  0.12524715  1
  Co  Co109  1  0.25088434  0.24970466  0.49751632  1
  Co  Co110  1  0.87470147  0.12289237  0.62456424  1
  Co  Co111  1  0.49959772  0.00196610  0.00293866  1
  Co  Co112  1  0.37516666  0.87364968  0.37562030  1
  Co  Co113  1  0.87631125  0.62151567  0.87348762  1
  Co  Co114  1  0.87393192  0.37512244  0.62380264  1
  Co  Co115  1  0.50133016  0.50344829  0.25243293  1
  Co  Co116  1  0.12497355  0.12773765  0.37312879  1
  Co  Co117  1  0.74639382  -0.00405463  0.25091897  1
  Co  Co118  1  0.50083243  0.75085311  0.74794614  1
  Co  Co119  1  0.75404042  0.74988856  0.50114573  1
  Co  Co120  1  0.49841374  0.24896522  0.24882992  1
  Co  Co121  1  0.87515015  0.12674236  0.87543647  1
  Co  Co122  1  0.62875440  0.62500585  0.62599405  1
  Co  Co123  1  0.37675713  0.37718592  0.37397508  1
  Co  Co124  1  0.37852156  0.12539723  0.87181998  1
  Co  Co125  1  0.37302433  0.12145911  0.12981113  1
  Co  Co126  1  0.50060713  0.50046048  -0.00168902  1
  Co  Co127  1  0.37046201  0.62539875  0.62706171  1
