# generated using pymatgen
data_Fe45Co19
_symmetry_space_group_name_H-M   'P 1'
_cell_length_a   11.41466572
_cell_length_b   11.41639476
_cell_length_c   11.41422269
_cell_angle_alpha   90.00473324
_cell_angle_beta   90.00568175
_cell_angle_gamma   90.00273558
_symmetry_Int_Tables_number   1
_chemical_formula_structural   Fe45Co19
_chemical_formula_sum   'Fe90 Co38'
_cell_volume   1487.43676678
_cell_formula_units_Z   2
loop_
 _symmetry_equiv_pos_site_id
 _symmetry_equiv_pos_as_xyz
  1  'x, y, z'
loop_
 _atom_site_type_symbol
 _atom_site_label
 _atom_site_symmetry_multiplicity
 _atom_site_fract_x
 _atom_site_fract_y
 _atom_site_fract_z
 _atom_site_occupancy
  Fe  Fe0  1  0.00074615  0.49261879  0.74456827  1
  Fe  Fe1  1  0.37604286  0.62257896  0.87773780  1
  Fe  Fe2  1  0.75142580  0.75007242  0.50039172  1
  Fe  Fe3  1  0.50316644  0.49879627  0.75360287  1
  Fe  Fe4  1  0.62507704  0.87602992  0.62597337  1
  Fe  Fe5  1  0.37479311  0.62370928  0.37606750  1
  Fe  Fe6  1  0.49979422  0.49902433  0.24775383  1
  Fe  Fe7  1  0.74967402  0.49888686  -0.00153162  1
  Fe  Fe8  1  0.49856265  -0.00046070  0.00053754  1
  Fe  Fe9  1  0.62205544  0.12367540  0.37635266  1
  Fe  Fe10  1  0.87745140  0.87625539  0.62560256  1
  Fe  Fe11  1  0.87699385  0.37517063  0.37752558  1
  Fe  Fe12  1  0.37537290  0.62386118  0.62661741  1
  Fe  Fe13  1  0.25010278  0.25207112  0.25097736  1
  Fe  Fe14  1  0.87624926  0.62335729  0.62583132  1
  Fe  Fe15  1  0.75010065  0.00271790  0.75027866  1
  Fe  Fe16  1  0.49958535  0.25146853  0.00035036  1
  Fe  Fe17  1  0.62415991  0.87561276  0.12454577  1
  Fe  Fe18  1  0.24679823  0.00110189  0.49923843  1
  Fe  Fe19  1  0.62464591  0.62533715  0.12129535  1
  Fe  Fe20  1  0.37531781  0.37637808  0.62246619  1
  Fe  Fe21  1  0.75286066  0.74867749  0.24903182  1
  Fe  Fe22  1  0.24662387  0.50080807  0.50126574  1
  Fe  Fe23  1  0.37678656  0.62292840  0.12100972  1
  Fe  Fe24  1  0.12565691  0.87675145  0.87442707  1
  Fe  Fe25  1  0.12347245  0.62524209  0.37438603  1
  Fe  Fe26  1  0.25185620  0.24877903  0.49737327  1
  Fe  Fe27  1  0.87762232  0.12795763  0.62789657  1
  Fe  Fe28  1  0.62454751  0.37592901  0.37626384  1
  Fe  Fe29  1  0.37120067  0.87452870  0.12604295  1
  Fe  Fe30  1  0.75117824  0.24795689  0.24966457  1
  Fe  Fe31  1  0.49822648  -0.00046491  0.75180362  1
  Fe  Fe32  1  0.62503847  0.62469646  0.37472380  1
  Fe  Fe33  1  0.12412280  0.62034842  0.87351385  1
  Fe  Fe34  1  0.37339327  0.87482038  0.87535817  1
  Fe  Fe35  1  0.62491864  0.62428836  0.62645350  1
  Fe  Fe36  1  0.00237516  0.00286149  0.75209498  1
  Fe  Fe37  1  0.37102748  0.12597707  0.87407263  1
  Fe  Fe38  1  0.00142150  0.24955156  -0.00263753  1
  Fe  Fe39  1  0.37114417  0.87459014  0.37418407  1
  Fe  Fe40  1  0.24741027  0.00099520  0.00032146  1
  Fe  Fe41  1  0.49800244  0.74939151  0.24878257  1
  Fe  Fe42  1  0.75046876  0.24779705  0.50016699  1
  Fe  Fe43  1  0.12195555  0.37466548  0.37637769  1
  Fe  Fe44  1  0.00197969  0.74827922  0.50202768  1
  Fe  Fe45  1  0.24355174  0.00093185  0.25159403  1
  Fe  Fe46  1  0.87563629  0.87805596  0.87546796  1
  Fe  Fe47  1  0.49890673  0.00113275  0.25020869  1
  Fe  Fe48  1  0.87092076  0.37154988  0.87118615  1
  Fe  Fe49  1  0.87821399  0.87590878  0.12286424  1
  Fe  Fe50  1  0.24654733  0.25370705  0.00062671  1
  Fe  Fe51  1  0.75153524  0.00064389  0.50051393  1
  Fe  Fe52  1  0.75150688  0.00158121  0.24785054  1
  Fe  Fe53  1  0.62573216  0.87520047  0.37459931  1
  Fe  Fe54  1  0.37254743  0.12678305  0.12649075  1
  Fe  Fe55  1  -0.00106715  0.49620673  0.00068657  1
  Fe  Fe56  1  0.87737372  0.62341859  0.87467635  1
  Fe  Fe57  1  0.62072784  0.12372075  0.62282313  1
  Fe  Fe58  1  -0.00377474  0.50111017  0.24847728  1
  Fe  Fe59  1  0.24983880  0.49948196  0.24708046  1
  Fe  Fe60  1  0.24777075  0.74789330  -0.00041145  1
  Fe  Fe61  1  0.00395956  0.00347057  0.00092370  1
  Fe  Fe62  1  0.37678589  0.37701116  0.37617460  1
  Fe  Fe63  1  0.87803172  0.12366270  0.37270370  1
  Fe  Fe64  1  -0.00096143  0.24935989  0.24791135  1
  Fe  Fe65  1  0.75045383  0.75095385  -0.00247796  1
  Fe  Fe66  1  0.00124531  0.75097079  0.75090930  1
  Fe  Fe67  1  0.49890359  0.25177192  0.75023337  1
  Fe  Fe68  1  0.62606099  0.37287511  0.12497231  1
  Fe  Fe69  1  0.49960869  0.75035022  0.49939095  1
  Fe  Fe70  1  0.62780231  0.37568953  0.62599857  1
  Fe  Fe71  1  0.00400056  0.00317262  0.49935207  1
  Fe  Fe72  1  0.12253703  0.62440805  0.12326461  1
  Fe  Fe73  1  0.24729324  0.74909920  0.50222981  1
  Fe  Fe74  1  0.75009415  0.00289239  0.00138134  1
  Fe  Fe75  1  0.75136731  0.24668402  0.00151696  1
  Fe  Fe76  1  0.37477662  0.12466612  0.62475936  1
  Fe  Fe77  1  0.37317434  0.37774677  0.87891264  1
  Fe  Fe78  1  0.49852151  0.25001570  0.25137347  1
  Fe  Fe79  1  -0.00051560  0.75046376  0.24750544  1
  Fe  Fe80  1  0.75075493  0.74954924  0.75254954  1
  Fe  Fe81  1  0.37423764  0.87530921  0.62518121  1
  Fe  Fe82  1  0.24785063  0.49663702  0.74868508  1
  Fe  Fe83  1  0.87848692  0.87598002  0.37525969  1
  Fe  Fe84  1  0.12778093  0.13008544  0.63047376  1
  Fe  Fe85  1  0.50139025  0.75081664  0.75351093  1
  Fe  Fe86  1  0.24769233  0.75059071  0.75039617  1
  Fe  Fe87  1  0.62447251  0.12537674  0.87573583  1
  Fe  Fe88  1  0.75352743  0.50150535  0.24846450  1
  Fe  Fe89  1  0.75244749  0.50131233  0.49924719  1
  Co  Co90  1  0.87680863  0.62591459  0.37647294  1
  Co  Co91  1  0.12578235  0.12880399  0.12534728  1
  Co  Co92  1  0.00091179  0.49965947  0.50328375  1
  Co  Co93  1  0.12262244  0.12893512  0.37287570  1
  Co  Co94  1  0.37556254  0.12332540  0.37442085  1
  Co  Co95  1  0.62263527  0.12608174  0.12530934  1
  Co  Co96  1  -0.00133725  0.24855139  0.50187882  1
  Co  Co97  1  0.25300488  0.25579609  0.75180961  1
  Co  Co98  1  0.24987070  0.74613024  0.24729406  1
  Co  Co99  1  0.00092178  0.25386882  0.75282802  1
  Co  Co100  1  0.12520503  0.62454747  0.62819975  1
  Co  Co101  1  0.12367088  0.87620062  0.62594713  1
  Co  Co102  1  0.49969681  0.25182987  0.50013392  1
  Co  Co103  1  0.50322549  0.49520233  -0.00071558  1
  Co  Co104  1  0.00388466  -0.00143270  0.24806046  1
  Co  Co105  1  0.12670791  0.36873516  0.62116505  1
  Co  Co106  1  0.62285774  0.62635030  0.87871710  1
  Co  Co107  1  0.37459821  0.37432538  0.12448575  1
  Co  Co108  1  0.87428653  0.37291576  0.12443728  1
  Co  Co109  1  0.12252963  0.37482346  0.12693035  1
  Co  Co110  1  0.62678089  0.87751573  0.87462669  1
  Co  Co111  1  0.12560729  0.87247100  0.12396580  1
  Co  Co112  1  0.50148301  0.50075214  0.50077727  1
  Co  Co113  1  0.49818321  -0.00281525  0.49829483  1
  Co  Co114  1  0.74946131  0.50288160  0.75224261  1
  Co  Co115  1  0.12928435  0.12678914  0.87157068  1
  Co  Co116  1  0.87109195  0.37335693  0.62476176  1
  Co  Co117  1  0.24743039  0.49965932  0.00334543  1
  Co  Co118  1  0.87817128  0.12476135  0.12555216  1
  Co  Co119  1  0.00237204  0.75032890  -0.00294844  1
  Co  Co120  1  0.12425116  0.87123323  0.37540770  1
  Co  Co121  1  0.62916005  0.37093902  0.87412038  1
  Co  Co122  1  0.74856241  0.24471383  0.74713078  1
  Co  Co123  1  0.12612731  0.37664457  0.87552935  1
  Co  Co124  1  0.25064940  -0.00188069  0.74927426  1
  Co  Co125  1  0.87486078  0.12589810  0.87505811  1
  Co  Co126  1  0.87519401  0.62635047  0.12039751  1
  Co  Co127  1  0.49872881  0.75446301  -0.00005058  1
