# generated using pymatgen
data_Fe45Co19
_symmetry_space_group_name_H-M   'P 1'
_cell_length_a   11.41465047
_cell_length_b   11.41378872
_cell_length_c   11.41346518
_cell_angle_alpha   89.99874838
_cell_angle_beta   89.99669948
_cell_angle_gamma   90.00324432
_symmetry_Int_Tables_number   1
_chemical_formula_structural   Fe45Co19
_chemical_formula_sum   'Fe90 Co38'
_cell_volume   1486.99655752
_cell_formula_units_Z   2
loop_
 _symmetry_equiv_pos_site_id
 _symmetry_equiv_pos_as_xyz
  1  'x, y, z'
loop_
 _atom_site_type_symbol
 _atom_site_label
 _atom_site_symmetry_multiplicity
 _atom_site_fract_x
 _atom_site_fract_y
 _atom_site_fract_z
 _atom_site_occupancy
  Fe  Fe0  1  -0.00070014  0.49688292  0.75108768  1
  Fe  Fe1  1  0.62515940  0.12609926  0.62664264  1
  Fe  Fe2  1  0.87318498  0.62353995  0.12502755  1
  Fe  Fe3  1  0.62486920  0.87607869  0.12164300  1
  Fe  Fe4  1  0.62791582  0.62762989  0.37368979  1
  Fe  Fe5  1  0.12689646  0.37448309  0.12596252  1
  Fe  Fe6  1  0.25089129  0.24721093  -0.00286988  1
  Fe  Fe7  1  0.74875153  0.49771131  -0.00360344  1
  Fe  Fe8  1  0.12430723  0.62263279  0.62657628  1
  Fe  Fe9  1  0.24914580  0.74974812  0.50094135  1
  Fe  Fe10  1  0.62667873  0.62454928  0.62817401  1
  Fe  Fe11  1  0.62473260  0.37429728  0.12286394  1
  Fe  Fe12  1  0.37325043  0.87655592  0.62495706  1
  Fe  Fe13  1  0.25307480  0.25247899  0.50019519  1
  Fe  Fe14  1  0.75427126  0.75355509  0.74948624  1
  Fe  Fe15  1  0.37371380  0.37829094  0.12328442  1
  Fe  Fe16  1  0.00203404  0.00069125  0.25065247  1
  Fe  Fe17  1  0.37251623  0.12250750  0.12387398  1
  Fe  Fe18  1  0.62506288  0.87474011  0.62625429  1
  Fe  Fe19  1  0.74956068  -0.00006910  0.50009323  1
  Fe  Fe20  1  0.50005850  0.00095184  -0.00087801  1
  Fe  Fe21  1  0.75049995  0.75177378  -0.00144991  1
  Fe  Fe22  1  -0.00148826  0.75205270  0.74864259  1
  Fe  Fe23  1  0.00169636  0.50022500  -0.00147944  1
  Fe  Fe24  1  0.37652579  0.12537293  0.37601866  1
  Fe  Fe25  1  0.00406308  0.00211471  -0.00195898  1
  Fe  Fe26  1  -0.00273284  0.74898529  0.50363236  1
  Fe  Fe27  1  0.62426792  0.37359991  0.37485653  1
  Fe  Fe28  1  0.87549293  0.12433852  0.12500138  1
  Fe  Fe29  1  0.00003738  0.75074982  0.24750680  1
  Fe  Fe30  1  0.25075465  0.49925140  0.75279623  1
  Fe  Fe31  1  0.74993998  -0.00107296  0.75387163  1
  Fe  Fe32  1  0.37517765  0.62351772  0.37441474  1
  Fe  Fe33  1  0.50079132  0.50088127  0.24851971  1
  Fe  Fe34  1  0.75032451  0.50086517  0.50008910  1
  Fe  Fe35  1  0.87667039  0.12727915  0.87476170  1
  Fe  Fe36  1  0.25127726  0.49704975  0.49833780  1
  Fe  Fe37  1  0.87462314  0.87409440  0.37655048  1
  Fe  Fe38  1  0.00065400  -0.00023590  0.75202309  1
  Fe  Fe39  1  0.37218726  0.62296272  0.12186884  1
  Fe  Fe40  1  0.12608284  0.37250465  0.62613926  1
  Fe  Fe41  1  0.37831519  0.37490236  0.87514242  1
  Fe  Fe42  1  0.74941796  0.25012662  -0.00306406  1
  Fe  Fe43  1  0.87369762  0.37384603  0.62603198  1
  Fe  Fe44  1  0.12619935  0.87682660  0.62489661  1
  Fe  Fe45  1  0.49838101  0.24978603  0.74800427  1
  Fe  Fe46  1  0.12247906  0.13033057  0.37427137  1
  Fe  Fe47  1  0.75201979  0.24883529  0.49997849  1
  Fe  Fe48  1  0.50230997  0.50326774  -0.00422577  1
  Fe  Fe49  1  0.37292262  0.87599126  0.12226218  1
  Fe  Fe50  1  0.12345061  0.37141126  0.87367181  1
  Fe  Fe51  1  0.87668412  0.62582093  0.87482423  1
  Fe  Fe52  1  0.87458825  0.12447455  0.62645916  1
  Fe  Fe53  1  0.25080919  0.25166230  0.24981982  1
  Fe  Fe54  1  0.24681302  -0.00017741  0.25267600  1
  Fe  Fe55  1  0.12612777  0.87684671  0.12230331  1
  Fe  Fe56  1  0.62595912  0.12498288  0.12422616  1
  Fe  Fe57  1  0.49917512  0.75056855  0.24746264  1
  Fe  Fe58  1  0.62649979  0.87227631  0.37585474  1
  Fe  Fe59  1  0.87576183  0.87735370  0.12074900  1
  Fe  Fe60  1  0.62157888  0.12665332  0.87459917  1
  Fe  Fe61  1  0.24920797  0.74991935  0.25074764  1
  Fe  Fe62  1  0.25031378  0.00290669  0.75401589  1
  Fe  Fe63  1  0.49986214  0.49845068  0.50138652  1
  Fe  Fe64  1  0.00041624  0.49708345  0.25100006  1
  Fe  Fe65  1  0.00265764  0.00202944  0.49961401  1
  Fe  Fe66  1  0.62680537  0.62595071  0.12417731  1
  Fe  Fe67  1  0.24841782  0.74875377  0.75096868  1
  Fe  Fe68  1  -0.00104068  0.49815717  0.49991428  1
  Fe  Fe69  1  0.50010359  0.00033131  0.50206076  1
  Fe  Fe70  1  0.75313763  0.25105623  0.25080335  1
  Fe  Fe71  1  0.12577781  0.12859111  0.62784043  1
  Fe  Fe72  1  0.87150126  0.62546783  0.37278661  1
  Fe  Fe73  1  0.37437124  0.12483837  0.62514653  1
  Fe  Fe74  1  0.87406829  0.37573515  0.12409507  1
  Fe  Fe75  1  0.49897719  0.24991685  0.24779259  1
  Fe  Fe76  1  0.50006740  0.74946279  0.50162773  1
  Fe  Fe77  1  0.50067606  -0.00077534  0.24974921  1
  Fe  Fe78  1  0.37498519  0.62277521  0.62655903  1
  Fe  Fe79  1  0.37323614  0.87622798  0.37688135  1
  Fe  Fe80  1  0.62468008  0.12611121  0.37503515  1
  Fe  Fe81  1  0.49991834  0.74813687  0.75254842  1
  Fe  Fe82  1  0.12733214  0.62226135  0.12423727  1
  Fe  Fe83  1  0.74949776  0.49539471  0.75460234  1
  Fe  Fe84  1  0.37600900  0.87506730  0.87557921  1
  Fe  Fe85  1  0.75057766  -0.00102604  0.24936310  1
  Fe  Fe86  1  0.24710603  0.74837815  -0.00342395  1
  Fe  Fe87  1  0.12432227  0.62485089  0.37536280  1
  Fe  Fe88  1  0.62403182  0.37410495  0.62730645  1
  Fe  Fe89  1  0.00143462  0.24929051  0.00130211  1
  Co  Co90  1  0.87748258  0.87512147  0.87850406  1
  Co  Co91  1  0.25322209  0.24961887  0.75299444  1
  Co  Co92  1  0.12411813  0.87388146  0.87484796  1
  Co  Co93  1  0.24787772  0.00302537  0.49966410  1
  Co  Co94  1  0.24848116  0.00264836  -0.00473192  1
  Co  Co95  1  0.24892433  0.49925255  0.25278316  1
  Co  Co96  1  0.49883835  0.25056943  0.50206114  1
  Co  Co97  1  0.12165130  0.62507121  0.87204853  1
  Co  Co98  1  0.87612556  0.88014690  0.62358382  1
  Co  Co99  1  -0.00330176  0.25066650  0.50288495  1
  Co  Co100  1  0.37782903  0.37524555  0.37256659  1
  Co  Co101  1  0.74859798  0.49745209  0.24940519  1
  Co  Co102  1  0.75043199  0.75345022  0.24559813  1
  Co  Co103  1  0.74869126  0.00306436  -0.00348403  1
  Co  Co104  1  0.37591571  0.37632118  0.62824873  1
  Co  Co105  1  0.62952685  0.62755759  0.87289311  1
  Co  Co106  1  0.24705861  0.49863889  -0.00560112  1
  Co  Co107  1  0.50040145  0.50187930  0.75246851  1
  Co  Co108  1  -0.00234684  0.25074254  0.74809699  1
  Co  Co109  1  0.00185786  0.74758491  0.00142544  1
  Co  Co110  1  0.87463703  0.62054498  0.62872089  1
  Co  Co111  1  0.37938030  0.12505769  0.87551404  1
  Co  Co112  1  0.49968101  0.00048505  0.74870232  1
  Co  Co113  1  0.50065006  0.74814584  -0.00094285  1
  Co  Co114  1  -0.00274400  0.25172922  0.24828196  1
  Co  Co115  1  0.12401919  0.37204184  0.37527731  1
  Co  Co116  1  0.49812652  0.24845239  0.00302268  1
  Co  Co117  1  0.12352821  0.87253065  0.37713198  1
  Co  Co118  1  0.75247154  0.74885627  0.50468686  1
  Co  Co119  1  0.87607709  0.12376954  0.37435176  1
  Co  Co120  1  0.75049702  0.25057839  0.75235457  1
  Co  Co121  1  0.12295613  0.12798281  0.87337833  1
  Co  Co122  1  0.62007978  0.37114595  0.87505583  1
  Co  Co123  1  0.12611953  0.12561773  0.12561201  1
  Co  Co124  1  0.87773708  0.37301248  0.87673124  1
  Co  Co125  1  0.87456460  0.37584074  0.37569158  1
  Co  Co126  1  0.37339253  0.62492760  0.87575715  1
  Co  Co127  1  0.62358006  0.87523176  0.87519415  1
