# generated using pymatgen
data_Fe45Co19
_symmetry_space_group_name_H-M   'P 1'
_cell_length_a   11.42229165
_cell_length_b   11.42252676
_cell_length_c   11.42205131
_cell_angle_alpha   90.00322190
_cell_angle_beta   89.99813333
_cell_angle_gamma   90.00692368
_symmetry_Int_Tables_number   1
_chemical_formula_structural   Fe45Co19
_chemical_formula_sum   'Fe90 Co38'
_cell_volume   1490.25137705
_cell_formula_units_Z   2
loop_
 _symmetry_equiv_pos_site_id
 _symmetry_equiv_pos_as_xyz
  1  'x, y, z'
loop_
 _atom_site_type_symbol
 _atom_site_label
 _atom_site_symmetry_multiplicity
 _atom_site_fract_x
 _atom_site_fract_y
 _atom_site_fract_z
 _atom_site_occupancy
  Fe  Fe0  1  0.75291624  0.74983267  0.50223603  1
  Fe  Fe1  1  0.24685730  -0.00276669  -0.00009480  1
  Fe  Fe2  1  0.49866276  0.25195233  0.50080975  1
  Fe  Fe3  1  0.75119594  -0.00061666  0.50014719  1
  Fe  Fe4  1  0.62907821  0.37629784  0.37330935  1
  Fe  Fe5  1  -0.00157676  0.25075520  0.75126520  1
  Fe  Fe6  1  0.50035061  0.74627951  0.25271365  1
  Fe  Fe7  1  0.62580553  0.12601319  0.87557811  1
  Fe  Fe8  1  0.12472715  0.37631895  0.12563726  1
  Fe  Fe9  1  0.75360936  0.24878994  0.24807508  1
  Fe  Fe10  1  -0.00037804  0.00004829  0.75003659  1
  Fe  Fe11  1  0.37380241  0.87459000  0.37406434  1
  Fe  Fe12  1  0.75154775  0.00003497  0.74973336  1
  Fe  Fe13  1  0.75182327  0.74725031  -0.00097030  1
  Fe  Fe14  1  0.87697387  0.87589339  0.87808231  1
  Fe  Fe15  1  0.12323367  0.62640836  0.62355841  1
  Fe  Fe16  1  0.12356868  0.62526708  0.87609436  1
  Fe  Fe17  1  0.12343083  0.87366825  0.62625081  1
  Fe  Fe18  1  0.00120006  0.49939915  0.75013797  1
  Fe  Fe19  1  -0.00279769  0.74914060  0.75149329  1
  Fe  Fe20  1  0.87514360  0.12510771  0.87761585  1
  Fe  Fe21  1  0.25253921  0.25046746  0.74746752  1
  Fe  Fe22  1  0.49734760  0.50009823  0.75202840  1
  Fe  Fe23  1  0.87516692  0.37740559  0.87641491  1
  Fe  Fe24  1  0.75130016  0.49814002  0.50313980  1
  Fe  Fe25  1  0.62613927  0.87170677  0.37553846  1
  Fe  Fe26  1  -0.00013560  0.25221902  0.00067865  1
  Fe  Fe27  1  0.37472925  0.37782891  0.12607892  1
  Fe  Fe28  1  0.24698489  0.74681551  0.25052241  1
  Fe  Fe29  1  0.24648457  0.50305916  0.25195782  1
  Fe  Fe30  1  0.24710346  0.75212344  -0.00159116  1
  Fe  Fe31  1  0.37283671  0.62304996  0.62452361  1
  Fe  Fe32  1  0.62593386  0.87237217  0.12608630  1
  Fe  Fe33  1  0.62649791  0.37669832  0.12684981  1
  Fe  Fe34  1  0.24798845  0.49768824  -0.00352218  1
  Fe  Fe35  1  0.62493228  0.62553347  0.62483450  1
  Fe  Fe36  1  0.12018151  0.87271191  0.12626629  1
  Fe  Fe37  1  -0.00213464  0.25233611  0.25012448  1
  Fe  Fe38  1  0.12497577  0.12583764  0.87445791  1
  Fe  Fe39  1  0.88046386  0.62540509  0.12280533  1
  Fe  Fe40  1  0.75099796  0.25154858  0.74875215  1
  Fe  Fe41  1  0.62528408  0.12590868  0.62500855  1
  Fe  Fe42  1  0.50274498  0.50355985  0.25109378  1
  Fe  Fe43  1  0.87425031  0.87602357  0.37274488  1
  Fe  Fe44  1  0.37460911  0.87342064  0.12613010  1
  Fe  Fe45  1  0.37509129  0.12526941  0.87614158  1
  Fe  Fe46  1  0.24908464  0.25156973  0.00036464  1
  Fe  Fe47  1  0.37311766  0.12438096  0.37435188  1
  Fe  Fe48  1  0.50082245  -0.00005810  0.00118768  1
  Fe  Fe49  1  0.12672936  0.37369884  0.62538681  1
  Fe  Fe50  1  0.62530852  0.37708755  0.87482896  1
  Fe  Fe51  1  0.75229999  0.50007606  0.74755902  1
  Fe  Fe52  1  0.37336680  0.12353463  0.12535384  1
  Fe  Fe53  1  0.00159969  0.50067896  0.25063139  1
  Fe  Fe54  1  0.75038203  0.25075933  0.00186538  1
  Fe  Fe55  1  0.12378533  0.12487132  0.37410715  1
  Fe  Fe56  1  0.24739342  0.00174191  0.50106155  1
  Fe  Fe57  1  0.49973492  0.25010396  0.24956487  1
  Fe  Fe58  1  0.62541413  0.87284356  0.62494028  1
  Fe  Fe59  1  0.75161215  0.25266448  0.50212570  1
  Fe  Fe60  1  0.37298231  0.37565374  0.37425454  1
  Fe  Fe61  1  0.25058990  0.74943838  0.49867804  1
  Fe  Fe62  1  0.37492960  0.87537893  0.62533254  1
  Fe  Fe63  1  0.75087032  0.00048934  0.00449831  1
  Fe  Fe64  1  0.49860878  0.25234551  0.74793469  1
  Fe  Fe65  1  -0.00329557  0.00042809  0.24941302  1
  Fe  Fe66  1  0.24948690  0.00022779  0.75003920  1
  Fe  Fe67  1  0.37354612  0.62394197  0.12289495  1
  Fe  Fe68  1  0.62775948  0.12624915  0.37417385  1
  Fe  Fe69  1  0.87541263  0.62233523  0.37684250  1
  Fe  Fe70  1  0.50195313  0.00008646  0.25002873  1
  Fe  Fe71  1  0.50075457  0.50120364  0.49759022  1
  Fe  Fe72  1  0.50087175  -0.00057725  0.49923405  1
  Fe  Fe73  1  0.49850532  0.74880704  0.75131356  1
  Fe  Fe74  1  -0.00206226  0.75237214  0.49909312  1
  Fe  Fe75  1  0.50039037  -0.00029309  0.75082552  1
  Fe  Fe76  1  0.00002835  0.25204383  0.49760532  1
  Fe  Fe77  1  0.50020079  0.25197362  0.00197178  1
  Fe  Fe78  1  0.12460527  0.87420601  0.37351878  1
  Fe  Fe79  1  0.75211002  0.74684578  0.24902496  1
  Fe  Fe80  1  0.24920538  0.25009366  0.25021023  1
  Fe  Fe81  1  0.25066643  0.74911202  0.75227990  1
  Fe  Fe82  1  0.00067795  0.49675047  0.49943432  1
  Fe  Fe83  1  0.12359691  0.12494495  0.12603496  1
  Fe  Fe84  1  0.24741539  0.50042436  0.49760053  1
  Fe  Fe85  1  0.75359138  0.74848173  0.75036692  1
  Fe  Fe86  1  0.50004800  0.74774008  -0.00263698  1
  Fe  Fe87  1  0.62651475  0.87408276  0.87544916  1
  Fe  Fe88  1  0.87739710  0.12463640  0.62265628  1
  Fe  Fe89  1  0.74945257  0.50254566  0.00200182  1
  Co  Co90  1  0.87230216  0.37757520  0.37269475  1
  Co  Co91  1  0.37209324  0.37905961  0.62290434  1
  Co  Co92  1  0.12230150  0.87476298  0.87197805  1
  Co  Co93  1  0.00005206  0.74702711  0.25190888  1
  Co  Co94  1  0.37574269  0.87566937  0.87550342  1
  Co  Co95  1  0.87671173  0.87194910  0.12410139  1
  Co  Co96  1  0.37645472  0.12351869  0.62436617  1
  Co  Co97  1  0.87498352  0.37766285  0.12493047  1
  Co  Co98  1  0.24993111  0.24800900  0.50022180  1
  Co  Co99  1  0.12169269  0.62634814  0.37845271  1
  Co  Co100  1  0.87471914  0.12509524  0.37646040  1
  Co  Co101  1  0.00113885  0.74926816  -0.00276045  1
  Co  Co102  1  0.12465788  0.37256556  0.87267111  1
  Co  Co103  1  0.50166547  0.49974344  0.00032078  1
  Co  Co104  1  0.87690676  0.12546942  0.12434225  1
  Co  Co105  1  0.37318682  0.62403028  0.87780325  1
  Co  Co106  1  0.75040338  0.50563595  0.24659882  1
  Co  Co107  1  0.37504378  0.37456766  0.87515955  1
  Co  Co108  1  0.62303287  0.37691805  0.62542480  1
  Co  Co109  1  0.62350956  0.62725000  0.12367526  1
  Co  Co110  1  0.87618548  0.62154042  0.87578195  1
  Co  Co111  1  0.12198113  0.12663547  0.62587812  1
  Co  Co112  1  0.00247559  0.49758609  -0.00102726  1
  Co  Co113  1  0.87844605  0.37409775  0.62609079  1
  Co  Co114  1  0.87585406  0.87661633  0.62576033  1
  Co  Co115  1  0.12611397  0.37386592  0.37412940  1
  Co  Co116  1  0.62595789  0.62362549  0.87265561  1
  Co  Co117  1  0.12496186  0.62436768  0.12176052  1
  Co  Co118  1  0.62510328  0.12592906  0.12599217  1
  Co  Co119  1  0.87779356  0.62392868  0.62333289  1
  Co  Co120  1  0.24733544  0.50110599  0.75221528  1
  Co  Co121  1  0.00222711  0.00057421  0.00042414  1
  Co  Co122  1  0.62942427  0.62582320  0.37890366  1
  Co  Co123  1  0.00158881  -0.00230833  0.49875013  1
  Co  Co124  1  0.24805270  -0.00109099  0.24891956  1
  Co  Co125  1  0.37338830  0.62466569  0.37407404  1
  Co  Co126  1  0.49740172  0.74863751  0.50044721  1
  Co  Co127  1  0.75022623  -0.00053976  0.24785312  1
