# generated using pymatgen
data_Fe45Co19
_symmetry_space_group_name_H-M   'P 1'
_cell_length_a   11.41495928
_cell_length_b   11.41511887
_cell_length_c   11.41486452
_cell_angle_alpha   90.00785788
_cell_angle_beta   90.00288694
_cell_angle_gamma   89.98834833
_symmetry_Int_Tables_number   1
_chemical_formula_structural   Fe45Co19
_chemical_formula_sum   'Fe90 Co38'
_cell_volume   1487.39238181
_cell_formula_units_Z   2
loop_
 _symmetry_equiv_pos_site_id
 _symmetry_equiv_pos_as_xyz
  1  'x, y, z'
loop_
 _atom_site_type_symbol
 _atom_site_label
 _atom_site_symmetry_multiplicity
 _atom_site_fract_x
 _atom_site_fract_y
 _atom_site_fract_z
 _atom_site_occupancy
  Fe  Fe0  1  0.62456308  0.37156390  0.12910642  1
  Fe  Fe1  1  0.49958190  0.49793544  0.49647985  1
  Fe  Fe2  1  0.25029313  0.49662747  0.00079359  1
  Fe  Fe3  1  0.12058944  0.37903242  0.62655375  1
  Fe  Fe4  1  0.62702479  0.62300889  0.37739132  1
  Fe  Fe5  1  0.87286474  0.62514305  0.87835713  1
  Fe  Fe6  1  0.50149911  0.00218803  0.25031056  1
  Fe  Fe7  1  0.24899840  -0.00125924  0.00162152  1
  Fe  Fe8  1  -0.00126646  0.24894840  0.00059916  1
  Fe  Fe9  1  0.87512267  0.87514136  0.37677980  1
  Fe  Fe10  1  0.87068492  0.12665693  0.87592472  1
  Fe  Fe11  1  0.49983236  0.00383777  0.74939736  1
  Fe  Fe12  1  0.50130374  0.74865511  0.25182676  1
  Fe  Fe13  1  0.37547347  0.37302066  0.12596283  1
  Fe  Fe14  1  0.49638486  0.50002988  0.25344368  1
  Fe  Fe15  1  0.37721028  0.37200819  0.62236277  1
  Fe  Fe16  1  0.62970177  0.12328094  0.37506545  1
  Fe  Fe17  1  0.12562158  0.62460843  0.87523418  1
  Fe  Fe18  1  0.49941466  0.50199846  0.75138495  1
  Fe  Fe19  1  0.50128867  0.24943299  0.25639989  1
  Fe  Fe20  1  -0.00041732  0.00010614  0.00103255  1
  Fe  Fe21  1  0.74534491  0.00055586  0.00287397  1
  Fe  Fe22  1  -0.00183210  0.74769355  0.24820395  1
  Fe  Fe23  1  0.62540451  0.87328364  0.86899335  1
  Fe  Fe24  1  0.87745130  0.37741954  0.37506305  1
  Fe  Fe25  1  0.75047135  0.50191702  0.74743437  1
  Fe  Fe26  1  0.37618591  0.62537850  0.62209444  1
  Fe  Fe27  1  -0.00389800  0.00252657  0.74801991  1
  Fe  Fe28  1  0.87445985  0.37401511  0.87306375  1
  Fe  Fe29  1  0.37560806  0.12822634  0.62013169  1
  Fe  Fe30  1  0.50515908  0.00180852  0.00040600  1
  Fe  Fe31  1  0.25099248  0.25128044  0.74910430  1
  Fe  Fe32  1  0.12602982  0.12609515  0.87475521  1
  Fe  Fe33  1  0.87423593  0.87358144  0.87414314  1
  Fe  Fe34  1  0.50173000  0.49824014  -0.00156592  1
  Fe  Fe35  1  0.74966940  0.75050697  0.25079195  1
  Fe  Fe36  1  0.50233223  0.74994843  -0.00208968  1
  Fe  Fe37  1  0.25150728  0.74977558  0.24918514  1
  Fe  Fe38  1  0.00137623  0.74826932  0.49937452  1
  Fe  Fe39  1  0.87484475  0.87356419  0.12390891  1
  Fe  Fe40  1  -0.00165675  0.74522216  0.74960731  1
  Fe  Fe41  1  0.12703445  0.62314631  0.37354711  1
  Fe  Fe42  1  0.87575729  0.37208387  0.12783687  1
  Fe  Fe43  1  0.25085154  0.74976101  0.74807337  1
  Fe  Fe44  1  0.37449210  0.62430276  0.87655800  1
  Fe  Fe45  1  0.62594534  0.12670147  0.62510308  1
  Fe  Fe46  1  0.62341614  0.37517792  0.62595112  1
  Fe  Fe47  1  0.12519465  0.87770350  0.37271949  1
  Fe  Fe48  1  0.25034140  0.49926254  0.49833411  1
  Fe  Fe49  1  0.24892490  0.75186724  0.50113226  1
  Fe  Fe50  1  0.12440137  0.37778907  0.37122971  1
  Fe  Fe51  1  -0.00395635  0.24890211  0.74822008  1
  Fe  Fe52  1  0.37316464  0.12690422  0.87603052  1
  Fe  Fe53  1  0.50396688  0.75149714  0.50076964  1
  Fe  Fe54  1  0.12381205  0.12359701  0.62349944  1
  Fe  Fe55  1  0.37918453  0.87564934  0.62470739  1
  Fe  Fe56  1  -0.00227193  0.00140929  0.24999682  1
  Fe  Fe57  1  0.37231193  0.12573426  0.38087934  1
  Fe  Fe58  1  0.12679320  0.12193106  0.37706922  1
  Fe  Fe59  1  0.74877472  0.49718217  0.00163942  1
  Fe  Fe60  1  0.74740836  0.75069968  -0.00056910  1
  Fe  Fe61  1  0.75269507  0.00027050  0.74621266  1
  Fe  Fe62  1  0.37560748  0.87651727  0.37577946  1
  Fe  Fe63  1  0.24957851  0.24916483  0.25059198  1
  Fe  Fe64  1  0.37670318  0.12644718  0.12367347  1
  Fe  Fe65  1  0.12353961  0.37441195  0.87409714  1
  Fe  Fe66  1  0.37705286  0.87562728  0.12588958  1
  Fe  Fe67  1  0.50318441  0.24943614  -0.00383063  1
  Fe  Fe68  1  0.37603129  0.62487804  0.12430122  1
  Fe  Fe69  1  0.12363383  0.37501964  0.12809367  1
  Fe  Fe70  1  0.75060554  -0.00535525  0.50406541  1
  Fe  Fe71  1  0.25161190  0.49957651  0.74961782  1
  Fe  Fe72  1  0.12538210  0.12458927  0.12552529  1
  Fe  Fe73  1  0.12223453  0.87535060  0.87360532  1
  Fe  Fe74  1  0.75149475  0.49943438  0.24958760  1
  Fe  Fe75  1  0.00068416  0.25103576  0.49947855  1
  Fe  Fe76  1  0.87206309  0.62387889  0.37731559  1
  Fe  Fe77  1  0.62591077  0.87676868  0.37417898  1
  Fe  Fe78  1  -0.00205014  0.50051348  0.00151157  1
  Fe  Fe79  1  0.87445713  0.62288690  0.62008367  1
  Fe  Fe80  1  0.24806394  0.75266530  0.00085003  1
  Fe  Fe81  1  0.74995506  0.25537771  0.50061741  1
  Fe  Fe82  1  0.37613121  0.87524303  0.87421344  1
  Fe  Fe83  1  0.62634583  0.37271042  0.87122143  1
  Fe  Fe84  1  0.62575454  0.62472389  0.12537371  1
  Fe  Fe85  1  0.87262571  0.12367650  0.37721153  1
  Fe  Fe86  1  0.87015420  0.12750030  0.12682212  1
  Fe  Fe87  1  0.12091087  0.87569929  0.62562547  1
  Fe  Fe88  1  0.25095630  0.00015634  0.74745603  1
  Fe  Fe89  1  0.12441782  0.62403655  0.12543946  1
  Co  Co90  1  0.87867872  0.37830786  0.62473632  1
  Co  Co91  1  0.49864972  0.24822881  0.75124078  1
  Co  Co92  1  0.62653070  0.62463838  0.87565899  1
  Co  Co93  1  0.49948862  0.74545832  0.75051771  1
  Co  Co94  1  0.62634509  0.12973444  0.12883223  1
  Co  Co95  1  0.75272271  0.25098967  0.74577217  1
  Co  Co96  1  0.37495172  0.37434613  0.87481869  1
  Co  Co97  1  0.62399373  0.62301549  0.62151685  1
  Co  Co98  1  -0.00003041  0.24642196  0.25245576  1
  Co  Co99  1  0.25414536  0.50077621  0.25042141  1
  Co  Co100  1  0.24993353  -0.00337561  0.50240323  1
  Co  Co101  1  0.74931800  0.49594775  0.50082858  1
  Co  Co102  1  0.37203699  0.37137628  0.37696843  1
  Co  Co103  1  -0.00211220  0.50416100  0.75204945  1
  Co  Co104  1  0.62583025  0.37838896  0.37307309  1
  Co  Co105  1  0.75104506  0.25254050  0.25479704  1
  Co  Co106  1  0.37510711  0.62753334  0.37772474  1
  Co  Co107  1  0.50274370  0.00067185  0.50028882  1
  Co  Co108  1  0.00073683  0.74971133  0.00056603  1
  Co  Co109  1  -0.00053210  -0.00036159  0.49970689  1
  Co  Co110  1  0.87866179  0.87218407  0.62497941  1
  Co  Co111  1  0.62356399  0.87262259  0.12651064  1
  Co  Co112  1  0.24906665  0.25148528  0.00056779  1
  Co  Co113  1  0.75023086  -0.00271513  0.24745517  1
  Co  Co114  1  0.12616896  0.62266830  0.62456071  1
  Co  Co115  1  0.00155201  0.50146666  0.49739653  1
  Co  Co116  1  -0.00312053  0.50380996  0.24867624  1
  Co  Co117  1  0.62908935  0.12587115  0.87155724  1
  Co  Co118  1  0.25301928  0.00138235  0.24977128  1
  Co  Co119  1  0.50537337  0.25051328  0.49633606  1
  Co  Co120  1  0.24454831  0.25296798  0.50162331  1
  Co  Co121  1  0.87442114  0.12648036  0.62004897  1
  Co  Co122  1  0.12369042  0.87647151  0.12794853  1
  Co  Co123  1  0.74784730  0.25153407  -0.00031925  1
  Co  Co124  1  0.62328404  0.87436547  0.63046807  1
  Co  Co125  1  0.87132916  0.62683358  0.12304535  1
  Co  Co126  1  0.75156448  0.74558935  0.74581964  1
  Co  Co127  1  0.74765749  0.75314106  0.50231259  1
