# generated using pymatgen
data_Fe45Co19
_symmetry_space_group_name_H-M   'P 1'
_cell_length_a   11.41588967
_cell_length_b   11.41628384
_cell_length_c   11.41481882
_cell_angle_alpha   90.00420464
_cell_angle_beta   89.99092344
_cell_angle_gamma   89.99947586
_symmetry_Int_Tables_number   1
_chemical_formula_structural   Fe45Co19
_chemical_formula_sum   'Fe90 Co38'
_cell_volume   1487.65948862
_cell_formula_units_Z   2
loop_
 _symmetry_equiv_pos_site_id
 _symmetry_equiv_pos_as_xyz
  1  'x, y, z'
loop_
 _atom_site_type_symbol
 _atom_site_label
 _atom_site_symmetry_multiplicity
 _atom_site_fract_x
 _atom_site_fract_y
 _atom_site_fract_z
 _atom_site_occupancy
  Fe  Fe0  1  0.37520341  0.12519629  0.62560644  1
  Fe  Fe1  1  0.87314908  0.87232895  0.87406582  1
  Fe  Fe2  1  0.12631526  0.87547684  0.87650265  1
  Fe  Fe3  1  0.37468889  0.12342085  0.37404119  1
  Fe  Fe4  1  0.87508980  0.87383670  0.62556693  1
  Fe  Fe5  1  0.87749963  0.62551106  0.37553902  1
  Fe  Fe6  1  0.62370874  0.62497709  0.37520522  1
  Fe  Fe7  1  0.87554208  0.12424215  0.62518250  1
  Fe  Fe8  1  0.49882111  0.50064512  0.49886821  1
  Fe  Fe9  1  0.62312334  0.87319506  0.62646773  1
  Fe  Fe10  1  0.75108746  0.24875969  0.49909397  1
  Fe  Fe11  1  -0.00139524  0.75130448  0.00082593  1
  Fe  Fe12  1  0.37519975  0.86977018  0.62840718  1
  Fe  Fe13  1  0.00080191  0.25304039  0.24769038  1
  Fe  Fe14  1  0.25007670  0.50004109  0.49970788  1
  Fe  Fe15  1  0.75317769  0.50064871  -0.00104019  1
  Fe  Fe16  1  0.37635139  0.37486583  0.62727834  1
  Fe  Fe17  1  0.37762536  0.12422776  0.87491868  1
  Fe  Fe18  1  0.25237226  0.49762640  -0.00203358  1
  Fe  Fe19  1  0.24918117  0.25028871  0.50170650  1
  Fe  Fe20  1  0.49816490  0.74996826  -0.00335350  1
  Fe  Fe21  1  0.50254275  0.24721820  0.74977159  1
  Fe  Fe22  1  0.75118258  0.50426538  0.74985118  1
  Fe  Fe23  1  0.50081921  0.25058881  0.49989490  1
  Fe  Fe24  1  0.62628130  0.37736319  0.37388777  1
  Fe  Fe25  1  0.12385210  0.37707163  0.62372283  1
  Fe  Fe26  1  0.24739944  0.24711065  0.24817110  1
  Fe  Fe27  1  0.37525441  0.62299995  0.12520554  1
  Fe  Fe28  1  0.49997117  0.00017894  0.24865858  1
  Fe  Fe29  1  0.62506541  0.87524880  0.87593091  1
  Fe  Fe30  1  -0.00242939  -0.00325565  0.00150303  1
  Fe  Fe31  1  0.12274753  0.12474315  0.87662336  1
  Fe  Fe32  1  0.49946064  0.25402258  0.00059289  1
  Fe  Fe33  1  0.12646844  0.62373407  0.12297415  1
  Fe  Fe34  1  0.75209595  0.00036539  0.49906486  1
  Fe  Fe35  1  0.25119984  0.24868704  -0.00018350  1
  Fe  Fe36  1  0.24791867  0.24948195  0.75010767  1
  Fe  Fe37  1  0.62328793  0.62308956  0.12214437  1
  Fe  Fe38  1  0.12485033  0.37608340  0.87602780  1
  Fe  Fe39  1  0.75107176  0.00019577  0.24886179  1
  Fe  Fe40  1  0.87654109  0.62402931  0.12413120  1
  Fe  Fe41  1  0.74816530  0.00416489  0.75347474  1
  Fe  Fe42  1  0.49975053  -0.00175545  0.50208776  1
  Fe  Fe43  1  0.24990802  0.00240763  0.00299162  1
  Fe  Fe44  1  0.00379417  0.74954602  0.50323842  1
  Fe  Fe45  1  0.37203159  0.87466999  0.37281525  1
  Fe  Fe46  1  0.62639916  0.12565097  0.12109097  1
  Fe  Fe47  1  0.62528468  0.37651040  0.62589543  1
  Fe  Fe48  1  0.87612651  0.37650136  0.87503379  1
  Fe  Fe49  1  0.37420321  0.62985601  0.62639564  1
  Fe  Fe50  1  0.24799944  -0.00155122  0.50220054  1
  Fe  Fe51  1  0.87387322  0.12534003  0.12221628  1
  Fe  Fe52  1  0.87448471  0.37573721  0.62520743  1
  Fe  Fe53  1  0.87523561  0.37699800  0.37344855  1
  Fe  Fe54  1  0.37311078  0.37621045  0.12820124  1
  Fe  Fe55  1  0.75089414  0.24996895  0.24930088  1
  Fe  Fe56  1  0.49897270  0.74967162  0.25008455  1
  Fe  Fe57  1  0.74716408  0.74508433  0.75082760  1
  Fe  Fe58  1  0.87653596  0.87363026  0.37461455  1
  Fe  Fe59  1  0.49880956  -0.00166847  0.00089897  1
  Fe  Fe60  1  0.62517158  0.12405139  0.37610948  1
  Fe  Fe61  1  -0.00148605  0.25403506  0.00133719  1
  Fe  Fe62  1  0.74857461  0.74911412  0.50078766  1
  Fe  Fe63  1  0.75039334  0.74770888  0.24836675  1
  Fe  Fe64  1  0.49903874  0.50427134  0.75345298  1
  Fe  Fe65  1  0.12650233  0.87570963  0.37289053  1
  Fe  Fe66  1  0.00058277  0.24952141  0.75001130  1
  Fe  Fe67  1  0.62428704  0.37703052  0.87484641  1
  Fe  Fe68  1  0.25086192  0.49994903  0.75176230  1
  Fe  Fe69  1  0.37304704  0.37468822  0.37253366  1
  Fe  Fe70  1  0.62803200  0.87345523  0.12397773  1
  Fe  Fe71  1  0.00082736  -0.00016367  0.74909220  1
  Fe  Fe72  1  0.12566666  0.62353375  0.37518673  1
  Fe  Fe73  1  0.12446491  0.62392984  0.87616495  1
  Fe  Fe74  1  -0.00114440  0.50264530  0.74889503  1
  Fe  Fe75  1  0.37166299  0.87519811  0.12688803  1
  Fe  Fe76  1  0.00315010  0.74825661  0.74871419  1
  Fe  Fe77  1  0.50126484  0.25065431  0.25028330  1
  Fe  Fe78  1  0.00311228  0.49673867  0.24780354  1
  Fe  Fe79  1  0.00036315  -0.00132224  0.24761134  1
  Fe  Fe80  1  0.12354432  0.12409082  0.37552539  1
  Fe  Fe81  1  0.75146558  0.50234650  0.50067325  1
  Fe  Fe82  1  0.62715068  0.37861789  0.12574210  1
  Fe  Fe83  1  0.00220724  0.75120331  0.24652787  1
  Fe  Fe84  1  0.25087733  0.75103707  -0.00143631  1
  Fe  Fe85  1  0.37386295  0.62665332  0.37414936  1
  Fe  Fe86  1  -0.00052108  0.24973138  0.49970902  1
  Fe  Fe87  1  0.24906142  -0.00059906  0.74955033  1
  Fe  Fe88  1  0.74894304  0.24636488  0.75387084  1
  Fe  Fe89  1  0.62547180  0.87445031  0.37380423  1
  Co  Co90  1  0.62578184  0.62340554  0.88018561  1
  Co  Co91  1  0.12044731  0.12562203  0.12306782  1
  Co  Co92  1  0.87564338  0.62686121  0.62403678  1
  Co  Co93  1  0.62036860  0.12440261  0.87995175  1
  Co  Co94  1  0.37307129  0.62623331  0.87556449  1
  Co  Co95  1  0.50101629  0.00023123  0.74825500  1
  Co  Co96  1  0.37803024  0.12579840  0.12538649  1
  Co  Co97  1  0.24794485  0.50062671  0.25052557  1
  Co  Co98  1  0.12780167  0.87414635  0.12466302  1
  Co  Co99  1  0.12602847  0.37424473  0.37649272  1
  Co  Co100  1  0.37400300  0.87755675  0.87412450  1
  Co  Co101  1  0.87649507  0.62665411  0.87565894  1
  Co  Co102  1  0.12769578  0.62270346  0.62641279  1
  Co  Co103  1  0.24822086  0.00294853  0.24687863  1
  Co  Co104  1  0.37527845  0.37196310  0.87197551  1
  Co  Co105  1  0.24702878  0.75020142  0.49929582  1
  Co  Co106  1  0.62636161  0.12516331  0.62226370  1
  Co  Co107  1  0.75072681  0.25206953  -0.00335758  1
  Co  Co108  1  0.87898466  0.12523587  0.87755702  1
  Co  Co109  1  0.75170163  -0.00062688  -0.00271313  1
  Co  Co110  1  0.24742065  0.75064833  0.75362234  1
  Co  Co111  1  0.49989524  0.75136048  0.49772242  1
  Co  Co112  1  0.75172580  0.74905943  0.00082372  1
  Co  Co113  1  0.24931566  0.74838334  0.24910953  1
  Co  Co114  1  0.87230001  0.37670836  0.12538627  1
  Co  Co115  1  0.12880244  0.37526920  0.12222107  1
  Co  Co116  1  0.49627054  0.49719886  -0.00169888  1
  Co  Co117  1  0.49947996  0.50028900  0.25140389  1
  Co  Co118  1  0.12586615  0.87445783  0.62637741  1
  Co  Co119  1  0.50103332  0.74757457  0.75603546  1
  Co  Co120  1  -0.00035200  0.50036604  0.50041099  1
  Co  Co121  1  0.87267192  0.87427410  0.12589588  1
  Co  Co122  1  0.62135408  0.62526610  0.62410970  1
  Co  Co123  1  0.12375739  0.12513885  0.62477409  1
  Co  Co124  1  0.87684500  0.12435292  0.37279626  1
  Co  Co125  1  -0.00062177  0.49902488  0.00051151  1
  Co  Co126  1  0.75082382  0.50381108  0.25094567  1
  Co  Co127  1  0.00023548  -0.00109334  0.50128224  1
