# generated using pymatgen
data_Fe45Co19
_symmetry_space_group_name_H-M   'P 1'
_cell_length_a   11.41530769
_cell_length_b   11.41466999
_cell_length_c   11.41566707
_cell_angle_alpha   89.99584943
_cell_angle_beta   89.99804300
_cell_angle_gamma   90.00606423
_symmetry_Int_Tables_number   1
_chemical_formula_structural   Fe45Co19
_chemical_formula_sum   'Fe90 Co38'
_cell_volume   1487.48389518
_cell_formula_units_Z   2
loop_
 _symmetry_equiv_pos_site_id
 _symmetry_equiv_pos_as_xyz
  1  'x, y, z'
loop_
 _atom_site_type_symbol
 _atom_site_label
 _atom_site_symmetry_multiplicity
 _atom_site_fract_x
 _atom_site_fract_y
 _atom_site_fract_z
 _atom_site_occupancy
  Fe  Fe0  1  0.87726766  0.87950118  0.87798618  1
  Fe  Fe1  1  0.25039729  0.49803846  0.74916909  1
  Fe  Fe2  1  0.37445326  0.37473636  0.12287152  1
  Fe  Fe3  1  0.12706964  0.37240547  0.62433299  1
  Fe  Fe4  1  0.25343296  0.00528974  0.50008277  1
  Fe  Fe5  1  0.50233600  0.49543786  0.49894910  1
  Fe  Fe6  1  0.87514318  0.37260644  0.12409048  1
  Fe  Fe7  1  0.12569833  0.62526265  0.12550379  1
  Fe  Fe8  1  0.87183670  0.87107065  0.37723129  1
  Fe  Fe9  1  0.75329093  0.49898260  0.25110343  1
  Fe  Fe10  1  0.50078256  0.75033707  -0.00215144  1
  Fe  Fe11  1  0.00354671  0.24537692  -0.00017222  1
  Fe  Fe12  1  0.87362591  0.37223739  0.62382935  1
  Fe  Fe13  1  0.62516877  0.62253585  0.62696565  1
  Fe  Fe14  1  0.25121079  0.49896608  0.25076936  1
  Fe  Fe15  1  0.62481060  0.87726928  0.87390950  1
  Fe  Fe16  1  0.37680720  0.62641863  0.62466470  1
  Fe  Fe17  1  0.49774680  -0.00078273  0.74945428  1
  Fe  Fe18  1  0.62422618  0.12619570  0.12669937  1
  Fe  Fe19  1  0.12432063  0.87571566  0.12583142  1
  Fe  Fe20  1  0.12421547  0.37411059  0.87261627  1
  Fe  Fe21  1  0.24978065  0.00325542  0.25262720  1
  Fe  Fe22  1  0.12152161  0.62624525  0.62785886  1
  Fe  Fe23  1  0.24758544  0.74933668  0.50082656  1
  Fe  Fe24  1  0.50125259  0.00339293  -0.00098030  1
  Fe  Fe25  1  0.37445100  0.87567767  0.12360557  1
  Fe  Fe26  1  0.37514975  0.12663608  0.87276595  1
  Fe  Fe27  1  0.25089614  0.49953356  -0.00246984  1
  Fe  Fe28  1  0.37086527  0.37334522  0.62018288  1
  Fe  Fe29  1  0.37487899  0.87371676  0.62485960  1
  Fe  Fe30  1  0.49733871  0.49689954  0.74902193  1
  Fe  Fe31  1  0.62129448  0.12591925  0.37766955  1
  Fe  Fe32  1  0.74636075  0.24769834  -0.00160839  1
  Fe  Fe33  1  0.62748184  0.62434305  0.12242523  1
  Fe  Fe34  1  0.87388086  0.12413833  0.12215711  1
  Fe  Fe35  1  0.49673274  0.25374736  0.25250228  1
  Fe  Fe36  1  0.12529629  0.87694079  0.37651145  1
  Fe  Fe37  1  0.12637362  0.37377287  0.12594773  1
  Fe  Fe38  1  0.75086414  0.24937541  0.25274172  1
  Fe  Fe39  1  0.62437974  0.37607630  0.12346673  1
  Fe  Fe40  1  0.25220990  -0.00017575  0.74936080  1
  Fe  Fe41  1  0.37499529  0.62382924  0.37728489  1
  Fe  Fe42  1  0.24963961  0.24879942  -0.00194967  1
  Fe  Fe43  1  0.62661612  0.87418373  0.12399676  1
  Fe  Fe44  1  -0.00229265  0.74982426  0.25057443  1
  Fe  Fe45  1  0.62518763  0.87609792  0.62751422  1
  Fe  Fe46  1  0.24757258  0.75167143  -0.00230941  1
  Fe  Fe47  1  0.12422082  0.62510579  0.37428011  1
  Fe  Fe48  1  0.87342303  0.87581197  0.12017066  1
  Fe  Fe49  1  0.87548644  0.87436945  0.62469507  1
  Fe  Fe50  1  0.37377742  0.12538464  0.12683964  1
  Fe  Fe51  1  0.75235154  0.49767681  0.75166635  1
  Fe  Fe52  1  0.62423552  0.62256928  0.87432384  1
  Fe  Fe53  1  0.24910863  0.75190457  0.75021101  1
  Fe  Fe54  1  -0.00012070  0.49913171  -0.00018454  1
  Fe  Fe55  1  0.74964708  -0.00015613  0.25086965  1
  Fe  Fe56  1  0.62887627  0.62647185  0.37539443  1
  Fe  Fe57  1  0.24848411  0.00124323  -0.00109987  1
  Fe  Fe58  1  0.37586456  0.62599314  0.87337243  1
  Fe  Fe59  1  -0.00177203  0.24582773  0.74951377  1
  Fe  Fe60  1  0.25078236  0.75117625  0.25174453  1
  Fe  Fe61  1  0.50118131  0.75055462  0.25125373  1
  Fe  Fe62  1  0.87523879  0.12623265  0.37825160  1
  Fe  Fe63  1  0.62186945  0.37535491  0.87673305  1
  Fe  Fe64  1  0.49880429  0.49956021  0.25079439  1
  Fe  Fe65  1  0.12584691  0.12380251  0.62759723  1
  Fe  Fe66  1  0.00001410  0.49938826  0.49934446  1
  Fe  Fe67  1  0.74764247  0.00040070  0.50011027  1
  Fe  Fe68  1  0.00177665  0.24801638  0.25020929  1
  Fe  Fe69  1  0.49830922  0.25283256  0.74832861  1
  Fe  Fe70  1  0.50354665  0.75263188  0.50065732  1
  Fe  Fe71  1  0.37598782  0.87618862  0.37629795  1
  Fe  Fe72  1  0.87393460  0.62580045  0.12179554  1
  Fe  Fe73  1  -0.00022727  -0.00098963  0.50232414  1
  Fe  Fe74  1  0.87784033  0.62508598  0.87487537  1
  Fe  Fe75  1  0.12864608  0.37288359  0.37670119  1
  Fe  Fe76  1  -0.00164615  0.00078689  0.24902423  1
  Fe  Fe77  1  0.62285594  0.12717950  0.62351921  1
  Fe  Fe78  1  0.50152285  -0.00275205  0.25121122  1
  Fe  Fe79  1  0.12187701  0.62376215  0.87197218  1
  Fe  Fe80  1  0.00105174  0.24864797  0.50059866  1
  Fe  Fe81  1  -0.00221763  0.49968742  0.25184289  1
  Fe  Fe82  1  0.87614113  0.37205814  0.87629176  1
  Fe  Fe83  1  0.37356254  0.62698605  0.12395146  1
  Fe  Fe84  1  0.75322347  0.00443680  0.75056629  1
  Fe  Fe85  1  0.75092972  0.24750396  0.75071082  1
  Fe  Fe86  1  0.75127626  0.74942474  0.75110499  1
  Fe  Fe87  1  0.87666162  0.62567950  0.62389165  1
  Fe  Fe88  1  0.12095296  0.87892071  0.87277920  1
  Fe  Fe89  1  0.75085146  0.49589773  0.49823749  1
  Co  Co90  1  0.49989950  0.24651639  0.00081842  1
  Co  Co91  1  0.62784065  0.87401751  0.37482496  1
  Co  Co92  1  0.36972830  0.37714390  0.37920825  1
  Co  Co93  1  0.74958316  0.75075343  -0.00376146  1
  Co  Co94  1  0.49943309  0.25441135  0.49985488  1
  Co  Co95  1  0.75170964  0.49766719  -0.00177677  1
  Co  Co96  1  0.49828475  0.50179988  0.00064934  1
  Co  Co97  1  0.37849428  0.12628654  0.62782849  1
  Co  Co98  1  0.00388106  0.00443355  0.00292601  1
  Co  Co99  1  -0.00383184  0.00338831  0.74693664  1
  Co  Co100  1  0.87269267  0.12677299  0.62036721  1
  Co  Co101  1  0.37664997  0.37376642  0.87666517  1
  Co  Co102  1  0.62776261  0.37427778  0.62772219  1
  Co  Co103  1  0.12116143  0.12341097  0.37504675  1
  Co  Co104  1  0.62254757  0.12573217  0.87044623  1
  Co  Co105  1  0.24662448  0.50412291  0.50288936  1
  Co  Co106  1  0.37631688  0.87580067  0.87554129  1
  Co  Co107  1  -0.00162288  0.49599458  0.74833025  1
  Co  Co108  1  -0.00114535  0.75389258  0.74932600  1
  Co  Co109  1  0.25143224  0.24829522  0.25357702  1
  Co  Co110  1  0.12685382  0.87838480  0.62547645  1
  Co  Co111  1  0.38181991  0.12407107  0.37376902  1
  Co  Co112  1  0.50008450  -0.00252960  0.50162524  1
  Co  Co113  1  0.74696162  0.75063832  0.50521006  1
  Co  Co114  1  0.62635454  0.37435338  0.37186925  1
  Co  Co115  1  0.75082044  0.75035365  0.24680647  1
  Co  Co116  1  0.87679850  0.37182150  0.37519212  1
  Co  Co117  1  0.50124594  0.75099273  0.74996866  1
  Co  Co118  1  0.87301208  0.62798096  0.37837532  1
  Co  Co119  1  0.87576354  0.12296009  0.87887140  1
  Co  Co120  1  0.25211317  0.24198980  0.49789402  1
  Co  Co121  1  0.74678400  0.25173819  0.49856066  1
  Co  Co122  1  0.25074571  0.25179610  0.74963562  1
  Co  Co123  1  0.00158190  0.74965806  -0.00034740  1
  Co  Co124  1  0.12784651  0.12532672  0.12752018  1
  Co  Co125  1  0.12579232  0.12349480  0.87045935  1
  Co  Co126  1  0.74533946  0.00269549  -0.00032001  1
  Co  Co127  1  0.00311983  0.75132317  0.50091936  1
