# generated using pymatgen
data_Fe45Co19
_symmetry_space_group_name_H-M   'P 1'
_cell_length_a   11.41504636
_cell_length_b   11.41499295
_cell_length_c   11.41480774
_cell_angle_alpha   90.00857198
_cell_angle_beta   90.00173843
_cell_angle_gamma   90.00055134
_symmetry_Int_Tables_number   1
_chemical_formula_structural   Fe45Co19
_chemical_formula_sum   'Fe90 Co38'
_cell_volume   1487.37995076
_cell_formula_units_Z   2
loop_
 _symmetry_equiv_pos_site_id
 _symmetry_equiv_pos_as_xyz
  1  'x, y, z'
loop_
 _atom_site_type_symbol
 _atom_site_label
 _atom_site_symmetry_multiplicity
 _atom_site_fract_x
 _atom_site_fract_y
 _atom_site_fract_z
 _atom_site_occupancy
  Fe  Fe0  1  0.62673794  0.12729564  0.12640259  1
  Fe  Fe1  1  0.62420480  0.37091879  0.62236397  1
  Fe  Fe2  1  0.37754915  0.37581828  0.12634567  1
  Fe  Fe3  1  0.87396465  0.62227444  0.12632162  1
  Fe  Fe4  1  0.62669874  0.62850545  0.87366080  1
  Fe  Fe5  1  0.87562307  0.87502093  0.62400410  1
  Fe  Fe6  1  0.25055712  0.24838153  -0.00119911  1
  Fe  Fe7  1  0.50113654  0.00027156  0.24962317  1
  Fe  Fe8  1  0.00021111  0.50010662  0.00049618  1
  Fe  Fe9  1  0.25331510  0.74940454  0.75084421  1
  Fe  Fe10  1  0.62607083  0.37218770  0.87444315  1
  Fe  Fe11  1  0.50303342  0.24894123  0.25423527  1
  Fe  Fe12  1  0.12276000  0.87456037  0.87318623  1
  Fe  Fe13  1  0.12457528  0.37381309  0.87302376  1
  Fe  Fe14  1  0.50109038  0.50250357  0.00093793  1
  Fe  Fe15  1  0.24825724  0.49734942  0.50124573  1
  Fe  Fe16  1  0.75205922  0.74897276  0.25331378  1
  Fe  Fe17  1  0.50354062  0.50070095  0.50026996  1
  Fe  Fe18  1  0.87401678  0.37750202  0.87442413  1
  Fe  Fe19  1  -0.00374625  0.74794163  0.25375505  1
  Fe  Fe20  1  0.25135341  0.74881270  -0.00120180  1
  Fe  Fe21  1  0.12421906  0.12666100  0.62470692  1
  Fe  Fe22  1  0.37729098  0.37682928  0.37598327  1
  Fe  Fe23  1  0.24908999  0.49805382  0.74737379  1
  Fe  Fe24  1  0.37616384  0.88057529  0.87673204  1
  Fe  Fe25  1  0.50338635  -0.00018840  0.50083632  1
  Fe  Fe26  1  -0.00357997  0.74756588  0.75080054  1
  Fe  Fe27  1  0.37638814  0.37599646  0.87351718  1
  Fe  Fe28  1  0.12633615  0.62406895  0.12793049  1
  Fe  Fe29  1  0.87580662  0.87727228  0.12626256  1
  Fe  Fe30  1  0.37666186  0.87723733  0.62538603  1
  Fe  Fe31  1  0.25151023  0.74987671  0.25116150  1
  Fe  Fe32  1  0.50248935  0.50132551  0.75013014  1
  Fe  Fe33  1  0.12658328  0.12644672  0.37661825  1
  Fe  Fe34  1  0.62611194  0.87489525  0.37752488  1
  Fe  Fe35  1  0.86998687  0.38142199  0.37478308  1
  Fe  Fe36  1  0.12521000  0.87582442  0.37513870  1
  Fe  Fe37  1  0.12329005  0.62361115  0.37598801  1
  Fe  Fe38  1  0.24799296  0.00280234  0.75129889  1
  Fe  Fe39  1  0.25418090  0.25156045  0.50348643  1
  Fe  Fe40  1  0.37495663  0.12162662  0.12236708  1
  Fe  Fe41  1  0.74727270  0.00035945  -0.00044367  1
  Fe  Fe42  1  -0.00296185  0.24955409  0.00168691  1
  Fe  Fe43  1  0.37385385  0.12191504  0.37782664  1
  Fe  Fe44  1  0.12615280  0.37323098  0.37389172  1
  Fe  Fe45  1  0.49946302  0.74932526  0.25174290  1
  Fe  Fe46  1  0.00130800  0.00162285  -0.00151573  1
  Fe  Fe47  1  0.50048048  0.24733249  -0.00173820  1
  Fe  Fe48  1  -0.00549706  0.25131639  0.24931874  1
  Fe  Fe49  1  0.12460464  0.37479985  0.12745241  1
  Fe  Fe50  1  -0.00180718  0.74819463  0.00012877  1
  Fe  Fe51  1  0.87331166  0.12397516  0.87336655  1
  Fe  Fe52  1  0.12506066  0.87529940  0.12650738  1
  Fe  Fe53  1  0.75213587  0.25008522  0.00248705  1
  Fe  Fe54  1  0.37672030  0.62489413  0.62508587  1
  Fe  Fe55  1  0.00084317  0.00101127  0.25120100  1
  Fe  Fe56  1  0.87494727  0.87609876  0.87325058  1
  Fe  Fe57  1  0.75297037  0.74968452  -0.00073974  1
  Fe  Fe58  1  0.25396603  0.24877153  0.74839304  1
  Fe  Fe59  1  0.12220313  0.62507988  0.62367071  1
  Fe  Fe60  1  0.25164406  0.50009654  0.00194775  1
  Fe  Fe61  1  0.37562549  0.62328733  0.37530352  1
  Fe  Fe62  1  0.50410006  0.50128724  0.24894553  1
  Fe  Fe63  1  0.50501305  0.00188739  0.75028510  1
  Fe  Fe64  1  0.87488257  0.37761231  0.62393252  1
  Fe  Fe65  1  0.87385881  0.12500517  0.62389514  1
  Fe  Fe66  1  0.74809878  -0.00068750  0.74706524  1
  Fe  Fe67  1  0.62745865  0.12865079  0.62106252  1
  Fe  Fe68  1  0.00020636  -0.00114408  0.50019711  1
  Fe  Fe69  1  0.37400410  0.87771126  0.12252668  1
  Fe  Fe70  1  0.74357989  0.49943555  0.24772017  1
  Fe  Fe71  1  0.75249719  0.75026936  0.49819485  1
  Fe  Fe72  1  0.49834231  0.24771012  0.74913256  1
  Fe  Fe73  1  0.62220010  0.63312239  0.62493107  1
  Fe  Fe74  1  0.12484621  0.62422075  0.87340395  1
  Fe  Fe75  1  0.25074476  0.75113765  0.50082940  1
  Fe  Fe76  1  0.12466296  0.12527561  0.12571308  1
  Fe  Fe77  1  0.62515798  0.87154054  0.12470799  1
  Fe  Fe78  1  0.49688787  0.74806308  -0.00177619  1
  Fe  Fe79  1  0.74828622  -0.00022554  0.25040046  1
  Fe  Fe80  1  0.37334932  0.87826493  0.37647424  1
  Fe  Fe81  1  -0.00260139  0.25118418  0.74967304  1
  Fe  Fe82  1  0.74909746  0.50174200  0.74785417  1
  Fe  Fe83  1  0.74706396  0.49999857  0.00087943  1
  Fe  Fe84  1  0.87102260  0.12251914  0.37486080  1
  Fe  Fe85  1  0.62619001  0.87189022  0.87235240  1
  Fe  Fe86  1  -0.00364066  0.25294664  0.49889026  1
  Fe  Fe87  1  0.25294832  0.24911209  0.24944124  1
  Fe  Fe88  1  0.87844756  0.62305806  0.62067436  1
  Fe  Fe89  1  0.12317621  0.87395449  0.62595296  1
  Co  Co90  1  0.62401643  0.86928048  0.62474108  1
  Co  Co91  1  0.62853576  0.12890057  0.87366135  1
  Co  Co92  1  0.00385825  0.49555243  0.49887135  1
  Co  Co93  1  0.37896570  0.37736998  0.62517723  1
  Co  Co94  1  0.37595572  0.12125499  0.62391869  1
  Co  Co95  1  0.87342995  0.12129389  0.12598163  1
  Co  Co96  1  0.12376086  0.37158040  0.62642632  1
  Co  Co97  1  0.62293195  0.37094865  0.12344090  1
  Co  Co98  1  0.74909873  -0.00219978  0.50325837  1
  Co  Co99  1  0.24459369  0.00103676  -0.00153243  1
  Co  Co100  1  0.37613502  0.12213417  0.87642435  1
  Co  Co101  1  0.75065498  0.25197699  0.25007591  1
  Co  Co102  1  0.25039939  0.49847770  0.25115781  1
  Co  Co103  1  0.87356589  0.37899941  0.12551590  1
  Co  Co104  1  0.75187379  0.25185489  0.74806166  1
  Co  Co105  1  0.74462529  0.50217144  0.50558326  1
  Co  Co106  1  0.49772986  0.24872353  0.49856650  1
  Co  Co107  1  0.62510124  0.62988451  0.12381894  1
  Co  Co108  1  -0.00036103  0.49977522  0.74974741  1
  Co  Co109  1  0.12284360  0.12815197  0.87209511  1
  Co  Co110  1  0.62627970  0.37437406  0.37823685  1
  Co  Co111  1  0.62825698  0.12504690  0.37730622  1
  Co  Co112  1  0.87399572  0.62205053  0.87580364  1
  Co  Co113  1  0.37398756  0.62093273  0.87310744  1
  Co  Co114  1  0.49529674  0.75111026  0.75331301  1
  Co  Co115  1  0.87421096  0.87843807  0.37468912  1
  Co  Co116  1  0.49699963  0.75200821  0.49702686  1
  Co  Co117  1  -0.00123757  0.00054227  0.74857470  1
  Co  Co118  1  0.24713975  -0.00132218  0.50147493  1
  Co  Co119  1  0.24962273  0.00078081  0.24937604  1
  Co  Co120  1  0.00146287  0.49898343  0.25087005  1
  Co  Co121  1  0.87333696  0.61854501  0.37695174  1
  Co  Co122  1  0.75482784  0.74847133  0.74785058  1
  Co  Co123  1  0.75270169  0.25177155  0.49778957  1
  Co  Co124  1  0.62581647  0.62691152  0.37658045  1
  Co  Co125  1  -0.00156887  0.75205993  0.49688827  1
  Co  Co126  1  0.37485454  0.62490699  0.12746929  1
  Co  Co127  1  0.50703820  0.00099700  0.00013314  1
