# generated using pymatgen
data_Fe45Co19
_symmetry_space_group_name_H-M   'P 1'
_cell_length_a   11.41490156
_cell_length_b   11.41616068
_cell_length_c   11.41551000
_cell_angle_alpha   89.99497256
_cell_angle_beta   89.99588741
_cell_angle_gamma   89.99503086
_symmetry_Int_Tables_number   1
_chemical_formula_structural   Fe45Co19
_chemical_formula_sum   'Fe90 Co38'
_cell_volume   1487.60475400
_cell_formula_units_Z   2
loop_
 _symmetry_equiv_pos_site_id
 _symmetry_equiv_pos_as_xyz
  1  'x, y, z'
loop_
 _atom_site_type_symbol
 _atom_site_label
 _atom_site_symmetry_multiplicity
 _atom_site_fract_x
 _atom_site_fract_y
 _atom_site_fract_z
 _atom_site_occupancy
  Fe  Fe0  1  0.12451073  0.12544405  0.87440686  1
  Fe  Fe1  1  0.50048028  0.75196255  0.50172357  1
  Fe  Fe2  1  0.13046132  0.37650870  0.12633968  1
  Fe  Fe3  1  0.25394468  0.50112973  -0.00060015  1
  Fe  Fe4  1  0.62317493  0.62173047  0.12429293  1
  Fe  Fe5  1  0.74779002  0.00341434  0.25093525  1
  Fe  Fe6  1  0.12600060  0.62702752  0.87575291  1
  Fe  Fe7  1  0.87144160  0.37483496  0.12353047  1
  Fe  Fe8  1  0.12984358  0.62399504  0.12677850  1
  Fe  Fe9  1  0.37811227  0.12435974  0.12459264  1
  Fe  Fe10  1  0.00189910  0.25103713  0.50085063  1
  Fe  Fe11  1  0.00168691  0.49773331  0.25082304  1
  Fe  Fe12  1  0.62392622  0.37594376  0.87445385  1
  Fe  Fe13  1  0.62158986  0.37698416  0.62843557  1
  Fe  Fe14  1  0.49956943  -0.01050836  0.75172626  1
  Fe  Fe15  1  0.13063521  0.87515902  0.12298187  1
  Fe  Fe16  1  0.62176463  0.12097762  0.62649002  1
  Fe  Fe17  1  0.49724053  0.25092578  0.50480121  1
  Fe  Fe18  1  0.00049094  0.49893183  0.00008605  1
  Fe  Fe19  1  0.50550119  0.25133721  0.24700637  1
  Fe  Fe20  1  0.12659294  0.37373683  0.87549461  1
  Fe  Fe21  1  0.49652230  0.75412622  0.00255673  1
  Fe  Fe22  1  0.87500115  0.12667984  0.37403644  1
  Fe  Fe23  1  0.62267753  0.11978706  0.87627803  1
  Fe  Fe24  1  0.37404905  0.87351326  0.37414965  1
  Fe  Fe25  1  0.12373172  0.12418599  0.12301551  1
  Fe  Fe26  1  0.00143293  -0.00026989  0.25075120  1
  Fe  Fe27  1  0.87410199  0.87613688  0.12459595  1
  Fe  Fe28  1  0.12423101  0.62189107  0.62251354  1
  Fe  Fe29  1  0.37633070  0.12249836  0.87155825  1
  Fe  Fe30  1  0.00087816  0.25164409  0.24838054  1
  Fe  Fe31  1  -0.00012590  -0.00102422  -0.00209703  1
  Fe  Fe32  1  0.75038022  -0.00438927  0.75302210  1
  Fe  Fe33  1  0.87603059  0.62479758  0.37471512  1
  Fe  Fe34  1  0.74961712  0.74839620  0.49928554  1
  Fe  Fe35  1  0.74877158  0.50238102  0.75213073  1
  Fe  Fe36  1  0.74661176  0.24878187  0.00118465  1
  Fe  Fe37  1  0.37576110  0.62619390  0.62632456  1
  Fe  Fe38  1  0.87550223  0.87511040  0.37544674  1
  Fe  Fe39  1  0.87345285  0.37420017  0.37537366  1
  Fe  Fe40  1  0.00077048  0.25137085  0.74955156  1
  Fe  Fe41  1  0.62152164  0.62413938  0.37324109  1
  Fe  Fe42  1  0.25374984  0.49559705  0.49577778  1
  Fe  Fe43  1  -0.00030051  -0.00253029  0.75247772  1
  Fe  Fe44  1  0.49787495  0.50067434  -0.00155785  1
  Fe  Fe45  1  0.37619286  0.37420397  0.87214727  1
  Fe  Fe46  1  0.74773043  0.49834361  0.25055816  1
  Fe  Fe47  1  0.87469341  0.62342330  0.12527872  1
  Fe  Fe48  1  0.49832005  -0.00164083  0.50031290  1
  Fe  Fe49  1  0.49371958  0.49759888  0.25032730  1
  Fe  Fe50  1  0.87730041  0.62448186  0.62408999  1
  Fe  Fe51  1  0.87614060  0.87503016  0.62238911  1
  Fe  Fe52  1  0.62521978  0.87538383  0.37525269  1
  Fe  Fe53  1  0.87377098  0.12658310  0.12513251  1
  Fe  Fe54  1  0.37549781  0.63135219  0.87158100  1
  Fe  Fe55  1  0.74771677  0.74956299  0.24828531  1
  Fe  Fe56  1  0.25146420  0.24731162  0.00018715  1
  Fe  Fe57  1  0.62524394  0.63241644  0.87431097  1
  Fe  Fe58  1  0.49968766  0.00008135  0.25002879  1
  Fe  Fe59  1  0.37575060  0.12931792  0.37481961  1
  Fe  Fe60  1  -0.00045407  0.49930990  0.75165476  1
  Fe  Fe61  1  0.24994187  -0.00360489  0.75066556  1
  Fe  Fe62  1  0.12624289  0.12895830  0.37621874  1
  Fe  Fe63  1  0.49799959  0.75178264  0.24727812  1
  Fe  Fe64  1  0.74643154  0.24847473  0.75040867  1
  Fe  Fe65  1  0.12540210  0.87574379  0.37590152  1
  Fe  Fe66  1  0.87475413  0.12492660  0.62591040  1
  Fe  Fe67  1  0.74789744  0.50069962  0.50038628  1
  Fe  Fe68  1  0.25167484  0.00326470  0.49948975  1
  Fe  Fe69  1  0.87418693  0.37527182  0.62558639  1
  Fe  Fe70  1  0.00278330  0.75153492  0.74933440  1
  Fe  Fe71  1  0.62565190  0.87985050  0.12187623  1
  Fe  Fe72  1  0.12510921  0.62282451  0.37437648  1
  Fe  Fe73  1  0.12631217  0.37652891  0.62461207  1
  Fe  Fe74  1  0.87438826  0.37389007  0.87640990  1
  Fe  Fe75  1  0.87658615  0.12723651  0.87560624  1
  Fe  Fe76  1  0.49689347  0.49797652  0.49837812  1
  Fe  Fe77  1  0.25125854  0.50177265  0.75112013  1
  Fe  Fe78  1  0.87417219  0.62865145  0.87592048  1
  Fe  Fe79  1  0.62267817  0.62691292  0.62757307  1
  Fe  Fe80  1  0.12447850  0.87615717  0.62207220  1
  Fe  Fe81  1  0.25317362  0.24964066  0.74702851  1
  Fe  Fe82  1  0.74549478  0.24974268  0.49944405  1
  Fe  Fe83  1  0.00150301  0.75060390  0.00177447  1
  Fe  Fe84  1  0.12528615  0.12432236  0.62537966  1
  Fe  Fe85  1  0.25075887  0.00242244  0.25018524  1
  Fe  Fe86  1  0.24937256  0.74890860  0.49919154  1
  Fe  Fe87  1  0.50076466  0.24942844  -0.00078714  1
  Fe  Fe88  1  0.74955305  0.00166320  0.49793384  1
  Fe  Fe89  1  0.00192117  0.75090902  0.25029427  1
  Co  Co90  1  0.25168928  0.00453708  -0.00006291  1
  Co  Co91  1  0.00059925  0.49683081  0.49749008  1
  Co  Co92  1  0.37364805  0.62561460  0.12533098  1
  Co  Co93  1  0.37342424  0.36723397  0.37155676  1
  Co  Co94  1  0.62446640  0.37897985  0.12312981  1
  Co  Co95  1  0.75044421  0.75244523  0.74677807  1
  Co  Co96  1  0.25562596  0.50233320  0.25308825  1
  Co  Co97  1  0.00003863  0.00269928  0.49886772  1
  Co  Co98  1  0.24944553  0.24572456  0.24521090  1
  Co  Co99  1  0.62429037  0.12129089  0.12211683  1
  Co  Co100  1  0.74904875  0.50225533  -0.00318070  1
  Co  Co101  1  0.37107896  0.87385987  0.62229765  1
  Co  Co102  1  0.13020576  0.37150403  0.37250686  1
  Co  Co103  1  0.37775429  0.62892949  0.37637187  1
  Co  Co104  1  0.50106452  0.50400116  0.75386043  1
  Co  Co105  1  0.37459021  0.37345087  0.12392954  1
  Co  Co106  1  0.62853909  0.87232629  0.88015972  1
  Co  Co107  1  0.62203449  0.37634223  0.37564972  1
  Co  Co108  1  0.50080296  0.24815154  0.75013553  1
  Co  Co109  1  0.00185958  0.25173734  0.00139132  1
  Co  Co110  1  0.62139482  0.12534023  0.37725802  1
  Co  Co111  1  0.74956217  0.74872167  0.00581766  1
  Co  Co112  1  0.25201046  0.74740420  0.00135817  1
  Co  Co113  1  0.75337575  0.00156909  -0.00154304  1
  Co  Co114  1  0.36848071  0.87220097  0.87664207  1
  Co  Co115  1  0.24734574  0.75014770  0.74672729  1
  Co  Co116  1  0.25097629  0.74910517  0.25204913  1
  Co  Co117  1  0.49536697  -0.00361610  -0.00165237  1
  Co  Co118  1  0.36992933  0.87658002  0.12624711  1
  Co  Co119  1  0.87394319  0.87041274  0.87745893  1
  Co  Co120  1  0.49939764  0.75791681  0.74838688  1
  Co  Co121  1  0.37783214  0.12015774  0.62861971  1
  Co  Co122  1  0.25388786  0.25013937  0.50670235  1
  Co  Co123  1  0.00071544  0.74939124  0.49833823  1
  Co  Co124  1  0.37771811  0.37898753  0.63063382  1
  Co  Co125  1  0.62776726  0.87600992  0.62168691  1
  Co  Co126  1  0.12847915  0.87371217  0.87854499  1
  Co  Co127  1  0.74526885  0.24975962  0.25055593  1
