# generated using pymatgen
data_Fe45Co19
_symmetry_space_group_name_H-M   'P 1'
_cell_length_a   11.41572645
_cell_length_b   11.41589690
_cell_length_c   11.41563209
_cell_angle_alpha   89.99672205
_cell_angle_beta   90.00278881
_cell_angle_gamma   90.00728766
_symmetry_Int_Tables_number   1
_chemical_formula_structural   Fe45Co19
_chemical_formula_sum   'Fe90 Co38'
_cell_volume   1487.69379035
_cell_formula_units_Z   2
loop_
 _symmetry_equiv_pos_site_id
 _symmetry_equiv_pos_as_xyz
  1  'x, y, z'
loop_
 _atom_site_type_symbol
 _atom_site_label
 _atom_site_symmetry_multiplicity
 _atom_site_fract_x
 _atom_site_fract_y
 _atom_site_fract_z
 _atom_site_occupancy
  Fe  Fe0  1  0.49943295  0.75074520  0.00332481  1
  Fe  Fe1  1  0.25184146  0.49998317  0.75052147  1
  Fe  Fe2  1  0.24747571  0.75125642  0.49695388  1
  Fe  Fe3  1  0.49762932  0.49704833  0.24797976  1
  Fe  Fe4  1  0.37415502  0.87511785  0.87830992  1
  Fe  Fe5  1  0.37503556  0.62577411  0.87639835  1
  Fe  Fe6  1  0.12361499  0.62329332  0.37167521  1
  Fe  Fe7  1  0.87499527  0.87519043  0.87660301  1
  Fe  Fe8  1  0.25021500  0.49990216  0.49990292  1
  Fe  Fe9  1  0.49962461  -0.00079057  0.75070934  1
  Fe  Fe10  1  0.87848895  0.12966263  0.62139914  1
  Fe  Fe11  1  0.12568954  0.37675713  0.37153508  1
  Fe  Fe12  1  0.62622143  0.62346249  0.62328826  1
  Fe  Fe13  1  0.87420770  0.37182042  0.12387435  1
  Fe  Fe14  1  0.13129734  0.88010743  0.12882953  1
  Fe  Fe15  1  0.24781470  -0.00108605  0.49807954  1
  Fe  Fe16  1  0.00189749  0.75519845  0.49829645  1
  Fe  Fe17  1  0.25011222  0.74939900  0.00475008  1
  Fe  Fe18  1  0.87319554  0.87284451  0.62397222  1
  Fe  Fe19  1  0.74762081  0.00394948  0.00207293  1
  Fe  Fe20  1  0.00310049  0.25226944  -0.00111428  1
  Fe  Fe21  1  0.62944414  0.87745250  0.37225820  1
  Fe  Fe22  1  0.50157604  0.75165182  0.49894832  1
  Fe  Fe23  1  0.75067664  0.74784086  0.00191562  1
  Fe  Fe24  1  0.74592806  0.24848898  -0.00218906  1
  Fe  Fe25  1  0.62364396  0.12419479  0.62543539  1
  Fe  Fe26  1  0.37170177  0.87438391  0.37089567  1
  Fe  Fe27  1  0.37806184  0.12640499  0.37672995  1
  Fe  Fe28  1  0.37894205  0.37309147  0.87838773  1
  Fe  Fe29  1  0.50286631  0.00108185  0.00190190  1
  Fe  Fe30  1  -0.00013704  0.25375741  0.75165946  1
  Fe  Fe31  1  0.49873466  0.25142153  0.24933039  1
  Fe  Fe32  1  0.37583155  0.37354734  0.62343424  1
  Fe  Fe33  1  0.24673773  0.25023322  -0.00091544  1
  Fe  Fe34  1  0.37521424  0.62500771  0.37320912  1
  Fe  Fe35  1  0.75371835  0.50023982  0.24884814  1
  Fe  Fe36  1  0.11853778  0.12026776  0.37513479  1
  Fe  Fe37  1  0.37394336  0.12495604  0.62480017  1
  Fe  Fe38  1  0.25045732  0.49865597  0.00212068  1
  Fe  Fe39  1  0.87526351  0.62420682  0.87712382  1
  Fe  Fe40  1  0.12210240  0.62012710  0.12842028  1
  Fe  Fe41  1  -0.00225529  0.49699304  0.00188570  1
  Fe  Fe42  1  0.24869422  0.75015705  0.75148138  1
  Fe  Fe43  1  0.75295667  0.00441267  0.49567853  1
  Fe  Fe44  1  0.62576414  0.62447256  0.37392063  1
  Fe  Fe45  1  0.87634474  0.12612533  0.87656349  1
  Fe  Fe46  1  0.00250174  -0.00044396  0.00051334  1
  Fe  Fe47  1  0.74728958  0.25314412  0.75000905  1
  Fe  Fe48  1  -0.00311090  0.49849534  0.75034607  1
  Fe  Fe49  1  0.37583751  0.62724747  0.62408002  1
  Fe  Fe50  1  -0.00168554  0.49749549  0.49806181  1
  Fe  Fe51  1  0.62445781  0.37426361  0.12245530  1
  Fe  Fe52  1  0.62528018  0.62401078  0.12521281  1
  Fe  Fe53  1  0.12343291  0.62617650  0.62573334  1
  Fe  Fe54  1  0.24972634  0.25065796  0.75196374  1
  Fe  Fe55  1  0.87068938  0.87745108  0.12693982  1
  Fe  Fe56  1  0.75096398  0.49533748  0.74915683  1
  Fe  Fe57  1  0.50012852  0.49969519  0.49843950  1
  Fe  Fe58  1  0.37483730  0.12515519  0.12332691  1
  Fe  Fe59  1  0.00076748  -0.00272582  0.75009115  1
  Fe  Fe60  1  0.50039427  -0.00080444  0.24736925  1
  Fe  Fe61  1  0.75113568  0.74903817  0.24911646  1
  Fe  Fe62  1  0.75017815  0.74891576  0.75051864  1
  Fe  Fe63  1  0.62681203  0.62198075  0.87730832  1
  Fe  Fe64  1  0.25054333  0.24892534  0.25097239  1
  Fe  Fe65  1  0.12390977  0.12397504  0.62580496  1
  Fe  Fe66  1  0.00036415  0.75176579  0.00354897  1
  Fe  Fe67  1  0.62683000  0.37402695  0.37604416  1
  Fe  Fe68  1  0.50244134  0.75112306  0.75070131  1
  Fe  Fe69  1  -0.00031916  0.24964942  0.24921947  1
  Fe  Fe70  1  0.62783602  0.87625124  0.62404411  1
  Fe  Fe71  1  0.24723370  -0.00105573  0.75402860  1
  Fe  Fe72  1  0.37277401  0.87433824  0.62555896  1
  Fe  Fe73  1  0.25390199  0.49765478  0.24767220  1
  Fe  Fe74  1  0.50188115  0.25079455  0.50120715  1
  Fe  Fe75  1  0.62738399  0.87607579  0.87615578  1
  Fe  Fe76  1  0.87434491  0.62544268  0.62241781  1
  Fe  Fe77  1  0.75268970  0.00179472  0.74965314  1
  Fe  Fe78  1  0.49997869  0.49853810  0.75079447  1
  Fe  Fe79  1  0.75113043  0.24296609  0.25195611  1
  Fe  Fe80  1  0.12280711  0.62562201  0.87570629  1
  Fe  Fe81  1  0.37646664  0.12541782  0.87495443  1
  Fe  Fe82  1  0.49922817  -0.00228617  0.49965920  1
  Fe  Fe83  1  0.00108001  0.75333135  0.24930593  1
  Fe  Fe84  1  0.24689543  0.24949367  0.49817838  1
  Fe  Fe85  1  0.12488607  0.37661387  0.62654679  1
  Fe  Fe86  1  0.12450607  0.12419214  0.12538220  1
  Fe  Fe87  1  0.87527927  0.62769117  0.37506553  1
  Fe  Fe88  1  0.87313258  0.36961294  0.37878129  1
  Fe  Fe89  1  0.49829935  0.75199135  0.24659768  1
  Co  Co90  1  -0.00692702  0.49652530  0.25184055  1
  Co  Co91  1  0.75182017  0.50024311  0.49799665  1
  Co  Co92  1  0.12545818  0.87944265  0.36932704  1
  Co  Co93  1  0.12382035  0.87152750  0.87590974  1
  Co  Co94  1  0.62466004  0.12592702  0.12894780  1
  Co  Co95  1  0.87398456  0.37401919  0.87796017  1
  Co  Co96  1  0.50204479  0.25024076  0.74942925  1
  Co  Co97  1  0.49858662  0.50285803  0.00184440  1
  Co  Co98  1  0.12510551  0.37781066  0.87393620  1
  Co  Co99  1  -0.00074684  -0.00542140  0.50303176  1
  Co  Co100  1  0.62634235  0.12305464  0.87101824  1
  Co  Co101  1  0.62909698  0.87546340  0.12639727  1
  Co  Co102  1  0.37434157  0.37409504  0.37699342  1
  Co  Co103  1  0.87647390  0.12696689  0.12001064  1
  Co  Co104  1  0.75233979  0.50012918  0.00397860  1
  Co  Co105  1  0.12668877  0.87373329  0.62753383  1
  Co  Co106  1  0.37607852  0.37070345  0.12084591  1
  Co  Co107  1  0.74851956  0.74984015  0.49884703  1
  Co  Co108  1  0.74617430  0.24517055  0.49931769  1
  Co  Co109  1  0.12449244  0.37625571  0.12798348  1
  Co  Co110  1  0.25257832  0.00714506  0.25312134  1
  Co  Co111  1  0.50433606  0.24475932  -0.00146184  1
  Co  Co112  1  0.87467718  0.37164535  0.62048044  1
  Co  Co113  1  0.62461310  0.37599181  0.62205747  1
  Co  Co114  1  0.12140440  0.12621774  0.87320674  1
  Co  Co115  1  0.62282250  0.37748634  0.87853445  1
  Co  Co116  1  0.87321921  0.87574859  0.37244230  1
  Co  Co117  1  0.87764202  0.62554891  0.12645755  1
  Co  Co118  1  0.62014381  0.12436153  0.37438465  1
  Co  Co119  1  0.75362358  0.00769027  0.25183091  1
  Co  Co120  1  0.37036652  0.87954227  0.12520464  1
  Co  Co121  1  0.24749127  0.00334283  -0.00403044  1
  Co  Co122  1  0.24892974  0.74675125  0.24821569  1
  Co  Co123  1  -0.00278021  0.75016896  0.75022043  1
  Co  Co124  1  0.37589469  0.62391918  0.12682853  1
  Co  Co125  1  -0.00541408  0.00087408  0.24588626  1
  Co  Co126  1  0.88228640  0.12633624  0.37908232  1
  Co  Co127  1  0.00625456  0.25377040  0.49944813  1
