# generated using pymatgen
data_Fe45Co19
_symmetry_space_group_name_H-M   'P 1'
_cell_length_a   11.41443992
_cell_length_b   11.41573551
_cell_length_c   11.41556751
_cell_angle_alpha   90.00019238
_cell_angle_beta   90.01096056
_cell_angle_gamma   90.00438522
_symmetry_Int_Tables_number   1
_chemical_formula_structural   Fe45Co19
_chemical_formula_sum   'Fe90 Co38'
_cell_volume   1487.49666977
_cell_formula_units_Z   2
loop_
 _symmetry_equiv_pos_site_id
 _symmetry_equiv_pos_as_xyz
  1  'x, y, z'
loop_
 _atom_site_type_symbol
 _atom_site_label
 _atom_site_symmetry_multiplicity
 _atom_site_fract_x
 _atom_site_fract_y
 _atom_site_fract_z
 _atom_site_occupancy
  Fe  Fe0  1  0.74531809  0.74659861  0.49803189  1
  Fe  Fe1  1  0.87658357  0.12453603  0.37428147  1
  Fe  Fe2  1  0.00420040  0.50192311  0.50290159  1
  Fe  Fe3  1  0.87354238  0.62549224  0.62765864  1
  Fe  Fe4  1  0.49755525  0.75042409  0.24710393  1
  Fe  Fe5  1  0.50019447  0.24673909  0.74418680  1
  Fe  Fe6  1  0.25027685  0.25109363  0.25120609  1
  Fe  Fe7  1  -0.00038129  -0.00106528  0.50004259  1
  Fe  Fe8  1  0.00369955  0.74921751  0.49991793  1
  Fe  Fe9  1  0.25303613  0.49967980  0.25003195  1
  Fe  Fe10  1  0.74766582  0.75040640  -0.00047872  1
  Fe  Fe11  1  0.61971482  0.12719324  0.87755345  1
  Fe  Fe12  1  0.87429407  0.62461198  0.12225068  1
  Fe  Fe13  1  0.74487057  0.49754519  -0.00439020  1
  Fe  Fe14  1  0.74899222  -0.00051960  0.49742941  1
  Fe  Fe15  1  0.12293074  0.62245388  0.87342182  1
  Fe  Fe16  1  0.12682531  0.87844650  0.87684795  1
  Fe  Fe17  1  0.36999881  0.87131071  0.11888317  1
  Fe  Fe18  1  0.50048885  0.75089046  0.74972547  1
  Fe  Fe19  1  0.25149209  0.00138591  0.49864965  1
  Fe  Fe20  1  0.87662549  0.62497069  0.37510178  1
  Fe  Fe21  1  0.25126485  0.50318112  -0.00122725  1
  Fe  Fe22  1  0.24895237  0.74604536  0.49939990  1
  Fe  Fe23  1  0.87384791  0.62446184  0.87479397  1
  Fe  Fe24  1  0.87640439  0.12430987  0.12502191  1
  Fe  Fe25  1  0.37744355  0.37275434  0.87746830  1
  Fe  Fe26  1  0.38054397  0.62695411  0.88027339  1
  Fe  Fe27  1  0.62565542  0.12595536  0.12464608  1
  Fe  Fe28  1  0.87666714  0.12389067  0.87474138  1
  Fe  Fe29  1  0.50417111  0.50007505  0.75239821  1
  Fe  Fe30  1  0.12534126  0.12278858  0.37235449  1
  Fe  Fe31  1  0.74883018  0.25176628  0.75003684  1
  Fe  Fe32  1  0.37522417  0.62437383  0.37280880  1
  Fe  Fe33  1  -0.00115562  0.49843052  0.24811596  1
  Fe  Fe34  1  0.12412419  0.12071824  0.12569002  1
  Fe  Fe35  1  0.75221641  -0.00104194  0.25220321  1
  Fe  Fe36  1  0.62110162  0.87647272  0.62290375  1
  Fe  Fe37  1  0.37499678  0.62541509  0.62640861  1
  Fe  Fe38  1  0.37606018  0.87430386  0.37676622  1
  Fe  Fe39  1  0.12779183  0.37570351  0.12179936  1
  Fe  Fe40  1  0.74764547  0.75025804  0.75127374  1
  Fe  Fe41  1  0.50160542  0.50326008  0.50079122  1
  Fe  Fe42  1  0.49602459  -0.00093186  0.24727047  1
  Fe  Fe43  1  0.37611418  0.12637643  0.37414616  1
  Fe  Fe44  1  0.74801879  -0.00069154  0.75153510  1
  Fe  Fe45  1  -0.00020088  0.75205861  0.75199812  1
  Fe  Fe46  1  0.00254836  0.25293498  0.75061966  1
  Fe  Fe47  1  0.12883994  0.87829958  0.12427123  1
  Fe  Fe48  1  0.50107516  0.24702340  0.50270035  1
  Fe  Fe49  1  0.62132727  0.87410599  0.37506016  1
  Fe  Fe50  1  0.37613649  0.87591143  0.62389274  1
  Fe  Fe51  1  0.74844050  0.25104893  0.49919151  1
  Fe  Fe52  1  0.00166937  0.75087290  -0.00069741  1
  Fe  Fe53  1  0.24740805  0.24603229  -0.00410915  1
  Fe  Fe54  1  0.37451179  0.12704668  0.12177059  1
  Fe  Fe55  1  0.25004749  0.49928831  0.74983694  1
  Fe  Fe56  1  0.00021598  0.75178914  0.25021898  1
  Fe  Fe57  1  0.74598788  0.50234675  0.49998776  1
  Fe  Fe58  1  0.62304096  0.62284548  0.12451531  1
  Fe  Fe59  1  0.12710765  0.87626736  0.37194966  1
  Fe  Fe60  1  0.87308780  0.37499867  0.12205548  1
  Fe  Fe61  1  0.00107226  0.49768388  0.74878577  1
  Fe  Fe62  1  0.00086139  0.25000108  0.50012344  1
  Fe  Fe63  1  0.12677798  0.37765816  0.37685272  1
  Fe  Fe64  1  0.12867179  0.87552301  0.62761896  1
  Fe  Fe65  1  0.62084971  0.87596854  0.87611630  1
  Fe  Fe66  1  0.49792377  0.25411294  0.24597976  1
  Fe  Fe67  1  0.25070934  0.25067563  0.50030787  1
  Fe  Fe68  1  0.25728265  0.00246248  0.75663100  1
  Fe  Fe69  1  0.25200548  0.74964783  0.75412049  1
  Fe  Fe70  1  0.75245300  0.25185875  0.25132216  1
  Fe  Fe71  1  0.87302514  0.87306495  0.62386216  1
  Fe  Fe72  1  0.62239831  0.37573595  0.37383689  1
  Fe  Fe73  1  0.62602459  0.87665332  0.12589483  1
  Fe  Fe74  1  0.12687438  0.62555448  0.12682057  1
  Fe  Fe75  1  0.87492796  0.87565153  0.12404396  1
  Fe  Fe76  1  0.25015085  0.24934748  0.75239734  1
  Fe  Fe77  1  0.37488871  0.37640921  0.62306653  1
  Fe  Fe78  1  0.75003978  0.74876425  0.25096422  1
  Fe  Fe79  1  0.75081871  0.49964518  0.25154527  1
  Fe  Fe80  1  0.87373633  0.12445984  0.62586273  1
  Fe  Fe81  1  0.87558507  0.37614737  0.87631569  1
  Fe  Fe82  1  0.00140454  0.25012099  -0.00113156  1
  Fe  Fe83  1  0.12680833  0.12442323  0.62803244  1
  Fe  Fe84  1  0.75009977  0.00134631  -0.00128128  1
  Fe  Fe85  1  0.49569122  0.49593561  0.24389540  1
  Fe  Fe86  1  0.62282217  0.12487172  0.37240665  1
  Fe  Fe87  1  0.87305922  0.37604977  0.62364377  1
  Fe  Fe88  1  -0.00217638  -0.00274195  0.75014731  1
  Fe  Fe89  1  -0.00020658  0.25283142  0.25068733  1
  Co  Co90  1  0.50375595  0.75074446  0.00348894  1
  Co  Co91  1  0.50170214  0.49542334  0.00267759  1
  Co  Co92  1  0.37473648  0.62757450  0.12188034  1
  Co  Co93  1  0.74677705  0.49789670  0.75273490  1
  Co  Co94  1  0.62317068  0.62692454  0.87638072  1
  Co  Co95  1  0.63083008  0.37454576  0.12695558  1
  Co  Co96  1  0.50230253  0.25546768  0.00659290  1
  Co  Co97  1  0.00075292  0.50070223  0.00147502  1
  Co  Co98  1  0.49917087  0.00406592  0.50062043  1
  Co  Co99  1  -0.00209814  -0.00257748  0.25112709  1
  Co  Co100  1  0.38342160  0.12981695  0.87923737  1
  Co  Co101  1  0.75126075  0.24905639  -0.00186297  1
  Co  Co102  1  -0.00114757  -0.00168323  -0.00073409  1
  Co  Co103  1  0.62099980  0.36904295  0.87332534  1
  Co  Co104  1  0.87270922  0.87414250  0.87607522  1
  Co  Co105  1  0.24919837  0.50401373  0.50163978  1
  Co  Co106  1  0.25352806  0.00390945  -0.00341500  1
  Co  Co107  1  0.49962562  0.74562682  0.50054353  1
  Co  Co108  1  0.62424759  0.37584198  0.62458453  1
  Co  Co109  1  0.24564985  0.74746285  -0.00359396  1
  Co  Co110  1  0.87576476  0.37771174  0.37778968  1
  Co  Co111  1  0.49863327  -0.00129330  0.00289169  1
  Co  Co112  1  0.12126859  0.12194891  0.87227899  1
  Co  Co113  1  0.62512424  0.62547061  0.62895290  1
  Co  Co114  1  0.49754007  0.00228824  0.74885583  1
  Co  Co115  1  0.12602776  0.62713867  0.63025952  1
  Co  Co116  1  0.36770892  0.37305953  0.12041095  1
  Co  Co117  1  0.37045164  0.12370031  0.62432392  1
  Co  Co118  1  0.37586428  0.37531510  0.37845281  1
  Co  Co119  1  0.12677600  0.37790387  0.87725898  1
  Co  Co120  1  0.12809647  0.37374954  0.62463586  1
  Co  Co121  1  0.12496164  0.62303822  0.37086629  1
  Co  Co122  1  0.62908326  0.12269345  0.62501878  1
  Co  Co123  1  0.37839825  0.87192699  0.87865059  1
  Co  Co124  1  0.25126412  0.75004192  0.25125468  1
  Co  Co125  1  0.62093246  0.62406565  0.36873370  1
  Co  Co126  1  0.25488058  0.00066555  0.24908356  1
  Co  Co127  1  0.87399209  0.87167978  0.37644016  1
