# generated using pymatgen
data_Fe45Co19
_symmetry_space_group_name_H-M   'P 1'
_cell_length_a   11.41551236
_cell_length_b   11.41657190
_cell_length_c   11.41464874
_cell_angle_alpha   90.00129846
_cell_angle_beta   90.00939843
_cell_angle_gamma   90.00285268
_symmetry_Int_Tables_number   1
_chemical_formula_structural   Fe45Co19
_chemical_formula_sum   'Fe90 Co38'
_cell_volume   1487.62569028
_cell_formula_units_Z   2
loop_
 _symmetry_equiv_pos_site_id
 _symmetry_equiv_pos_as_xyz
  1  'x, y, z'
loop_
 _atom_site_type_symbol
 _atom_site_label
 _atom_site_symmetry_multiplicity
 _atom_site_fract_x
 _atom_site_fract_y
 _atom_site_fract_z
 _atom_site_occupancy
  Fe  Fe0  1  0.37350544  0.62452913  0.62369757  1
  Fe  Fe1  1  0.74869529  -0.00026058  0.24935136  1
  Fe  Fe2  1  0.00097053  0.75359522  0.00275796  1
  Fe  Fe3  1  0.12348541  0.37332500  0.62643330  1
  Fe  Fe4  1  0.75136378  0.25046676  0.75463903  1
  Fe  Fe5  1  0.49810710  0.74939285  0.00375040  1
  Fe  Fe6  1  -0.00072654  0.49983280  0.75110808  1
  Fe  Fe7  1  0.37724531  0.87844701  0.37430538  1
  Fe  Fe8  1  0.25210826  -0.00302752  0.75145362  1
  Fe  Fe9  1  0.49835686  0.74944393  0.74971718  1
  Fe  Fe10  1  0.00062436  0.00110530  0.74950804  1
  Fe  Fe11  1  0.75248266  0.75185358  0.00265377  1
  Fe  Fe12  1  0.37633161  0.37570064  0.62298140  1
  Fe  Fe13  1  0.62280778  0.87658417  0.37404476  1
  Fe  Fe14  1  0.37454262  0.62476515  0.87712987  1
  Fe  Fe15  1  0.62633428  0.62320979  0.36943102  1
  Fe  Fe16  1  0.24952765  0.25135562  0.49631240  1
  Fe  Fe17  1  0.62535009  0.62691755  0.87709700  1
  Fe  Fe18  1  0.50276112  0.00256531  0.50497961  1
  Fe  Fe19  1  0.50044626  0.00562376  0.24459670  1
  Fe  Fe20  1  0.37597921  0.87370430  0.62379286  1
  Fe  Fe21  1  0.12957432  0.12553216  0.12300362  1
  Fe  Fe22  1  0.75242532  0.75273468  0.75061325  1
  Fe  Fe23  1  0.87534303  0.62433121  0.87800370  1
  Fe  Fe24  1  0.75153075  0.24947793  -0.00313335  1
  Fe  Fe25  1  0.87728847  0.87835397  0.37615232  1
  Fe  Fe26  1  0.74664531  -0.00265720  0.74684610  1
  Fe  Fe27  1  0.24987597  0.49519056  -0.00094416  1
  Fe  Fe28  1  0.61893773  0.37771055  0.36914969  1
  Fe  Fe29  1  0.37718239  0.37122996  0.12617456  1
  Fe  Fe30  1  0.50111104  0.24944267  0.49786379  1
  Fe  Fe31  1  0.25296159  0.25393083  0.75556876  1
  Fe  Fe32  1  0.74838482  0.49873363  0.49864842  1
  Fe  Fe33  1  0.00049409  0.49982865  0.00200369  1
  Fe  Fe34  1  0.74879327  0.50040298  0.00526047  1
  Fe  Fe35  1  0.87460592  0.12359024  0.37556348  1
  Fe  Fe36  1  0.49773795  0.24383521  0.00332034  1
  Fe  Fe37  1  0.37374293  0.12590058  0.62613748  1
  Fe  Fe38  1  0.24762103  0.00008211  0.49867916  1
  Fe  Fe39  1  0.87554819  0.62779023  0.62432071  1
  Fe  Fe40  1  0.75126339  0.75231970  0.49783096  1
  Fe  Fe41  1  0.87566444  0.37332415  0.62550703  1
  Fe  Fe42  1  0.74769573  -0.00133738  0.50384697  1
  Fe  Fe43  1  0.87339218  0.62372800  0.37068066  1
  Fe  Fe44  1  0.62666006  0.62751623  0.62449566  1
  Fe  Fe45  1  0.12382222  0.87566902  0.37339544  1
  Fe  Fe46  1  0.37495043  0.62085321  0.37459632  1
  Fe  Fe47  1  0.37571243  0.12430506  0.37439461  1
  Fe  Fe48  1  0.74940084  0.49977475  0.75059607  1
  Fe  Fe49  1  -0.00037699  0.75171545  0.24808144  1
  Fe  Fe50  1  0.00141622  0.24724952  0.49957099  1
  Fe  Fe51  1  0.62149833  0.12061652  0.87548259  1
  Fe  Fe52  1  0.24935545  0.75394313  -0.00244038  1
  Fe  Fe53  1  0.00111293  0.50116627  0.49826445  1
  Fe  Fe54  1  0.00053241  0.24714510  0.24960961  1
  Fe  Fe55  1  0.50123355  0.50411715  0.00653165  1
  Fe  Fe56  1  0.25033248  0.25019671  0.25341561  1
  Fe  Fe57  1  0.74988107  -0.00157564  0.00039706  1
  Fe  Fe58  1  0.74694520  0.24979899  0.25062242  1
  Fe  Fe59  1  0.87855077  0.87785775  0.87593594  1
  Fe  Fe60  1  0.87494379  0.37298211  0.12418848  1
  Fe  Fe61  1  0.37062742  0.87591920  0.12738199  1
  Fe  Fe62  1  -0.00198810  0.24752718  -0.00416171  1
  Fe  Fe63  1  0.25105195  0.49733939  0.75262678  1
  Fe  Fe64  1  0.24822237  0.49763727  0.49746936  1
  Fe  Fe65  1  0.61952504  0.87604414  0.87587122  1
  Fe  Fe66  1  0.12632679  0.12713186  0.62696991  1
  Fe  Fe67  1  0.25061081  0.49744116  0.25057111  1
  Fe  Fe68  1  0.62550253  0.87432234  0.12603674  1
  Fe  Fe69  1  0.12854916  0.62748074  0.12679242  1
  Fe  Fe70  1  0.87704129  0.37463436  0.37363280  1
  Fe  Fe71  1  0.00046175  0.49941393  0.24859532  1
  Fe  Fe72  1  0.12511816  0.62522346  0.87584227  1
  Fe  Fe73  1  0.49859371  0.24890165  0.75204922  1
  Fe  Fe74  1  0.24954984  0.75163869  0.75199516  1
  Fe  Fe75  1  0.12076847  0.87250189  0.62406221  1
  Fe  Fe76  1  0.62464092  0.37324589  0.62532109  1
  Fe  Fe77  1  0.12476133  0.37157295  0.12426888  1
  Fe  Fe78  1  0.25107448  -0.00218001  -0.00244736  1
  Fe  Fe79  1  0.00255484  0.00158601  0.24692223  1
  Fe  Fe80  1  0.74792918  0.25073528  0.49685708  1
  Fe  Fe81  1  0.12394752  0.62702950  0.62471023  1
  Fe  Fe82  1  0.50019240  0.74729666  0.49821790  1
  Fe  Fe83  1  0.12671475  0.12573269  0.87518630  1
  Fe  Fe84  1  0.62256783  0.37618056  0.87885028  1
  Fe  Fe85  1  0.87370112  0.12533823  0.62577934  1
  Fe  Fe86  1  0.50041916  0.50137420  0.74926099  1
  Fe  Fe87  1  0.87274922  0.12341171  0.12360255  1
  Fe  Fe88  1  0.24880197  0.75020459  0.49643604  1
  Fe  Fe89  1  0.49680909  0.74731315  0.24797565  1
  Co  Co90  1  0.00310442  0.00079802  0.00292005  1
  Co  Co91  1  0.75290879  0.75505072  0.25097753  1
  Co  Co92  1  0.12533998  0.62494767  0.37176153  1
  Co  Co93  1  0.50243513  0.50110493  0.50192342  1
  Co  Co94  1  0.63058951  0.62986686  0.12902687  1
  Co  Co95  1  0.87382098  0.11864978  0.87466522  1
  Co  Co96  1  0.12998130  0.87566656  0.12761594  1
  Co  Co97  1  0.74998305  0.49564228  0.24596697  1
  Co  Co98  1  0.62258820  0.87011512  0.62417487  1
  Co  Co99  1  0.87504798  0.87849050  0.12473158  1
  Co  Co100  1  -0.00088929  0.74843160  0.49585032  1
  Co  Co101  1  0.24903771  0.00160414  0.25369555  1
  Co  Co102  1  0.50178817  0.24236053  0.24763048  1
  Co  Co103  1  0.49975174  -0.00013154  0.74538684  1
  Co  Co104  1  0.12227621  0.37410038  0.37447008  1
  Co  Co105  1  0.62632783  0.12941744  0.62633834  1
  Co  Co106  1  0.36720542  0.62686824  0.12285308  1
  Co  Co107  1  0.37965552  0.87541478  0.87466931  1
  Co  Co108  1  0.38012088  0.37555822  0.37261375  1
  Co  Co109  1  0.37623396  0.12174321  0.87470772  1
  Co  Co110  1  0.63076726  0.12438894  0.12152872  1
  Co  Co111  1  0.49661926  0.00078283  0.00604183  1
  Co  Co112  1  0.87924043  0.87475985  0.62435555  1
  Co  Co113  1  0.25260823  0.75039833  0.25459150  1
  Co  Co114  1  0.12231511  0.87623694  0.87410765  1
  Co  Co115  1  0.25177873  0.25296331  -0.00462187  1
  Co  Co116  1  -0.00115994  0.74922258  0.75348437  1
  Co  Co117  1  0.12438521  0.12509150  0.37418050  1
  Co  Co118  1  0.87462947  0.62596098  0.12701151  1
  Co  Co119  1  0.38136246  0.37726845  0.87845754  1
  Co  Co120  1  -0.00308862  0.24898791  0.75365990  1
  Co  Co121  1  0.36682108  0.12530266  0.12526387  1
  Co  Co122  1  0.00233588  0.00324926  0.50084327  1
  Co  Co123  1  0.62307598  0.37101451  0.12475840  1
  Co  Co124  1  0.87496421  0.37927310  0.87661549  1
  Co  Co125  1  0.12120501  0.37467369  0.87479039  1
  Co  Co126  1  0.49820881  0.50474428  0.24213659  1
  Co  Co127  1  0.62570877  0.12204630  0.37616247  1
