# generated using pymatgen
data_Fe45Co19
_symmetry_space_group_name_H-M   'P 1'
_cell_length_a   11.41481016
_cell_length_b   11.41543544
_cell_length_c   11.41420686
_cell_angle_alpha   89.99994911
_cell_angle_beta   90.00293797
_cell_angle_gamma   89.99318701
_symmetry_Int_Tables_number   1
_chemical_formula_structural   Fe45Co19
_chemical_formula_sum   'Fe90 Co38'
_cell_volume   1487.32853596
_cell_formula_units_Z   2
loop_
 _symmetry_equiv_pos_site_id
 _symmetry_equiv_pos_as_xyz
  1  'x, y, z'
loop_
 _atom_site_type_symbol
 _atom_site_label
 _atom_site_symmetry_multiplicity
 _atom_site_fract_x
 _atom_site_fract_y
 _atom_site_fract_z
 _atom_site_occupancy
  Fe  Fe0  1  -0.00046090  0.24822732  0.49888155  1
  Fe  Fe1  1  0.62281613  0.12261037  0.62315834  1
  Fe  Fe2  1  0.24748216  0.50015322  0.75094005  1
  Fe  Fe3  1  0.37729907  0.37430848  0.37593469  1
  Fe  Fe4  1  0.50177673  0.49879931  0.25030050  1
  Fe  Fe5  1  0.12467637  0.62559416  0.62581919  1
  Fe  Fe6  1  0.87521405  0.37360435  0.87724813  1
  Fe  Fe7  1  0.74941262  0.00087096  0.25267321  1
  Fe  Fe8  1  0.75147396  0.25040360  0.74983631  1
  Fe  Fe9  1  0.12914912  0.87406643  0.12506000  1
  Fe  Fe10  1  0.24671855  0.50529512  -0.00098713  1
  Fe  Fe11  1  0.62503288  0.87382268  0.87601909  1
  Fe  Fe12  1  0.37418035  0.37581720  0.62404997  1
  Fe  Fe13  1  -0.00096554  0.75423975  0.74675012  1
  Fe  Fe14  1  0.50119445  0.75049749  0.49983884  1
  Fe  Fe15  1  0.74769315  0.24820657  0.00234335  1
  Fe  Fe16  1  -0.00027780  0.00004058  0.25061543  1
  Fe  Fe17  1  0.00162684  -0.00076286  0.00116487  1
  Fe  Fe18  1  0.37618243  0.87302842  0.37398857  1
  Fe  Fe19  1  0.75131490  -0.00053246  0.74960472  1
  Fe  Fe20  1  0.87701453  0.62841531  0.87733203  1
  Fe  Fe21  1  0.12375246  0.87535235  0.37567288  1
  Fe  Fe22  1  0.74836061  0.00049133  -0.00009721  1
  Fe  Fe23  1  0.25000187  0.74726383  0.49649663  1
  Fe  Fe24  1  0.75079322  0.24753776  0.50026568  1
  Fe  Fe25  1  0.37396464  0.37589520  0.12324206  1
  Fe  Fe26  1  0.62430156  0.62739344  0.87544440  1
  Fe  Fe27  1  0.00392868  0.50328761  0.00069584  1
  Fe  Fe28  1  -0.00088874  0.49623093  0.75090150  1
  Fe  Fe29  1  0.12081137  0.12647959  0.87174167  1
  Fe  Fe30  1  0.49799488  0.75221208  0.00134759  1
  Fe  Fe31  1  0.25038646  0.24691671  -0.00018698  1
  Fe  Fe32  1  0.12431275  0.37292890  0.62510701  1
  Fe  Fe33  1  0.12420691  0.62529149  0.37035672  1
  Fe  Fe34  1  0.37037717  0.87583670  0.12269133  1
  Fe  Fe35  1  0.24729637  -0.00026068  0.75050202  1
  Fe  Fe36  1  0.49914769  0.50133884  0.00098087  1
  Fe  Fe37  1  0.87567976  0.62398268  0.37239613  1
  Fe  Fe38  1  0.00074398  0.00140013  0.50140186  1
  Fe  Fe39  1  0.49944476  0.75153017  0.74851795  1
  Fe  Fe40  1  0.62428483  0.62750532  0.37226439  1
  Fe  Fe41  1  0.50195304  0.25181340  0.24639055  1
  Fe  Fe42  1  0.37158988  0.62643367  0.13047705  1
  Fe  Fe43  1  0.25133883  0.74951371  0.75026936  1
  Fe  Fe44  1  0.75306178  0.75001596  0.24687111  1
  Fe  Fe45  1  0.12793506  0.37385995  0.12640071  1
  Fe  Fe46  1  0.24897344  0.24992912  0.75129907  1
  Fe  Fe47  1  0.87919268  0.12350399  0.62822732  1
  Fe  Fe48  1  0.62656376  0.62477928  0.12524549  1
  Fe  Fe49  1  0.87229011  0.37703910  0.12483374  1
  Fe  Fe50  1  0.62709395  0.87577428  0.12620072  1
  Fe  Fe51  1  0.87405522  0.87664635  0.37677460  1
  Fe  Fe52  1  0.12491796  0.37102026  0.37124158  1
  Fe  Fe53  1  0.37556059  0.62363266  0.62273750  1
  Fe  Fe54  1  0.75072817  0.74862599  0.50023524  1
  Fe  Fe55  1  0.62701921  0.87695324  0.62167366  1
  Fe  Fe56  1  0.37790996  0.12633231  0.37491323  1
  Fe  Fe57  1  0.49987201  0.25150315  0.74916095  1
  Fe  Fe58  1  0.87493188  0.87389106  0.87889471  1
  Fe  Fe59  1  -0.00014338  0.49957983  0.49918887  1
  Fe  Fe60  1  0.37696163  0.12147055  0.12378502  1
  Fe  Fe61  1  0.12601670  0.12617951  0.13074768  1
  Fe  Fe62  1  0.37839141  0.12267660  0.87724986  1
  Fe  Fe63  1  0.24855617  0.00258855  0.49732354  1
  Fe  Fe64  1  0.62375344  0.37412906  0.87750789  1
  Fe  Fe65  1  0.62218599  0.12495084  0.87679251  1
  Fe  Fe66  1  -0.00050286  0.49861512  0.24779151  1
  Fe  Fe67  1  0.62222851  0.12427528  0.37729910  1
  Fe  Fe68  1  0.50227094  0.49958964  0.74908498  1
  Fe  Fe69  1  0.24906795  0.24780335  0.49873113  1
  Fe  Fe70  1  0.74966865  0.74944710  0.74890450  1
  Fe  Fe71  1  0.24888926  0.50074597  0.49606042  1
  Fe  Fe72  1  0.37563544  0.12455015  0.62428940  1
  Fe  Fe73  1  0.74781808  0.25016000  0.24886236  1
  Fe  Fe74  1  0.87239411  0.37490093  0.37495649  1
  Fe  Fe75  1  0.50319339  0.50046966  0.49879547  1
  Fe  Fe76  1  -0.00245435  0.75169310  0.24562321  1
  Fe  Fe77  1  0.37591281  0.62538817  0.87309833  1
  Fe  Fe78  1  0.12656987  0.87134373  0.87762338  1
  Fe  Fe79  1  0.50054228  -0.00331687  0.25083906  1
  Fe  Fe80  1  0.37255227  0.87527692  0.62373057  1
  Fe  Fe81  1  0.87407316  0.12353559  0.12658455  1
  Fe  Fe82  1  0.62959127  0.37773273  0.62388038  1
  Fe  Fe83  1  -0.00105568  0.74966361  0.50191223  1
  Fe  Fe84  1  0.49923737  -0.00241660  0.74978861  1
  Fe  Fe85  1  0.87282529  0.62162632  0.62594952  1
  Fe  Fe86  1  0.74963394  0.50214920  -0.00156217  1
  Fe  Fe87  1  0.00030539  0.24967976  0.00265528  1
  Fe  Fe88  1  0.87802978  0.12396681  0.87400143  1
  Fe  Fe89  1  0.37453732  0.37540620  0.87688135  1
  Co  Co90  1  0.25098992  -0.00007288  0.25311512  1
  Co  Co91  1  0.12418724  0.12704491  0.37112465  1
  Co  Co92  1  0.24992425  0.75184432  0.25406506  1
  Co  Co93  1  0.87337319  0.87956068  0.12402174  1
  Co  Co94  1  0.49999081  0.75269978  0.24718426  1
  Co  Co95  1  0.12767107  0.62691880  0.13068289  1
  Co  Co96  1  0.12603621  0.37382809  0.87758497  1
  Co  Co97  1  0.75236620  0.00295701  0.49985771  1
  Co  Co98  1  0.49974195  0.25024608  0.00196732  1
  Co  Co99  1  0.75007850  0.75052998  0.00313791  1
  Co  Co100  1  0.24650800  0.00384250  -0.00138386  1
  Co  Co101  1  0.87447240  0.62166796  0.12351805  1
  Co  Co102  1  0.87584324  0.12489311  0.37319121  1
  Co  Co103  1  0.37254237  0.87649975  0.87697366  1
  Co  Co104  1  0.12853017  0.87396670  0.62204420  1
  Co  Co105  1  0.00089408  0.74977176  0.00587566  1
  Co  Co106  1  0.49777838  -0.00282056  0.49904004  1
  Co  Co107  1  0.25060454  0.49787056  0.25331106  1
  Co  Co108  1  0.87293274  0.37671680  0.62187235  1
  Co  Co109  1  0.62603126  0.62381998  0.62522495  1
  Co  Co110  1  0.62595209  0.37777366  0.12256281  1
  Co  Co111  1  0.25478697  0.24954382  0.24971017  1
  Co  Co112  1  0.37815018  0.62481161  0.37361162  1
  Co  Co113  1  0.50079435  0.25183790  0.50315445  1
  Co  Co114  1  0.87219277  0.87577443  0.62250946  1
  Co  Co115  1  -0.00201057  0.25541560  0.75024164  1
  Co  Co116  1  -0.00383322  0.25162538  0.24880383  1
  Co  Co117  1  0.25051569  0.74473720  -0.00109770  1
  Co  Co118  1  0.62375464  0.12242847  0.12502371  1
  Co  Co119  1  0.50206210  -0.00460188  0.00042533  1
  Co  Co120  1  0.74945654  0.50309677  0.49575221  1
  Co  Co121  1  0.75104242  0.50042023  0.75454939  1
  Co  Co122  1  0.74897852  0.50033262  0.25134935  1
  Co  Co123  1  0.00096395  -0.00696004  0.74981340  1
  Co  Co124  1  0.12143038  0.62877195  0.87150938  1
  Co  Co125  1  0.62575458  0.37272506  0.37600903  1
  Co  Co126  1  0.62808182  0.87414393  0.37563665  1
  Co  Co127  1  0.12230136  0.12588925  0.62748914  1
