# generated using pymatgen
data_Fe45Co19
_symmetry_space_group_name_H-M   'P 1'
_cell_length_a   11.41485340
_cell_length_b   11.41469228
_cell_length_c   11.41614393
_cell_angle_alpha   90.00333839
_cell_angle_beta   90.00684226
_cell_angle_gamma   90.00541948
_symmetry_Int_Tables_number   1
_chemical_formula_structural   Fe45Co19
_chemical_formula_sum   'Fe90 Co38'
_cell_volume   1487.48973118
_cell_formula_units_Z   2
loop_
 _symmetry_equiv_pos_site_id
 _symmetry_equiv_pos_as_xyz
  1  'x, y, z'
loop_
 _atom_site_type_symbol
 _atom_site_label
 _atom_site_symmetry_multiplicity
 _atom_site_fract_x
 _atom_site_fract_y
 _atom_site_fract_z
 _atom_site_occupancy
  Fe  Fe0  1  0.87372113  0.62583188  0.62464750  1
  Fe  Fe1  1  0.74666876  0.74947899  0.24886271  1
  Fe  Fe2  1  0.25374060  0.75059419  0.25161055  1
  Fe  Fe3  1  0.00020330  0.50334316  0.75049865  1
  Fe  Fe4  1  0.74970387  0.00106888  0.24999697  1
  Fe  Fe5  1  0.12752829  0.62591473  0.12214000  1
  Fe  Fe6  1  0.24687291  0.25104608  0.74820345  1
  Fe  Fe7  1  0.24858902  0.25006989  0.50054544  1
  Fe  Fe8  1  0.87519504  0.87309692  0.12518575  1
  Fe  Fe9  1  0.87559409  0.87266439  0.37270582  1
  Fe  Fe10  1  0.75155751  0.24872895  0.74681910  1
  Fe  Fe11  1  0.49673193  0.74789949  0.49872215  1
  Fe  Fe12  1  -0.00128770  0.24696840  0.74934139  1
  Fe  Fe13  1  0.50205335  0.25022666  0.74996486  1
  Fe  Fe14  1  -0.00253510  0.24786289  -0.00053594  1
  Fe  Fe15  1  0.74961464  0.49808677  0.25096509  1
  Fe  Fe16  1  0.12100954  0.37689538  0.62295472  1
  Fe  Fe17  1  0.62532547  0.12686159  0.37849862  1
  Fe  Fe18  1  0.37574109  0.37772038  0.12642908  1
  Fe  Fe19  1  0.87509610  0.37276337  0.12571352  1
  Fe  Fe20  1  0.74914902  0.75173261  0.50063295  1
  Fe  Fe21  1  0.37319400  0.37836960  0.37278480  1
  Fe  Fe22  1  0.62475018  0.62405463  0.62469623  1
  Fe  Fe23  1  0.37545525  0.12465657  0.62670504  1
  Fe  Fe24  1  0.00252209  0.74988678  0.25004327  1
  Fe  Fe25  1  0.13097568  0.62632230  0.62665226  1
  Fe  Fe26  1  0.87289264  0.62805759  0.87767296  1
  Fe  Fe27  1  0.50090268  0.25062034  0.25153467  1
  Fe  Fe28  1  0.37622323  0.87725191  0.87426312  1
  Fe  Fe29  1  0.62070386  0.87463973  0.37291535  1
  Fe  Fe30  1  0.00161725  0.24766472  0.25108628  1
  Fe  Fe31  1  0.12092279  0.12017015  0.62214284  1
  Fe  Fe32  1  0.62220292  0.87497841  0.12658503  1
  Fe  Fe33  1  0.37546476  0.87484423  0.62657033  1
  Fe  Fe34  1  0.25331389  0.75329662  0.49831629  1
  Fe  Fe35  1  0.12573554  0.12437262  0.87645108  1
  Fe  Fe36  1  0.74753614  0.74879329  0.75043381  1
  Fe  Fe37  1  0.62690338  0.37854529  0.87648741  1
  Fe  Fe38  1  0.25109467  0.49785055  -0.00200160  1
  Fe  Fe39  1  0.37156370  0.62428003  0.87216870  1
  Fe  Fe40  1  0.87497730  0.87317040  0.87554972  1
  Fe  Fe41  1  0.00207850  0.75048814  0.49966137  1
  Fe  Fe42  1  0.12511688  0.11930726  0.37669091  1
  Fe  Fe43  1  0.62488852  0.62391385  0.37651287  1
  Fe  Fe44  1  0.87449713  0.62794928  0.12393457  1
  Fe  Fe45  1  0.62302766  0.87538874  0.62556778  1
  Fe  Fe46  1  0.62618927  0.37590035  0.62400769  1
  Fe  Fe47  1  0.49959437  0.00085529  0.50128393  1
  Fe  Fe48  1  0.49921708  0.50028769  0.75102563  1
  Fe  Fe49  1  0.62670756  0.12708256  0.12429570  1
  Fe  Fe50  1  0.75134673  0.00054575  0.00063671  1
  Fe  Fe51  1  0.75083223  -0.00199420  0.50147148  1
  Fe  Fe52  1  0.49956219  0.74679995  0.00000362  1
  Fe  Fe53  1  0.25118728  0.25068364  -0.00019770  1
  Fe  Fe54  1  0.87695002  0.12404823  0.37625508  1
  Fe  Fe55  1  0.00157914  0.50206207  0.24955674  1
  Fe  Fe56  1  0.49708620  0.50031591  0.49988719  1
  Fe  Fe57  1  0.12601212  0.12304226  0.12479973  1
  Fe  Fe58  1  0.49910250  0.25096081  -0.00149199  1
  Fe  Fe59  1  0.75395787  0.49749683  0.49988498  1
  Fe  Fe60  1  0.37751111  0.87615703  0.12754856  1
  Fe  Fe61  1  0.74996854  0.00198164  0.74784038  1
  Fe  Fe62  1  0.24790127  0.25057090  0.25075594  1
  Fe  Fe63  1  0.50019406  0.74854792  0.75035998  1
  Fe  Fe64  1  0.37321878  0.12237228  0.37477233  1
  Fe  Fe65  1  0.12547989  0.87603957  0.12593605  1
  Fe  Fe66  1  0.49920266  0.00238529  0.00008596  1
  Fe  Fe67  1  0.49824100  0.25120829  0.49985210  1
  Fe  Fe68  1  0.87446925  0.62574562  0.37425136  1
  Fe  Fe69  1  0.62383502  0.37685860  0.12263440  1
  Fe  Fe70  1  0.12402316  0.37497778  0.87542195  1
  Fe  Fe71  1  0.75503501  0.25280084  0.50188396  1
  Fe  Fe72  1  0.12856439  0.62463623  0.37622911  1
  Fe  Fe73  1  -0.00161422  0.50171988  -0.00022606  1
  Fe  Fe74  1  0.62588035  0.12455698  0.87441126  1
  Fe  Fe75  1  0.25067792  0.75127724  -0.00111454  1
  Fe  Fe76  1  0.87357449  0.37457086  0.87378534  1
  Fe  Fe77  1  0.37333099  0.12470350  0.12589985  1
  Fe  Fe78  1  0.12408345  0.37479157  0.12319782  1
  Fe  Fe79  1  0.12257518  0.37755599  0.37768564  1
  Fe  Fe80  1  0.74973925  0.25208655  0.25235841  1
  Fe  Fe81  1  0.37404698  0.12561356  0.87304096  1
  Fe  Fe82  1  0.37375103  0.37529361  0.62686553  1
  Fe  Fe83  1  0.87801316  0.87490636  0.62716325  1
  Fe  Fe84  1  0.62421303  0.87505168  0.87497468  1
  Fe  Fe85  1  -0.00177373  0.00071366  0.00059682  1
  Fe  Fe86  1  0.62389474  0.62275365  0.12214023  1
  Fe  Fe87  1  0.00295515  0.74868529  0.75151825  1
  Fe  Fe88  1  0.24862529  -0.00145631  0.74914086  1
  Fe  Fe89  1  0.12423833  0.87507184  0.87523750  1
  Co  Co90  1  0.12799374  0.62421779  0.87616919  1
  Co  Co91  1  0.87386924  0.12770842  0.12582289  1
  Co  Co92  1  0.37194642  0.62510396  0.62797349  1
  Co  Co93  1  0.87340843  0.12563873  0.87466774  1
  Co  Co94  1  0.12379429  0.87410051  0.62605743  1
  Co  Co95  1  0.12605649  0.87582214  0.37345103  1
  Co  Co96  1  -0.00061988  -0.00663178  0.49772253  1
  Co  Co97  1  0.00014169  0.50531300  0.50092079  1
  Co  Co98  1  0.88029014  0.37635292  0.37402354  1
  Co  Co99  1  0.62582588  0.62401176  0.87533354  1
  Co  Co100  1  0.74660553  0.75074536  0.00073909  1
  Co  Co101  1  0.87908489  0.37633878  0.62623523  1
  Co  Co102  1  0.24567431  0.49848389  0.24870359  1
  Co  Co103  1  -0.00116606  -0.00050250  0.24885905  1
  Co  Co104  1  0.49880077  0.74474902  0.24992170  1
  Co  Co105  1  0.24857015  0.49586228  0.75039862  1
  Co  Co106  1  0.00228915  0.75039958  0.00009447  1
  Co  Co107  1  0.75136799  0.50169598  0.74932381  1
  Co  Co108  1  0.00050353  -0.00014488  0.75307669  1
  Co  Co109  1  0.25161834  -0.00313981  0.50184165  1
  Co  Co110  1  0.37209715  0.62208872  0.12537123  1
  Co  Co111  1  0.62420026  0.37484765  0.37757442  1
  Co  Co112  1  0.50157323  0.00493807  0.24936988  1
  Co  Co113  1  -0.00021005  0.24929462  0.49923954  1
  Co  Co114  1  0.25049976  0.49828992  0.50217892  1
  Co  Co115  1  0.37960569  0.87761473  0.37198759  1
  Co  Co116  1  0.49633001  0.50136417  -0.00318395  1
  Co  Co117  1  0.74961547  0.25079748  -0.00124587  1
  Co  Co118  1  0.37284966  0.62096041  0.37347237  1
  Co  Co119  1  0.25093612  -0.00123939  0.24994569  1
  Co  Co120  1  0.25079243  -0.00060707  -0.00030937  1
  Co  Co121  1  0.62478117  0.12635154  0.62229689  1
  Co  Co122  1  0.24983396  0.75387648  0.75208511  1
  Co  Co123  1  0.50098787  0.00089466  0.74930088  1
  Co  Co124  1  0.87868812  0.12196442  0.62299878  1
  Co  Co125  1  0.50251298  0.50123166  0.25102445  1
  Co  Co126  1  0.37379629  0.37251490  0.87313455  1
  Co  Co127  1  0.75304117  0.50069820  0.00042864  1
