# generated using pymatgen
data_Fe45Co19
_symmetry_space_group_name_H-M   'P 1'
_cell_length_a   11.41531924
_cell_length_b   11.41574335
_cell_length_c   11.41475610
_cell_angle_alpha   90.00466813
_cell_angle_beta   89.99923201
_cell_angle_gamma   90.00226720
_symmetry_Int_Tables_number   1
_chemical_formula_structural   Fe45Co19
_chemical_formula_sum   'Fe90 Co38'
_cell_volume   1487.50656937
_cell_formula_units_Z   2
loop_
 _symmetry_equiv_pos_site_id
 _symmetry_equiv_pos_as_xyz
  1  'x, y, z'
loop_
 _atom_site_type_symbol
 _atom_site_label
 _atom_site_symmetry_multiplicity
 _atom_site_fract_x
 _atom_site_fract_y
 _atom_site_fract_z
 _atom_site_occupancy
  Fe  Fe0  1  0.12781620  0.37822112  0.62252230  1
  Fe  Fe1  1  0.87512065  0.37243795  0.37659324  1
  Fe  Fe2  1  0.50187983  0.75153062  0.74978812  1
  Fe  Fe3  1  0.12582811  0.62242452  0.62677728  1
  Fe  Fe4  1  0.87511182  0.37272758  0.12440775  1
  Fe  Fe5  1  0.75086530  0.50031291  0.49895517  1
  Fe  Fe6  1  0.37486297  0.37522819  0.87390254  1
  Fe  Fe7  1  0.25191117  0.50139619  0.00328356  1
  Fe  Fe8  1  0.49791308  0.00194404  -0.00241132  1
  Fe  Fe9  1  0.87550768  0.87000117  0.37780886  1
  Fe  Fe10  1  0.24694465  0.24986106  0.75003088  1
  Fe  Fe11  1  0.37348978  0.87664276  0.87328189  1
  Fe  Fe12  1  0.49723297  0.49968366  0.50092355  1
  Fe  Fe13  1  0.00125897  0.49954420  0.49759552  1
  Fe  Fe14  1  0.00310697  0.24960752  0.25159637  1
  Fe  Fe15  1  -0.00040347  0.75151701  0.75057469  1
  Fe  Fe16  1  0.62746070  0.87671510  0.87421446  1
  Fe  Fe17  1  0.24841735  0.74866371  0.49954263  1
  Fe  Fe18  1  0.50167902  0.75115797  -0.00072288  1
  Fe  Fe19  1  0.37307445  0.62181257  0.62879988  1
  Fe  Fe20  1  0.62667141  0.87453238  0.37699894  1
  Fe  Fe21  1  0.75709716  -0.00288924  0.74577045  1
  Fe  Fe22  1  -0.00137669  0.49960707  0.00185185  1
  Fe  Fe23  1  0.37443685  0.87609161  0.62585363  1
  Fe  Fe24  1  0.24865053  0.24822920  0.25138050  1
  Fe  Fe25  1  0.24923212  0.24890743  0.00030266  1
  Fe  Fe26  1  0.62466902  0.12445828  0.37674097  1
  Fe  Fe27  1  -0.00062990  0.49844561  0.75103301  1
  Fe  Fe28  1  0.12385691  0.37630595  0.87685190  1
  Fe  Fe29  1  0.74779356  0.24842504  0.24949291  1
  Fe  Fe30  1  0.75184255  0.00260987  0.25084229  1
  Fe  Fe31  1  0.49965377  0.74901284  0.50066192  1
  Fe  Fe32  1  0.11988579  0.12184944  0.62212341  1
  Fe  Fe33  1  0.75053067  0.25033284  0.74832183  1
  Fe  Fe34  1  0.87537052  0.12972117  0.37867150  1
  Fe  Fe35  1  0.49924965  -0.00050750  0.50083564  1
  Fe  Fe36  1  0.87594401  0.62714910  0.62352821  1
  Fe  Fe37  1  0.75191227  0.74952050  0.24724466  1
  Fe  Fe38  1  0.87603053  0.37257321  0.87575907  1
  Fe  Fe39  1  0.87734191  0.62682667  0.37384961  1
  Fe  Fe40  1  0.49947342  0.00059866  0.25088318  1
  Fe  Fe41  1  0.87924996  0.12730345  0.87213785  1
  Fe  Fe42  1  0.49985038  0.25089478  0.50035625  1
  Fe  Fe43  1  0.24729553  0.75054429  0.75085608  1
  Fe  Fe44  1  0.75282835  0.00294396  0.00111472  1
  Fe  Fe45  1  0.37341774  0.12471961  0.12479187  1
  Fe  Fe46  1  0.12281699  0.87591939  0.87687578  1
  Fe  Fe47  1  0.12360210  0.62485694  0.87573541  1
  Fe  Fe48  1  0.75035759  0.24696493  0.00082187  1
  Fe  Fe49  1  0.74804938  0.50032363  -0.00153639  1
  Fe  Fe50  1  0.12605536  0.62155655  0.36883374  1
  Fe  Fe51  1  0.12363197  0.62527904  0.12884117  1
  Fe  Fe52  1  0.62484070  0.37638685  0.62486929  1
  Fe  Fe53  1  0.75136019  0.49931418  0.24976497  1
  Fe  Fe54  1  0.12300624  0.12446155  0.87615234  1
  Fe  Fe55  1  0.25034627  0.74997639  0.00133674  1
  Fe  Fe56  1  0.50004071  0.24679481  -0.00167818  1
  Fe  Fe57  1  0.12204032  0.87730607  0.62208570  1
  Fe  Fe58  1  0.37382140  0.87522235  0.12464358  1
  Fe  Fe59  1  0.50022553  0.24905852  0.25076565  1
  Fe  Fe60  1  0.62566000  0.12373131  0.87230137  1
  Fe  Fe61  1  0.49940015  0.25053763  0.74961451  1
  Fe  Fe62  1  0.62708995  0.87862517  0.12505728  1
  Fe  Fe63  1  0.75382122  -0.00023458  0.50258959  1
  Fe  Fe64  1  0.62395892  0.37322279  0.12406918  1
  Fe  Fe65  1  0.25077583  0.00152822  0.25167314  1
  Fe  Fe66  1  0.37334492  0.62370488  0.36996730  1
  Fe  Fe67  1  0.12549497  0.87752555  0.12589715  1
  Fe  Fe68  1  0.62449922  0.62480947  0.12500632  1
  Fe  Fe69  1  0.62422883  0.62375953  0.37374899  1
  Fe  Fe70  1  0.37251532  0.37614859  0.37431475  1
  Fe  Fe71  1  0.12405180  0.37410783  0.12578738  1
  Fe  Fe72  1  0.62562259  0.12265087  0.62537760  1
  Fe  Fe73  1  0.75091457  0.75324096  0.74870081  1
  Fe  Fe74  1  0.37461924  0.12476217  0.62537777  1
  Fe  Fe75  1  -0.00132872  0.00226758  0.00177670  1
  Fe  Fe76  1  0.87608786  0.37251186  0.62319759  1
  Fe  Fe77  1  0.50080562  0.50002263  -0.00045818  1
  Fe  Fe78  1  -0.00330496  0.75100029  0.00492943  1
  Fe  Fe79  1  -0.00163324  0.00132273  0.25172270  1
  Fe  Fe80  1  0.74927110  0.49904764  0.75210560  1
  Fe  Fe81  1  0.37571136  0.62408068  0.87366149  1
  Fe  Fe82  1  0.37359804  0.87550208  0.37662192  1
  Fe  Fe83  1  0.24818238  0.24755239  0.49767205  1
  Fe  Fe84  1  0.87332258  0.62767341  0.87725090  1
  Fe  Fe85  1  0.62451099  0.37619160  0.37482418  1
  Fe  Fe86  1  0.24820490  0.00074340  0.75068216  1
  Fe  Fe87  1  0.12478475  0.87732330  0.37722816  1
  Fe  Fe88  1  0.62515194  0.62442438  0.62605240  1
  Fe  Fe89  1  0.50008625  0.75163238  0.24992082  1
  Co  Co90  1  0.62431642  0.87607025  0.62359012  1
  Co  Co91  1  0.00387002  0.25307721  0.74904042  1
  Co  Co92  1  0.62337266  0.12389414  0.12551429  1
  Co  Co93  1  0.62603879  0.62733309  0.87348334  1
  Co  Co94  1  0.74676578  0.25003886  0.50153468  1
  Co  Co95  1  -0.00599338  0.00096128  0.49862211  1
  Co  Co96  1  0.62490331  0.37174069  0.87558515  1
  Co  Co97  1  0.74716719  0.74815095  0.50033724  1
  Co  Co98  1  0.24978914  0.75301256  0.24992406  1
  Co  Co99  1  0.37246471  0.12595527  0.87350832  1
  Co  Co100  1  0.50136318  0.49721912  0.75080346  1
  Co  Co101  1  0.25281688  0.49795872  0.24356756  1
  Co  Co102  1  0.00066085  0.24926053  0.00091067  1
  Co  Co103  1  0.25076980  0.50330748  0.49810589  1
  Co  Co104  1  0.24861526  0.49902104  0.75381549  1
  Co  Co105  1  0.12379899  0.12120821  0.37733889  1
  Co  Co106  1  0.87478877  0.62311976  0.12475559  1
  Co  Co107  1  0.87873270  0.13015450  0.62411777  1
  Co  Co108  1  0.12603012  0.12370110  0.12490480  1
  Co  Co109  1  0.87351112  0.87829772  0.12542959  1
  Co  Co110  1  0.25248763  0.00105672  0.50086355  1
  Co  Co111  1  0.87746065  0.12713086  0.12725873  1
  Co  Co112  1  0.49883887  0.49857794  0.24765381  1
  Co  Co113  1  0.00635906  0.74580007  0.49807630  1
  Co  Co114  1  -0.00299343  -0.00250954  0.74977199  1
  Co  Co115  1  0.12836883  0.37871073  0.37360249  1
  Co  Co116  1  0.74927351  0.75052952  0.00315267  1
  Co  Co117  1  -0.00237944  0.49653314  0.24969561  1
  Co  Co118  1  0.37675168  0.62841233  0.12599501  1
  Co  Co119  1  0.37685406  0.37120660  0.12396432  1
  Co  Co120  1  0.00492557  0.25318312  0.49873479  1
  Co  Co121  1  -0.00063520  0.75264842  0.24827117  1
  Co  Co122  1  0.49878142  0.00070419  0.75085565  1
  Co  Co123  1  0.37635891  0.12447779  0.37529047  1
  Co  Co124  1  0.87565016  0.87372948  0.87876438  1
  Co  Co125  1  0.37094776  0.37498425  0.62496202  1
  Co  Co126  1  0.25053693  -0.00019861  -0.00139872  1
  Co  Co127  1  0.87963136  0.86906647  0.61969422  1
