# generated using pymatgen
data_Fe45Co19
_symmetry_space_group_name_H-M   'P 1'
_cell_length_a   11.41387596
_cell_length_b   11.41369259
_cell_length_c   11.41590341
_cell_angle_alpha   90.00201422
_cell_angle_beta   90.00070535
_cell_angle_gamma   89.99498694
_symmetry_Int_Tables_number   1
_chemical_formula_structural   Fe45Co19
_chemical_formula_sum   'Fe90 Co38'
_cell_volume   1487.20077534
_cell_formula_units_Z   2
loop_
 _symmetry_equiv_pos_site_id
 _symmetry_equiv_pos_as_xyz
  1  'x, y, z'
loop_
 _atom_site_type_symbol
 _atom_site_label
 _atom_site_symmetry_multiplicity
 _atom_site_fract_x
 _atom_site_fract_y
 _atom_site_fract_z
 _atom_site_occupancy
  Fe  Fe0  1  0.87745603  0.37530160  0.12218990  1
  Fe  Fe1  1  0.87238960  0.12444758  0.62783447  1
  Fe  Fe2  1  0.13053378  0.62035204  0.12574748  1
  Fe  Fe3  1  0.37504203  0.62595217  0.37666628  1
  Fe  Fe4  1  0.37503141  0.87779973  0.12560551  1
  Fe  Fe5  1  0.75068311  -0.00078621  -0.00038121  1
  Fe  Fe6  1  0.75006928  0.74750530  0.00045102  1
  Fe  Fe7  1  0.62318225  0.87532582  0.12386517  1
  Fe  Fe8  1  -0.00031362  0.24999965  0.24974376  1
  Fe  Fe9  1  0.49971790  0.50151018  0.25090214  1
  Fe  Fe10  1  0.74950297  0.75124220  0.50134789  1
  Fe  Fe11  1  0.50330908  0.74845589  0.74852662  1
  Fe  Fe12  1  0.74987158  0.49936314  0.24919716  1
  Fe  Fe13  1  -0.00015939  0.49860020  0.74760353  1
  Fe  Fe14  1  0.25099489  0.74986297  0.00015442  1
  Fe  Fe15  1  0.37561350  0.62446559  0.62553119  1
  Fe  Fe16  1  0.12534295  0.62563989  0.87163256  1
  Fe  Fe17  1  0.50573699  0.24644258  0.50141630  1
  Fe  Fe18  1  -0.00105954  0.00221265  -0.00244284  1
  Fe  Fe19  1  0.74854680  0.50088958  -0.00128437  1
  Fe  Fe20  1  0.49993762  0.00263711  0.25161474  1
  Fe  Fe21  1  0.62618861  0.37616613  0.62790951  1
  Fe  Fe22  1  0.12324368  0.87578967  0.87387916  1
  Fe  Fe23  1  0.62556745  0.87308399  0.87627299  1
  Fe  Fe24  1  0.00173620  0.49891855  0.24977392  1
  Fe  Fe25  1  0.00317153  0.50048150  0.00091932  1
  Fe  Fe26  1  0.37732312  0.37143711  0.87383954  1
  Fe  Fe27  1  0.75137711  0.25304692  -0.00358314  1
  Fe  Fe28  1  0.49832910  0.00442324  -0.00144133  1
  Fe  Fe29  1  0.25007314  0.75409588  0.50397301  1
  Fe  Fe30  1  0.25210405  0.00196871  -0.00284103  1
  Fe  Fe31  1  -0.00129594  0.75297923  0.74686444  1
  Fe  Fe32  1  0.87317095  0.12679397  0.12373618  1
  Fe  Fe33  1  0.49974524  0.74804431  0.24937506  1
  Fe  Fe34  1  0.87465672  0.37307692  0.37805086  1
  Fe  Fe35  1  0.37560780  0.12474468  0.62521699  1
  Fe  Fe36  1  0.62667206  0.12857296  0.87393765  1
  Fe  Fe37  1  0.74750933  0.49801965  0.75359139  1
  Fe  Fe38  1  0.24893364  0.49912810  0.50082569  1
  Fe  Fe39  1  0.74816328  0.50047684  0.49886898  1
  Fe  Fe40  1  0.12531894  0.87735222  0.37787408  1
  Fe  Fe41  1  0.37145375  0.37741418  0.12433877  1
  Fe  Fe42  1  0.12232315  0.37288857  0.37711838  1
  Fe  Fe43  1  0.12298758  0.37211448  0.87554785  1
  Fe  Fe44  1  0.62402768  0.37456476  0.12288291  1
  Fe  Fe45  1  0.87199218  0.62416129  0.62646213  1
  Fe  Fe46  1  0.37510069  0.62502213  0.87252423  1
  Fe  Fe47  1  0.12250555  0.12270815  0.62505722  1
  Fe  Fe48  1  0.62711826  0.12709462  0.12586982  1
  Fe  Fe49  1  0.24878836  0.75293034  0.74637859  1
  Fe  Fe50  1  0.24740981  0.24622985  0.50009760  1
  Fe  Fe51  1  0.50306463  0.75046926  0.50062123  1
  Fe  Fe52  1  0.49977458  0.50139574  -0.00191279  1
  Fe  Fe53  1  0.50083294  0.00229771  0.49776374  1
  Fe  Fe54  1  0.25098020  0.24851298  -0.00045112  1
  Fe  Fe55  1  0.25039743  -0.00082170  0.74787446  1
  Fe  Fe56  1  -0.00125330  0.75080833  0.50268535  1
  Fe  Fe57  1  -0.00334722  -0.00030946  0.25073379  1
  Fe  Fe58  1  0.12198084  0.37265954  0.62337926  1
  Fe  Fe59  1  0.37569483  0.37319920  0.62413287  1
  Fe  Fe60  1  0.74982627  0.75013981  0.24772116  1
  Fe  Fe61  1  0.12556257  0.62573353  0.37763036  1
  Fe  Fe62  1  0.50011930  0.00097155  0.75237704  1
  Fe  Fe63  1  0.87655847  0.87370133  0.12282566  1
  Fe  Fe64  1  0.37579229  0.87515564  0.87341886  1
  Fe  Fe65  1  0.25099296  0.75017148  0.24983812  1
  Fe  Fe66  1  0.25259227  0.00150052  0.25521337  1
  Fe  Fe67  1  -0.00072084  0.50100666  0.50147208  1
  Fe  Fe68  1  0.86969250  0.12551337  0.37258139  1
  Fe  Fe69  1  0.75312483  -0.00294651  0.75322788  1
  Fe  Fe70  1  -0.00440541  0.00063054  0.49850557  1
  Fe  Fe71  1  0.00175850  0.75042842  0.24863320  1
  Fe  Fe72  1  0.12564475  0.12547054  0.12622263  1
  Fe  Fe73  1  0.62629713  0.87761414  0.62574952  1
  Fe  Fe74  1  0.87553679  0.62550669  0.87460899  1
  Fe  Fe75  1  0.74774163  0.24759797  0.50222476  1
  Fe  Fe76  1  0.12665607  0.87843649  0.12434497  1
  Fe  Fe77  1  0.62531863  0.37362518  0.37408870  1
  Fe  Fe78  1  0.12436236  0.12632362  0.87214678  1
  Fe  Fe79  1  0.24921870  0.24992481  0.25234740  1
  Fe  Fe80  1  0.24960552  0.49689028  0.74939873  1
  Fe  Fe81  1  0.37625268  0.37226762  0.37781608  1
  Fe  Fe82  1  0.50149836  0.24971600  0.74932786  1
  Fe  Fe83  1  0.49801609  0.74804587  0.00142382  1
  Fe  Fe84  1  -0.00516085  0.25114121  0.75015726  1
  Fe  Fe85  1  0.62797988  0.87776988  0.37396583  1
  Fe  Fe86  1  0.00257875  0.74832072  0.00168839  1
  Fe  Fe87  1  0.87479183  0.62619495  0.37317256  1
  Fe  Fe88  1  0.50233733  0.50100388  0.50086755  1
  Fe  Fe89  1  0.49993405  0.24916202  0.24854348  1
  Co  Co90  1  0.24921275  0.25134423  0.74792735  1
  Co  Co91  1  0.00052418  0.24809241  0.00042700  1
  Co  Co92  1  0.37558628  0.87380489  0.37525172  1
  Co  Co93  1  0.75139300  -0.00301544  0.24639025  1
  Co  Co94  1  0.37244606  0.62149258  0.12522063  1
  Co  Co95  1  0.62419623  0.62402077  0.12499873  1
  Co  Co96  1  0.37280371  0.12362319  0.12701504  1
  Co  Co97  1  0.12565548  0.62433991  0.62550438  1
  Co  Co98  1  0.50000112  0.49968348  0.74939216  1
  Co  Co99  1  0.24963753  0.49887901  -0.00670423  1
  Co  Co100  1  0.87764094  0.37776926  0.87707924  1
  Co  Co101  1  0.87587657  0.62382276  0.12580246  1
  Co  Co102  1  0.87281450  0.37589783  0.62274563  1
  Co  Co103  1  0.12351506  0.12267778  0.37527321  1
  Co  Co104  1  0.37947244  0.87637529  0.62600653  1
  Co  Co105  1  0.87332541  0.12609363  0.87513945  1
  Co  Co106  1  0.87628580  0.87201474  0.87776807  1
  Co  Co107  1  0.87365962  0.87316319  0.37454298  1
  Co  Co108  1  0.25339174  0.00032844  0.50112892  1
  Co  Co109  1  0.62832753  0.12498796  0.37048301  1
  Co  Co110  1  0.49758842  0.24689376  0.00164419  1
  Co  Co111  1  0.75209562  0.25367055  0.75123273  1
  Co  Co112  1  0.62637339  0.62496218  0.37367079  1
  Co  Co113  1  0.24988855  0.49824579  0.25639145  1
  Co  Co114  1  0.74962513  0.75164653  0.74993612  1
  Co  Co115  1  0.37430779  0.12684080  0.87091316  1
  Co  Co116  1  -0.00361310  -0.00045942  0.75288721  1
  Co  Co117  1  0.62683930  0.62354221  0.62601344  1
  Co  Co118  1  0.62696521  0.12213699  0.63037225  1
  Co  Co119  1  0.62106494  0.37222041  0.87545403  1
  Co  Co120  1  0.12187738  0.88047923  0.62341562  1
  Co  Co121  1  0.74990057  0.00177848  0.50028351  1
  Co  Co122  1  0.62449138  0.62622538  0.87527690  1
  Co  Co123  1  0.37683811  0.12854777  0.37719441  1
  Co  Co124  1  0.87400386  0.87655717  0.62486986  1
  Co  Co125  1  0.12758466  0.37446589  0.12427395  1
  Co  Co126  1  -0.00314266  0.24651475  0.50056972  1
  Co  Co127  1  0.75118490  0.25415715  0.24859879  1
