# generated using pymatgen
data_Fe45Co19
_symmetry_space_group_name_H-M   'P 1'
_cell_length_a   11.41615176
_cell_length_b   11.41680866
_cell_length_c   11.41565206
_cell_angle_alpha   90.00640885
_cell_angle_beta   89.99545902
_cell_angle_gamma   89.99781899
_symmetry_Int_Tables_number   1
_chemical_formula_structural   Fe45Co19
_chemical_formula_sum   'Fe90 Co38'
_cell_volume   1487.87064307
_cell_formula_units_Z   2
loop_
 _symmetry_equiv_pos_site_id
 _symmetry_equiv_pos_as_xyz
  1  'x, y, z'
loop_
 _atom_site_type_symbol
 _atom_site_label
 _atom_site_symmetry_multiplicity
 _atom_site_fract_x
 _atom_site_fract_y
 _atom_site_fract_z
 _atom_site_occupancy
  Fe  Fe0  1  0.49915265  -0.00054772  0.00084313  1
  Fe  Fe1  1  0.87277995  0.12498259  0.87449044  1
  Fe  Fe2  1  0.74688910  -0.00117955  0.00031579  1
  Fe  Fe3  1  0.74748960  0.74804226  0.49433870  1
  Fe  Fe4  1  0.25359211  -0.00071795  0.49925845  1
  Fe  Fe5  1  0.87461392  0.37457980  0.62533302  1
  Fe  Fe6  1  0.25073243  0.24947987  0.00051653  1
  Fe  Fe7  1  0.25092865  0.75192496  0.00118518  1
  Fe  Fe8  1  0.74620077  0.24968487  0.24811308  1
  Fe  Fe9  1  0.12506954  0.37479981  0.87526372  1
  Fe  Fe10  1  0.12401360  0.87340939  0.62277864  1
  Fe  Fe11  1  0.49932628  0.00179464  0.49995756  1
  Fe  Fe12  1  0.12360127  0.62761062  0.62345757  1
  Fe  Fe13  1  0.37713036  0.37512892  0.87481689  1
  Fe  Fe14  1  0.37547091  0.12966006  0.37341197  1
  Fe  Fe15  1  0.87473825  0.87162292  0.87660557  1
  Fe  Fe16  1  0.62293736  0.12548064  0.37364956  1
  Fe  Fe17  1  0.37521891  0.12766136  0.62740158  1
  Fe  Fe18  1  0.25256964  0.74943549  0.25232904  1
  Fe  Fe19  1  0.37865292  0.87397948  0.37278671  1
  Fe  Fe20  1  -0.00024969  0.49916133  0.25069941  1
  Fe  Fe21  1  0.37702239  0.62338637  0.62165328  1
  Fe  Fe22  1  0.37837581  0.12915375  0.12769057  1
  Fe  Fe23  1  0.62035759  0.87394270  0.87241850  1
  Fe  Fe24  1  0.12529770  0.62545822  0.12646384  1
  Fe  Fe25  1  0.12632059  0.87397239  0.87468109  1
  Fe  Fe26  1  0.00007177  0.24695368  0.49825425  1
  Fe  Fe27  1  0.12655046  0.12378769  0.62416986  1
  Fe  Fe28  1  -0.00018608  0.75079322  0.25447293  1
  Fe  Fe29  1  0.25427935  -0.00038394  0.00056444  1
  Fe  Fe30  1  -0.00108716  -0.00169200  0.00076421  1
  Fe  Fe31  1  0.24974315  0.49879021  0.25150650  1
  Fe  Fe32  1  0.87544433  0.37305564  0.37448959  1
  Fe  Fe33  1  0.25121504  0.50011191  -0.00001281  1
  Fe  Fe34  1  0.00003299  0.24876025  0.00154224  1
  Fe  Fe35  1  0.87482548  0.87372080  0.12677646  1
  Fe  Fe36  1  0.37593813  0.62412801  0.12574638  1
  Fe  Fe37  1  0.37288632  0.37584978  0.62467511  1
  Fe  Fe38  1  -0.00069272  0.50130010  0.00156938  1
  Fe  Fe39  1  0.74800091  0.74862856  0.74994630  1
  Fe  Fe40  1  0.37833402  0.87224756  0.62517052  1
  Fe  Fe41  1  0.49921674  0.75081380  0.00245691  1
  Fe  Fe42  1  0.49787570  0.49682356  0.24996511  1
  Fe  Fe43  1  0.37958404  0.12674973  0.87246966  1
  Fe  Fe44  1  0.75277640  0.50052088  0.25008164  1
  Fe  Fe45  1  0.50476133  0.25423363  0.00357085  1
  Fe  Fe46  1  0.25336448  -0.00097108  0.75026603  1
  Fe  Fe47  1  0.37709502  0.62596609  0.87568137  1
  Fe  Fe48  1  0.74921581  0.50315946  0.75156268  1
  Fe  Fe49  1  0.24943286  0.50035813  0.74964253  1
  Fe  Fe50  1  0.74994111  0.50098514  0.49930476  1
  Fe  Fe51  1  -0.00099728  0.50198204  0.75068175  1
  Fe  Fe52  1  0.87403047  0.62885991  0.12374365  1
  Fe  Fe53  1  0.62413310  0.12649902  0.62811941  1
  Fe  Fe54  1  0.50278078  0.50234829  0.74962168  1
  Fe  Fe55  1  0.62634414  0.37660490  0.37525633  1
  Fe  Fe56  1  0.12574953  0.12454063  0.87547142  1
  Fe  Fe57  1  0.00139821  0.50147005  0.49724564  1
  Fe  Fe58  1  0.49995406  0.25245660  0.50053600  1
  Fe  Fe59  1  0.50237681  0.74623587  0.49530123  1
  Fe  Fe60  1  0.12689886  0.87665002  0.12676210  1
  Fe  Fe61  1  0.37095269  0.37420053  0.37613366  1
  Fe  Fe62  1  0.74965716  0.00189646  0.49888460  1
  Fe  Fe63  1  0.87532189  0.87305517  0.62200728  1
  Fe  Fe64  1  0.62300260  0.87297791  0.62343713  1
  Fe  Fe65  1  -0.00088853  -0.00190679  0.75006495  1
  Fe  Fe66  1  0.87384135  0.37310994  0.12462921  1
  Fe  Fe67  1  0.74871543  0.49997257  -0.00118097  1
  Fe  Fe68  1  0.87319506  0.12459506  0.12588262  1
  Fe  Fe69  1  0.62724124  0.37545510  0.62702450  1
  Fe  Fe70  1  0.00457067  0.24776015  0.25061762  1
  Fe  Fe71  1  0.87561624  0.62728829  0.62210023  1
  Fe  Fe72  1  0.25182935  0.75025756  0.74921321  1
  Fe  Fe73  1  0.00109435  0.00165923  0.25274129  1
  Fe  Fe74  1  0.12409522  0.62673004  0.87525309  1
  Fe  Fe75  1  0.12671129  0.37467018  0.12404034  1
  Fe  Fe76  1  0.87471758  0.62979043  0.87900641  1
  Fe  Fe77  1  0.74559850  0.74993502  0.25285776  1
  Fe  Fe78  1  0.25073036  0.74816370  0.49646822  1
  Fe  Fe79  1  0.25277346  0.00219922  0.24980634  1
  Fe  Fe80  1  0.74779687  -0.00004744  0.25152156  1
  Fe  Fe81  1  -0.00066930  0.24911494  0.74892511  1
  Fe  Fe82  1  0.12672320  0.37425813  0.62389663  1
  Fe  Fe83  1  0.74493857  0.24925704  0.00031054  1
  Fe  Fe84  1  -0.00190217  -0.00018715  0.49594605  1
  Fe  Fe85  1  0.62358732  0.62198812  0.12479822  1
  Fe  Fe86  1  0.74863573  0.00030999  0.74936336  1
  Fe  Fe87  1  0.87353665  0.37407847  0.87477870  1
  Fe  Fe88  1  0.75134835  0.24809693  0.50117626  1
  Fe  Fe89  1  0.62016647  0.87725708  0.12946957  1
  Co  Co90  1  0.37585926  0.87432248  0.12815550  1
  Co  Co91  1  0.62649779  0.38035301  0.12572835  1
  Co  Co92  1  0.62189954  0.87811628  0.37537679  1
  Co  Co93  1  0.12638003  0.37479597  0.37678414  1
  Co  Co94  1  0.49921990  0.49841386  0.00050456  1
  Co  Co95  1  0.25085072  0.24921798  0.50124289  1
  Co  Co96  1  0.87244732  0.12597926  0.37237429  1
  Co  Co97  1  0.62511374  0.62507133  0.62215304  1
  Co  Co98  1  0.87442289  0.62428151  0.37500332  1
  Co  Co99  1  0.24803952  0.50204239  0.50037506  1
  Co  Co100  1  0.75106910  0.24852775  0.74958607  1
  Co  Co101  1  0.62286267  0.12228736  0.12682754  1
  Co  Co102  1  0.37709350  0.62146276  0.37568032  1
  Co  Co103  1  0.74487320  0.75407698  0.00319386  1
  Co  Co104  1  0.49729823  0.00190047  0.25224523  1
  Co  Co105  1  0.49899011  -0.00117580  0.74644207  1
  Co  Co106  1  0.00033377  0.75067037  0.49508232  1
  Co  Co107  1  0.62501870  0.37549446  0.87291873  1
  Co  Co108  1  0.62218360  0.12473621  0.87299697  1
  Co  Co109  1  0.50277418  0.25502411  0.24996969  1
  Co  Co110  1  0.62339769  0.62676427  0.87849324  1
  Co  Co111  1  0.50090147  0.49623068  0.50077273  1
  Co  Co112  1  0.00300338  0.75166350  0.00196875  1
  Co  Co113  1  -0.00148388  0.75024993  0.75024389  1
  Co  Co114  1  0.87557307  0.12333006  0.62565284  1
  Co  Co115  1  0.12860237  0.12303133  0.37776720  1
  Co  Co116  1  0.12586091  0.62471031  0.37398704  1
  Co  Co117  1  0.50168661  0.74717758  0.25123406  1
  Co  Co118  1  0.37725059  0.87368372  0.87346262  1
  Co  Co119  1  0.62324581  0.61890963  0.37337325  1
  Co  Co120  1  0.24656025  0.24917653  0.24886451  1
  Co  Co121  1  0.12852269  0.87657902  0.37481810  1
  Co  Co122  1  0.87216027  0.87614605  0.37498220  1
  Co  Co123  1  0.37246480  0.37404984  0.12549552  1
  Co  Co124  1  0.50056532  0.25304210  0.74748128  1
  Co  Co125  1  0.24980146  0.25022909  0.75087459  1
  Co  Co126  1  0.12609743  0.12254189  0.12278970  1
  Co  Co127  1  0.50010365  0.74670450  0.74808837  1
