# generated using pymatgen
data_Fe45Co19
_symmetry_space_group_name_H-M   'P 1'
_cell_length_a   11.41465199
_cell_length_b   11.41396451
_cell_length_c   11.41428924
_cell_angle_alpha   90.00256661
_cell_angle_beta   90.01082497
_cell_angle_gamma   90.00290252
_symmetry_Int_Tables_number   1
_chemical_formula_structural   Fe45Co19
_chemical_formula_sum   'Fe90 Co38'
_cell_volume   1487.12699758
_cell_formula_units_Z   2
loop_
 _symmetry_equiv_pos_site_id
 _symmetry_equiv_pos_as_xyz
  1  'x, y, z'
loop_
 _atom_site_type_symbol
 _atom_site_label
 _atom_site_symmetry_multiplicity
 _atom_site_fract_x
 _atom_site_fract_y
 _atom_site_fract_z
 _atom_site_occupancy
  Fe  Fe0  1  0.86971438  0.37203247  0.87038077  1
  Fe  Fe1  1  0.12594500  0.87577755  0.62617907  1
  Fe  Fe2  1  -0.00315904  0.25016760  0.25155865  1
  Fe  Fe3  1  0.74610028  0.49826282  0.50373127  1
  Fe  Fe4  1  0.12732555  0.37357065  0.12469158  1
  Fe  Fe5  1  0.62677599  0.87433975  0.87257894  1
  Fe  Fe6  1  0.87589367  0.62288490  0.12222174  1
  Fe  Fe7  1  0.24849978  0.49944205  0.25295472  1
  Fe  Fe8  1  0.24946110  0.00143023  0.25269027  1
  Fe  Fe9  1  0.87292080  0.87816531  0.12283412  1
  Fe  Fe10  1  0.62881116  0.87349683  0.37660076  1
  Fe  Fe11  1  0.37747151  0.12312537  0.38103369  1
  Fe  Fe12  1  0.87459785  0.12408357  0.12285877  1
  Fe  Fe13  1  0.62260512  0.62436840  0.87003905  1
  Fe  Fe14  1  0.25177038  0.24941816  0.25203106  1
  Fe  Fe15  1  0.37121778  0.37095601  0.87556265  1
  Fe  Fe16  1  0.24949728  0.74909157  -0.00114214  1
  Fe  Fe17  1  0.87325716  0.37510404  0.12422745  1
  Fe  Fe18  1  0.74987037  0.49909146  0.24975475  1
  Fe  Fe19  1  0.62437116  0.12966156  0.87445747  1
  Fe  Fe20  1  0.74919049  0.00296875  0.74864056  1
  Fe  Fe21  1  0.50305148  0.00075245  0.25353168  1
  Fe  Fe22  1  0.00086224  0.49663328  -0.00394349  1
  Fe  Fe23  1  0.75260155  0.74911740  0.25047189  1
  Fe  Fe24  1  -0.00113450  0.75045214  0.50125486  1
  Fe  Fe25  1  0.87404977  0.62276827  0.37680488  1
  Fe  Fe26  1  0.50328078  0.00093168  -0.00060162  1
  Fe  Fe27  1  -0.00168477  0.75209797  -0.00238675  1
  Fe  Fe28  1  -0.00209924  0.75119120  0.24953271  1
  Fe  Fe29  1  0.75248733  0.74650170  0.74982732  1
  Fe  Fe30  1  0.50031881  0.25114068  0.00118872  1
  Fe  Fe31  1  0.25013447  0.74691962  0.50242006  1
  Fe  Fe32  1  0.87292503  0.87623157  0.62458224  1
  Fe  Fe33  1  0.50127618  0.49909034  0.25280674  1
  Fe  Fe34  1  0.50108551  0.74972470  0.50127905  1
  Fe  Fe35  1  0.12161953  0.12545430  0.37601557  1
  Fe  Fe36  1  0.25263993  0.74902522  0.74826061  1
  Fe  Fe37  1  0.13037361  0.36897585  0.87304434  1
  Fe  Fe38  1  0.87681579  0.12427066  0.87241151  1
  Fe  Fe39  1  0.49999167  0.25135095  0.25291371  1
  Fe  Fe40  1  -0.00005547  0.49711925  0.75135417  1
  Fe  Fe41  1  0.50020247  -0.00021879  0.74965266  1
  Fe  Fe42  1  0.62716038  0.37165902  0.12583968  1
  Fe  Fe43  1  0.37525389  0.87757531  0.12434618  1
  Fe  Fe44  1  0.12451145  0.62600694  0.37544801  1
  Fe  Fe45  1  0.37634951  0.62508433  0.87403059  1
  Fe  Fe46  1  0.62318178  0.37546649  0.62955517  1
  Fe  Fe47  1  0.37526001  0.87711595  0.87530923  1
  Fe  Fe48  1  0.37411737  0.37866546  0.38109231  1
  Fe  Fe49  1  0.62561825  0.62460727  0.12434557  1
  Fe  Fe50  1  0.12248802  0.12606159  0.62774734  1
  Fe  Fe51  1  -0.00006991  0.25044273  -0.00219417  1
  Fe  Fe52  1  0.00086357  0.49707315  0.25206267  1
  Fe  Fe53  1  0.12350207  0.87680038  0.37670909  1
  Fe  Fe54  1  0.87082711  0.37255008  0.37674969  1
  Fe  Fe55  1  0.75074775  0.74942878  -0.00312463  1
  Fe  Fe56  1  0.87617456  0.62117754  0.62548684  1
  Fe  Fe57  1  0.37475514  0.88023581  0.62299287  1
  Fe  Fe58  1  0.25190987  0.00658857  0.75044776  1
  Fe  Fe59  1  0.12404010  0.87852952  0.87267153  1
  Fe  Fe60  1  0.37368739  0.87611637  0.37789821  1
  Fe  Fe61  1  0.74785491  0.49787598  -0.00427603  1
  Fe  Fe62  1  0.00257413  0.49770097  0.49949245  1
  Fe  Fe63  1  0.25093621  0.49952546  0.74865370  1
  Fe  Fe64  1  -0.00282260  0.75145605  0.75075972  1
  Fe  Fe65  1  0.25105277  0.74939883  0.25045734  1
  Fe  Fe66  1  0.12534523  0.87751502  0.12492123  1
  Fe  Fe67  1  0.12290277  0.12602786  0.12574714  1
  Fe  Fe68  1  0.49885815  0.74985621  0.25046384  1
  Fe  Fe69  1  0.62815320  0.13058985  0.37924396  1
  Fe  Fe70  1  0.74988758  0.00497789  0.25119373  1
  Fe  Fe71  1  0.24873185  0.00629233  -0.00281216  1
  Fe  Fe72  1  0.37802289  0.12412686  0.12600080  1
  Fe  Fe73  1  0.87484772  0.87974966  0.37752119  1
  Fe  Fe74  1  0.50068420  0.75049674  -0.00036239  1
  Fe  Fe75  1  0.12343812  0.62304395  0.12405441  1
  Fe  Fe76  1  0.49458589  0.25145595  0.74648210  1
  Fe  Fe77  1  0.37238644  0.37517386  0.12409525  1
  Fe  Fe78  1  -0.00261269  0.25119761  0.50140843  1
  Fe  Fe79  1  0.62684077  0.87646001  0.12529496  1
  Fe  Fe80  1  0.12622206  0.37367699  0.62589125  1
  Fe  Fe81  1  0.25204367  0.24846452  0.50356876  1
  Fe  Fe82  1  0.37943639  0.61974018  0.62334587  1
  Fe  Fe83  1  0.87619029  0.12644224  0.62380925  1
  Fe  Fe84  1  0.62615891  0.62605861  0.37579838  1
  Fe  Fe85  1  0.62721604  0.87281806  0.62499605  1
  Fe  Fe86  1  0.37465092  0.62319950  0.12463993  1
  Fe  Fe87  1  0.62100301  0.12625787  0.62209618  1
  Fe  Fe88  1  0.12409779  0.62524076  0.87286907  1
  Fe  Fe89  1  0.50082626  0.49693337  -0.00308607  1
  Co  Co90  1  0.74741435  0.00347527  -0.00238093  1
  Co  Co91  1  0.24563015  0.00264617  0.50062028  1
  Co  Co92  1  0.12587110  0.37074594  0.37705712  1
  Co  Co93  1  0.74954558  0.25343678  0.50619152  1
  Co  Co94  1  -0.00120852  0.00119105  0.25013726  1
  Co  Co95  1  0.37396064  0.37914435  0.62103551  1
  Co  Co96  1  0.75004398  0.24745466  0.74537117  1
  Co  Co97  1  0.87627429  0.37715343  0.62611409  1
  Co  Co98  1  0.87398720  0.12605411  0.37998159  1
  Co  Co99  1  0.12128346  0.62473416  0.62780679  1
  Co  Co100  1  0.38056335  0.12092486  0.61985950  1
  Co  Co101  1  0.75131262  0.24878556  -0.00034218  1
  Co  Co102  1  0.24949923  0.24439810  0.00093777  1
  Co  Co103  1  0.62262456  0.62571436  0.62847135  1
  Co  Co104  1  0.87610550  0.62266051  0.87441197  1
  Co  Co105  1  0.24508295  0.50243639  0.50144312  1
  Co  Co106  1  0.50518899  -0.00384660  0.49819898  1
  Co  Co107  1  0.25569988  0.24540569  0.74537313  1
  Co  Co108  1  0.62686933  0.36934267  0.87162347  1
  Co  Co109  1  0.37959827  0.12713984  0.87565222  1
  Co  Co110  1  0.74912652  0.50077745  0.74941894  1
  Co  Co111  1  -0.00180959  0.25281798  0.74955386  1
  Co  Co112  1  0.74901864  0.00169376  0.50216368  1
  Co  Co113  1  0.50687809  0.49839858  0.49855960  1
  Co  Co114  1  0.37588842  0.62280876  0.37747533  1
  Co  Co115  1  0.87287784  0.87938070  0.87395604  1
  Co  Co116  1  -0.00143833  -0.00107733  0.74691643  1
  Co  Co117  1  0.62928238  0.37177467  0.37242740  1
  Co  Co118  1  0.24957027  0.50067948  -0.00187136  1
  Co  Co119  1  0.49694549  0.75304637  0.74770869  1
  Co  Co120  1  0.62339356  0.12788043  0.12481527  1
  Co  Co121  1  0.00025873  0.00001820  0.50304928  1
  Co  Co122  1  0.12064858  0.12716308  0.87093005  1
  Co  Co123  1  0.75156647  0.74808425  0.50129491  1
  Co  Co124  1  0.50071969  0.25497254  0.50056716  1
  Co  Co125  1  0.75244100  0.24719812  0.24826594  1
  Co  Co126  1  0.49796962  0.49547818  0.75374115  1
  Co  Co127  1  0.00054463  -0.00000050  -0.00052441  1
