# generated using pymatgen
data_Fe45Co19
_symmetry_space_group_name_H-M   'P 1'
_cell_length_a   11.41560997
_cell_length_b   11.41571976
_cell_length_c   11.41503623
_cell_angle_alpha   90.00441002
_cell_angle_beta   89.99911563
_cell_angle_gamma   89.99788494
_symmetry_Int_Tables_number   1
_chemical_formula_structural   Fe45Co19
_chemical_formula_sum   'Fe90 Co38'
_cell_volume   1487.57788556
_cell_formula_units_Z   2
loop_
 _symmetry_equiv_pos_site_id
 _symmetry_equiv_pos_as_xyz
  1  'x, y, z'
loop_
 _atom_site_type_symbol
 _atom_site_label
 _atom_site_symmetry_multiplicity
 _atom_site_fract_x
 _atom_site_fract_y
 _atom_site_fract_z
 _atom_site_occupancy
  Fe  Fe0  1  0.87415475  0.87640805  0.87680674  1
  Fe  Fe1  1  0.62613004  0.12494243  0.12693704  1
  Fe  Fe2  1  -0.00081256  -0.00013844  0.25032230  1
  Fe  Fe3  1  0.62535232  0.62740694  0.12484825  1
  Fe  Fe4  1  0.24745092  0.00096143  -0.00180495  1
  Fe  Fe5  1  0.12378119  0.62638982  0.62848707  1
  Fe  Fe6  1  0.00006714  0.49907777  0.24954164  1
  Fe  Fe7  1  0.12529675  0.87445139  0.63037214  1
  Fe  Fe8  1  0.25157515  0.25105135  0.24934569  1
  Fe  Fe9  1  0.62741629  0.62980441  0.87462047  1
  Fe  Fe10  1  0.50287534  0.49864544  -0.00009581  1
  Fe  Fe11  1  0.24714951  0.25039540  0.49947584  1
  Fe  Fe12  1  0.50167460  0.49954476  0.75030127  1
  Fe  Fe13  1  0.24760526  0.00083881  0.50125655  1
  Fe  Fe14  1  0.75179249  -0.00017173  0.24961870  1
  Fe  Fe15  1  0.12591601  0.87404309  0.37320463  1
  Fe  Fe16  1  0.75171550  0.75047726  0.49968077  1
  Fe  Fe17  1  0.75128098  0.50056893  0.25146477  1
  Fe  Fe18  1  0.87301796  0.37353757  0.12323336  1
  Fe  Fe19  1  0.12243520  0.12555918  0.62627797  1
  Fe  Fe20  1  -0.00615605  0.25079021  0.75288446  1
  Fe  Fe21  1  0.87515558  0.37592493  0.37715495  1
  Fe  Fe22  1  -0.00143080  0.49614188  -0.00371807  1
  Fe  Fe23  1  0.37664856  0.12558523  0.87501302  1
  Fe  Fe24  1  0.37623674  0.62484857  0.87510858  1
  Fe  Fe25  1  0.74998536  0.50174167  -0.00178943  1
  Fe  Fe26  1  0.25005456  0.24820767  0.75112657  1
  Fe  Fe27  1  0.49759836  0.00082645  0.74740022  1
  Fe  Fe28  1  0.12617825  0.37252220  0.12427548  1
  Fe  Fe29  1  0.50217893  0.50039950  0.49936734  1
  Fe  Fe30  1  0.12400100  0.62562450  0.12519898  1
  Fe  Fe31  1  0.12149000  0.12539998  0.87483554  1
  Fe  Fe32  1  0.49901582  -0.00120134  0.25172911  1
  Fe  Fe33  1  0.62294956  0.12567183  0.62568843  1
  Fe  Fe34  1  0.12534880  0.87337932  0.87112924  1
  Fe  Fe35  1  0.24726705  0.49978046  0.50075622  1
  Fe  Fe36  1  -0.00239581  0.75176240  -0.00089147  1
  Fe  Fe37  1  -0.00043884  0.50060945  0.50017307  1
  Fe  Fe38  1  0.25106410  -0.00141420  0.24993737  1
  Fe  Fe39  1  0.75270848  0.00192180  0.74997009  1
  Fe  Fe40  1  0.37546135  0.87541774  0.12328352  1
  Fe  Fe41  1  0.75244327  0.24981587  0.50152845  1
  Fe  Fe42  1  0.62714130  0.37360423  0.37357300  1
  Fe  Fe43  1  0.37494443  0.62214938  0.12714407  1
  Fe  Fe44  1  0.62624718  0.37422876  0.12851002  1
  Fe  Fe45  1  0.62521562  0.87666986  0.37754264  1
  Fe  Fe46  1  0.62767902  0.62468291  0.62585144  1
  Fe  Fe47  1  0.87291691  0.62306330  0.62605844  1
  Fe  Fe48  1  0.37405336  0.37368329  0.87492015  1
  Fe  Fe49  1  -0.00324865  0.75175276  0.25060224  1
  Fe  Fe50  1  0.37502565  0.62604946  0.62334282  1
  Fe  Fe51  1  0.62688876  0.12659232  0.87253104  1
  Fe  Fe52  1  0.50330872  -0.00000764  0.00018941  1
  Fe  Fe53  1  0.62924722  0.37476708  0.62765474  1
  Fe  Fe54  1  0.62718470  0.62552025  0.37528593  1
  Fe  Fe55  1  0.37486754  0.87557141  0.87501996  1
  Fe  Fe56  1  0.37188004  0.62550916  0.37440444  1
  Fe  Fe57  1  -0.00023106  0.75058566  0.50028505  1
  Fe  Fe58  1  0.37409056  0.12343153  0.37674253  1
  Fe  Fe59  1  0.37517798  0.12552148  0.12265144  1
  Fe  Fe60  1  0.12279068  0.37407691  0.37430434  1
  Fe  Fe61  1  0.12505305  0.62596893  0.37300823  1
  Fe  Fe62  1  0.50191711  0.25154854  0.00061618  1
  Fe  Fe63  1  0.24972048  0.50128609  0.74976954  1
  Fe  Fe64  1  0.37388121  0.87394236  0.62230595  1
  Fe  Fe65  1  0.12406153  0.12619617  0.12429732  1
  Fe  Fe66  1  0.87583197  0.62493544  0.12407767  1
  Fe  Fe67  1  0.87540591  0.12283924  0.11819853  1
  Fe  Fe68  1  -0.00293401  0.24809233  0.25050706  1
  Fe  Fe69  1  0.25060941  0.74916835  -0.00021206  1
  Fe  Fe70  1  0.62579889  0.87273873  0.12426029  1
  Fe  Fe71  1  0.24879782  0.49843684  0.00012211  1
  Fe  Fe72  1  0.87695076  0.12107225  0.37882761  1
  Fe  Fe73  1  0.49887373  0.25031772  0.24960077  1
  Fe  Fe74  1  0.49934944  0.75010385  0.74853103  1
  Fe  Fe75  1  0.62543030  0.12469652  0.37538775  1
  Fe  Fe76  1  0.75470435  0.75164920  0.25043929  1
  Fe  Fe77  1  0.87618732  0.87823672  0.62211300  1
  Fe  Fe78  1  0.37487143  0.37392588  0.62623351  1
  Fe  Fe79  1  0.12418973  0.87466866  0.12510177  1
  Fe  Fe80  1  0.87966937  0.12159857  0.62090559  1
  Fe  Fe81  1  0.37556189  0.37772379  0.37342911  1
  Fe  Fe82  1  0.12282398  0.62615049  0.87342608  1
  Fe  Fe83  1  0.49764605  0.75069629  0.25197066  1
  Fe  Fe84  1  0.49994488  0.25002758  0.50090941  1
  Fe  Fe85  1  0.62524420  0.87254041  0.87525151  1
  Fe  Fe86  1  -0.00482301  0.49806544  0.75384257  1
  Fe  Fe87  1  0.12180547  0.37411714  0.62737993  1
  Fe  Fe88  1  0.62420521  0.87554191  0.62305082  1
  Fe  Fe89  1  0.62993042  0.37123803  0.87094269  1
  Co  Co90  1  0.87436298  0.12429166  0.88231325  1
  Co  Co91  1  0.87520607  0.87810771  0.12381219  1
  Co  Co92  1  0.86834155  0.37116253  0.87645728  1
  Co  Co93  1  0.74670897  0.24873019  0.00266651  1
  Co  Co94  1  0.49785775  0.74922796  0.00086984  1
  Co  Co95  1  0.00773839  -0.00273219  0.49885655  1
  Co  Co96  1  0.75452798  0.24712609  0.25107520  1
  Co  Co97  1  0.87494011  0.87818967  0.37802358  1
  Co  Co98  1  0.87416506  0.37798341  0.62397187  1
  Co  Co99  1  0.24605627  0.74978483  0.50122494  1
  Co  Co100  1  0.25089703  0.00213565  0.74980373  1
  Co  Co101  1  0.25251331  0.74791476  0.75071771  1
  Co  Co102  1  0.00346776  -0.00226323  -0.00142799  1
  Co  Co103  1  0.50151469  0.74791625  0.49892456  1
  Co  Co104  1  0.37566714  0.37671199  0.12439144  1
  Co  Co105  1  0.75694151  0.24436570  0.74571948  1
  Co  Co106  1  0.37394370  0.12745333  0.62397529  1
  Co  Co107  1  -0.00424909  0.75107527  0.74911511  1
  Co  Co108  1  0.24933043  0.24899640  -0.00105904  1
  Co  Co109  1  0.49911384  0.25049248  0.74951763  1
  Co  Co110  1  0.74771870  0.00193711  0.50160997  1
  Co  Co111  1  0.49871007  0.00233719  0.50083553  1
  Co  Co112  1  0.87613871  0.62408386  0.37508235  1
  Co  Co113  1  0.25095385  0.75091485  0.24817723  1
  Co  Co114  1  0.12690419  0.37508621  0.87228350  1
  Co  Co115  1  -0.00277843  0.00079058  0.75218483  1
  Co  Co116  1  0.37427774  0.87501851  0.37906299  1
  Co  Co117  1  0.24673427  0.49864557  0.24961986  1
  Co  Co118  1  0.74910224  0.49928790  0.49814190  1
  Co  Co119  1  0.12574844  0.12542232  0.37261454  1
  Co  Co120  1  0.87448074  0.62717022  0.87543214  1
  Co  Co121  1  0.74575552  -0.00132420  -0.00007104  1
  Co  Co122  1  0.75180333  0.75306556  0.74828570  1
  Co  Co123  1  0.75163799  0.50180966  0.75326500  1
  Co  Co124  1  0.50235207  0.50149732  0.25136732  1
  Co  Co125  1  0.00102534  0.25365987  -0.00188211  1
  Co  Co126  1  0.00012414  0.25028978  0.49880791  1
  Co  Co127  1  0.75313762  0.75111173  0.00126950  1
