# generated using pymatgen
data_Fe45Co19
_symmetry_space_group_name_H-M   'P 1'
_cell_length_a   11.41598877
_cell_length_b   11.41486261
_cell_length_c   11.41397436
_cell_angle_alpha   89.99927597
_cell_angle_beta   90.00070174
_cell_angle_gamma   90.00542794
_symmetry_Int_Tables_number   1
_chemical_formula_structural   Fe45Co19
_chemical_formula_sum   'Fe90 Co38'
_cell_volume   1487.37717428
_cell_formula_units_Z   2
loop_
 _symmetry_equiv_pos_site_id
 _symmetry_equiv_pos_as_xyz
  1  'x, y, z'
loop_
 _atom_site_type_symbol
 _atom_site_label
 _atom_site_symmetry_multiplicity
 _atom_site_fract_x
 _atom_site_fract_y
 _atom_site_fract_z
 _atom_site_occupancy
  Fe  Fe0  1  0.00059418  0.25190887  -0.00156034  1
  Fe  Fe1  1  0.24907336  0.50393585  0.24582292  1
  Fe  Fe2  1  0.62965361  0.87796961  0.87779641  1
  Fe  Fe3  1  0.12116324  0.62336411  0.87729114  1
  Fe  Fe4  1  0.37877709  0.62458766  0.87558966  1
  Fe  Fe5  1  -0.00551310  0.49683502  0.00044459  1
  Fe  Fe6  1  0.74921780  0.24830804  0.75086789  1
  Fe  Fe7  1  0.24984562  0.24737560  0.50110349  1
  Fe  Fe8  1  0.49812035  0.50024860  0.50159112  1
  Fe  Fe9  1  -0.00005824  0.75090817  0.24807049  1
  Fe  Fe10  1  0.24870505  0.74756842  0.24587932  1
  Fe  Fe11  1  0.50062572  0.75054472  0.24935593  1
  Fe  Fe12  1  0.50161976  0.75070735  0.50073161  1
  Fe  Fe13  1  0.87346091  0.87469881  0.37640965  1
  Fe  Fe14  1  0.25356792  0.00021617  0.74683097  1
  Fe  Fe15  1  -0.00001823  0.25153254  0.49908420  1
  Fe  Fe16  1  0.62719313  0.87633929  0.12192721  1
  Fe  Fe17  1  0.75026853  0.00219012  0.24899363  1
  Fe  Fe18  1  0.50227609  0.75115866  -0.00204120  1
  Fe  Fe19  1  0.50016203  -0.00186394  0.75094606  1
  Fe  Fe20  1  0.50154254  0.25203489  -0.00115115  1
  Fe  Fe21  1  0.37463691  0.37611000  0.12405157  1
  Fe  Fe22  1  0.12409928  0.37705815  0.12350113  1
  Fe  Fe23  1  0.62049305  0.12286659  0.12304360  1
  Fe  Fe24  1  0.87007802  0.37517314  0.36951691  1
  Fe  Fe25  1  0.37417188  0.62762526  0.37439365  1
  Fe  Fe26  1  0.12456465  0.87609650  0.12408716  1
  Fe  Fe27  1  0.74690461  0.24829372  0.49604552  1
  Fe  Fe28  1  0.50259541  0.25184612  0.25153013  1
  Fe  Fe29  1  0.37621226  0.12434201  0.37512043  1
  Fe  Fe30  1  0.62776402  0.87454064  0.62481136  1
  Fe  Fe31  1  0.12419872  0.12217473  0.62444978  1
  Fe  Fe32  1  0.87291830  0.37399927  0.62566703  1
  Fe  Fe33  1  0.50071636  0.25178608  0.75141286  1
  Fe  Fe34  1  0.75043169  0.74926710  0.24871379  1
  Fe  Fe35  1  0.24998283  0.74568566  0.00041199  1
  Fe  Fe36  1  0.62680941  0.37739907  0.62582184  1
  Fe  Fe37  1  0.24997955  0.00185583  0.24753382  1
  Fe  Fe38  1  0.25089940  0.00250512  0.00234062  1
  Fe  Fe39  1  0.75435089  0.50106822  -0.00069387  1
  Fe  Fe40  1  0.62636753  0.62391601  0.62725372  1
  Fe  Fe41  1  0.75071927  0.24758156  0.00102683  1
  Fe  Fe42  1  0.37696420  0.12618041  0.87544286  1
  Fe  Fe43  1  0.87409676  0.12517790  0.87565148  1
  Fe  Fe44  1  0.62465529  0.12357360  0.62574724  1
  Fe  Fe45  1  0.62989963  0.37570706  0.12711304  1
  Fe  Fe46  1  0.87133833  0.87507060  0.87778729  1
  Fe  Fe47  1  0.24918903  0.24793636  0.24708671  1
  Fe  Fe48  1  0.00307138  0.75220357  0.50198326  1
  Fe  Fe49  1  0.62451824  0.62548067  0.12323992  1
  Fe  Fe50  1  0.49750060  -0.00181132  0.50259647  1
  Fe  Fe51  1  -0.00118114  0.49798438  0.49848347  1
  Fe  Fe52  1  -0.00375682  0.75283181  0.00243859  1
  Fe  Fe53  1  0.12517042  0.12276251  0.37630007  1
  Fe  Fe54  1  0.24973032  0.50198601  0.75219530  1
  Fe  Fe55  1  0.12612473  0.87576109  0.87495483  1
  Fe  Fe56  1  0.75046309  0.74778483  0.75058145  1
  Fe  Fe57  1  0.62829692  0.37725623  0.87315119  1
  Fe  Fe58  1  0.00092338  0.25215202  0.25040123  1
  Fe  Fe59  1  0.62518512  0.62164227  0.87414103  1
  Fe  Fe60  1  0.87539389  0.12445374  0.37596250  1
  Fe  Fe61  1  0.87301444  0.87438178  0.62311319  1
  Fe  Fe62  1  0.12488093  0.12318731  0.87458629  1
  Fe  Fe63  1  -0.00449249  0.49944637  0.75066439  1
  Fe  Fe64  1  0.50179281  0.25123079  0.49795440  1
  Fe  Fe65  1  0.00086798  -0.00200305  0.25055210  1
  Fe  Fe66  1  0.37442480  0.37566634  0.37374858  1
  Fe  Fe67  1  0.37397086  0.87219109  0.87340600  1
  Fe  Fe68  1  0.37204882  0.87378255  0.37592488  1
  Fe  Fe69  1  0.12483066  0.62566050  0.37525574  1
  Fe  Fe70  1  0.24797125  0.24879832  0.00026161  1
  Fe  Fe71  1  0.24548557  0.75339212  0.50455403  1
  Fe  Fe72  1  0.49751187  -0.00197085  0.24842371  1
  Fe  Fe73  1  0.75121765  0.50167869  0.49944204  1
  Fe  Fe74  1  -0.00377828  -0.00068987  0.75115054  1
  Fe  Fe75  1  0.37314527  0.37224960  0.62688062  1
  Fe  Fe76  1  0.87631088  0.62585719  0.37445521  1
  Fe  Fe77  1  0.87911644  0.12418516  0.12406235  1
  Fe  Fe78  1  0.12610303  0.37591599  0.62717348  1
  Fe  Fe79  1  0.37548906  0.63023377  0.62907732  1
  Fe  Fe80  1  0.00181631  0.25064553  0.75109806  1
  Fe  Fe81  1  0.12765523  0.37579463  0.37460285  1
  Fe  Fe82  1  0.62674329  0.87689160  0.37600298  1
  Fe  Fe83  1  0.00127040  0.75007782  0.74836165  1
  Fe  Fe84  1  0.50073145  0.50005964  0.24902585  1
  Fe  Fe85  1  0.62394955  0.62434543  0.37564837  1
  Fe  Fe86  1  0.37298627  0.37639358  0.87604623  1
  Fe  Fe87  1  0.37546644  0.87335318  0.12262681  1
  Fe  Fe88  1  0.87441602  0.12452998  0.62343786  1
  Fe  Fe89  1  0.25135264  0.50139839  0.50155783  1
  Co  Co90  1  0.87623741  0.62385805  0.12668503  1
  Co  Co91  1  0.62412079  0.12415863  0.87481727  1
  Co  Co92  1  0.75096122  0.74687796  0.00090746  1
  Co  Co93  1  0.11923151  0.62481184  0.12167296  1
  Co  Co94  1  0.12066023  0.12433255  0.12391615  1
  Co  Co95  1  0.75135802  0.00454558  0.00119383  1
  Co  Co96  1  0.75049129  0.00130190  0.49947428  1
  Co  Co97  1  0.50231101  0.49722634  0.00069933  1
  Co  Co98  1  0.12269483  0.62125269  0.62557695  1
  Co  Co99  1  0.25086998  0.50342529  0.00136859  1
  Co  Co100  1  0.38057987  0.62581593  0.12335818  1
  Co  Co101  1  0.50546274  0.75148276  0.75355099  1
  Co  Co102  1  0.74892461  0.50494042  0.24991661  1
  Co  Co103  1  0.25223238  -0.00121764  0.50264482  1
  Co  Co104  1  0.74784353  0.24321608  0.24996730  1
  Co  Co105  1  0.12516060  0.37782104  0.87517128  1
  Co  Co106  1  0.37914350  0.12701508  0.12412684  1
  Co  Co107  1  0.00206610  0.49909933  0.25162514  1
  Co  Co108  1  0.62116562  0.12080542  0.37486829  1
  Co  Co109  1  0.87267521  0.87703066  0.12371532  1
  Co  Co110  1  0.49770385  0.49825285  0.74863369  1
  Co  Co111  1  0.87304556  0.37126782  0.87355114  1
  Co  Co112  1  0.75153038  0.00028331  0.75032603  1
  Co  Co113  1  0.12393549  0.87970798  0.62870767  1
  Co  Co114  1  0.74887348  0.74860518  0.49853975  1
  Co  Co115  1  -0.00037664  -0.00228369  0.49899877  1
  Co  Co116  1  0.87571648  0.62676534  0.62337473  1
  Co  Co117  1  0.62669116  0.37806244  0.37448466  1
  Co  Co118  1  0.37577815  0.86898403  0.62789012  1
  Co  Co119  1  0.87708664  0.62801315  0.87502249  1
  Co  Co120  1  0.87222231  0.37445305  0.12918859  1
  Co  Co121  1  0.12707236  0.87561062  0.37308710  1
  Co  Co122  1  0.37763136  0.12794319  0.62562702  1
  Co  Co123  1  0.49795695  -0.00201245  -0.00256259  1
  Co  Co124  1  -0.00004014  -0.00212850  -0.00254170  1
  Co  Co125  1  0.75492181  0.50187689  0.75092568  1
  Co  Co126  1  0.24813966  0.24900141  0.75154963  1
  Co  Co127  1  0.24486677  0.74722080  0.75156425  1
