# generated using pymatgen
data_Fe45Co19
_symmetry_space_group_name_H-M   'P 1'
_cell_length_a   11.41647139
_cell_length_b   11.41486807
_cell_length_c   11.41523028
_cell_angle_alpha   90.00119180
_cell_angle_beta   89.98936072
_cell_angle_gamma   89.99392982
_symmetry_Int_Tables_number   1
_chemical_formula_structural   Fe45Co19
_chemical_formula_sum   'Fe90 Co38'
_cell_volume   1487.60440633
_cell_formula_units_Z   2
loop_
 _symmetry_equiv_pos_site_id
 _symmetry_equiv_pos_as_xyz
  1  'x, y, z'
loop_
 _atom_site_type_symbol
 _atom_site_label
 _atom_site_symmetry_multiplicity
 _atom_site_fract_x
 _atom_site_fract_y
 _atom_site_fract_z
 _atom_site_occupancy
  Fe  Fe0  1  0.00219379  -0.00184547  0.24877516  1
  Fe  Fe1  1  0.62596298  0.87776672  0.62653768  1
  Fe  Fe2  1  0.62456019  0.37376116  0.37439303  1
  Fe  Fe3  1  0.75133717  0.50177295  0.25180271  1
  Fe  Fe4  1  0.74903998  0.24457058  0.49597815  1
  Fe  Fe5  1  0.37739604  0.12892631  0.87565207  1
  Fe  Fe6  1  0.12700661  0.62814967  0.87747901  1
  Fe  Fe7  1  0.49973432  0.49873837  0.25087340  1
  Fe  Fe8  1  0.37216779  0.37533350  0.12388128  1
  Fe  Fe9  1  0.00390121  0.49776269  0.00048852  1
  Fe  Fe10  1  0.49982771  0.24892271  0.50062010  1
  Fe  Fe11  1  0.00219868  0.75246604  0.75056912  1
  Fe  Fe12  1  0.25088685  0.49866507  0.75344820  1
  Fe  Fe13  1  0.87159078  0.87651508  0.62445936  1
  Fe  Fe14  1  0.62520723  0.87712929  0.87384156  1
  Fe  Fe15  1  0.62619199  0.37456413  0.12517529  1
  Fe  Fe16  1  0.12375990  0.63082334  0.12288712  1
  Fe  Fe17  1  0.00238020  0.25017609  0.74580843  1
  Fe  Fe18  1  0.49977478  -0.00043609  0.24718198  1
  Fe  Fe19  1  0.62649791  0.37536818  0.62392616  1
  Fe  Fe20  1  0.49793697  0.75307669  0.00485954  1
  Fe  Fe21  1  0.24681305  0.25235878  0.00166607  1
  Fe  Fe22  1  0.49782510  0.75129519  0.74942857  1
  Fe  Fe23  1  0.87844588  0.37281591  0.87656833  1
  Fe  Fe24  1  0.87714833  0.37372044  0.37527643  1
  Fe  Fe25  1  0.75041221  0.50010167  0.75146993  1
  Fe  Fe26  1  0.74992164  0.50225162  0.49647783  1
  Fe  Fe27  1  -0.00047607  0.00104813  0.00206377  1
  Fe  Fe28  1  0.87554654  0.62632578  0.62422472  1
  Fe  Fe29  1  0.25217465  0.00214570  0.74971419  1
  Fe  Fe30  1  0.75072634  0.74737272  0.25217218  1
  Fe  Fe31  1  0.00176890  0.75269387  0.49919985  1
  Fe  Fe32  1  0.74996606  0.74945567  0.75117451  1
  Fe  Fe33  1  0.87368900  0.87622380  0.87497111  1
  Fe  Fe34  1  0.12475466  0.62997661  0.37259896  1
  Fe  Fe35  1  0.12558212  0.37520391  0.37441361  1
  Fe  Fe36  1  0.12769516  0.62578769  0.62631996  1
  Fe  Fe37  1  0.87686236  0.62671194  0.12408943  1
  Fe  Fe38  1  0.62339034  0.62445217  0.62498722  1
  Fe  Fe39  1  0.49814362  0.49820964  -0.00026599  1
  Fe  Fe40  1  0.12405888  0.12541410  0.87502767  1
  Fe  Fe41  1  0.00022855  0.50179299  0.24970650  1
  Fe  Fe42  1  0.25119959  0.50299223  0.49869267  1
  Fe  Fe43  1  0.37546751  0.62791918  0.37046232  1
  Fe  Fe44  1  0.24621920  -0.00195506  0.24939098  1
  Fe  Fe45  1  0.24881344  0.50241652  0.24694911  1
  Fe  Fe46  1  0.62324519  0.37258814  0.87598676  1
  Fe  Fe47  1  0.62378401  0.62637268  0.87608599  1
  Fe  Fe48  1  0.12669135  0.87420492  0.87826642  1
  Fe  Fe49  1  0.87737160  0.12247685  0.62026798  1
  Fe  Fe50  1  0.24867708  0.24894666  0.74742794  1
  Fe  Fe51  1  0.37330729  0.62599005  0.87692345  1
  Fe  Fe52  1  0.24811613  0.24754759  0.24945055  1
  Fe  Fe53  1  0.87576163  0.12639451  0.87878600  1
  Fe  Fe54  1  0.74846821  0.74901141  0.49796918  1
  Fe  Fe55  1  0.87668924  0.37216791  0.12423958  1
  Fe  Fe56  1  0.37648029  0.12473766  0.37308744  1
  Fe  Fe57  1  0.37422641  0.87496703  0.87582568  1
  Fe  Fe58  1  0.62377119  0.87490454  0.37358112  1
  Fe  Fe59  1  0.62322895  0.12434658  0.87511956  1
  Fe  Fe60  1  0.49765196  0.74893637  0.49991628  1
  Fe  Fe61  1  0.12157344  0.12195733  0.37892980  1
  Fe  Fe62  1  0.37353818  0.37429054  0.62501733  1
  Fe  Fe63  1  0.37277808  0.37297362  0.37441844  1
  Fe  Fe64  1  0.00114735  0.49947754  0.74899265  1
  Fe  Fe65  1  0.49838715  0.49779772  0.75088935  1
  Fe  Fe66  1  0.37185826  0.87411150  0.37343902  1
  Fe  Fe67  1  0.49774327  0.50099333  0.49883425  1
  Fe  Fe68  1  0.62300527  0.62651722  0.12664912  1
  Fe  Fe69  1  0.87634947  0.62453156  0.87513222  1
  Fe  Fe70  1  -0.00033363  -0.00115088  0.74949762  1
  Fe  Fe71  1  0.00120804  0.24651880  0.24843837  1
  Fe  Fe72  1  0.74982618  0.24760356  0.75074192  1
  Fe  Fe73  1  0.25051309  -0.00013185  0.00158859  1
  Fe  Fe74  1  0.75158901  0.24680318  0.25205398  1
  Fe  Fe75  1  0.62298927  0.12124203  0.62663474  1
  Fe  Fe76  1  0.62736629  0.12444532  0.12414384  1
  Fe  Fe77  1  0.13017159  0.87743824  0.62269233  1
  Fe  Fe78  1  0.87497634  0.87677947  0.37586631  1
  Fe  Fe79  1  0.87411849  0.37410953  0.62261371  1
  Fe  Fe80  1  0.24781774  0.24633174  0.50201655  1
  Fe  Fe81  1  0.37209731  0.87512036  0.62455998  1
  Fe  Fe82  1  0.49777916  -0.00005692  0.49991309  1
  Fe  Fe83  1  0.75005122  0.49867277  0.00007219  1
  Fe  Fe84  1  0.87416654  0.87577443  0.12471718  1
  Fe  Fe85  1  0.00208472  0.49944558  0.49989342  1
  Fe  Fe86  1  0.75055068  0.00311535  0.25270338  1
  Fe  Fe87  1  0.50014907  -0.00002325  0.00242301  1
  Fe  Fe88  1  0.75022517  0.75151315  -0.00008905  1
  Fe  Fe89  1  0.49860131  0.25001812  0.24648707  1
  Co  Co90  1  0.50027558  0.24894283  0.00431223  1
  Co  Co91  1  0.12906758  0.87307766  0.37705602  1
  Co  Co92  1  0.87811777  0.62499702  0.37698964  1
  Co  Co93  1  0.12297143  0.87245748  0.12096350  1
  Co  Co94  1  0.12853183  0.37792811  0.62491600  1
  Co  Co95  1  0.37680217  0.62231405  0.12507377  1
  Co  Co96  1  0.61925310  0.12430474  0.37231996  1
  Co  Co97  1  0.24712773  0.49853889  0.00060203  1
  Co  Co98  1  0.25192555  0.74676099  0.49970903  1
  Co  Co99  1  0.37186850  0.12418148  0.12528125  1
  Co  Co100  1  0.62792167  0.87500211  0.12754765  1
  Co  Co101  1  0.88155857  0.12332906  0.37720587  1
  Co  Co102  1  0.74879916  0.25100953  -0.00085736  1
  Co  Co103  1  -0.00116664  0.75333724  0.25185242  1
  Co  Co104  1  0.37691091  0.12530581  0.62660969  1
  Co  Co105  1  0.24966418  0.75223808  0.75103622  1
  Co  Co106  1  0.12354531  0.37265216  0.87293550  1
  Co  Co107  1  0.37406355  0.87929394  0.12718757  1
  Co  Co108  1  0.50148080  0.25162834  0.74827029  1
  Co  Co109  1  0.12282732  0.12007194  0.62396534  1
  Co  Co110  1  0.37459448  0.37114174  0.87654031  1
  Co  Co111  1  0.00402567  0.24947354  0.00335844  1
  Co  Co112  1  0.25043186  0.75190338  0.24454688  1
  Co  Co113  1  -0.00303999  0.75217881  -0.00288233  1
  Co  Co114  1  0.12487168  0.37421339  0.12861604  1
  Co  Co115  1  0.25439019  0.75142125  0.00417127  1
  Co  Co116  1  0.12659976  0.12284977  0.12340190  1
  Co  Co117  1  0.25307667  0.00378883  0.49888098  1
  Co  Co118  1  0.74911630  -0.00095178  -0.00097316  1
  Co  Co119  1  0.74768075  0.00272188  0.49660839  1
  Co  Co120  1  0.87351266  0.12475544  0.12329838  1
  Co  Co121  1  0.75232599  0.00237130  0.75108590  1
  Co  Co122  1  0.49638405  -0.00106063  0.75090639  1
  Co  Co123  1  0.00381611  0.25305564  0.50142901  1
  Co  Co124  1  0.49799970  0.75220733  0.24773613  1
  Co  Co125  1  0.62181961  0.62535002  0.37373588  1
  Co  Co126  1  0.37432060  0.62464193  0.62869148  1
  Co  Co127  1  0.00079912  -0.00618354  0.50024930  1
