# generated using pymatgen
data_Fe45Co19
_symmetry_space_group_name_H-M   'P 1'
_cell_length_a   11.41588881
_cell_length_b   11.41624967
_cell_length_c   11.41549819
_cell_angle_alpha   89.99389736
_cell_angle_beta   90.00574481
_cell_angle_gamma   89.99379849
_symmetry_Int_Tables_number   1
_chemical_formula_structural   Fe45Co19
_chemical_formula_sum   'Fe90 Co38'
_cell_volume   1487.74346304
_cell_formula_units_Z   2
loop_
 _symmetry_equiv_pos_site_id
 _symmetry_equiv_pos_as_xyz
  1  'x, y, z'
loop_
 _atom_site_type_symbol
 _atom_site_label
 _atom_site_symmetry_multiplicity
 _atom_site_fract_x
 _atom_site_fract_y
 _atom_site_fract_z
 _atom_site_occupancy
  Fe  Fe0  1  0.87414067  0.62626234  0.12358973  1
  Fe  Fe1  1  0.74677977  0.25074057  -0.00049827  1
  Fe  Fe2  1  0.49820870  -0.00052796  0.25116353  1
  Fe  Fe3  1  0.49817056  0.00311713  0.74674900  1
  Fe  Fe4  1  0.74606004  -0.00389153  -0.00163279  1
  Fe  Fe5  1  0.37456703  0.87445127  0.62159890  1
  Fe  Fe6  1  0.24935985  0.49979593  0.49829478  1
  Fe  Fe7  1  0.37790623  0.37161576  0.87696249  1
  Fe  Fe8  1  0.24894416  0.00118898  -0.00167915  1
  Fe  Fe9  1  0.87563026  0.62592708  0.37467385  1
  Fe  Fe10  1  0.24877274  0.49738403  -0.00346507  1
  Fe  Fe11  1  0.87904271  0.87467631  0.62247741  1
  Fe  Fe12  1  0.24563041  0.75219825  0.49714946  1
  Fe  Fe13  1  0.49698075  0.50348252  0.74788877  1
  Fe  Fe14  1  0.00317515  0.50370217  -0.00272048  1
  Fe  Fe15  1  0.87338543  0.12434721  0.62587880  1
  Fe  Fe16  1  0.49807279  0.74737535  0.74623864  1
  Fe  Fe17  1  0.12767251  0.62523059  0.12548087  1
  Fe  Fe18  1  0.87608645  0.87457595  0.12208748  1
  Fe  Fe19  1  0.74955331  0.75013797  0.50161629  1
  Fe  Fe20  1  0.00106012  0.49944814  0.25106527  1
  Fe  Fe21  1  0.87613402  0.37458529  0.12307703  1
  Fe  Fe22  1  0.00455758  0.24504095  0.00288016  1
  Fe  Fe23  1  0.12527964  0.12263558  0.62906573  1
  Fe  Fe24  1  0.36999350  0.62683756  0.87233536  1
  Fe  Fe25  1  0.00183387  0.50272453  0.50000545  1
  Fe  Fe26  1  0.87359916  0.62435863  0.62591471  1
  Fe  Fe27  1  0.62543719  0.37442378  0.62794440  1
  Fe  Fe28  1  0.12981464  0.62272878  0.63150833  1
  Fe  Fe29  1  0.12026361  0.87770081  0.62332216  1
  Fe  Fe30  1  0.49987391  0.24593260  0.50506887  1
  Fe  Fe31  1  0.49958386  0.50455269  0.50347630  1
  Fe  Fe32  1  0.00215951  0.74972771  0.75174323  1
  Fe  Fe33  1  0.37412697  0.12671476  0.12348898  1
  Fe  Fe34  1  0.74790503  0.49971680  0.00118827  1
  Fe  Fe35  1  0.37695238  0.87399303  0.87490372  1
  Fe  Fe36  1  0.37680863  0.37406887  0.37690447  1
  Fe  Fe37  1  0.37297135  0.12693131  0.87408613  1
  Fe  Fe38  1  0.75018759  0.49885404  0.50058897  1
  Fe  Fe39  1  0.87540798  0.12714621  0.37361486  1
  Fe  Fe40  1  -0.00243004  0.24984913  0.74984618  1
  Fe  Fe41  1  0.37796225  0.37293382  0.12265552  1
  Fe  Fe42  1  0.74804597  0.75134958  0.24748175  1
  Fe  Fe43  1  0.75384557  0.49764788  0.75108886  1
  Fe  Fe44  1  0.37779500  0.87211373  0.12433867  1
  Fe  Fe45  1  0.62542232  0.87499209  0.62666167  1
  Fe  Fe46  1  0.12516919  0.87590458  0.12429130  1
  Fe  Fe47  1  0.87747333  0.87280223  0.87837050  1
  Fe  Fe48  1  0.12519117  0.37429224  0.12529209  1
  Fe  Fe49  1  0.62818416  0.62864233  0.87329708  1
  Fe  Fe50  1  0.62223126  0.37369675  0.37492027  1
  Fe  Fe51  1  0.62244248  0.37318398  0.87204428  1
  Fe  Fe52  1  0.62473642  0.12650832  0.86953800  1
  Fe  Fe53  1  0.24757126  0.25032649  0.50080094  1
  Fe  Fe54  1  0.12294663  0.37811638  0.62788492  1
  Fe  Fe55  1  0.12443683  0.12510657  0.37138147  1
  Fe  Fe56  1  0.87479835  0.12468812  0.87660202  1
  Fe  Fe57  1  0.24777635  -0.00156662  0.49698607  1
  Fe  Fe58  1  -0.00208780  0.00228278  0.24869641  1
  Fe  Fe59  1  0.00136575  0.24889581  0.50069533  1
  Fe  Fe60  1  0.50017795  0.00258143  0.50273895  1
  Fe  Fe61  1  0.25110188  0.49918481  0.25151756  1
  Fe  Fe62  1  0.24824913  0.75143176  -0.00187264  1
  Fe  Fe63  1  0.75030426  0.25135365  0.50221847  1
  Fe  Fe64  1  0.87823295  0.37434052  0.87746596  1
  Fe  Fe65  1  0.62541214  0.12462762  0.12592344  1
  Fe  Fe66  1  0.24859675  -0.00375070  0.75151096  1
  Fe  Fe67  1  0.62482247  0.12552789  0.37542588  1
  Fe  Fe68  1  0.50051204  0.50133696  0.24905032  1
  Fe  Fe69  1  0.75038293  0.25170738  0.24804322  1
  Fe  Fe70  1  0.25142127  0.25186333  0.25031227  1
  Fe  Fe71  1  0.50166514  0.00027631  -0.00204097  1
  Fe  Fe72  1  0.37456339  0.62975850  0.37562860  1
  Fe  Fe73  1  0.87976710  0.87239575  0.37780003  1
  Fe  Fe74  1  0.74847637  0.49896589  0.24813052  1
  Fe  Fe75  1  0.25073986  0.25319923  0.75118243  1
  Fe  Fe76  1  0.75304070  -0.00294002  0.75113532  1
  Fe  Fe77  1  0.50125609  0.50237066  -0.00098981  1
  Fe  Fe78  1  0.75063587  -0.00228141  0.25019589  1
  Fe  Fe79  1  0.00306099  0.00363004  0.00012713  1
  Fe  Fe80  1  0.75180205  -0.00059606  0.49972769  1
  Fe  Fe81  1  0.37517188  0.37593880  0.62412079  1
  Fe  Fe82  1  0.62484544  0.62602029  0.37589126  1
  Fe  Fe83  1  0.62198943  0.87399431  0.37620407  1
  Fe  Fe84  1  0.25249425  -0.00498935  0.25294839  1
  Fe  Fe85  1  0.00288104  0.74899319  0.24944716  1
  Fe  Fe86  1  0.37437484  0.12514379  0.37720100  1
  Fe  Fe87  1  0.87356037  0.62876290  0.87730091  1
  Fe  Fe88  1  0.37476607  0.62794294  0.12485082  1
  Fe  Fe89  1  0.87798771  0.37485424  0.37581761  1
  Co  Co90  1  0.12674542  0.62341284  0.37272896  1
  Co  Co91  1  0.12677275  0.12463193  0.87082501  1
  Co  Co92  1  0.12393777  0.37459075  0.37445390  1
  Co  Co93  1  0.49647991  0.24717044  0.74627799  1
  Co  Co94  1  0.50133021  0.74908237  0.24957822  1
  Co  Co95  1  -0.00303946  0.50297794  0.75295388  1
  Co  Co96  1  -0.00138760  0.00574942  0.49899807  1
  Co  Co97  1  0.62995793  0.62365395  0.62769071  1
  Co  Co98  1  0.87697603  0.37704217  0.62343547  1
  Co  Co99  1  0.36697436  0.62638319  0.62526757  1
  Co  Co100  1  0.11821176  0.87718282  0.37529224  1
  Co  Co101  1  -0.00260268  -0.00117851  0.75214162  1
  Co  Co102  1  0.25323011  0.49347539  0.75404925  1
  Co  Co103  1  0.50207805  0.74681948  0.50507485  1
  Co  Co104  1  0.12979715  0.12283530  0.12922288  1
  Co  Co105  1  0.00381977  0.74701617  -0.00044035  1
  Co  Co106  1  0.87051969  0.12367844  0.12245157  1
  Co  Co107  1  0.75469941  0.25255959  0.75101049  1
  Co  Co108  1  0.75372938  0.75311430  0.74909747  1
  Co  Co109  1  0.62169777  0.87294257  0.87001857  1
  Co  Co110  1  0.37925351  0.87147697  0.37804578  1
  Co  Co111  1  0.24786046  0.75753215  0.74996759  1
  Co  Co112  1  -0.00077676  0.24935057  0.24676837  1
  Co  Co113  1  0.74678636  0.75421057  0.00234498  1
  Co  Co114  1  0.50226532  0.24751743  -0.00015507  1
  Co  Co115  1  0.63076322  0.12480165  0.62795119  1
  Co  Co116  1  0.36782164  0.12286483  0.62512340  1
  Co  Co117  1  0.62469400  0.62606784  0.12301943  1
  Co  Co118  1  0.12263772  0.87658085  0.87799437  1
  Co  Co119  1  0.62057877  0.87555375  0.12508659  1
  Co  Co120  1  0.49833321  0.24849118  0.24976160  1
  Co  Co121  1  0.50043613  0.74831870  -0.00315021  1
  Co  Co122  1  0.12982580  0.62444645  0.87128193  1
  Co  Co123  1  0.62272521  0.37491620  0.12515019  1
  Co  Co124  1  0.00342639  0.74383474  0.50207420  1
  Co  Co125  1  0.12096930  0.37403316  0.87404596  1
  Co  Co126  1  0.24712803  0.25010216  -0.00076875  1
  Co  Co127  1  0.24808509  0.75343741  0.25140684  1
