# generated using pymatgen
data_Fe45Co19
_symmetry_space_group_name_H-M   'P 1'
_cell_length_a   11.41423273
_cell_length_b   11.41439068
_cell_length_c   11.41725304
_cell_angle_alpha   90.00157233
_cell_angle_beta   89.99922414
_cell_angle_gamma   89.98283462
_symmetry_Int_Tables_number   1
_chemical_formula_structural   Fe45Co19
_chemical_formula_sum   'Fe90 Co38'
_cell_volume   1487.51400398
_cell_formula_units_Z   2
loop_
 _symmetry_equiv_pos_site_id
 _symmetry_equiv_pos_as_xyz
  1  'x, y, z'
loop_
 _atom_site_type_symbol
 _atom_site_label
 _atom_site_symmetry_multiplicity
 _atom_site_fract_x
 _atom_site_fract_y
 _atom_site_fract_z
 _atom_site_occupancy
  Fe  Fe0  1  0.62666024  0.37514676  0.62459038  1
  Fe  Fe1  1  0.74958884  0.24800992  0.75086749  1
  Fe  Fe2  1  0.24873133  -0.00008645  0.25093092  1
  Fe  Fe3  1  0.49916782  0.49974795  0.50040458  1
  Fe  Fe4  1  0.75055994  0.49811546  -0.00270717  1
  Fe  Fe5  1  0.87724808  0.12617930  0.12535090  1
  Fe  Fe6  1  -0.00236546  0.75576057  0.50362356  1
  Fe  Fe7  1  0.37270425  0.12207844  0.62655153  1
  Fe  Fe8  1  0.87519906  0.62406550  0.62365496  1
  Fe  Fe9  1  0.75073982  0.74785144  0.75190529  1
  Fe  Fe10  1  0.37439140  0.87673939  0.87273232  1
  Fe  Fe11  1  0.62527719  0.87454171  0.12318533  1
  Fe  Fe12  1  0.12272091  0.87699640  0.37663390  1
  Fe  Fe13  1  0.12524563  0.62366988  0.87499810  1
  Fe  Fe14  1  0.74731019  0.00215970  0.75325721  1
  Fe  Fe15  1  0.37462017  0.12508043  0.37487300  1
  Fe  Fe16  1  0.62580136  0.37431626  0.37732044  1
  Fe  Fe17  1  0.00375360  0.49789157  -0.00108388  1
  Fe  Fe18  1  0.50166420  0.24873983  0.74985278  1
  Fe  Fe19  1  0.00456787  0.49694789  0.50112331  1
  Fe  Fe20  1  0.37236945  0.37536001  0.62423726  1
  Fe  Fe21  1  0.37451199  0.62563383  0.37416853  1
  Fe  Fe22  1  0.75003503  0.74846375  -0.00107633  1
  Fe  Fe23  1  0.24675216  0.24984383  0.50071131  1
  Fe  Fe24  1  0.62447253  0.37532482  0.12435302  1
  Fe  Fe25  1  0.24662028  0.50289086  0.25289221  1
  Fe  Fe26  1  0.37370107  0.12678033  0.12278870  1
  Fe  Fe27  1  0.75325896  0.25126182  -0.00347125  1
  Fe  Fe28  1  0.75123068  0.75110612  0.50028161  1
  Fe  Fe29  1  0.37464936  0.37989532  0.12496545  1
  Fe  Fe30  1  0.49993766  0.25121984  0.24909841  1
  Fe  Fe31  1  0.75090543  0.49964994  0.25218602  1
  Fe  Fe32  1  0.25000491  0.75144051  0.75093424  1
  Fe  Fe33  1  0.87877268  0.12350877  0.37642512  1
  Fe  Fe34  1  0.00150103  0.00005890  0.74742677  1
  Fe  Fe35  1  0.49716286  -0.00127790  0.50053444  1
  Fe  Fe36  1  0.87626227  0.37406577  0.37785471  1
  Fe  Fe37  1  0.12426171  0.87470979  0.87374194  1
  Fe  Fe38  1  0.49851292  0.74901885  0.24814113  1
  Fe  Fe39  1  0.75129609  -0.00127782  0.50033164  1
  Fe  Fe40  1  0.88182720  0.37388982  0.87077553  1
  Fe  Fe41  1  0.12311259  0.12807030  0.12545182  1
  Fe  Fe42  1  0.87708842  0.37408473  0.62493675  1
  Fe  Fe43  1  0.12670354  0.12147157  0.62192695  1
  Fe  Fe44  1  0.24790453  0.25428542  -0.00114646  1
  Fe  Fe45  1  0.75216805  0.49998295  0.75025062  1
  Fe  Fe46  1  0.37415358  0.62121479  0.87625855  1
  Fe  Fe47  1  0.87516453  0.87484669  0.87392238  1
  Fe  Fe48  1  0.50077788  0.24859265  0.50174577  1
  Fe  Fe49  1  0.25291440  0.75519302  0.49900944  1
  Fe  Fe50  1  0.49777708  0.75299682  0.50152056  1
  Fe  Fe51  1  0.12163843  0.12304690  0.37584869  1
  Fe  Fe52  1  0.24976446  0.00068057  -0.00298719  1
  Fe  Fe53  1  0.62415261  0.62158432  0.87367419  1
  Fe  Fe54  1  0.62479707  0.87545711  0.62727520  1
  Fe  Fe55  1  0.12711206  0.87386425  0.12322123  1
  Fe  Fe56  1  0.49915355  0.00087853  0.24795658  1
  Fe  Fe57  1  0.62538080  0.62434912  0.37561424  1
  Fe  Fe58  1  0.00350108  0.50009499  0.25166272  1
  Fe  Fe59  1  0.37334670  0.62405952  0.62455119  1
  Fe  Fe60  1  0.24872611  0.49887391  0.74994119  1
  Fe  Fe61  1  0.00000180  0.75011360  -0.00119177  1
  Fe  Fe62  1  0.12730152  0.62569455  0.62270448  1
  Fe  Fe63  1  0.75286669  0.75050470  0.24924298  1
  Fe  Fe64  1  -0.00078288  0.00039519  0.00132917  1
  Fe  Fe65  1  0.75072404  0.00022646  -0.00192517  1
  Fe  Fe66  1  0.12240152  0.12824036  0.87624583  1
  Fe  Fe67  1  0.62450577  0.62183716  0.12619784  1
  Fe  Fe68  1  0.37733817  0.37573414  0.87510693  1
  Fe  Fe69  1  0.24777986  0.24886809  0.75093105  1
  Fe  Fe70  1  0.62505523  0.87526972  0.37397278  1
  Fe  Fe71  1  0.87763420  0.62520047  0.37633608  1
  Fe  Fe72  1  0.49849113  0.00164794  -0.00114949  1
  Fe  Fe73  1  0.24901345  0.24982507  0.24963222  1
  Fe  Fe74  1  0.87846247  0.37545285  0.12633547  1
  Fe  Fe75  1  0.37288010  0.37488661  0.37610431  1
  Fe  Fe76  1  0.12892172  0.62692293  0.12292939  1
  Fe  Fe77  1  0.75170167  0.24980247  0.25200612  1
  Fe  Fe78  1  0.62556817  0.12761370  0.12275188  1
  Fe  Fe79  1  0.62509870  0.62298916  0.62480250  1
  Fe  Fe80  1  0.00026583  0.75228759  0.24854777  1
  Fe  Fe81  1  0.75228121  -0.00123755  0.24829179  1
  Fe  Fe82  1  0.62475396  0.12490705  0.37563102  1
  Fe  Fe83  1  0.87439061  0.12453329  0.62397429  1
  Fe  Fe84  1  0.87674105  0.62392141  0.12344901  1
  Fe  Fe85  1  0.37121048  0.87287315  0.12598342  1
  Fe  Fe86  1  0.49922481  0.74911140  0.74979504  1
  Fe  Fe87  1  0.50151005  0.00324839  0.75303205  1
  Fe  Fe88  1  -0.00044108  0.74887470  0.74878981  1
  Fe  Fe89  1  0.49719366  0.74720250  0.00021863  1
  Co  Co90  1  0.62417054  0.12850642  0.87907007  1
  Co  Co91  1  0.37372455  0.87873717  0.63042486  1
  Co  Co92  1  0.37436453  0.12798317  0.87537840  1
  Co  Co93  1  0.87799140  0.12434518  0.87381888  1
  Co  Co94  1  0.24729329  0.75028839  0.25340246  1
  Co  Co95  1  0.62350952  0.37446856  0.87373148  1
  Co  Co96  1  0.62382089  0.87362647  0.87563826  1
  Co  Co97  1  0.75088967  0.24794873  0.50049169  1
  Co  Co98  1  0.24866170  0.50010581  0.49906497  1
  Co  Co99  1  0.37037047  0.62358157  0.12588073  1
  Co  Co100  1  0.37636834  0.87597843  0.37096122  1
  Co  Co101  1  0.49921270  0.49917344  0.74764639  1
  Co  Co102  1  0.87560333  0.87563479  0.37332677  1
  Co  Co103  1  0.00118701  0.50451688  0.74729898  1
  Co  Co104  1  0.75040837  0.50031141  0.50021317  1
  Co  Co105  1  0.87646714  0.62378110  0.87694467  1
  Co  Co106  1  0.87435502  0.87324337  0.12185387  1
  Co  Co107  1  0.12591976  0.37624217  0.62818553  1
  Co  Co108  1  0.25257688  -0.00237349  0.49768613  1
  Co  Co109  1  0.00206598  0.24521713  0.74419972  1
  Co  Co110  1  0.12435113  0.37358831  0.12787336  1
  Co  Co111  1  -0.00083682  0.25097235  0.25213588  1
  Co  Co112  1  -0.00017929  -0.00219632  0.24638558  1
  Co  Co113  1  -0.00056190  0.25112627  0.00114826  1
  Co  Co114  1  0.12008193  0.37349274  0.86966234  1
  Co  Co115  1  0.12256543  0.62895781  0.37970577  1
  Co  Co116  1  0.62504216  0.12361699  0.62396824  1
  Co  Co117  1  0.50082159  0.50170093  0.00033461  1
  Co  Co118  1  0.00254010  0.25080857  0.50140462  1
  Co  Co119  1  0.50014556  0.49960797  0.25227789  1
  Co  Co120  1  0.49837144  0.25175414  0.00155991  1
  Co  Co121  1  0.12702524  0.37299705  0.37411031  1
  Co  Co122  1  0.24701029  0.00194186  0.75385107  1
  Co  Co123  1  0.24644696  0.49664624  -0.00230936  1
  Co  Co124  1  0.12907850  0.87511671  0.62563328  1
  Co  Co125  1  0.25182826  0.75068722  -0.00414687  1
  Co  Co126  1  -0.00257782  -0.00360177  0.50455911  1
  Co  Co127  1  0.87082212  0.87537183  0.63055256  1
