# generated using pymatgen
data_Fe45Co19
_symmetry_space_group_name_H-M   'P 1'
_cell_length_a   11.41559930
_cell_length_b   11.41467025
_cell_length_c   11.41548870
_cell_angle_alpha   89.99381062
_cell_angle_beta   89.99958750
_cell_angle_gamma   90.00100553
_symmetry_Int_Tables_number   1
_chemical_formula_structural   Fe45Co19
_chemical_formula_sum   'Fe90 Co38'
_cell_volume   1487.49869141
_cell_formula_units_Z   2
loop_
 _symmetry_equiv_pos_site_id
 _symmetry_equiv_pos_as_xyz
  1  'x, y, z'
loop_
 _atom_site_type_symbol
 _atom_site_label
 _atom_site_symmetry_multiplicity
 _atom_site_fract_x
 _atom_site_fract_y
 _atom_site_fract_z
 _atom_site_occupancy
  Fe  Fe0  1  0.12294337  0.62571895  0.37532776  1
  Fe  Fe1  1  0.37216074  0.37307342  0.87773905  1
  Fe  Fe2  1  -0.00041519  0.25010685  0.74804326  1
  Fe  Fe3  1  -0.00073656  0.49904382  0.50030494  1
  Fe  Fe4  1  0.12699838  0.62287057  0.12612544  1
  Fe  Fe5  1  0.25031353  0.50151707  0.75168799  1
  Fe  Fe6  1  0.87618031  0.87398012  0.37515409  1
  Fe  Fe7  1  0.24972683  0.00440392  0.75483641  1
  Fe  Fe8  1  0.62807062  0.88074029  0.62071624  1
  Fe  Fe9  1  -0.00149663  0.49921280  0.74977185  1
  Fe  Fe10  1  0.12227633  0.12498258  0.37635409  1
  Fe  Fe11  1  0.50001827  0.49880251  0.49959593  1
  Fe  Fe12  1  0.62666043  0.37445347  0.37563592  1
  Fe  Fe13  1  0.25064739  0.49954349  0.49835601  1
  Fe  Fe14  1  0.25026000  0.75193305  0.49774723  1
  Fe  Fe15  1  0.12651411  0.37324547  0.87637618  1
  Fe  Fe16  1  0.87776002  0.12309028  0.87269367  1
  Fe  Fe17  1  -0.00037013  -0.00506384  0.50469021  1
  Fe  Fe18  1  0.37611942  0.62539470  0.62465101  1
  Fe  Fe19  1  0.62321128  0.62536460  0.87461727  1
  Fe  Fe20  1  0.25172443  0.00084925  0.49796292  1
  Fe  Fe21  1  0.87263559  0.12012728  0.62776087  1
  Fe  Fe22  1  0.00169209  -0.00008531  -0.00046241  1
  Fe  Fe23  1  0.25066298  0.74693232  0.75185227  1
  Fe  Fe24  1  0.00183485  0.75198403  0.24889371  1
  Fe  Fe25  1  0.50246361  -0.00191258  0.75232080  1
  Fe  Fe26  1  0.12738035  0.87710576  0.87541692  1
  Fe  Fe27  1  0.37866590  0.87692595  0.37228337  1
  Fe  Fe28  1  0.87506811  0.62566896  0.37413553  1
  Fe  Fe29  1  0.75223975  0.74799160  -0.00091326  1
  Fe  Fe30  1  0.12779948  0.37589559  0.12274677  1
  Fe  Fe31  1  0.75152033  0.24979908  0.24891878  1
  Fe  Fe32  1  0.24895551  0.75071497  0.25195302  1
  Fe  Fe33  1  -0.00233535  0.50145655  -0.00094133  1
  Fe  Fe34  1  -0.00225821  0.49565316  0.25097161  1
  Fe  Fe35  1  0.74732721  0.75104408  0.49679063  1
  Fe  Fe36  1  0.25009259  0.24787856  0.75167402  1
  Fe  Fe37  1  0.50138168  0.25075997  0.24614126  1
  Fe  Fe38  1  0.87193404  0.37434296  0.62427610  1
  Fe  Fe39  1  0.50133898  0.75318822  0.74893901  1
  Fe  Fe40  1  0.62492611  0.87583516  0.12301692  1
  Fe  Fe41  1  0.37399099  0.37429887  0.62429457  1
  Fe  Fe42  1  0.87584335  0.12402752  0.12542600  1
  Fe  Fe43  1  0.12489825  0.62651674  0.62359439  1
  Fe  Fe44  1  0.49888547  0.49892522  0.00009493  1
  Fe  Fe45  1  0.12255922  0.62583997  0.87488452  1
  Fe  Fe46  1  0.50265662  0.25237973  0.74867038  1
  Fe  Fe47  1  0.37733901  0.12527527  0.62773235  1
  Fe  Fe48  1  0.49582749  0.75358461  -0.00061827  1
  Fe  Fe49  1  0.74916083  0.50100429  0.50004922  1
  Fe  Fe50  1  -0.00229138  0.25297943  0.24844580  1
  Fe  Fe51  1  0.87494420  0.62753551  0.62559785  1
  Fe  Fe52  1  0.00059579  0.75516211  0.74622145  1
  Fe  Fe53  1  0.74653896  0.75164583  0.25245112  1
  Fe  Fe54  1  0.74996444  0.00098780  -0.00233995  1
  Fe  Fe55  1  0.12681215  0.37335398  0.62359489  1
  Fe  Fe56  1  0.13025017  0.87902771  0.12517974  1
  Fe  Fe57  1  0.12534791  0.37111532  0.37784953  1
  Fe  Fe58  1  0.00005431  0.24860935  0.00097644  1
  Fe  Fe59  1  0.62551506  0.62433446  0.12594247  1
  Fe  Fe60  1  0.37346310  0.62415416  0.12617881  1
  Fe  Fe61  1  0.49991250  0.49766595  0.75021494  1
  Fe  Fe62  1  0.74696719  0.24744166  0.74961809  1
  Fe  Fe63  1  0.50009421  0.49823857  0.24931634  1
  Fe  Fe64  1  0.50048361  0.24855040  0.50239413  1
  Fe  Fe65  1  0.63153039  0.37624282  0.12226409  1
  Fe  Fe66  1  0.37816329  0.12530663  0.37224859  1
  Fe  Fe67  1  0.62930252  0.37612212  0.87680729  1
  Fe  Fe68  1  0.74826001  -0.00051462  0.25138922  1
  Fe  Fe69  1  0.37790605  0.62525464  0.37507888  1
  Fe  Fe70  1  -0.00026341  0.75121088  0.00160567  1
  Fe  Fe71  1  0.74819142  0.75134962  0.75117527  1
  Fe  Fe72  1  0.87788338  0.12548358  0.37500858  1
  Fe  Fe73  1  0.62346974  0.62348534  0.62469713  1
  Fe  Fe74  1  0.62200482  0.12356995  0.12140310  1
  Fe  Fe75  1  0.00118511  -0.00220787  0.24955260  1
  Fe  Fe76  1  0.37295282  0.87563456  0.62718368  1
  Fe  Fe77  1  0.50273598  0.75158361  0.25113236  1
  Fe  Fe78  1  0.24925803  0.24614782  0.24760657  1
  Fe  Fe79  1  0.74917830  0.24605222  0.50160075  1
  Fe  Fe80  1  0.62251695  0.12229962  0.37583366  1
  Fe  Fe81  1  0.87361463  0.87615027  0.12517198  1
  Fe  Fe82  1  0.37425671  0.37232134  0.37482285  1
  Fe  Fe83  1  0.37003112  0.37468161  0.12290747  1
  Fe  Fe84  1  0.87465031  0.62427968  0.12787903  1
  Fe  Fe85  1  0.61985840  0.12503926  0.87829694  1
  Fe  Fe86  1  0.25287486  0.74964508  -0.00136833  1
  Fe  Fe87  1  0.87472679  0.87589375  0.87339413  1
  Fe  Fe88  1  0.12480713  0.12497264  0.62497306  1
  Fe  Fe89  1  0.87183211  0.37469865  0.87663457  1
  Co  Co90  1  0.86816574  0.87603761  0.62603065  1
  Co  Co91  1  0.87720827  0.62890619  0.87119808  1
  Co  Co92  1  0.74562979  0.00077000  0.75553669  1
  Co  Co93  1  0.25239256  0.24643792  0.50064945  1
  Co  Co94  1  0.37214888  0.87546378  0.87151881  1
  Co  Co95  1  0.49581277  -0.00605453  -0.00098791  1
  Co  Co96  1  0.25059238  0.00393565  0.25101510  1
  Co  Co97  1  0.12046016  0.12510624  0.87326290  1
  Co  Co98  1  0.24778315  0.24254096  0.00060729  1
  Co  Co99  1  0.87283023  0.37292882  0.37931105  1
  Co  Co100  1  0.12192811  0.12325759  0.12679636  1
  Co  Co101  1  0.62579207  0.87304052  0.87872083  1
  Co  Co102  1  0.38181347  0.12836790  0.87662791  1
  Co  Co103  1  0.25052491  0.50365286  -0.00291965  1
  Co  Co104  1  0.75098702  0.50119550  0.75016519  1
  Co  Co105  1  0.50079152  0.25557895  0.00248466  1
  Co  Co106  1  0.75155464  0.49804567  0.25050870  1
  Co  Co107  1  0.25250110  0.00566977  -0.00175479  1
  Co  Co108  1  0.50190101  0.00001842  0.24655275  1
  Co  Co109  1  0.62610559  0.37565711  0.62367717  1
  Co  Co110  1  0.62369710  0.62218869  0.37463323  1
  Co  Co111  1  0.00014113  0.75356047  0.50237566  1
  Co  Co112  1  0.00172378  -0.00395021  0.74632414  1
  Co  Co113  1  0.37918083  0.62531964  0.87341960  1
  Co  Co114  1  0.13200914  0.87455829  0.62613210  1
  Co  Co115  1  0.49550315  0.00058543  0.50177184  1
  Co  Co116  1  0.62439954  0.12129000  0.62395289  1
  Co  Co117  1  0.75098344  0.24476594  -0.00089873  1
  Co  Co118  1  0.12386215  0.87638135  0.37431186  1
  Co  Co119  1  0.37225741  0.87581309  0.12864937  1
  Co  Co120  1  0.50061141  0.75225025  0.50181371  1
  Co  Co121  1  0.62127639  0.87971292  0.37740648  1
  Co  Co122  1  0.37980909  0.12440786  0.12248201  1
  Co  Co123  1  -0.00199663  0.24833928  0.50418890  1
  Co  Co124  1  0.75262184  0.00154490  0.49534385  1
  Co  Co125  1  0.87192524  0.37492029  0.12030747  1
  Co  Co126  1  0.24993077  0.49932670  0.25353682  1
  Co  Co127  1  0.75250741  0.50650084  -0.00198334  1
