# generated using pymatgen
data_Fe45Co19
_symmetry_space_group_name_H-M   'P 1'
_cell_length_a   11.41569174
_cell_length_b   11.41465483
_cell_length_c   11.41468705
_cell_angle_alpha   89.99156813
_cell_angle_beta   89.99605480
_cell_angle_gamma   90.00273400
_symmetry_Int_Tables_number   1
_chemical_formula_structural   Fe45Co19
_chemical_formula_sum   'Fe90 Co38'
_cell_volume   1487.40425383
_cell_formula_units_Z   2
loop_
 _symmetry_equiv_pos_site_id
 _symmetry_equiv_pos_as_xyz
  1  'x, y, z'
loop_
 _atom_site_type_symbol
 _atom_site_label
 _atom_site_symmetry_multiplicity
 _atom_site_fract_x
 _atom_site_fract_y
 _atom_site_fract_z
 _atom_site_occupancy
  Fe  Fe0  1  0.00054521  -0.00008427  -0.00003945  1
  Fe  Fe1  1  0.37578465  0.12560812  0.62403315  1
  Fe  Fe2  1  0.12611086  0.37721752  0.87524457  1
  Fe  Fe3  1  0.12399323  0.12391614  0.62809998  1
  Fe  Fe4  1  0.74666840  0.00180375  0.00283201  1
  Fe  Fe5  1  0.50119602  0.74919677  0.25077657  1
  Fe  Fe6  1  0.37829923  0.12566854  0.87802286  1
  Fe  Fe7  1  0.74864247  0.74855784  0.25075489  1
  Fe  Fe8  1  0.37663080  0.12315266  0.37606744  1
  Fe  Fe9  1  0.00273067  0.25392921  0.49779028  1
  Fe  Fe10  1  0.87522172  0.62260508  0.37594083  1
  Fe  Fe11  1  0.74620000  0.25361909  0.49848796  1
  Fe  Fe12  1  0.12461253  0.12262524  0.87217679  1
  Fe  Fe13  1  0.87441672  0.37066228  0.12570370  1
  Fe  Fe14  1  0.24970909  0.49925230  0.50459395  1
  Fe  Fe15  1  0.62586952  0.62339480  0.63449244  1
  Fe  Fe16  1  -0.00404414  0.75391525  0.75152969  1
  Fe  Fe17  1  0.00177528  0.75057006  0.49888930  1
  Fe  Fe18  1  0.62413601  0.12387266  0.62788134  1
  Fe  Fe19  1  0.00145494  0.49626632  0.50056539  1
  Fe  Fe20  1  0.75078338  0.49909918  -0.00289692  1
  Fe  Fe21  1  0.87598709  0.12761639  0.62294302  1
  Fe  Fe22  1  0.62333042  0.37718745  0.86930942  1
  Fe  Fe23  1  0.50052157  0.49971664  0.50572692  1
  Fe  Fe24  1  0.24967429  -0.00038771  0.50033642  1
  Fe  Fe25  1  0.50078828  -0.00300447  0.24817498  1
  Fe  Fe26  1  0.37381432  0.37491180  0.12183545  1
  Fe  Fe27  1  0.24982349  0.24993948  0.24892751  1
  Fe  Fe28  1  0.62463257  0.37480977  0.12588001  1
  Fe  Fe29  1  0.12338525  0.62336128  0.62888794  1
  Fe  Fe30  1  0.25004838  0.50328777  -0.00151381  1
  Fe  Fe31  1  0.75107983  0.25037475  0.75021827  1
  Fe  Fe32  1  -0.00046379  0.00015374  0.49910066  1
  Fe  Fe33  1  0.24578303  0.74742794  -0.00229983  1
  Fe  Fe34  1  0.37474187  0.87432615  0.62510542  1
  Fe  Fe35  1  0.50350056  0.25060857  0.50202360  1
  Fe  Fe36  1  0.12541415  0.62330292  0.37454890  1
  Fe  Fe37  1  0.25018748  0.74890848  0.25078275  1
  Fe  Fe38  1  0.87389809  0.87348710  0.12164444  1
  Fe  Fe39  1  -0.00036257  0.75062136  0.25040294  1
  Fe  Fe40  1  0.50337243  0.75077715  0.50221560  1
  Fe  Fe41  1  0.62222374  0.12321168  0.87501366  1
  Fe  Fe42  1  0.62362578  0.12375905  0.37294580  1
  Fe  Fe43  1  0.74795818  0.74861596  0.50138371  1
  Fe  Fe44  1  0.74840146  0.49699434  0.50159790  1
  Fe  Fe45  1  -0.00536761  0.49598344  0.75239080  1
  Fe  Fe46  1  0.25526460  0.49954275  0.74868440  1
  Fe  Fe47  1  0.37962019  0.12486318  0.12198862  1
  Fe  Fe48  1  0.62411808  0.62580194  0.12263994  1
  Fe  Fe49  1  0.74589297  0.74977584  -0.00462041  1
  Fe  Fe50  1  0.49858643  0.50175493  0.24819357  1
  Fe  Fe51  1  -0.00171860  -0.00019505  0.24982650  1
  Fe  Fe52  1  0.74834194  0.00152835  0.24693548  1
  Fe  Fe53  1  0.62725728  0.87568550  0.62896354  1
  Fe  Fe54  1  0.00036195  0.49598360  0.24847326  1
  Fe  Fe55  1  0.12656930  0.12339529  0.37245752  1
  Fe  Fe56  1  0.75677966  -0.00074325  0.74978177  1
  Fe  Fe57  1  0.74874495  0.00068329  0.49980745  1
  Fe  Fe58  1  0.37735661  0.62683314  0.87463271  1
  Fe  Fe59  1  0.87527179  0.12524124  0.87851136  1
  Fe  Fe60  1  0.37507305  0.62492974  0.37843195  1
  Fe  Fe61  1  0.24976380  0.24886052  -0.00024341  1
  Fe  Fe62  1  0.87445620  0.12944991  0.37198830  1
  Fe  Fe63  1  -0.00169879  0.25090876  0.75089269  1
  Fe  Fe64  1  0.74554099  0.24827710  0.00172223  1
  Fe  Fe65  1  0.12563402  0.87809529  0.87238651  1
  Fe  Fe66  1  0.25043021  0.74939590  0.75027701  1
  Fe  Fe67  1  0.50418181  0.75322458  -0.00596134  1
  Fe  Fe68  1  0.12304600  0.87872882  0.62769108  1
  Fe  Fe69  1  0.12496318  0.12400782  0.12670743  1
  Fe  Fe70  1  0.50036040  0.25226574  0.25001282  1
  Fe  Fe71  1  0.37503896  0.37608923  0.37738182  1
  Fe  Fe72  1  0.37475683  0.87256256  0.12236039  1
  Fe  Fe73  1  0.24630602  0.75115042  0.50020225  1
  Fe  Fe74  1  0.37560572  0.87580395  0.37645330  1
  Fe  Fe75  1  0.87686976  0.62727263  0.87814670  1
  Fe  Fe76  1  0.49992221  0.49936264  -0.00161133  1
  Fe  Fe77  1  0.25205688  0.50200706  0.24766304  1
  Fe  Fe78  1  0.87580612  0.62625356  0.12184367  1
  Fe  Fe79  1  0.87261153  0.87404838  0.37674196  1
  Fe  Fe80  1  0.24794576  0.25093971  0.50084750  1
  Fe  Fe81  1  0.74930606  0.49956878  0.25033398  1
  Fe  Fe82  1  0.00246368  0.25041701  0.00134108  1
  Fe  Fe83  1  0.25135352  0.00109889  -0.00014284  1
  Fe  Fe84  1  0.49604273  -0.00149998  0.75153626  1
  Fe  Fe85  1  0.87474814  0.62482043  0.62529036  1
  Fe  Fe86  1  0.62403350  0.62338085  0.37540618  1
  Fe  Fe87  1  0.25258968  0.25004278  0.75090974  1
  Fe  Fe88  1  0.12269559  0.62352145  0.12375738  1
  Fe  Fe89  1  0.12672633  0.87608272  0.12639082  1
  Co  Co90  1  0.75402615  0.75021582  0.75242243  1
  Co  Co91  1  0.49959948  0.75241786  0.75224076  1
  Co  Co92  1  0.12541488  0.87705588  0.37307701  1
  Co  Co93  1  0.62558681  0.37627542  0.63141207  1
  Co  Co94  1  0.62365166  0.62053957  0.87010334  1
  Co  Co95  1  0.00457499  0.75111525  -0.00095990  1
  Co  Co96  1  0.37748419  0.62880640  0.12097497  1
  Co  Co97  1  0.50281849  0.25375647  -0.00148013  1
  Co  Co98  1  0.25388248  0.00099913  0.24873803  1
  Co  Co99  1  0.50172985  -0.00052957  0.50196892  1
  Co  Co100  1  -0.00229771  0.49812358  -0.00043456  1
  Co  Co101  1  0.12807996  0.37640261  0.12146808  1
  Co  Co102  1  0.12508201  0.37510991  0.62978012  1
  Co  Co103  1  0.75688707  0.49933146  0.75305273  1
  Co  Co104  1  0.49818208  0.24879335  0.75064832  1
  Co  Co105  1  0.87647440  0.12759248  0.12534120  1
  Co  Co106  1  0.61932091  0.12598719  0.12441647  1
  Co  Co107  1  0.37586384  0.37030280  0.62343476  1
  Co  Co108  1  0.87368384  0.37244755  0.62291314  1
  Co  Co109  1  0.62549489  0.87187975  0.12482130  1
  Co  Co110  1  0.62843167  0.87869646  0.87020228  1
  Co  Co111  1  0.37446565  0.37444415  0.87730394  1
  Co  Co112  1  0.25411115  0.00260493  0.74996075  1
  Co  Co113  1  0.74589615  0.24933531  0.24979537  1
  Co  Co114  1  0.37086823  0.87363441  0.87670903  1
  Co  Co115  1  0.87371564  0.37422156  0.37391839  1
  Co  Co116  1  0.37444275  0.63004336  0.62403387  1
  Co  Co117  1  -0.00602037  0.00000248  0.75029320  1
  Co  Co118  1  0.87372726  0.87624383  0.88088894  1
  Co  Co119  1  0.00448633  0.25213302  0.24983590  1
  Co  Co120  1  0.62650282  0.87521265  0.37491974  1
  Co  Co121  1  0.87413702  0.87462844  0.62068504  1
  Co  Co122  1  0.62271306  0.37737418  0.37403913  1
  Co  Co123  1  0.12231362  0.62221601  0.87085539  1
  Co  Co124  1  0.12894320  0.37676668  0.37394534  1
  Co  Co125  1  0.87396694  0.36918971  0.87863942  1
  Co  Co126  1  0.50132282  -0.00463054  -0.00117043  1
  Co  Co127  1  0.49262390  0.49920290  0.74764317  1
