# generated using pymatgen
data_Fe45Co19
_symmetry_space_group_name_H-M   'P 1'
_cell_length_a   11.41481043
_cell_length_b   11.41396617
_cell_length_c   11.41417260
_cell_angle_alpha   90.00064688
_cell_angle_beta   89.99770087
_cell_angle_gamma   90.01116097
_symmetry_Int_Tables_number   1
_chemical_formula_structural   Fe45Co19
_chemical_formula_sum   'Fe90 Co38'
_cell_volume   1487.13265898
_cell_formula_units_Z   2
loop_
 _symmetry_equiv_pos_site_id
 _symmetry_equiv_pos_as_xyz
  1  'x, y, z'
loop_
 _atom_site_type_symbol
 _atom_site_label
 _atom_site_symmetry_multiplicity
 _atom_site_fract_x
 _atom_site_fract_y
 _atom_site_fract_z
 _atom_site_occupancy
  Fe  Fe0  1  0.25309697  0.50390560  0.75236104  1
  Fe  Fe1  1  0.12502354  0.37493802  0.12935639  1
  Fe  Fe2  1  0.62384077  0.12633562  0.87511464  1
  Fe  Fe3  1  0.62409551  0.37524076  0.62475822  1
  Fe  Fe4  1  -0.00213570  -0.00062403  0.00195842  1
  Fe  Fe5  1  0.00006120  0.24984052  0.75015301  1
  Fe  Fe6  1  0.25301163  0.75286464  0.24645100  1
  Fe  Fe7  1  0.50052325  0.75138445  0.25050843  1
  Fe  Fe8  1  0.62363507  0.62315536  0.12597204  1
  Fe  Fe9  1  0.75003875  -0.00222824  0.50123662  1
  Fe  Fe10  1  0.12658428  0.87513527  0.87577119  1
  Fe  Fe11  1  0.50173201  0.49572055  -0.00097478  1
  Fe  Fe12  1  0.37472892  0.12722301  0.62367674  1
  Fe  Fe13  1  0.87508401  0.62699710  0.37504507  1
  Fe  Fe14  1  0.49850734  0.49971019  0.49710536  1
  Fe  Fe15  1  0.37670176  0.87464861  0.87370729  1
  Fe  Fe16  1  0.49964600  -0.00029530  0.25092904  1
  Fe  Fe17  1  0.12578582  0.37573037  0.62581862  1
  Fe  Fe18  1  0.49962864  0.25059801  0.75100211  1
  Fe  Fe19  1  0.87293005  0.37310193  0.12832863  1
  Fe  Fe20  1  0.87510367  0.62479835  0.87643863  1
  Fe  Fe21  1  0.25249023  -0.00074164  0.00345533  1
  Fe  Fe22  1  0.74867683  0.24987884  0.49902360  1
  Fe  Fe23  1  0.25230596  0.74705547  0.75042193  1
  Fe  Fe24  1  -0.00008518  0.24869843  0.00303312  1
  Fe  Fe25  1  0.62143496  0.87507720  0.62664495  1
  Fe  Fe26  1  0.75086364  0.49934212  0.74837069  1
  Fe  Fe27  1  0.49692735  0.74628459  0.74819875  1
  Fe  Fe28  1  0.87648672  0.62690181  0.62256023  1
  Fe  Fe29  1  0.87463431  0.12309025  0.37353845  1
  Fe  Fe30  1  0.49499361  -0.00302976  0.50208545  1
  Fe  Fe31  1  0.12509480  0.12473179  0.62418391  1
  Fe  Fe32  1  0.00173050  0.25056087  0.49824900  1
  Fe  Fe33  1  0.37519847  0.37429821  0.87521725  1
  Fe  Fe34  1  0.38104105  0.37214620  0.13102046  1
  Fe  Fe35  1  0.00003494  0.49985941  0.00217151  1
  Fe  Fe36  1  0.24917794  0.24953308  0.75045394  1
  Fe  Fe37  1  0.87372569  0.87653932  0.37367601  1
  Fe  Fe38  1  0.37800466  0.62566149  0.12343295  1
  Fe  Fe39  1  0.25117514  0.49873982  0.00240701  1
  Fe  Fe40  1  0.12594815  0.12385727  0.12721931  1
  Fe  Fe41  1  0.87098466  0.87408579  0.87866795  1
  Fe  Fe42  1  0.62632503  0.62602291  0.37661361  1
  Fe  Fe43  1  0.50345993  0.75170940  -0.00069662  1
  Fe  Fe44  1  0.00316543  0.75244089  0.49855073  1
  Fe  Fe45  1  0.00262086  -0.00093889  0.49906940  1
  Fe  Fe46  1  0.74921792  0.50111764  0.24980531  1
  Fe  Fe47  1  -0.00064759  0.75476609  0.24784131  1
  Fe  Fe48  1  0.74779299  0.49929538  0.00082619  1
  Fe  Fe49  1  0.74909562  0.74953458  0.74984784  1
  Fe  Fe50  1  0.12554238  0.37540825  0.87625523  1
  Fe  Fe51  1  0.37415242  0.37594607  0.62411960  1
  Fe  Fe52  1  0.87651256  0.87447894  0.62496455  1
  Fe  Fe53  1  0.12698513  0.37369270  0.36911517  1
  Fe  Fe54  1  0.12496424  0.62578818  0.12559482  1
  Fe  Fe55  1  0.62364805  0.62487512  0.62278431  1
  Fe  Fe56  1  0.50144786  -0.00068581  -0.00420534  1
  Fe  Fe57  1  -0.00039990  0.49850459  0.49752845  1
  Fe  Fe58  1  0.37236367  0.12401010  0.37525450  1
  Fe  Fe59  1  0.74080413  0.24508343  0.25173453  1
  Fe  Fe60  1  0.62292723  0.62287449  0.87366896  1
  Fe  Fe61  1  0.37342325  0.62769453  0.37614680  1
  Fe  Fe62  1  0.12625183  0.62558364  0.37129791  1
  Fe  Fe63  1  0.62357237  0.87547019  0.37737115  1
  Fe  Fe64  1  0.49879143  0.25325031  0.49525389  1
  Fe  Fe65  1  0.74923076  0.00103911  0.75197026  1
  Fe  Fe66  1  -0.00090543  0.50042322  0.75054122  1
  Fe  Fe67  1  0.12620051  0.12505907  0.87746060  1
  Fe  Fe68  1  0.12920230  0.12257933  0.37230778  1
  Fe  Fe69  1  0.25143300  0.75052762  -0.00004458  1
  Fe  Fe70  1  0.00108532  0.74997948  0.75183873  1
  Fe  Fe71  1  0.87363513  0.37307876  0.37247552  1
  Fe  Fe72  1  0.75020066  0.24877914  0.74850589  1
  Fe  Fe73  1  0.87510040  0.62687094  0.12575409  1
  Fe  Fe74  1  0.87402947  0.37253256  0.87537585  1
  Fe  Fe75  1  0.62302423  0.12449251  0.62253231  1
  Fe  Fe76  1  0.38084582  0.12882235  0.12395599  1
  Fe  Fe77  1  0.13123259  0.87871791  0.37231772  1
  Fe  Fe78  1  0.87625451  0.12491668  0.62426139  1
  Fe  Fe79  1  0.12626836  0.62600414  0.62462655  1
  Fe  Fe80  1  0.25216191  -0.00037653  0.74732267  1
  Fe  Fe81  1  0.24939487  0.49855144  0.49672699  1
  Fe  Fe82  1  0.87160599  0.12049946  0.12834183  1
  Fe  Fe83  1  -0.00081811  -0.00019100  0.75227747  1
  Fe  Fe84  1  0.62840745  0.87903304  0.12244625  1
  Fe  Fe85  1  0.74918857  0.75226772  0.24947416  1
  Fe  Fe86  1  0.74582967  0.24884632  0.00226385  1
  Fe  Fe87  1  0.37394305  0.12699463  0.87710717  1
  Fe  Fe88  1  0.75211110  0.49974572  0.50067466  1
  Fe  Fe89  1  -0.00043004  0.75144403  0.00168802  1
  Co  Co90  1  0.00058434  -0.00223126  0.24890058  1
  Co  Co91  1  0.37318721  0.62336283  0.61955159  1
  Co  Co92  1  0.37550686  0.87248317  0.62616995  1
  Co  Co93  1  0.37351806  0.37465798  0.37075248  1
  Co  Co94  1  0.25499951  0.00006300  0.24397023  1
  Co  Co95  1  0.49858630  0.00318691  0.75056616  1
  Co  Co96  1  -0.00185169  0.50040750  0.24982999  1
  Co  Co97  1  0.24911084  0.25132032  0.49911380  1
  Co  Co98  1  0.00002670  0.24740560  0.24984281  1
  Co  Co99  1  0.86890107  0.87733453  0.12314605  1
  Co  Co100  1  0.87584885  0.37324009  0.62468173  1
  Co  Co101  1  0.74558747  0.00069910  0.25296490  1
  Co  Co102  1  0.25185712  0.24787014  0.24808142  1
  Co  Co103  1  0.62712610  0.37477086  0.87186810  1
  Co  Co104  1  0.62068949  0.12229300  0.12279063  1
  Co  Co105  1  0.49921746  0.50387356  0.25397741  1
  Co  Co106  1  0.74836508  0.00339016  -0.00519807  1
  Co  Co107  1  0.37960797  0.87443826  0.12298307  1
  Co  Co108  1  0.62231716  0.12000289  0.38139316  1
  Co  Co109  1  0.25013703  0.25209284  0.00329263  1
  Co  Co110  1  0.50470044  0.24637410  0.25661299  1
  Co  Co111  1  0.87578884  0.12796510  0.87541962  1
  Co  Co112  1  0.12616377  0.87498176  0.12405415  1
  Co  Co113  1  0.37251885  0.87513563  0.37471459  1
  Co  Co114  1  0.74921496  0.75236809  0.50093859  1
  Co  Co115  1  0.62385527  0.87377195  0.87260815  1
  Co  Co116  1  0.49768098  0.50027124  0.74926547  1
  Co  Co117  1  0.37810254  0.62445031  0.88009113  1
  Co  Co118  1  0.25251734  0.50197465  0.24722497  1
  Co  Co119  1  0.62179886  0.37521212  0.12996841  1
  Co  Co120  1  0.74649574  0.74663690  0.00008647  1
  Co  Co121  1  0.50291506  0.25321661  -0.00292158  1
  Co  Co122  1  0.24880767  0.75262602  0.50085491  1
  Co  Co123  1  0.25138714  -0.00094696  0.50451795  1
  Co  Co124  1  0.12525896  0.87425259  0.62760062  1
  Co  Co125  1  0.49964637  0.75053502  0.49921433  1
  Co  Co126  1  0.12510968  0.62473698  0.87725014  1
  Co  Co127  1  0.62599778  0.37846468  0.37412628  1
