# generated using pymatgen
data_Fe45Co19
_symmetry_space_group_name_H-M   'P 1'
_cell_length_a   11.41534736
_cell_length_b   11.41526307
_cell_length_c   11.41443980
_cell_angle_alpha   89.99640596
_cell_angle_beta   90.00709112
_cell_angle_gamma   89.99295907
_symmetry_Int_Tables_number   1
_chemical_formula_structural   Fe45Co19
_chemical_formula_sum   'Fe90 Co38'
_cell_volume   1487.40641603
_cell_formula_units_Z   2
loop_
 _symmetry_equiv_pos_site_id
 _symmetry_equiv_pos_as_xyz
  1  'x, y, z'
loop_
 _atom_site_type_symbol
 _atom_site_label
 _atom_site_symmetry_multiplicity
 _atom_site_fract_x
 _atom_site_fract_y
 _atom_site_fract_z
 _atom_site_occupancy
  Fe  Fe0  1  0.50018290  0.74930190  0.74978816  1
  Fe  Fe1  1  0.75259546  0.74634314  0.00071195  1
  Fe  Fe2  1  0.37826530  0.12583047  0.87568485  1
  Fe  Fe3  1  0.12651886  0.37309249  0.87430979  1
  Fe  Fe4  1  0.49831579  0.49691248  0.74993986  1
  Fe  Fe5  1  -0.00131234  0.24957476  0.00134987  1
  Fe  Fe6  1  0.62842313  0.62322057  0.12698000  1
  Fe  Fe7  1  0.24893926  0.00010423  0.75363489  1
  Fe  Fe8  1  0.00067953  0.25021522  0.74854482  1
  Fe  Fe9  1  0.62701359  0.37676960  0.62143989  1
  Fe  Fe10  1  0.75079543  0.25095786  0.75433821  1
  Fe  Fe11  1  0.12257619  0.37332046  0.37695535  1
  Fe  Fe12  1  0.37444232  0.37717266  0.12146561  1
  Fe  Fe13  1  0.37743166  0.87498398  0.87662582  1
  Fe  Fe14  1  0.74952922  0.00660060  -0.00552235  1
  Fe  Fe15  1  0.62733506  0.87468403  0.62497124  1
  Fe  Fe16  1  0.37549091  0.12488020  0.12583838  1
  Fe  Fe17  1  0.62838340  0.62149109  0.62642071  1
  Fe  Fe18  1  0.62500599  0.87442607  0.37569274  1
  Fe  Fe19  1  0.49981427  0.74798505  0.50100289  1
  Fe  Fe20  1  0.50024424  0.74963643  0.24712513  1
  Fe  Fe21  1  0.87244620  0.12976607  0.12823486  1
  Fe  Fe22  1  0.74929462  0.74723674  0.49903697  1
  Fe  Fe23  1  0.00125641  0.74642108  0.50245628  1
  Fe  Fe24  1  0.12697458  0.87091409  0.62682418  1
  Fe  Fe25  1  0.62676015  0.12722623  0.12462090  1
  Fe  Fe26  1  -0.00204322  0.00259261  0.00172225  1
  Fe  Fe27  1  0.00015794  0.50124555  0.74988919  1
  Fe  Fe28  1  0.12640959  0.62504163  0.12909251  1
  Fe  Fe29  1  0.62837344  0.37328774  0.12292789  1
  Fe  Fe30  1  0.50242413  0.25165076  0.25017307  1
  Fe  Fe31  1  0.24988206  0.74955463  0.00089623  1
  Fe  Fe32  1  0.12167931  0.87348367  0.87671042  1
  Fe  Fe33  1  0.87328391  0.87578209  0.62368692  1
  Fe  Fe34  1  0.62314941  0.37443526  0.87814788  1
  Fe  Fe35  1  0.12491477  0.37609082  0.12281781  1
  Fe  Fe36  1  0.87535266  0.87521967  0.87656389  1
  Fe  Fe37  1  0.37670402  0.12637786  0.37522485  1
  Fe  Fe38  1  0.24852708  -0.00202721  0.25066370  1
  Fe  Fe39  1  0.74684438  0.24893750  0.49388235  1
  Fe  Fe40  1  0.87370401  0.62131862  0.62664976  1
  Fe  Fe41  1  0.25028955  0.00112825  -0.00136568  1
  Fe  Fe42  1  0.12216969  0.62778213  0.87176765  1
  Fe  Fe43  1  0.37219724  0.62529997  0.37156791  1
  Fe  Fe44  1  0.87643496  0.62793756  0.37075015  1
  Fe  Fe45  1  0.75198760  0.49537752  0.25285439  1
  Fe  Fe46  1  0.37681200  0.37435488  0.37796031  1
  Fe  Fe47  1  0.87778019  0.37703010  0.87808291  1
  Fe  Fe48  1  0.24800620  0.24958969  0.50069061  1
  Fe  Fe49  1  0.12716187  0.37778942  0.62602114  1
  Fe  Fe50  1  0.62533900  0.62330697  0.37330283  1
  Fe  Fe51  1  -0.00049995  -0.00089894  0.74973190  1
  Fe  Fe52  1  0.50176199  -0.00140667  0.74973542  1
  Fe  Fe53  1  0.87303765  0.12584142  0.62599288  1
  Fe  Fe54  1  0.62568392  0.87560472  0.87548150  1
  Fe  Fe55  1  0.37434616  0.12619372  0.62371838  1
  Fe  Fe56  1  0.37677330  0.62218723  0.87673694  1
  Fe  Fe57  1  0.37545932  0.87345391  0.37577245  1
  Fe  Fe58  1  0.50072018  0.00064679  0.50155388  1
  Fe  Fe59  1  0.87407025  0.37607573  0.62219065  1
  Fe  Fe60  1  0.12252265  0.87188688  0.37407523  1
  Fe  Fe61  1  0.49901547  0.50114944  0.50186046  1
  Fe  Fe62  1  0.12644071  0.12482431  0.62762673  1
  Fe  Fe63  1  0.24840799  -0.00066065  0.49821924  1
  Fe  Fe64  1  0.12467593  0.62718125  0.36978875  1
  Fe  Fe65  1  -0.00022974  0.49640037  0.24841443  1
  Fe  Fe66  1  0.24629878  0.50301392  0.49891646  1
  Fe  Fe67  1  0.87950514  0.36956108  0.37529665  1
  Fe  Fe68  1  0.49795089  0.49955362  0.24648329  1
  Fe  Fe69  1  0.37248760  0.87353839  0.62472881  1
  Fe  Fe70  1  0.37101629  0.62492277  0.62656411  1
  Fe  Fe71  1  -0.00417143  0.74683683  0.00533018  1
  Fe  Fe72  1  -0.00260516  -0.00298624  0.24901109  1
  Fe  Fe73  1  0.62622955  0.62288231  0.87316035  1
  Fe  Fe74  1  0.25058589  0.24805540  -0.00092210  1
  Fe  Fe75  1  0.37430293  0.87469775  0.12333820  1
  Fe  Fe76  1  0.12131736  0.12708916  0.37368349  1
  Fe  Fe77  1  0.75255386  0.75001124  0.75107333  1
  Fe  Fe78  1  0.12550694  0.12383653  0.12507965  1
  Fe  Fe79  1  0.24787308  0.50193990  -0.00088803  1
  Fe  Fe80  1  0.62637832  0.12621492  0.62749521  1
  Fe  Fe81  1  0.24888860  0.25225234  0.24982510  1
  Fe  Fe82  1  0.50028055  -0.00140668  0.24769234  1
  Fe  Fe83  1  0.75160208  0.00235988  0.49669981  1
  Fe  Fe84  1  0.75236776  0.50007276  -0.00103494  1
  Fe  Fe85  1  0.75340368  0.00021446  0.25449954  1
  Fe  Fe86  1  0.62912703  0.87662431  0.12338352  1
  Fe  Fe87  1  -0.00091860  0.00114474  0.50002058  1
  Fe  Fe88  1  0.50186125  0.74781581  0.00236761  1
  Fe  Fe89  1  0.49580201  0.25482572  0.74875726  1
  Co  Co90  1  0.25050743  0.50048961  0.75212716  1
  Co  Co91  1  0.87015024  0.87762637  0.12195059  1
  Co  Co92  1  0.75054202  0.49645137  0.75281983  1
  Co  Co93  1  -0.00491409  0.75089572  0.74851253  1
  Co  Co94  1  0.61967137  0.12803459  0.87272403  1
  Co  Co95  1  0.25059566  0.75403224  0.24824724  1
  Co  Co96  1  0.25273657  0.24956908  0.75056451  1
  Co  Co97  1  0.00029463  0.50275746  0.49920154  1
  Co  Co98  1  0.00187900  0.24917031  0.50553827  1
  Co  Co99  1  0.87957244  0.12566547  0.87182758  1
  Co  Co100  1  0.74983128  0.00043374  0.75319513  1
  Co  Co101  1  0.12335298  0.12670941  0.87511686  1
  Co  Co102  1  0.00313558  0.25200649  0.24463548  1
  Co  Co103  1  0.12539198  0.87646261  0.12188338  1
  Co  Co104  1  0.62024714  0.37986414  0.37691211  1
  Co  Co105  1  0.24970827  0.49480141  0.25048262  1
  Co  Co106  1  0.87379332  0.62067824  0.12880609  1
  Co  Co107  1  0.87629282  0.87122506  0.37743696  1
  Co  Co108  1  0.74616218  0.25177920  0.25562846  1
  Co  Co109  1  0.87294464  0.37407971  0.12382396  1
  Co  Co110  1  0.37330413  0.37756784  0.87949574  1
  Co  Co111  1  -0.00220653  0.75447107  0.24339456  1
  Co  Co112  1  0.37123592  0.37644382  0.62102331  1
  Co  Co113  1  0.25216130  0.75056336  0.75303022  1
  Co  Co114  1  0.88067165  0.12979567  0.37390602  1
  Co  Co115  1  0.75374027  0.49966839  0.49485294  1
  Co  Co116  1  0.75215790  0.24791317  -0.00493079  1
  Co  Co117  1  0.12617021  0.62577652  0.62938840  1
  Co  Co118  1  0.00162123  0.50231818  0.00106186  1
  Co  Co119  1  0.50268629  0.50117394  0.00192579  1
  Co  Co120  1  0.24865741  0.74847749  0.49886857  1
  Co  Co121  1  0.50300292  0.24899966  0.50062951  1
  Co  Co122  1  0.75015779  0.75234644  0.24948685  1
  Co  Co123  1  0.87538407  0.62267039  0.87407739  1
  Co  Co124  1  0.37180714  0.62379449  0.12508920  1
  Co  Co125  1  0.50214948  0.00044736  0.00138200  1
  Co  Co126  1  0.49926058  0.25015924  0.00183460  1
  Co  Co127  1  0.62136861  0.12147518  0.37343721  1
