# generated using pymatgen
data_Fe45Co19
_symmetry_space_group_name_H-M   'P 1'
_cell_length_a   11.41388263
_cell_length_b   11.41597540
_cell_length_c   11.41559787
_cell_angle_alpha   90.00205162
_cell_angle_beta   89.98897750
_cell_angle_gamma   90.00238219
_symmetry_Int_Tables_number   1
_chemical_formula_structural   Fe45Co19
_chemical_formula_sum   'Fe90 Co38'
_cell_volume   1487.45926027
_cell_formula_units_Z   2
loop_
 _symmetry_equiv_pos_site_id
 _symmetry_equiv_pos_as_xyz
  1  'x, y, z'
loop_
 _atom_site_type_symbol
 _atom_site_label
 _atom_site_symmetry_multiplicity
 _atom_site_fract_x
 _atom_site_fract_y
 _atom_site_fract_z
 _atom_site_occupancy
  Fe  Fe0  1  0.37198533  0.87383947  0.62320416  1
  Fe  Fe1  1  0.12420178  0.37470848  0.37430528  1
  Fe  Fe2  1  0.25083949  0.75250571  0.24891200  1
  Fe  Fe3  1  0.49744876  -0.00066076  0.49917581  1
  Fe  Fe4  1  0.87372165  0.87412154  0.87725185  1
  Fe  Fe5  1  0.62578922  0.62411207  0.87270806  1
  Fe  Fe6  1  0.00084483  0.24935002  0.50205100  1
  Fe  Fe7  1  0.00312531  0.24931538  0.00039476  1
  Fe  Fe8  1  -0.00062402  0.50022037  0.00073224  1
  Fe  Fe9  1  0.74932772  0.25054001  0.25042189  1
  Fe  Fe10  1  0.50131980  0.24948115  0.25087808  1
  Fe  Fe11  1  -0.00433473  -0.00211403  0.25014439  1
  Fe  Fe12  1  0.87469660  0.62734298  0.62830053  1
  Fe  Fe13  1  0.00322428  0.74876404  0.50185875  1
  Fe  Fe14  1  0.87575042  0.87308818  0.62495231  1
  Fe  Fe15  1  0.62640173  0.62407908  0.12611640  1
  Fe  Fe16  1  0.25222451  -0.00201532  0.24678378  1
  Fe  Fe17  1  0.37347492  0.62793843  0.87590484  1
  Fe  Fe18  1  0.50125430  0.75034228  -0.00032699  1
  Fe  Fe19  1  0.62356920  0.12564034  0.87177917  1
  Fe  Fe20  1  0.74587937  0.74762308  0.50162378  1
  Fe  Fe21  1  0.00198736  0.25055097  0.74914118  1
  Fe  Fe22  1  0.50105879  0.75249327  0.25136329  1
  Fe  Fe23  1  0.12661533  0.87664933  0.62414870  1
  Fe  Fe24  1  0.25047181  0.24828334  0.49972003  1
  Fe  Fe25  1  0.87398241  0.37344003  0.87401006  1
  Fe  Fe26  1  0.24618615  0.74743059  0.74930902  1
  Fe  Fe27  1  0.49954362  0.49996450  0.25120061  1
  Fe  Fe28  1  0.62565867  0.12415194  0.37676330  1
  Fe  Fe29  1  0.87375723  0.62717818  0.87288323  1
  Fe  Fe30  1  0.00110824  -0.00271584  0.75166536  1
  Fe  Fe31  1  0.87319763  0.62809196  0.37368075  1
  Fe  Fe32  1  0.12762836  0.37387005  0.12633932  1
  Fe  Fe33  1  0.00182021  0.00089454  0.00042808  1
  Fe  Fe34  1  0.12681719  0.12210865  0.62693039  1
  Fe  Fe35  1  0.37607634  0.37686897  0.62180680  1
  Fe  Fe36  1  0.74834542  0.24914313  -0.00216216  1
  Fe  Fe37  1  0.62260094  0.37476281  0.37994935  1
  Fe  Fe38  1  0.50217849  0.24973878  0.74621764  1
  Fe  Fe39  1  -0.00167381  0.75369824  0.24834750  1
  Fe  Fe40  1  0.87319677  0.37473119  0.12364661  1
  Fe  Fe41  1  0.25531653  0.00044162  0.00102726  1
  Fe  Fe42  1  -0.00067161  0.24927245  0.24873081  1
  Fe  Fe43  1  0.49611293  -0.00185176  0.75156765  1
  Fe  Fe44  1  0.37683181  0.62847687  0.37805372  1
  Fe  Fe45  1  0.49556450  0.00099863  -0.00237072  1
  Fe  Fe46  1  0.87489032  0.12622759  0.87317735  1
  Fe  Fe47  1  0.00037761  0.74995685  0.00012816  1
  Fe  Fe48  1  0.37551120  0.62677597  0.12462664  1
  Fe  Fe49  1  0.25173183  0.49989283  0.25243305  1
  Fe  Fe50  1  0.12563968  0.87663509  0.37516150  1
  Fe  Fe51  1  0.12431823  0.12368367  0.37236891  1
  Fe  Fe52  1  0.37753917  0.37449429  0.37784626  1
  Fe  Fe53  1  0.87529593  0.12502051  0.62744529  1
  Fe  Fe54  1  0.74904726  0.24927451  0.50572056  1
  Fe  Fe55  1  0.13027903  0.12566995  0.87353637  1
  Fe  Fe56  1  0.25146989  0.50008806  -0.00093825  1
  Fe  Fe57  1  -0.00139847  0.00097399  0.49845674  1
  Fe  Fe58  1  0.87436026  0.12330809  0.12382169  1
  Fe  Fe59  1  0.75095287  -0.00024455  0.75153243  1
  Fe  Fe60  1  0.37315130  0.62579603  0.62098073  1
  Fe  Fe61  1  0.62493850  0.87706575  0.62537567  1
  Fe  Fe62  1  0.00145071  0.50246783  0.75057271  1
  Fe  Fe63  1  0.62507728  0.87461513  0.37653926  1
  Fe  Fe64  1  0.12680502  0.37975341  0.62483851  1
  Fe  Fe65  1  0.12545448  0.62533240  0.37454360  1
  Fe  Fe66  1  0.12830979  0.37631878  0.87361816  1
  Fe  Fe67  1  0.12873000  0.87336411  0.87754383  1
  Fe  Fe68  1  0.50042996  0.75075274  0.74780744  1
  Fe  Fe69  1  0.12647397  0.62566969  0.12408809  1
  Fe  Fe70  1  0.62410160  0.12244011  0.12581296  1
  Fe  Fe71  1  0.74917972  0.49939235  0.25145455  1
  Fe  Fe72  1  0.62578355  0.87677246  0.12324812  1
  Fe  Fe73  1  0.37401333  0.37153946  0.87356247  1
  Fe  Fe74  1  -0.00069578  0.50198757  0.49954831  1
  Fe  Fe75  1  0.74720377  0.50213209  0.50156592  1
  Fe  Fe76  1  0.49887083  0.49984444  0.74946270  1
  Fe  Fe77  1  0.62498877  0.37667766  0.12235788  1
  Fe  Fe78  1  0.75279190  0.00053355  0.49979621  1
  Fe  Fe79  1  0.87171447  0.62697784  0.12540747  1
  Fe  Fe80  1  0.74745634  0.49534256  0.74896531  1
  Fe  Fe81  1  0.37389956  0.37257437  0.12595581  1
  Fe  Fe82  1  0.87472473  0.37335584  0.37770868  1
  Fe  Fe83  1  -0.00127384  0.49979561  0.24959278  1
  Fe  Fe84  1  0.49893544  0.24844954  0.00020930  1
  Fe  Fe85  1  0.49964360  0.49959449  -0.00094596  1
  Fe  Fe86  1  0.62447207  0.87517700  0.87514337  1
  Fe  Fe87  1  0.75325175  -0.00252144  0.25202879  1
  Fe  Fe88  1  0.37537269  0.12265694  0.37156621  1
  Fe  Fe89  1  0.37321175  0.12229226  0.62766571  1
  Co  Co90  1  0.12575292  0.62481360  0.87809921  1
  Co  Co91  1  0.50278468  0.75114889  0.50115610  1
  Co  Co92  1  0.87686187  0.37596052  0.62536404  1
  Co  Co93  1  0.74751227  0.74874690  -0.00149564  1
  Co  Co94  1  0.25002247  0.50002291  0.49650060  1
  Co  Co95  1  0.74802870  0.00221804  -0.00259509  1
  Co  Co96  1  0.25088404  0.24983765  0.25207334  1
  Co  Co97  1  0.12571758  0.62155690  0.62428219  1
  Co  Co98  1  0.37417955  0.87410935  0.37614229  1
  Co  Co99  1  0.62465457  0.62453596  0.62955976  1
  Co  Co100  1  0.87300625  0.87606435  0.12003403  1
  Co  Co101  1  0.74719214  0.25113936  0.74762365  1
  Co  Co102  1  0.74989241  0.75404803  0.24932045  1
  Co  Co103  1  0.75038433  0.50114508  -0.00183560  1
  Co  Co104  1  0.62299879  0.37452927  0.87557977  1
  Co  Co105  1  0.00418061  0.75182330  0.75080340  1
  Co  Co106  1  0.25114818  0.00205782  0.49890558  1
  Co  Co107  1  0.25036840  0.24836285  0.00139600  1
  Co  Co108  1  0.50241474  0.50559192  0.49999552  1
  Co  Co109  1  0.37858999  0.87409156  0.12485103  1
  Co  Co110  1  0.24688905  0.75070351  0.49936908  1
  Co  Co111  1  0.25116210  -0.00293209  0.75212978  1
  Co  Co112  1  0.50124587  -0.00161293  0.25159344  1
  Co  Co113  1  0.12496734  0.87599940  0.12421530  1
  Co  Co114  1  0.74861876  0.75374182  0.75087053  1
  Co  Co115  1  0.37664996  0.12584423  0.12771112  1
  Co  Co116  1  0.12547473  0.12362040  0.12653407  1
  Co  Co117  1  0.62022870  0.37535601  0.62164889  1
  Co  Co118  1  0.25284411  0.50256222  0.75099665  1
  Co  Co119  1  0.62450307  0.12021378  0.62573559  1
  Co  Co120  1  0.87529726  0.87046405  0.37958436  1
  Co  Co121  1  0.62401959  0.62599155  0.37182132  1
  Co  Co122  1  0.37341598  0.12882035  0.87137386  1
  Co  Co123  1  0.37344424  0.87002461  0.87429469  1
  Co  Co124  1  0.25116157  0.75084899  0.00271576  1
  Co  Co125  1  0.24918677  0.25182598  0.74558238  1
  Co  Co126  1  0.87477774  0.12849542  0.37607986  1
  Co  Co127  1  0.49722477  0.24342612  0.50108152  1
