# generated using pymatgen
data_Fe45Co19
_symmetry_space_group_name_H-M   'P 1'
_cell_length_a   11.41295550
_cell_length_b   11.41427670
_cell_length_c   11.41568208
_cell_angle_alpha   90.00042577
_cell_angle_beta   90.00095384
_cell_angle_gamma   89.98338795
_symmetry_Int_Tables_number   1
_chemical_formula_structural   Fe45Co19
_chemical_formula_sum   'Fe90 Co38'
_cell_volume   1487.12805685
_cell_formula_units_Z   2
loop_
 _symmetry_equiv_pos_site_id
 _symmetry_equiv_pos_as_xyz
  1  'x, y, z'
loop_
 _atom_site_type_symbol
 _atom_site_label
 _atom_site_symmetry_multiplicity
 _atom_site_fract_x
 _atom_site_fract_y
 _atom_site_fract_z
 _atom_site_occupancy
  Fe  Fe0  1  0.75037265  0.50137543  0.50104681  1
  Fe  Fe1  1  0.87667402  0.87453450  0.12488535  1
  Fe  Fe2  1  0.75148180  0.00025314  0.00006972  1
  Fe  Fe3  1  0.75127971  0.50100024  0.75205084  1
  Fe  Fe4  1  0.49737640  0.49808851  0.24771036  1
  Fe  Fe5  1  0.49887636  0.75048354  0.24934593  1
  Fe  Fe6  1  0.00164655  0.50284617  0.24890852  1
  Fe  Fe7  1  0.49740192  0.49934871  0.75027630  1
  Fe  Fe8  1  0.74983045  0.75044327  -0.00057401  1
  Fe  Fe9  1  0.12367789  0.37536982  0.37352273  1
  Fe  Fe10  1  0.37470097  0.88098065  0.87460990  1
  Fe  Fe11  1  0.62552567  0.62584277  0.37313784  1
  Fe  Fe12  1  0.37292991  0.87635527  0.37512927  1
  Fe  Fe13  1  0.37256838  0.37072046  0.62583866  1
  Fe  Fe14  1  0.87780481  0.62778184  0.12443592  1
  Fe  Fe15  1  0.37023693  0.87575582  0.12701541  1
  Fe  Fe16  1  0.87774909  0.12361163  0.37623106  1
  Fe  Fe17  1  0.12309618  0.12681826  0.37607738  1
  Fe  Fe18  1  0.75236163  0.24961685  0.24835231  1
  Fe  Fe19  1  0.87912249  0.37532143  0.87471173  1
  Fe  Fe20  1  0.87628989  0.37531644  0.37463734  1
  Fe  Fe21  1  0.50101709  0.00023044  0.50147276  1
  Fe  Fe22  1  0.00158068  0.00055791  0.24745871  1
  Fe  Fe23  1  0.87969178  0.37213584  0.12431935  1
  Fe  Fe24  1  0.49658477  0.75422776  0.75033182  1
  Fe  Fe25  1  0.12826465  0.63143312  0.62707281  1
  Fe  Fe26  1  0.37493075  0.37334227  0.37688343  1
  Fe  Fe27  1  -0.00161741  0.75558957  0.75049106  1
  Fe  Fe28  1  0.75116027  0.50046045  0.24772283  1
  Fe  Fe29  1  0.87529740  0.62596736  0.37490533  1
  Fe  Fe30  1  0.62481025  0.62576350  0.62736627  1
  Fe  Fe31  1  0.88337638  0.11988505  0.62154174  1
  Fe  Fe32  1  0.49899216  0.49943456  0.50181851  1
  Fe  Fe33  1  0.75566768  -0.00067924  0.75172162  1
  Fe  Fe34  1  0.75278746  0.24770841  0.50086643  1
  Fe  Fe35  1  0.00364596  0.50131962  0.74984133  1
  Fe  Fe36  1  0.24372143  0.49863423  -0.00086266  1
  Fe  Fe37  1  0.12715769  0.87310666  0.37038808  1
  Fe  Fe38  1  0.87569160  0.37471245  0.62673154  1
  Fe  Fe39  1  0.62307131  0.87994281  0.87467688  1
  Fe  Fe40  1  0.75086994  -0.00013488  0.24957080  1
  Fe  Fe41  1  0.88338722  0.12014901  0.87919935  1
  Fe  Fe42  1  0.49913205  0.24782364  -0.00143572  1
  Fe  Fe43  1  0.37533887  0.12519183  0.37701604  1
  Fe  Fe44  1  0.75514233  0.24586263  0.75238231  1
  Fe  Fe45  1  0.37239081  0.62460651  0.37735510  1
  Fe  Fe46  1  0.00476347  0.49913227  -0.00208183  1
  Fe  Fe47  1  0.24440949  -0.00028481  0.00324914  1
  Fe  Fe48  1  0.24742879  0.74598329  0.25034452  1
  Fe  Fe49  1  0.62577515  0.12532441  0.62765281  1
  Fe  Fe50  1  0.37246440  0.62437222  0.12168909  1
  Fe  Fe51  1  0.62719966  0.87422022  0.37595523  1
  Fe  Fe52  1  0.75345545  0.75335685  0.75087333  1
  Fe  Fe53  1  0.37108476  0.12548172  0.12474087  1
  Fe  Fe54  1  0.24899342  0.25035999  0.25063762  1
  Fe  Fe55  1  0.49790051  0.25077035  0.24757121  1
  Fe  Fe56  1  0.87576169  0.62690026  0.62554705  1
  Fe  Fe57  1  0.62486879  0.37387325  0.37605508  1
  Fe  Fe58  1  0.49927320  0.75130233  0.50105124  1
  Fe  Fe59  1  0.37084780  0.62929503  0.62559679  1
  Fe  Fe60  1  0.62821633  0.87684985  0.62479040  1
  Fe  Fe61  1  0.24306162  0.25020305  -0.00300392  1
  Fe  Fe62  1  0.37189549  0.37652640  0.87542911  1
  Fe  Fe63  1  0.24504990  -0.00054576  0.50119898  1
  Fe  Fe64  1  0.49757250  0.24652702  0.75268979  1
  Fe  Fe65  1  0.00558090  0.75244504  0.00099022  1
  Fe  Fe66  1  0.62382648  0.62541852  0.87452767  1
  Fe  Fe67  1  0.24806290  0.49870049  0.50303201  1
  Fe  Fe68  1  0.62441234  0.87560114  0.12426580  1
  Fe  Fe69  1  0.37246441  0.12564058  0.62210832  1
  Fe  Fe70  1  0.37025169  0.62433211  0.87431990  1
  Fe  Fe71  1  0.62619229  0.37257259  0.62722118  1
  Fe  Fe72  1  0.62542773  0.37391757  0.87469184  1
  Fe  Fe73  1  0.87272909  0.87520030  0.37728481  1
  Fe  Fe74  1  0.12426657  0.87674745  0.87535448  1
  Fe  Fe75  1  0.00319562  0.49881983  0.50347543  1
  Fe  Fe76  1  0.62393221  0.12634163  0.37407063  1
  Fe  Fe77  1  0.12708791  0.36684956  0.63070179  1
  Fe  Fe78  1  0.37465663  0.11945811  0.87670778  1
  Fe  Fe79  1  0.62371161  0.37548080  0.12165652  1
  Fe  Fe80  1  0.75169912  0.50086778  -0.00053609  1
  Fe  Fe81  1  0.75275087  0.24805806  -0.00176570  1
  Fe  Fe82  1  0.62345410  0.62482076  0.12398029  1
  Fe  Fe83  1  0.87797172  0.62652801  0.87552472  1
  Fe  Fe84  1  0.49809886  0.00047751  0.24848523  1
  Fe  Fe85  1  0.49615719  0.75218283  -0.00135407  1
  Fe  Fe86  1  0.24925311  0.49974315  0.24810127  1
  Fe  Fe87  1  0.24548312  0.00053178  0.74560560  1
  Fe  Fe88  1  0.62600327  0.12449844  0.12346780  1
  Fe  Fe89  1  0.00149392  0.75173495  0.49784354  1
  Co  Co90  1  0.24921678  0.75236208  -0.00173110  1
  Co  Co91  1  -0.00015701  0.24686993  0.25089699  1
  Co  Co92  1  0.12812485  0.87319239  0.12968671  1
  Co  Co93  1  0.62473680  0.12159722  0.87515818  1
  Co  Co94  1  0.12106447  0.12887894  0.62574336  1
  Co  Co95  1  0.12469778  0.62621511  0.12411117  1
  Co  Co96  1  0.87763273  0.87608556  0.88002900  1
  Co  Co97  1  0.24850667  0.50016235  0.74824911  1
  Co  Co98  1  0.12620336  0.62783544  0.87177392  1
  Co  Co99  1  0.87655690  0.12499143  0.12331018  1
  Co  Co100  1  0.00543683  0.24995981  -0.00118158  1
  Co  Co101  1  0.12444977  0.12737016  0.12623731  1
  Co  Co102  1  0.75069831  0.75035133  0.24838109  1
  Co  Co103  1  0.00045532  0.75059217  0.25193811  1
  Co  Co104  1  0.12534932  0.62304748  0.37625320  1
  Co  Co105  1  0.00531976  -0.00157595  0.00617874  1
  Co  Co106  1  -0.00291659  0.24753987  0.75259036  1
  Co  Co107  1  0.50126611  0.24929811  0.50142004  1
  Co  Co108  1  0.12313527  0.37368190  0.12818637  1
  Co  Co109  1  0.25181954  0.75601172  0.75386004  1
  Co  Co110  1  0.25275071  0.24359957  0.75495628  1
  Co  Co111  1  0.49817027  0.00039906  0.00485279  1
  Co  Co112  1  0.37223162  0.37375968  0.12116515  1
  Co  Co113  1  0.49875532  0.50095778  -0.00206391  1
  Co  Co114  1  0.24816360  0.75270941  0.49686223  1
  Co  Co115  1  0.74827763  0.00408634  0.49904895  1
  Co  Co116  1  0.12415394  0.37338976  0.86853050  1
  Co  Co117  1  0.12511988  0.87106206  0.62535870  1
  Co  Co118  1  0.00735585  -0.00411262  0.49791512  1
  Co  Co119  1  0.00105533  -0.00553533  0.74796132  1
  Co  Co120  1  0.49820498  0.00162585  0.74578811  1
  Co  Co121  1  0.24689043  0.24962046  0.49752100  1
  Co  Co122  1  -0.00006661  0.25327248  0.49903550  1
  Co  Co123  1  0.75043583  0.74718658  0.50082869  1
  Co  Co124  1  0.24863642  0.00365551  0.25172813  1
  Co  Co125  1  0.12081628  0.12080512  0.87187208  1
  Co  Co126  1  0.87401804  0.87762739  0.61916181  1
  Co  Co127  1  0.37215060  0.87567068  0.62238372  1
