# generated using pymatgen
data_Fe45Co19
_symmetry_space_group_name_H-M   'P 1'
_cell_length_a   11.41509406
_cell_length_b   11.41561820
_cell_length_c   11.41601439
_cell_angle_alpha   90.00049113
_cell_angle_beta   89.99552886
_cell_angle_gamma   89.99462563
_symmetry_Int_Tables_number   1
_chemical_formula_structural   Fe45Co19
_chemical_formula_sum   'Fe90 Co38'
_cell_volume   1487.62488210
_cell_formula_units_Z   2
loop_
 _symmetry_equiv_pos_site_id
 _symmetry_equiv_pos_as_xyz
  1  'x, y, z'
loop_
 _atom_site_type_symbol
 _atom_site_label
 _atom_site_symmetry_multiplicity
 _atom_site_fract_x
 _atom_site_fract_y
 _atom_site_fract_z
 _atom_site_occupancy
  Fe  Fe0  1  0.00259418  0.74779981  0.00003110  1
  Fe  Fe1  1  0.75294815  0.50358870  0.25079893  1
  Fe  Fe2  1  0.12157026  0.12719103  0.37553480  1
  Fe  Fe3  1  0.24884386  -0.00330966  0.74984060  1
  Fe  Fe4  1  0.37295634  0.87320754  0.62066676  1
  Fe  Fe5  1  0.37457736  0.62514519  0.87215006  1
  Fe  Fe6  1  0.12539943  0.37524879  0.12695539  1
  Fe  Fe7  1  0.12606558  0.62697943  0.63044897  1
  Fe  Fe8  1  0.62443511  0.62676316  0.37408675  1
  Fe  Fe9  1  0.87300378  0.37607578  0.12521698  1
  Fe  Fe10  1  0.62786556  0.37528727  0.87355938  1
  Fe  Fe11  1  0.87390750  0.37582685  0.62483927  1
  Fe  Fe12  1  0.74931833  0.50224814  0.49979769  1
  Fe  Fe13  1  0.62713787  0.37464441  0.37373908  1
  Fe  Fe14  1  0.00069595  0.50172168  -0.00056582  1
  Fe  Fe15  1  0.50081379  0.75285825  0.74928400  1
  Fe  Fe16  1  0.62600786  0.37369585  0.62463954  1
  Fe  Fe17  1  0.62565726  0.12368006  0.87317743  1
  Fe  Fe18  1  0.49635173  -0.00404637  0.25029304  1
  Fe  Fe19  1  0.37385575  0.37287129  0.37598639  1
  Fe  Fe20  1  0.49762131  0.25034247  0.24965607  1
  Fe  Fe21  1  0.12529160  0.87207100  0.37656909  1
  Fe  Fe22  1  0.12236338  0.12437549  0.62424810  1
  Fe  Fe23  1  0.50095439  0.24931632  0.74906336  1
  Fe  Fe24  1  0.87580871  0.12381652  0.87402929  1
  Fe  Fe25  1  0.12359275  0.12493633  0.87423363  1
  Fe  Fe26  1  -0.00116640  0.24992044  0.00011959  1
  Fe  Fe27  1  0.49673836  0.75394139  0.24780016  1
  Fe  Fe28  1  -0.00054662  0.25114873  0.74916064  1
  Fe  Fe29  1  0.25093428  0.50353707  0.50180264  1
  Fe  Fe30  1  0.62409158  0.62696859  0.62511384  1
  Fe  Fe31  1  0.37536757  0.12399833  0.87459178  1
  Fe  Fe32  1  0.50105951  -0.00225604  0.74857327  1
  Fe  Fe33  1  0.37377538  0.12459576  0.12604748  1
  Fe  Fe34  1  0.50105644  0.49946943  0.74802012  1
  Fe  Fe35  1  0.75335686  0.74908161  0.25157048  1
  Fe  Fe36  1  0.50107305  0.75238716  0.00317819  1
  Fe  Fe37  1  0.87310612  0.37717895  0.87274995  1
  Fe  Fe38  1  0.50087995  0.75155843  0.49956069  1
  Fe  Fe39  1  0.75065644  0.24826089  0.49871462  1
  Fe  Fe40  1  0.00057617  0.49884418  0.50012318  1
  Fe  Fe41  1  0.87508262  0.87453315  0.87428820  1
  Fe  Fe42  1  0.24786384  0.00058820  0.49831467  1
  Fe  Fe43  1  0.50024852  0.24978315  0.00163761  1
  Fe  Fe44  1  0.74867478  0.75270637  0.49843858  1
  Fe  Fe45  1  0.37473064  0.37517554  0.87517313  1
  Fe  Fe46  1  0.49944421  0.50027334  0.49956665  1
  Fe  Fe47  1  0.12567229  0.37577913  0.62581569  1
  Fe  Fe48  1  0.62724001  0.12298048  0.12724684  1
  Fe  Fe49  1  0.24767759  0.00057614  -0.00004278  1
  Fe  Fe50  1  0.87495224  0.62563662  0.62618626  1
  Fe  Fe51  1  0.00154086  -0.00358465  0.74886946  1
  Fe  Fe52  1  -0.00043502  0.74758247  0.24876912  1
  Fe  Fe53  1  0.00169715  0.75119339  0.50209053  1
  Fe  Fe54  1  0.62666550  0.62517195  0.87393186  1
  Fe  Fe55  1  0.37487598  0.87509423  0.87841098  1
  Fe  Fe56  1  0.50202588  -0.00123071  0.49826397  1
  Fe  Fe57  1  0.12310430  0.12617988  0.12708804  1
  Fe  Fe58  1  0.62645942  0.62588243  0.12581741  1
  Fe  Fe59  1  0.87463989  0.87423418  0.12526726  1
  Fe  Fe60  1  0.75028147  -0.00070089  -0.00048937  1
  Fe  Fe61  1  0.25096873  0.50025744  0.25015531  1
  Fe  Fe62  1  0.25118088  -0.00074009  0.25269483  1
  Fe  Fe63  1  0.24851834  0.50073195  -0.00072898  1
  Fe  Fe64  1  0.50203146  -0.00224651  0.00294506  1
  Fe  Fe65  1  0.87360415  0.62392702  0.87249576  1
  Fe  Fe66  1  0.12489495  0.62569541  0.86905521  1
  Fe  Fe67  1  0.62633781  0.37579017  0.12706505  1
  Fe  Fe68  1  -0.00179586  -0.00085223  0.25145707  1
  Fe  Fe69  1  0.12390958  0.62459059  0.37421724  1
  Fe  Fe70  1  -0.00353357  0.50143900  0.25086513  1
  Fe  Fe71  1  0.75435095  0.00049475  0.25467410  1
  Fe  Fe72  1  0.87584417  0.12174051  0.62093686  1
  Fe  Fe73  1  0.49819085  0.50045710  0.24981469  1
  Fe  Fe74  1  0.37548233  0.37402137  0.62375922  1
  Fe  Fe75  1  0.37522992  0.12577716  0.62322399  1
  Fe  Fe76  1  0.00059298  -0.00016824  0.00153633  1
  Fe  Fe77  1  0.37507563  0.62814331  0.37574581  1
  Fe  Fe78  1  0.50056570  0.50032000  0.00174303  1
  Fe  Fe79  1  0.75040167  0.24901033  0.00099216  1
  Fe  Fe80  1  0.37163086  0.62716982  0.12432650  1
  Fe  Fe81  1  0.24912921  0.25046027  0.75090502  1
  Fe  Fe82  1  0.87270579  0.87732266  0.62299847  1
  Fe  Fe83  1  0.24800339  0.24889099  0.49797713  1
  Fe  Fe84  1  0.24934098  0.25012196  0.00122987  1
  Fe  Fe85  1  0.12756832  0.87231555  0.12415237  1
  Fe  Fe86  1  0.74904630  0.75055963  -0.00005728  1
  Fe  Fe87  1  -0.00344699  0.25148899  0.25309025  1
  Fe  Fe88  1  0.62388174  0.12569072  0.37421696  1
  Fe  Fe89  1  0.62711103  0.12276432  0.62492180  1
  Co  Co90  1  0.87876997  0.12554493  0.38005810  1
  Co  Co91  1  0.37384802  0.37535746  0.12446347  1
  Co  Co92  1  0.12676982  0.87441735  0.62369538  1
  Co  Co93  1  0.75296569  0.24744139  0.25087157  1
  Co  Co94  1  0.74828685  -0.00106198  0.49479795  1
  Co  Co95  1  0.24737472  0.74722333  -0.00304818  1
  Co  Co96  1  -0.00165818  0.75352599  0.74877173  1
  Co  Co97  1  0.74912044  0.50026657  0.00119776  1
  Co  Co98  1  0.87650486  0.62593461  0.37920354  1
  Co  Co99  1  0.75021979  -0.00090516  0.75126603  1
  Co  Co100  1  0.75000741  0.75074134  0.74921837  1
  Co  Co101  1  0.62473178  0.87495176  0.87479795  1
  Co  Co102  1  0.12440158  0.37504141  0.87544509  1
  Co  Co103  1  0.75207942  0.24786246  0.74848930  1
  Co  Co104  1  0.00078014  0.25410190  0.50000937  1
  Co  Co105  1  0.25130359  0.49854511  0.74900555  1
  Co  Co106  1  0.87798634  0.87234956  0.37640328  1
  Co  Co107  1  0.87539228  0.12394882  0.12500467  1
  Co  Co108  1  0.37670231  0.62701036  0.62699230  1
  Co  Co109  1  0.37635667  0.12539854  0.37670734  1
  Co  Co110  1  0.62948632  0.87581497  0.12802334  1
  Co  Co111  1  0.12587657  0.37721846  0.37396790  1
  Co  Co112  1  0.87267324  0.37654150  0.37667297  1
  Co  Co113  1  0.24976972  0.75056303  0.25195212  1
  Co  Co114  1  0.87469954  0.62555165  0.12200589  1
  Co  Co115  1  0.36938854  0.87451996  0.12239716  1
  Co  Co116  1  0.12642691  0.62397805  0.12727468  1
  Co  Co117  1  0.62697984  0.87598193  0.62474738  1
  Co  Co118  1  0.74843963  0.50183651  0.74736744  1
  Co  Co119  1  0.25058499  0.24845534  0.25086341  1
  Co  Co120  1  0.24774709  0.74599654  0.50033162  1
  Co  Co121  1  -0.00056258  0.49870407  0.74922084  1
  Co  Co122  1  0.25123812  0.75431304  0.75066701  1
  Co  Co123  1  0.12396263  0.87497757  0.87607552  1
  Co  Co124  1  0.00206917  -0.00289891  0.49829733  1
  Co  Co125  1  0.37338211  0.87312309  0.37917197  1
  Co  Co126  1  0.50172055  0.25001715  0.49952101  1
  Co  Co127  1  0.62431421  0.87361170  0.37163225  1
