# generated using pymatgen
data_Fe45Co19
_symmetry_space_group_name_H-M   'P 1'
_cell_length_a   11.41530398
_cell_length_b   11.41549170
_cell_length_c   11.41571000
_cell_angle_alpha   89.99084628
_cell_angle_beta   90.00054949
_cell_angle_gamma   90.00740509
_symmetry_Int_Tables_number   1
_chemical_formula_structural   Fe45Co19
_chemical_formula_sum   'Fe90 Co38'
_cell_volume   1487.59606693
_cell_formula_units_Z   2
loop_
 _symmetry_equiv_pos_site_id
 _symmetry_equiv_pos_as_xyz
  1  'x, y, z'
loop_
 _atom_site_type_symbol
 _atom_site_label
 _atom_site_symmetry_multiplicity
 _atom_site_fract_x
 _atom_site_fract_y
 _atom_site_fract_z
 _atom_site_occupancy
  Fe  Fe0  1  0.25209854  -0.00133950  0.24912589  1
  Fe  Fe1  1  0.62833485  0.13024008  0.62765277  1
  Fe  Fe2  1  -0.00127527  -0.00010765  0.50184103  1
  Fe  Fe3  1  -0.00049415  0.50006452  0.24862216  1
  Fe  Fe4  1  0.49848945  0.00169090  0.74712300  1
  Fe  Fe5  1  0.12333857  0.37382169  0.37388518  1
  Fe  Fe6  1  0.62521584  0.62494867  0.62660849  1
  Fe  Fe7  1  -0.00012678  0.50035293  0.50080719  1
  Fe  Fe8  1  0.87317855  0.12394567  0.12431985  1
  Fe  Fe9  1  0.62497335  0.12622155  0.12784488  1
  Fe  Fe10  1  -0.00437174  0.24860146  0.75091284  1
  Fe  Fe11  1  0.74793975  0.00013233  -0.00153382  1
  Fe  Fe12  1  0.00058876  -0.00365312  0.00067861  1
  Fe  Fe13  1  0.50010477  0.24945634  0.24812458  1
  Fe  Fe14  1  0.37561136  0.12606574  0.87904830  1
  Fe  Fe15  1  0.74738768  -0.00319364  0.25137041  1
  Fe  Fe16  1  -0.00104410  0.50084336  0.74917979  1
  Fe  Fe17  1  0.87562846  0.37625846  0.87763968  1
  Fe  Fe18  1  0.25286860  0.24842267  0.75103283  1
  Fe  Fe19  1  0.74777134  0.24945613  -0.00191959  1
  Fe  Fe20  1  0.49808476  0.74817944  0.74968411  1
  Fe  Fe21  1  0.37699082  0.37423393  0.87852307  1
  Fe  Fe22  1  0.37592356  0.37108810  0.12106407  1
  Fe  Fe23  1  0.00024305  0.75094923  0.50057238  1
  Fe  Fe24  1  -0.00077238  0.24912130  0.49960731  1
  Fe  Fe25  1  0.37864366  0.62295092  0.37373992  1
  Fe  Fe26  1  -0.00069928  -0.00073448  0.24851066  1
  Fe  Fe27  1  0.25125631  0.75094735  0.49832049  1
  Fe  Fe28  1  0.75098177  0.75130937  0.75139016  1
  Fe  Fe29  1  0.87265020  0.37286697  0.62331996  1
  Fe  Fe30  1  0.49954998  0.74735063  0.00008813  1
  Fe  Fe31  1  0.74673327  -0.00067074  0.50228064  1
  Fe  Fe32  1  0.25271213  0.75051173  0.75120972  1
  Fe  Fe33  1  0.62386690  0.62357355  0.37013676  1
  Fe  Fe34  1  0.62455067  0.37149916  0.62514274  1
  Fe  Fe35  1  0.00117845  0.24890553  0.00089808  1
  Fe  Fe36  1  0.62550480  0.12405496  0.87198734  1
  Fe  Fe37  1  0.12536131  0.12388428  0.62696735  1
  Fe  Fe38  1  0.25249758  0.50053487  0.24879437  1
  Fe  Fe39  1  0.12543224  0.37363019  0.62503651  1
  Fe  Fe40  1  0.12572169  0.37312523  0.12620955  1
  Fe  Fe41  1  0.12701636  0.62572072  0.62486467  1
  Fe  Fe42  1  0.87355250  0.12495667  0.37576528  1
  Fe  Fe43  1  0.37812909  0.37358612  0.62256690  1
  Fe  Fe44  1  0.12669038  0.12435186  0.12594547  1
  Fe  Fe45  1  0.12852429  0.63036632  0.12556324  1
  Fe  Fe46  1  0.12435284  0.62495973  0.37398558  1
  Fe  Fe47  1  0.37901485  0.12291313  0.37412907  1
  Fe  Fe48  1  0.12417531  0.12241981  0.87358518  1
  Fe  Fe49  1  -0.00779383  -0.00080956  0.74964789  1
  Fe  Fe50  1  0.50043931  0.50324169  0.00303610  1
  Fe  Fe51  1  0.50012971  0.00109689  0.00381165  1
  Fe  Fe52  1  0.87279727  0.87576851  0.37631805  1
  Fe  Fe53  1  0.75170393  0.74756700  0.00117327  1
  Fe  Fe54  1  0.75066390  0.25291434  0.25262146  1
  Fe  Fe55  1  0.50161205  0.74923290  0.50124236  1
  Fe  Fe56  1  -0.00261223  0.75178372  0.75021019  1
  Fe  Fe57  1  0.74976930  0.50273446  0.00018028  1
  Fe  Fe58  1  0.25081907  0.00035904  0.50152041  1
  Fe  Fe59  1  0.87377030  0.62441939  0.37236564  1
  Fe  Fe60  1  0.25116407  0.24934136  0.24981434  1
  Fe  Fe61  1  0.62577342  0.87343756  0.12589743  1
  Fe  Fe62  1  0.62638916  0.62443879  0.12973355  1
  Fe  Fe63  1  0.74915375  0.49866719  0.49768631  1
  Fe  Fe64  1  0.74706358  0.75103562  0.49837566  1
  Fe  Fe65  1  0.25179560  0.50025716  0.74958336  1
  Fe  Fe66  1  0.37647555  0.87618868  0.87456204  1
  Fe  Fe67  1  0.49977770  0.50126722  0.74959095  1
  Fe  Fe68  1  -0.00286176  0.75330541  0.24817991  1
  Fe  Fe69  1  0.50370125  0.00212637  0.50353731  1
  Fe  Fe70  1  0.12512117  0.37474488  0.87425991  1
  Fe  Fe71  1  0.24865598  -0.00247696  -0.00034803  1
  Fe  Fe72  1  0.12492604  0.62660549  0.87538514  1
  Fe  Fe73  1  0.25108244  0.24829908  0.49955918  1
  Fe  Fe74  1  0.62534498  0.87527221  0.87306183  1
  Fe  Fe75  1  0.00053888  0.50247428  0.00112518  1
  Fe  Fe76  1  0.12675295  0.87693312  0.62743356  1
  Fe  Fe77  1  0.12466713  0.12532950  0.37341880  1
  Fe  Fe78  1  0.12488775  0.87613903  0.37353691  1
  Fe  Fe79  1  0.87321715  0.62551398  0.62469096  1
  Fe  Fe80  1  0.25023454  0.50020066  0.49986107  1
  Fe  Fe81  1  0.38046580  0.87735008  0.37590541  1
  Fe  Fe82  1  0.62287587  0.37512819  0.87642302  1
  Fe  Fe83  1  0.25005812  0.50159933  0.00068038  1
  Fe  Fe84  1  -0.00210599  0.75331082  0.00122053  1
  Fe  Fe85  1  0.87427365  0.37548240  0.12491338  1
  Fe  Fe86  1  0.75006241  0.49971040  0.75213109  1
  Fe  Fe87  1  0.37807235  0.37550280  0.37658228  1
  Fe  Fe88  1  0.37307123  0.87134636  0.12599370  1
  Fe  Fe89  1  0.62135622  0.37633968  0.37438400  1
  Co  Co90  1  0.37466102  0.62464406  0.62373092  1
  Co  Co91  1  0.87098719  0.12826326  0.62167779  1
  Co  Co92  1  0.75294423  0.00038114  0.74831232  1
  Co  Co93  1  0.87431441  0.12378831  0.87927229  1
  Co  Co94  1  0.37261369  0.62888973  0.12562961  1
  Co  Co95  1  0.87291068  0.87299438  0.62279150  1
  Co  Co96  1  0.50260589  0.50182025  0.50194121  1
  Co  Co97  1  0.62453037  0.87381135  0.62830425  1
  Co  Co98  1  0.75225324  0.25125576  0.75473654  1
  Co  Co99  1  0.12447451  0.87649511  0.87105760  1
  Co  Co100  1  0.37562399  0.87502690  0.62370160  1
  Co  Co101  1  0.50192337  0.24732734  0.49843609  1
  Co  Co102  1  0.74791859  0.25210971  0.49451429  1
  Co  Co103  1  0.24607707  0.24877924  -0.00204811  1
  Co  Co104  1  0.37505364  0.62286115  0.87597456  1
  Co  Co105  1  0.87928408  0.37534764  0.37476235  1
  Co  Co106  1  0.75000841  0.75292938  0.25058763  1
  Co  Co107  1  0.62594288  0.37463664  0.12368807  1
  Co  Co108  1  0.62207277  0.87612078  0.37486125  1
  Co  Co109  1  0.37585104  0.12649685  0.62260545  1
  Co  Co110  1  -0.00123752  0.24795398  0.24832918  1
  Co  Co111  1  0.25434676  0.00178705  0.75042420  1
  Co  Co112  1  0.87160595  0.87830488  0.12431478  1
  Co  Co113  1  0.62493471  0.62565920  0.87435606  1
  Co  Co114  1  0.37385406  0.12674068  0.12337816  1
  Co  Co115  1  0.49803693  0.24941523  0.75218595  1
  Co  Co116  1  0.74997276  0.49637951  0.25157849  1
  Co  Co117  1  0.49807438  0.49807274  0.24522043  1
  Co  Co118  1  0.25054199  0.75227523  -0.00494435  1
  Co  Co119  1  0.12829434  0.87265065  0.12725710  1
  Co  Co120  1  0.87588131  0.62542521  0.87498120  1
  Co  Co121  1  0.50021009  -0.00130446  0.24454010  1
  Co  Co122  1  0.25218408  0.75058359  0.25616041  1
  Co  Co123  1  0.50083429  0.75144596  0.24935145  1
  Co  Co124  1  0.62357034  0.12332760  0.37204017  1
  Co  Co125  1  0.87116634  0.87507692  0.87734980  1
  Co  Co126  1  0.50433079  0.24646245  -0.00005851  1
  Co  Co127  1  0.87397262  0.62377103  0.12743892  1
