# generated using pymatgen
data_Fe45Co19
_symmetry_space_group_name_H-M   'P 1'
_cell_length_a   11.41441359
_cell_length_b   11.41525458
_cell_length_c   11.41594361
_cell_angle_alpha   90.00500213
_cell_angle_beta   90.00357819
_cell_angle_gamma   90.00564921
_symmetry_Int_Tables_number   1
_chemical_formula_structural   Fe45Co19
_chemical_formula_sum   'Fe90 Co38'
_cell_volume   1487.47959257
_cell_formula_units_Z   2
loop_
 _symmetry_equiv_pos_site_id
 _symmetry_equiv_pos_as_xyz
  1  'x, y, z'
loop_
 _atom_site_type_symbol
 _atom_site_label
 _atom_site_symmetry_multiplicity
 _atom_site_fract_x
 _atom_site_fract_y
 _atom_site_fract_z
 _atom_site_occupancy
  Fe  Fe0  1  0.62829485  0.62952002  0.37582083  1
  Fe  Fe1  1  0.87586339  0.87853852  0.62658002  1
  Fe  Fe2  1  0.87403082  0.62760834  0.62443405  1
  Fe  Fe3  1  0.37707689  0.12409246  0.62337517  1
  Fe  Fe4  1  0.25118201  -0.00223099  0.49905543  1
  Fe  Fe5  1  0.25026801  0.24847385  0.75014923  1
  Fe  Fe6  1  0.62586709  0.62694421  0.87692607  1
  Fe  Fe7  1  0.87432667  0.87741008  0.12643256  1
  Fe  Fe8  1  0.50063117  0.75025745  0.75168443  1
  Fe  Fe9  1  0.12584188  0.12376025  0.87619877  1
  Fe  Fe10  1  0.12253015  0.37454483  0.87503834  1
  Fe  Fe11  1  0.25223140  0.24857124  -0.00063906  1
  Fe  Fe12  1  0.24851517  0.50123752  0.25060040  1
  Fe  Fe13  1  0.24807017  0.75083517  0.75029252  1
  Fe  Fe14  1  0.87352459  0.12387528  0.12707846  1
  Fe  Fe15  1  0.50219389  -0.00057106  0.74935176  1
  Fe  Fe16  1  0.37750445  0.87607824  0.12474742  1
  Fe  Fe17  1  0.50297323  0.50284988  0.24925952  1
  Fe  Fe18  1  0.74918352  0.75436882  0.75104403  1
  Fe  Fe19  1  0.62461926  0.12506255  0.12819691  1
  Fe  Fe20  1  0.75102956  0.75083719  0.25102261  1
  Fe  Fe21  1  0.24870863  0.50032072  0.00000337  1
  Fe  Fe22  1  0.87482779  0.62672110  0.87501221  1
  Fe  Fe23  1  0.37653744  0.37470852  0.87450073  1
  Fe  Fe24  1  0.49941625  0.75339669  0.49993353  1
  Fe  Fe25  1  0.37555967  0.62520369  0.62469731  1
  Fe  Fe26  1  0.87671246  0.37556179  0.37060828  1
  Fe  Fe27  1  0.87358560  0.37449004  0.62530407  1
  Fe  Fe28  1  -0.00178036  0.49980333  0.00028283  1
  Fe  Fe29  1  0.74609689  -0.00588488  0.49691202  1
  Fe  Fe30  1  -0.00320300  0.24850036  0.00171761  1
  Fe  Fe31  1  0.24973495  -0.00063640  0.24942322  1
  Fe  Fe32  1  0.12487195  0.37438707  0.62381102  1
  Fe  Fe33  1  0.62655926  0.12508871  0.87408124  1
  Fe  Fe34  1  0.25082460  0.00062962  0.00184378  1
  Fe  Fe35  1  0.25048284  0.75028855  0.00198188  1
  Fe  Fe36  1  0.24813886  -0.00088824  0.74935368  1
  Fe  Fe37  1  0.74736674  -0.00125207  -0.00083112  1
  Fe  Fe38  1  0.25001437  0.50200049  0.49882310  1
  Fe  Fe39  1  -0.00035252  -0.00053906  -0.00126003  1
  Fe  Fe40  1  0.37526327  0.37601401  0.62481323  1
  Fe  Fe41  1  0.37546846  0.62464433  0.87759507  1
  Fe  Fe42  1  0.37581803  0.37569836  0.12624798  1
  Fe  Fe43  1  0.37683045  0.12410345  0.12665361  1
  Fe  Fe44  1  0.62801871  0.37201717  0.87524867  1
  Fe  Fe45  1  -0.00288987  0.24761778  0.74838289  1
  Fe  Fe46  1  0.87457570  0.12062406  0.62280133  1
  Fe  Fe47  1  0.00313187  0.00064269  0.24981482  1
  Fe  Fe48  1  0.50218092  0.50120973  0.75029213  1
  Fe  Fe49  1  0.62591031  0.37610910  0.62300020  1
  Fe  Fe50  1  0.00193230  0.75538668  0.75315212  1
  Fe  Fe51  1  0.12544706  0.62600511  0.12530578  1
  Fe  Fe52  1  0.87083864  0.12489376  0.87314580  1
  Fe  Fe53  1  0.75077491  0.50074574  0.49619257  1
  Fe  Fe54  1  0.37309901  0.62913777  0.37293035  1
  Fe  Fe55  1  0.62790366  0.37313264  0.12896663  1
  Fe  Fe56  1  -0.00142895  0.50053885  0.75180088  1
  Fe  Fe57  1  0.62771079  0.62825602  0.62278768  1
  Fe  Fe58  1  0.62570837  0.12285052  0.62141768  1
  Fe  Fe59  1  0.37794075  0.87721506  0.87749576  1
  Fe  Fe60  1  -0.00110420  0.50001561  0.49876378  1
  Fe  Fe61  1  0.25164089  0.24896968  0.49974138  1
  Fe  Fe62  1  0.75040590  0.50019718  0.75128051  1
  Fe  Fe63  1  0.12449233  0.62790151  0.37510087  1
  Fe  Fe64  1  0.49991174  0.24747589  0.00039014  1
  Fe  Fe65  1  0.87651644  0.12238707  0.37630322  1
  Fe  Fe66  1  0.38180856  0.12290795  0.37567942  1
  Fe  Fe67  1  0.24891746  0.50217029  0.75050399  1
  Fe  Fe68  1  0.12323966  0.62738060  0.62403854  1
  Fe  Fe69  1  0.12393552  0.37169003  0.12690257  1
  Fe  Fe70  1  0.50056161  0.50147954  0.49823511  1
  Fe  Fe71  1  0.37464678  0.87460456  0.62412373  1
  Fe  Fe72  1  0.00010021  0.75218164  -0.00066631  1
  Fe  Fe73  1  0.50256825  0.50192171  0.00222368  1
  Fe  Fe74  1  0.74536992  0.00063372  0.25260089  1
  Fe  Fe75  1  0.12345564  0.12579791  0.37638271  1
  Fe  Fe76  1  0.87342626  0.62387096  0.12754011  1
  Fe  Fe77  1  0.49991442  0.75041019  0.24539339  1
  Fe  Fe78  1  0.74867123  0.24994247  0.49576593  1
  Fe  Fe79  1  0.74892585  0.75298370  0.00030284  1
  Fe  Fe80  1  -0.00055213  0.75074725  0.24962766  1
  Fe  Fe81  1  0.50124226  0.24904547  0.74840547  1
  Fe  Fe82  1  -0.00322828  0.75378596  0.49821897  1
  Fe  Fe83  1  0.12737999  0.87321616  0.37452545  1
  Fe  Fe84  1  0.25088914  0.24773220  0.25054218  1
  Fe  Fe85  1  0.37802459  0.37415182  0.37484634  1
  Fe  Fe86  1  0.87316757  0.37375320  0.12990347  1
  Fe  Fe87  1  0.12266504  0.37232113  0.37386169  1
  Fe  Fe88  1  0.75116044  0.49881432  0.00047475  1
  Fe  Fe89  1  0.12130504  0.12248172  0.62241057  1
  Co  Co90  1  0.50260443  0.00311273  0.00130497  1
  Co  Co91  1  0.37431875  0.87336712  0.37321617  1
  Co  Co92  1  0.50110002  -0.00335352  0.24935629  1
  Co  Co93  1  0.12388269  0.87678229  0.62343666  1
  Co  Co94  1  0.74989318  0.24888776  0.74626378  1
  Co  Co95  1  0.87370580  0.37288283  0.87441695  1
  Co  Co96  1  0.00189377  0.50216708  0.24890375  1
  Co  Co97  1  0.12422513  0.62595922  0.87600256  1
  Co  Co98  1  0.24998906  0.75140747  0.24582827  1
  Co  Co99  1  0.75386709  0.75527838  0.49890447  1
  Co  Co100  1  0.75059080  0.24867121  0.00291486  1
  Co  Co101  1  -0.00240813  0.25062765  0.49989196  1
  Co  Co102  1  0.00078701  -0.00404215  0.49686033  1
  Co  Co103  1  0.00017310  -0.00022092  0.75356050  1
  Co  Co104  1  0.62265583  0.37388101  0.37344287  1
  Co  Co105  1  0.12297994  0.87628340  0.12448198  1
  Co  Co106  1  0.87508966  0.87799642  0.37056513  1
  Co  Co107  1  0.62915145  0.62612689  0.12487246  1
  Co  Co108  1  0.74830475  -0.00246274  0.75030186  1
  Co  Co109  1  0.62597895  0.87513868  0.12504642  1
  Co  Co110  1  0.50047371  0.25143450  0.50234424  1
  Co  Co111  1  -0.00112515  0.24530574  0.24915748  1
  Co  Co112  1  0.62297698  0.87248239  0.37260030  1
  Co  Co113  1  0.25088187  0.75061783  0.50203029  1
  Co  Co114  1  0.50025803  0.24924915  0.24862644  1
  Co  Co115  1  0.37349984  0.62263804  0.12510556  1
  Co  Co116  1  0.87506698  0.62485917  0.37438075  1
  Co  Co117  1  0.61845458  0.12364347  0.37697487  1
  Co  Co118  1  0.37552589  0.12301033  0.87383187  1
  Co  Co119  1  0.62193612  0.87534077  0.87731735  1
  Co  Co120  1  0.50038231  0.74819558  0.00287220  1
  Co  Co121  1  0.74773341  0.50155897  0.25227171  1
  Co  Co122  1  0.74982944  0.24566270  0.25472810  1
  Co  Co123  1  0.12792785  0.87718193  0.87783338  1
  Co  Co124  1  0.62469167  0.87296271  0.62570698  1
  Co  Co125  1  0.50058759  -0.00622219  0.50038110  1
  Co  Co126  1  0.87279287  0.87647872  0.87654973  1
  Co  Co127  1  0.12576964  0.12533118  0.12339899  1
