# generated using pymatgen
data_Fe45Co19
_symmetry_space_group_name_H-M   'P 1'
_cell_length_a   11.41587289
_cell_length_b   11.41538847
_cell_length_c   11.41403746
_cell_angle_alpha   89.99820549
_cell_angle_beta   89.99696377
_cell_angle_gamma   90.00395567
_symmetry_Int_Tables_number   1
_chemical_formula_structural   Fe45Co19
_chemical_formula_sum   'Fe90 Co38'
_cell_volume   1487.43881970
_cell_formula_units_Z   2
loop_
 _symmetry_equiv_pos_site_id
 _symmetry_equiv_pos_as_xyz
  1  'x, y, z'
loop_
 _atom_site_type_symbol
 _atom_site_label
 _atom_site_symmetry_multiplicity
 _atom_site_fract_x
 _atom_site_fract_y
 _atom_site_fract_z
 _atom_site_occupancy
  Fe  Fe0  1  -0.00015007  0.75112525  0.25135745  1
  Fe  Fe1  1  0.37363483  0.87628347  0.12291600  1
  Fe  Fe2  1  0.75202834  0.25014774  0.24899970  1
  Fe  Fe3  1  0.37548555  0.62142852  0.12201975  1
  Fe  Fe4  1  0.87759783  0.12357231  0.62484600  1
  Fe  Fe5  1  0.37351577  0.12363559  0.12493080  1
  Fe  Fe6  1  0.74963832  0.25027887  0.50254231  1
  Fe  Fe7  1  0.24948399  0.49796046  0.25017797  1
  Fe  Fe8  1  0.49885346  0.74943398  0.24854280  1
  Fe  Fe9  1  0.87487344  0.37864101  0.62454246  1
  Fe  Fe10  1  0.87725130  0.87622611  0.37900551  1
  Fe  Fe11  1  0.49741309  0.24965500  0.25000254  1
  Fe  Fe12  1  0.25022443  0.00039736  0.24933916  1
  Fe  Fe13  1  0.62510479  0.37390506  0.87515575  1
  Fe  Fe14  1  0.62517525  0.37617963  0.62486610  1
  Fe  Fe15  1  0.37524011  0.12417294  0.87370888  1
  Fe  Fe16  1  0.75176552  0.25000991  0.75272123  1
  Fe  Fe17  1  0.12169429  0.37314436  0.12386503  1
  Fe  Fe18  1  0.50052162  0.49964231  0.25020977  1
  Fe  Fe19  1  0.87580956  0.61891490  0.62542503  1
  Fe  Fe20  1  0.12664440  0.37588781  0.62346444  1
  Fe  Fe21  1  0.87454304  0.87547766  0.12415286  1
  Fe  Fe22  1  0.25018340  0.75073297  0.24921059  1
  Fe  Fe23  1  0.24990933  0.74801058  -0.00053841  1
  Fe  Fe24  1  0.24841862  0.74765420  0.50007517  1
  Fe  Fe25  1  0.50004201  0.49937428  0.49962513  1
  Fe  Fe26  1  0.49909924  0.75060864  0.74896939  1
  Fe  Fe27  1  0.37188655  0.37064829  0.37912089  1
  Fe  Fe28  1  0.87375234  0.37376460  0.37599216  1
  Fe  Fe29  1  -0.00188861  0.74705182  -0.00118827  1
  Fe  Fe30  1  0.37231913  0.37755079  0.87696148  1
  Fe  Fe31  1  0.75133286  0.00019280  0.25023948  1
  Fe  Fe32  1  0.62639706  0.62504342  0.87388176  1
  Fe  Fe33  1  0.87580885  0.12808689  0.12212559  1
  Fe  Fe34  1  0.87404598  0.62395736  0.12615501  1
  Fe  Fe35  1  -0.00130800  0.00328440  0.25186303  1
  Fe  Fe36  1  0.37575749  0.37756333  0.12110172  1
  Fe  Fe37  1  0.12453861  0.87266997  0.87558361  1
  Fe  Fe38  1  0.62570220  0.62686251  0.37445251  1
  Fe  Fe39  1  0.00029532  0.49810132  0.25247829  1
  Fe  Fe40  1  0.12872226  0.37206136  0.37684572  1
  Fe  Fe41  1  0.24700412  0.24786496  0.00130783  1
  Fe  Fe42  1  0.37524600  0.62247424  0.62565747  1
  Fe  Fe43  1  0.00071740  0.00223255  -0.00201380  1
  Fe  Fe44  1  0.37358620  0.87427101  0.87615393  1
  Fe  Fe45  1  0.50151703  0.00024536  -0.00043415  1
  Fe  Fe46  1  0.49772292  0.25226871  0.74874082  1
  Fe  Fe47  1  0.62461522  0.37442307  0.12499878  1
  Fe  Fe48  1  0.87758392  0.37878655  0.87635967  1
  Fe  Fe49  1  0.12474808  0.62453305  0.12700184  1
  Fe  Fe50  1  0.62740935  0.87359545  0.12625082  1
  Fe  Fe51  1  0.62730079  0.12648783  0.12279550  1
  Fe  Fe52  1  0.24794466  0.00583050  0.50217672  1
  Fe  Fe53  1  0.12803647  0.12975688  0.37166673  1
  Fe  Fe54  1  0.75216032  -0.00048891  0.75084843  1
  Fe  Fe55  1  0.50095554  0.74814764  0.00007092  1
  Fe  Fe56  1  0.75393474  0.75161834  0.74829948  1
  Fe  Fe57  1  0.75161559  0.74948188  -0.00067353  1
  Fe  Fe58  1  0.75204708  0.75021115  0.50250779  1
  Fe  Fe59  1  0.49981507  0.49912789  0.75202678  1
  Fe  Fe60  1  0.62272663  0.12526949  0.62710835  1
  Fe  Fe61  1  0.50056626  0.24939378  -0.00143387  1
  Fe  Fe62  1  0.25219720  0.24908760  0.74597519  1
  Fe  Fe63  1  0.37614261  0.87636827  0.62153172  1
  Fe  Fe64  1  0.50042411  -0.00254728  0.75021902  1
  Fe  Fe65  1  -0.00154396  0.25307793  0.75157223  1
  Fe  Fe66  1  0.12301076  0.62263297  0.62370899  1
  Fe  Fe67  1  0.37548621  0.87583092  0.37789819  1
  Fe  Fe68  1  0.87712303  0.37345754  0.12259128  1
  Fe  Fe69  1  -0.00303008  0.74921983  0.74923809  1
  Fe  Fe70  1  0.12469437  0.87672336  0.12351733  1
  Fe  Fe71  1  0.74959459  0.49990536  0.25084356  1
  Fe  Fe72  1  0.87641905  0.62436452  0.37600774  1
  Fe  Fe73  1  0.49966610  0.00098396  0.25138807  1
  Fe  Fe74  1  0.74864497  -0.00015603  0.50189847  1
  Fe  Fe75  1  -0.00176783  -0.00199371  0.75234577  1
  Fe  Fe76  1  0.24990248  0.74952024  0.74919960  1
  Fe  Fe77  1  0.12072153  0.87622507  0.62230987  1
  Fe  Fe78  1  0.62453516  0.12758879  0.37566556  1
  Fe  Fe79  1  0.00031561  0.24908191  0.49970091  1
  Fe  Fe80  1  0.62592756  0.62409145  0.62538238  1
  Fe  Fe81  1  0.62395172  0.87240699  0.37629279  1
  Fe  Fe82  1  0.12383513  0.87409829  0.37698209  1
  Fe  Fe83  1  0.24968310  -0.00075878  0.74857331  1
  Fe  Fe84  1  0.24724663  0.50118080  0.75314227  1
  Fe  Fe85  1  0.37358605  0.62515869  0.37507144  1
  Fe  Fe86  1  0.62779806  0.87601071  0.87466292  1
  Fe  Fe87  1  0.12493420  0.12616868  0.87190280  1
  Fe  Fe88  1  0.74864220  0.49959192  0.00019112  1
  Fe  Fe89  1  0.62498440  0.37280437  0.37541607  1
  Co  Co90  1  0.49876347  0.25097737  0.50321481  1
  Co  Co91  1  0.37221099  0.37966911  0.62394412  1
  Co  Co92  1  0.12360893  0.62844239  0.87379298  1
  Co  Co93  1  0.12668899  0.37256288  0.87445464  1
  Co  Co94  1  0.00395358  0.49876403  0.75131166  1
  Co  Co95  1  0.75245748  0.75132440  0.25255390  1
  Co  Co96  1  0.25087794  0.24427044  0.50748625  1
  Co  Co97  1  0.87899602  0.87866236  0.62227631  1
  Co  Co98  1  0.49924495  0.74828820  0.50194108  1
  Co  Co99  1  0.75013007  0.00089952  -0.00028588  1
  Co  Co100  1  0.87546385  0.12506552  0.87533042  1
  Co  Co101  1  0.00213031  0.24897190  -0.00332239  1
  Co  Co102  1  0.87145672  0.12641884  0.37701634  1
  Co  Co103  1  0.00252782  0.50210896  -0.00087522  1
  Co  Co104  1  0.37348431  0.12736361  0.37496953  1
  Co  Co105  1  -0.00030455  0.74667828  0.50146289  1
  Co  Co106  1  0.12441868  0.62562291  0.37275979  1
  Co  Co107  1  0.12296762  0.12480812  0.12710390  1
  Co  Co108  1  0.74868481  0.49954764  0.49866385  1
  Co  Co109  1  0.50226277  0.00115553  0.49844007  1
  Co  Co110  1  0.62436569  0.12466173  0.87338129  1
  Co  Co111  1  0.62693369  0.62575617  0.12691532  1
  Co  Co112  1  0.62469148  0.87457896  0.62545760  1
  Co  Co113  1  0.24802602  0.00195709  -0.00179006  1
  Co  Co114  1  0.24901665  0.50320212  0.49861866  1
  Co  Co115  1  0.87454919  0.62121111  0.87290489  1
  Co  Co116  1  0.87485634  0.87460495  0.87625634  1
  Co  Co117  1  0.75017893  0.25149941  -0.00365929  1
  Co  Co118  1  0.24461599  0.50085627  -0.00126920  1
  Co  Co119  1  0.11943711  0.12537545  0.63016283  1
  Co  Co120  1  0.00118782  0.49784608  0.49784264  1
  Co  Co121  1  0.74830861  0.49769443  0.75141527  1
  Co  Co122  1  0.00310572  0.00616981  0.49665515  1
  Co  Co123  1  0.25207784  0.25184649  0.24437273  1
  Co  Co124  1  0.37462883  0.62414495  0.87526345  1
  Co  Co125  1  -0.00198022  0.24989423  0.25257757  1
  Co  Co126  1  0.50431465  0.50059599  -0.00179618  1
  Co  Co127  1  0.37991908  0.12150720  0.62606027  1
