# generated using pymatgen
data_Fe45Co19
_symmetry_space_group_name_H-M   'P 1'
_cell_length_a   11.40157505
_cell_length_b   11.40000017
_cell_length_c   11.39909274
_cell_angle_alpha   90.01964109
_cell_angle_beta   89.99589639
_cell_angle_gamma   90.00067961
_symmetry_Int_Tables_number   1
_chemical_formula_structural   Fe45Co19
_chemical_formula_sum   'Fe90 Co38'
_cell_volume   1481.63070137
_cell_formula_units_Z   2
loop_
 _symmetry_equiv_pos_site_id
 _symmetry_equiv_pos_as_xyz
  1  'x, y, z'
loop_
 _atom_site_type_symbol
 _atom_site_label
 _atom_site_symmetry_multiplicity
 _atom_site_fract_x
 _atom_site_fract_y
 _atom_site_fract_z
 _atom_site_occupancy
  Fe  Fe0  1  0.62975943  0.88072903  0.12405392  1
  Fe  Fe1  1  0.25080760  0.25211443  0.74673337  1
  Fe  Fe2  1  0.87314750  0.37561640  0.12515766  1
  Fe  Fe3  1  0.87617214  0.62764484  0.37201566  1
  Fe  Fe4  1  0.13177991  0.62316490  0.62690427  1
  Fe  Fe5  1  0.49880568  0.74423734  0.50123886  1
  Fe  Fe6  1  0.87797802  0.37298808  0.37790751  1
  Fe  Fe7  1  0.62943725  0.12270102  0.12733517  1
  Fe  Fe8  1  0.49206776  0.49911651  0.74540292  1
  Fe  Fe9  1  0.74911373  0.49760967  0.25512355  1
  Fe  Fe10  1  0.50031391  0.74788712  0.74840755  1
  Fe  Fe11  1  0.24942341  -0.00026662  -0.00356569  1
  Fe  Fe12  1  0.12604832  0.37380728  0.87720550  1
  Fe  Fe13  1  0.00247279  0.25172231  0.74650984  1
  Fe  Fe14  1  -0.00748148  -0.00241579  0.25018041  1
  Fe  Fe15  1  0.87732168  0.86929555  0.62639054  1
  Fe  Fe16  1  0.12383080  0.88173447  0.12319547  1
  Fe  Fe17  1  0.37332388  0.62709977  0.87705743  1
  Fe  Fe18  1  0.24760654  0.75535501  0.75707220  1
  Fe  Fe19  1  0.12132283  0.12099742  0.37191903  1
  Fe  Fe20  1  0.61780309  0.37758289  0.38677951  1
  Fe  Fe21  1  0.50394856  0.75164141  0.24804638  1
  Fe  Fe22  1  0.49735147  0.49973837  0.00067720  1
  Fe  Fe23  1  0.00330083  0.50101645  0.75180070  1
  Fe  Fe24  1  0.37641412  0.37186192  0.12669629  1
  Fe  Fe25  1  0.37756582  0.12724224  0.87177558  1
  Fe  Fe26  1  0.62317069  0.87411032  0.87440730  1
  Fe  Fe27  1  0.37379935  0.87382245  0.62526693  1
  Fe  Fe28  1  0.74809001  0.50030856  -0.00483500  1
  Fe  Fe29  1  0.24884554  -0.00193449  0.49679059  1
  Fe  Fe30  1  0.87663799  0.37495223  0.87356523  1
  Fe  Fe31  1  0.75013410  0.75235903  0.24891758  1
  Fe  Fe32  1  0.25027420  0.24715847  0.00141804  1
  Fe  Fe33  1  0.00043431  0.50451321  0.49773140  1
  Fe  Fe34  1  0.74848792  0.25185165  0.25550038  1
  Fe  Fe35  1  0.37697056  0.37059877  0.87561935  1
  Fe  Fe36  1  0.75044549  0.74544400  0.50082520  1
  Fe  Fe37  1  0.00098307  0.49916200  0.00158229  1
  Fe  Fe38  1  0.50040129  0.75021122  0.00239684  1
  Fe  Fe39  1  -0.00271795  -0.00109937  0.49985670  1
  Fe  Fe40  1  0.12626707  0.37472738  0.12569601  1
  Fe  Fe41  1  0.87224021  0.12764396  0.62400597  1
  Fe  Fe42  1  0.87360847  0.62330337  0.12465642  1
  Fe  Fe43  1  0.37739291  0.87436392  0.37386559  1
  Fe  Fe44  1  0.50044003  0.00106934  0.74678582  1
  Fe  Fe45  1  0.37650987  0.87940458  0.12397811  1
  Fe  Fe46  1  0.24947498  -0.00396289  0.75369645  1
  Fe  Fe47  1  0.24698594  0.75704134  0.24640784  1
  Fe  Fe48  1  0.24939193  0.24825170  0.25233916  1
  Fe  Fe49  1  0.12593168  0.62743506  0.37074912  1
  Fe  Fe50  1  0.37219001  0.62615588  0.12559359  1
  Fe  Fe51  1  0.49670008  0.50029741  0.25594479  1
  Fe  Fe52  1  0.75496589  -0.00128796  0.49771220  1
  Fe  Fe53  1  0.74783432  0.25083804  -0.00196773  1
  Fe  Fe54  1  0.87482065  0.62140111  0.62909259  1
  Fe  Fe55  1  0.86926593  0.12251916  0.12553031  1
  Fe  Fe56  1  0.12284628  0.12361007  0.87419441  1
  Fe  Fe57  1  0.49962622  0.00158678  0.50242539  1
  Fe  Fe58  1  0.74988253  0.74480058  0.75380115  1
  Fe  Fe59  1  0.62658115  0.61714909  0.62396574  1
  Fe  Fe60  1  0.62500788  0.12896971  0.86917017  1
  Fe  Fe61  1  0.00282731  0.24965439  0.50272767  1
  Fe  Fe62  1  -0.00100793  0.75319601  0.24589917  1
  Fe  Fe63  1  0.50240702  0.24817669  0.25131090  1
  Fe  Fe64  1  0.62727259  0.87432988  0.62433340  1
  Fe  Fe65  1  0.87459404  0.12783101  0.87190209  1
  Fe  Fe66  1  0.62550814  0.87480000  0.37704951  1
  Fe  Fe67  1  0.25381453  0.49628864  0.25379210  1
  Fe  Fe68  1  0.12882567  0.62305189  0.12501712  1
  Fe  Fe69  1  -0.00023722  0.24921316  0.24789235  1
  Fe  Fe70  1  -0.00010015  0.24644529  0.00291306  1
  Fe  Fe71  1  0.12139690  0.87329156  0.62588030  1
  Fe  Fe72  1  0.62569002  0.62217655  0.12588394  1
  Fe  Fe73  1  0.00117909  0.75010962  0.00177643  1
  Fe  Fe74  1  0.24889424  0.75085279  0.49803055  1
  Fe  Fe75  1  0.12727076  0.12130109  0.62622964  1
  Fe  Fe76  1  0.50272321  0.00402676  -0.00173523  1
  Fe  Fe77  1  0.88090437  0.87418246  0.87582895  1
  Fe  Fe78  1  0.62716532  0.12539737  0.37932873  1
  Fe  Fe79  1  0.37484114  0.12314935  0.12670383  1
  Fe  Fe80  1  0.62397907  0.37568108  0.12622306  1
  Fe  Fe81  1  0.62010198  0.37547649  0.87236116  1
  Fe  Fe82  1  0.13102467  0.38119899  0.62044117  1
  Fe  Fe83  1  0.37686436  0.12668641  0.37737618  1
  Fe  Fe84  1  0.12628926  0.37640714  0.37652927  1
  Fe  Fe85  1  0.74932659  0.74791395  -0.00317515  1
  Fe  Fe86  1  0.12848077  0.62384499  0.87858658  1
  Fe  Fe87  1  0.75286045  -0.00269266  0.75186970  1
  Fe  Fe88  1  0.50050053  0.25170774  0.73671271  1
  Fe  Fe89  1  0.74608008  0.25960034  0.74057409  1
  Co  Co90  1  0.12047947  0.87522566  0.37462673  1
  Co  Co91  1  0.00268780  0.74440138  0.75093113  1
  Co  Co92  1  0.25323236  0.49618571  0.00093734  1
  Co  Co93  1  0.37070561  0.37439466  0.61485944  1
  Co  Co94  1  0.48714429  0.51165734  0.49779131  1
  Co  Co95  1  0.87612886  0.12977877  0.37712316  1
  Co  Co96  1  0.75345037  -0.00125684  0.25696123  1
  Co  Co97  1  -0.00296767  0.00201289  0.74687437  1
  Co  Co98  1  0.62040033  0.38682930  0.61615692  1
  Co  Co99  1  0.87823365  0.62295115  0.87661996  1
  Co  Co100  1  0.50221702  0.00093151  0.25172865  1
  Co  Co101  1  0.37874926  0.36706406  0.38191350  1
  Co  Co102  1  0.25606948  0.50622101  0.49281166  1
  Co  Co103  1  -0.00257016  0.00435089  0.00187254  1
  Co  Co104  1  0.38053753  0.87563626  0.87583495  1
  Co  Co105  1  0.36879606  0.12166343  0.62569330  1
  Co  Co106  1  0.74941376  0.00147202  -0.00768401  1
  Co  Co107  1  0.63238763  0.11976843  0.62499749  1
  Co  Co108  1  0.24510050  0.24487319  0.49838700  1
  Co  Co109  1  0.50223640  0.24328707  0.50899485  1
  Co  Co110  1  0.87645080  0.86898834  0.37812831  1
  Co  Co111  1  0.74907456  0.49802213  0.75305706  1
  Co  Co112  1  0.36669945  0.62939820  0.63049268  1
  Co  Co113  1  0.00183254  0.74430820  0.50172977  1
  Co  Co114  1  0.74879638  0.25537672  0.50285828  1
  Co  Co115  1  0.12589957  0.12135508  0.12782676  1
  Co  Co116  1  0.62608340  0.62421092  0.37532096  1
  Co  Co117  1  0.25393162  0.49598720  0.75420215  1
  Co  Co118  1  0.50213183  0.24715201  0.00263929  1
  Co  Co119  1  0.61897242  0.62239775  0.87401155  1
  Co  Co120  1  0.87949350  0.37970351  0.62457352  1
  Co  Co121  1  -0.00005639  0.49976379  0.24976428  1
  Co  Co122  1  0.75609423  0.50081104  0.49584384  1
  Co  Co123  1  0.87070999  0.87700107  0.12037873  1
  Co  Co124  1  0.24909060  0.75599764  -0.00048950  1
  Co  Co125  1  0.37116917  0.63453224  0.36575387  1
  Co  Co126  1  0.25174671  -0.00112818  0.25334525  1
  Co  Co127  1  0.11641413  0.87837770  0.87616168  1
