# generated using pymatgen
data_Fe45Co19
_symmetry_space_group_name_H-M   'P 1'
_cell_length_a   11.41692512
_cell_length_b   11.41530461
_cell_length_c   11.41486974
_cell_angle_alpha   89.99255464
_cell_angle_beta   90.00812125
_cell_angle_gamma   89.99977813
_symmetry_Int_Tables_number   1
_chemical_formula_structural   Fe45Co19
_chemical_formula_sum   'Fe90 Co38'
_cell_volume   1487.67344061
_cell_formula_units_Z   2
loop_
 _symmetry_equiv_pos_site_id
 _symmetry_equiv_pos_as_xyz
  1  'x, y, z'
loop_
 _atom_site_type_symbol
 _atom_site_label
 _atom_site_symmetry_multiplicity
 _atom_site_fract_x
 _atom_site_fract_y
 _atom_site_fract_z
 _atom_site_occupancy
  Fe  Fe0  1  0.74870159  0.50147899  0.49883543  1
  Fe  Fe1  1  0.75020507  0.00244565  0.75165742  1
  Fe  Fe2  1  0.87394035  0.87502524  0.12400540  1
  Fe  Fe3  1  0.25037082  0.50408368  0.00156546  1
  Fe  Fe4  1  0.49679365  0.25032193  0.25012467  1
  Fe  Fe5  1  0.25122625  0.00032562  0.50147056  1
  Fe  Fe6  1  0.25129372  0.24943913  0.74930835  1
  Fe  Fe7  1  0.62542159  0.87816897  0.12169263  1
  Fe  Fe8  1  -0.00117650  -0.00076056  0.75219519  1
  Fe  Fe9  1  0.62974350  0.37382395  0.87728603  1
  Fe  Fe10  1  0.62382877  0.62651114  0.87859189  1
  Fe  Fe11  1  0.37331569  0.87047467  0.88038368  1
  Fe  Fe12  1  0.62465515  0.12553652  0.87818419  1
  Fe  Fe13  1  0.87265024  0.62943529  0.37179043  1
  Fe  Fe14  1  0.12644837  0.37735606  0.12441419  1
  Fe  Fe15  1  0.62299280  0.12393186  0.62543699  1
  Fe  Fe16  1  0.37703513  0.62343904  0.37594695  1
  Fe  Fe17  1  0.12635931  0.37513121  0.62404113  1
  Fe  Fe18  1  0.25134935  -0.00069938  0.75155400  1
  Fe  Fe19  1  0.87283388  0.37270836  0.37669351  1
  Fe  Fe20  1  0.37579928  0.37786695  0.62244398  1
  Fe  Fe21  1  0.00019972  -0.00146796  0.49930639  1
  Fe  Fe22  1  0.49959411  0.25121006  0.00140302  1
  Fe  Fe23  1  0.25409530  0.24796181  0.49851767  1
  Fe  Fe24  1  0.12444831  0.12519664  0.62584456  1
  Fe  Fe25  1  0.37472812  0.37828242  0.12517558  1
  Fe  Fe26  1  0.49953273  -0.00241832  0.75283705  1
  Fe  Fe27  1  0.50140904  0.49932567  0.25222118  1
  Fe  Fe28  1  -0.00148321  0.75098651  0.49935808  1
  Fe  Fe29  1  0.87241131  0.37246582  0.62424198  1
  Fe  Fe30  1  0.24930984  0.24901344  0.00064729  1
  Fe  Fe31  1  0.49856830  -0.00264076  0.24881766  1
  Fe  Fe32  1  0.62607777  0.37359243  0.37413968  1
  Fe  Fe33  1  0.62641018  0.63004915  0.37540290  1
  Fe  Fe34  1  -0.00001833  0.49702201  0.75166708  1
  Fe  Fe35  1  0.74874575  0.50087884  0.75027390  1
  Fe  Fe36  1  0.62461005  0.62176352  0.12282030  1
  Fe  Fe37  1  0.37202814  0.87503176  0.37099730  1
  Fe  Fe38  1  0.25062030  0.74630103  0.24342191  1
  Fe  Fe39  1  0.37705035  0.87345395  0.62719951  1
  Fe  Fe40  1  0.49804502  0.24996853  0.49810897  1
  Fe  Fe41  1  0.12189389  0.12351701  0.12237422  1
  Fe  Fe42  1  0.74889165  0.74999416  0.75021211  1
  Fe  Fe43  1  0.62638178  0.87442105  0.87814664  1
  Fe  Fe44  1  0.87547829  0.62523860  0.12652118  1
  Fe  Fe45  1  0.50003237  0.25168724  0.75024463  1
  Fe  Fe46  1  0.87455257  0.62544601  0.87476045  1
  Fe  Fe47  1  0.74780642  -0.00186634  0.49992722  1
  Fe  Fe48  1  0.12744134  0.37490793  0.37573077  1
  Fe  Fe49  1  0.87512350  0.12752827  0.62318965  1
  Fe  Fe50  1  0.12462400  0.62705388  0.87327865  1
  Fe  Fe51  1  0.87608993  0.62646290  0.62577490  1
  Fe  Fe52  1  -0.00194601  0.49837943  0.25206587  1
  Fe  Fe53  1  -0.00019039  0.25333482  0.75293891  1
  Fe  Fe54  1  0.75025425  0.24662017  0.24618842  1
  Fe  Fe55  1  0.62614865  0.37707862  0.12415004  1
  Fe  Fe56  1  0.12843260  0.87622945  0.12354327  1
  Fe  Fe57  1  0.87157055  0.87292405  0.37197443  1
  Fe  Fe58  1  0.25247357  0.24814381  0.25093878  1
  Fe  Fe59  1  0.87545413  0.12541010  0.37518250  1
  Fe  Fe60  1  0.37270212  0.37642999  0.87550684  1
  Fe  Fe61  1  0.12344637  0.12554145  0.87614069  1
  Fe  Fe62  1  0.87205495  0.87459797  0.87754426  1
  Fe  Fe63  1  0.00117276  -0.00207464  0.25023821  1
  Fe  Fe64  1  0.87314668  0.37514305  0.12295250  1
  Fe  Fe65  1  0.12745246  0.87313527  0.37397815  1
  Fe  Fe66  1  0.12509554  0.12456110  0.37566498  1
  Fe  Fe67  1  0.87357508  0.87482902  0.62653446  1
  Fe  Fe68  1  -0.00102910  0.49706767  -0.00327193  1
  Fe  Fe69  1  0.49990487  0.75175310  0.24651585  1
  Fe  Fe70  1  0.62675208  0.37312434  0.62483206  1
  Fe  Fe71  1  0.12428222  0.87184938  0.62795988  1
  Fe  Fe72  1  0.25057452  0.74754268  0.50207724  1
  Fe  Fe73  1  0.37588622  0.12605621  0.87498956  1
  Fe  Fe74  1  0.25056831  0.50208078  0.25010207  1
  Fe  Fe75  1  0.00070815  0.50048370  0.49949438  1
  Fe  Fe76  1  0.50140969  0.49985914  0.75166540  1
  Fe  Fe77  1  0.75080969  0.00249963  0.24619214  1
  Fe  Fe78  1  0.00086894  0.75027900  0.00123716  1
  Fe  Fe79  1  0.50028746  -0.00425185  0.49898118  1
  Fe  Fe80  1  0.12794523  0.87062668  0.87476187  1
  Fe  Fe81  1  0.38038748  0.62544248  0.62213714  1
  Fe  Fe82  1  0.37505715  0.12095897  0.12415647  1
  Fe  Fe83  1  0.87640521  0.12831624  0.88111604  1
  Fe  Fe84  1  0.25072860  0.50473472  0.74735609  1
  Fe  Fe85  1  0.12331150  0.62631407  0.37309357  1
  Fe  Fe86  1  0.00029031  0.25057062  0.24939049  1
  Fe  Fe87  1  0.62226755  0.63055348  0.62302034  1
  Fe  Fe88  1  0.37766878  0.62746004  0.87846775  1
  Fe  Fe89  1  0.62299402  0.12343434  0.37284216  1
  Co  Co90  1  0.00189705  0.75295004  0.24808083  1
  Co  Co91  1  0.00304223  0.25650806  -0.00145821  1
  Co  Co92  1  0.12058386  0.62816190  0.62775992  1
  Co  Co93  1  0.61990954  0.12300572  0.12520729  1
  Co  Co94  1  -0.00307690  0.75233833  0.75162300  1
  Co  Co95  1  0.75037616  0.75260939  0.50193597  1
  Co  Co96  1  0.62456459  0.87441284  0.62846219  1
  Co  Co97  1  0.37408255  0.37931933  0.37561813  1
  Co  Co98  1  0.86864779  0.37261123  0.87548679  1
  Co  Co99  1  0.37163800  0.87847262  0.12354391  1
  Co  Co100  1  0.11911748  0.62111986  0.12563449  1
  Co  Co101  1  0.24740077  0.00249366  0.24928159  1
  Co  Co102  1  0.49953454  0.75549865  0.49634740  1
  Co  Co103  1  0.75005522  0.50017700  0.25154149  1
  Co  Co104  1  0.74945246  0.74828130  0.00199055  1
  Co  Co105  1  0.75053365  0.00370969  0.00205537  1
  Co  Co106  1  0.13088060  0.37767275  0.87465177  1
  Co  Co107  1  0.25399246  0.74715570  0.74830720  1
  Co  Co108  1  0.00150026  -0.00484774  -0.00149872  1
  Co  Co109  1  0.74793059  0.24643459  0.00548697  1
  Co  Co110  1  0.50024369  0.75010330  0.75322210  1
  Co  Co111  1  0.00120626  0.25027962  0.49945719  1
  Co  Co112  1  0.37785248  0.12332184  0.62639271  1
  Co  Co113  1  0.50041182  0.75161445  0.00468889  1
  Co  Co114  1  0.75151755  0.50170956  -0.00046370  1
  Co  Co115  1  0.49801651  -0.00032212  -0.00208146  1
  Co  Co116  1  0.38043534  0.62095188  0.12477028  1
  Co  Co117  1  0.37680472  0.12036142  0.37410292  1
  Co  Co118  1  0.74619401  0.75049314  0.24439364  1
  Co  Co119  1  0.75005536  0.24633780  0.75067075  1
  Co  Co120  1  0.50038913  0.49670467  -0.00249283  1
  Co  Co121  1  0.74725488  0.24785421  0.49805987  1
  Co  Co122  1  0.24958236  0.00173884  -0.00323764  1
  Co  Co123  1  0.50500882  0.49906631  0.49843316  1
  Co  Co124  1  0.24659159  0.50386832  0.50108429  1
  Co  Co125  1  0.24967865  0.74468862  0.00624326  1
  Co  Co126  1  0.88177275  0.12488181  0.12201771  1
  Co  Co127  1  0.62751247  0.87481080  0.37183723  1
