# generated using pymatgen
data_Fe45Co19
_symmetry_space_group_name_H-M   'P 1'
_cell_length_a   11.41527533
_cell_length_b   11.41564636
_cell_length_c   11.41581419
_cell_angle_alpha   89.99363332
_cell_angle_beta   90.00476396
_cell_angle_gamma   90.00284320
_symmetry_Int_Tables_number   1
_chemical_formula_structural   Fe45Co19
_chemical_formula_sum   'Fe90 Co38'
_cell_volume   1487.62608152
_cell_formula_units_Z   2
loop_
 _symmetry_equiv_pos_site_id
 _symmetry_equiv_pos_as_xyz
  1  'x, y, z'
loop_
 _atom_site_type_symbol
 _atom_site_label
 _atom_site_symmetry_multiplicity
 _atom_site_fract_x
 _atom_site_fract_y
 _atom_site_fract_z
 _atom_site_occupancy
  Fe  Fe0  1  0.37238895  0.37338927  0.87319339  1
  Fe  Fe1  1  -0.00015815  0.50223861  0.49603856  1
  Fe  Fe2  1  0.37491240  0.12834547  0.12659754  1
  Fe  Fe3  1  0.37356900  0.12423370  0.87320421  1
  Fe  Fe4  1  0.74939283  0.00091930  0.74821875  1
  Fe  Fe5  1  0.12475839  0.37899229  0.62893239  1
  Fe  Fe6  1  0.62601233  0.62194387  0.12306540  1
  Fe  Fe7  1  0.75007444  0.00178467  0.24914843  1
  Fe  Fe8  1  0.37509547  0.37227012  0.62492543  1
  Fe  Fe9  1  0.62412200  0.62440489  0.62713042  1
  Fe  Fe10  1  0.12447494  0.12233806  0.62324832  1
  Fe  Fe11  1  -0.00027904  0.74987000  0.75173008  1
  Fe  Fe12  1  0.87628295  0.87523467  0.12298246  1
  Fe  Fe13  1  0.74841075  0.24983479  0.50123568  1
  Fe  Fe14  1  0.25510678  0.00024507  0.74518256  1
  Fe  Fe15  1  0.12452140  0.12413809  0.37605337  1
  Fe  Fe16  1  0.62463467  0.37455476  0.12541780  1
  Fe  Fe17  1  0.75404510  0.49772489  0.24955654  1
  Fe  Fe18  1  0.37645833  0.62797322  0.62612563  1
  Fe  Fe19  1  0.50068720  0.24803725  0.75039318  1
  Fe  Fe20  1  0.87562229  0.87602384  0.62399674  1
  Fe  Fe21  1  0.49709755  0.50064738  0.75142062  1
  Fe  Fe22  1  0.87452889  0.62313122  0.12258344  1
  Fe  Fe23  1  0.74716636  0.24894035  0.74798345  1
  Fe  Fe24  1  0.37549614  0.62594072  0.12281086  1
  Fe  Fe25  1  0.12601273  0.37284811  0.12305724  1
  Fe  Fe26  1  0.87620109  0.62533167  0.62533184  1
  Fe  Fe27  1  0.49807701  -0.00002732  0.25052005  1
  Fe  Fe28  1  0.25135113  0.49690871  0.24829298  1
  Fe  Fe29  1  0.87713040  0.12630609  0.37938018  1
  Fe  Fe30  1  0.49872505  0.75200235  0.75425784  1
  Fe  Fe31  1  0.87309755  0.12673530  0.87511025  1
  Fe  Fe32  1  0.12812931  0.87724099  0.87582878  1
  Fe  Fe33  1  0.00301141  0.75021449  -0.00096917  1
  Fe  Fe34  1  0.50007337  0.25003556  -0.00119377  1
  Fe  Fe35  1  0.87383736  0.87517623  0.37628408  1
  Fe  Fe36  1  0.62659041  0.62373511  0.37367063  1
  Fe  Fe37  1  0.12776121  0.12432210  0.87547679  1
  Fe  Fe38  1  0.87843148  0.12446564  0.62323158  1
  Fe  Fe39  1  0.50134523  0.00332638  0.00054399  1
  Fe  Fe40  1  0.62444291  0.87756153  0.12427119  1
  Fe  Fe41  1  0.12599601  0.12724387  0.12591610  1
  Fe  Fe42  1  0.75396163  0.49988607  0.75437726  1
  Fe  Fe43  1  0.62363112  0.87644121  0.37703141  1
  Fe  Fe44  1  0.62613892  0.62328025  0.87639766  1
  Fe  Fe45  1  0.49900881  0.50108913  0.49928802  1
  Fe  Fe46  1  0.62279704  0.12454502  0.37623436  1
  Fe  Fe47  1  0.00008699  -0.00038330  0.75084164  1
  Fe  Fe48  1  0.24975748  0.75178323  0.24461516  1
  Fe  Fe49  1  0.75059323  0.25039029  0.25151839  1
  Fe  Fe50  1  0.12427952  0.62410240  0.62728953  1
  Fe  Fe51  1  0.00126175  0.74901110  0.49739883  1
  Fe  Fe52  1  0.12656843  0.87601938  0.37412565  1
  Fe  Fe53  1  0.62085389  0.87623759  0.62295484  1
  Fe  Fe54  1  0.49949508  0.49720646  -0.00073276  1
  Fe  Fe55  1  0.50029054  0.74984753  0.24982512  1
  Fe  Fe56  1  -0.00400954  0.49440690  -0.00384886  1
  Fe  Fe57  1  0.25254001  0.74862114  0.75454924  1
  Fe  Fe58  1  0.37418943  0.12802477  0.37771411  1
  Fe  Fe59  1  0.25143662  0.75096031  0.49943265  1
  Fe  Fe60  1  0.62639419  0.87957655  0.87647752  1
  Fe  Fe61  1  0.12363094  0.62196571  0.12496215  1
  Fe  Fe62  1  0.00074155  0.74689546  0.25107027  1
  Fe  Fe63  1  0.24768719  0.25026780  0.50120890  1
  Fe  Fe64  1  0.74964397  0.75007872  0.75155463  1
  Fe  Fe65  1  0.00001153  0.00216593  0.00016463  1
  Fe  Fe66  1  0.25014406  -0.00080037  0.00466271  1
  Fe  Fe67  1  0.49701801  0.49775719  0.25017587  1
  Fe  Fe68  1  0.74791204  0.74937320  0.50082626  1
  Fe  Fe69  1  0.62510855  0.37610550  0.37549553  1
  Fe  Fe70  1  0.74926118  0.75029452  0.24723555  1
  Fe  Fe71  1  0.62391279  0.37725579  0.62676155  1
  Fe  Fe72  1  0.62012819  0.12178156  0.62315289  1
  Fe  Fe73  1  -0.00009480  0.25193829  0.24934889  1
  Fe  Fe74  1  0.25199402  0.49940896  -0.00117750  1
  Fe  Fe75  1  0.49987553  0.75098166  -0.00109029  1
  Fe  Fe76  1  0.25174017  -0.00117719  0.24920909  1
  Fe  Fe77  1  0.87297928  0.87552334  0.87731040  1
  Fe  Fe78  1  -0.00091431  0.00111081  0.24983791  1
  Fe  Fe79  1  0.12488582  0.37577207  0.37379447  1
  Fe  Fe80  1  0.12507388  0.62077596  0.87317017  1
  Fe  Fe81  1  0.87425854  0.12789664  0.12297988  1
  Fe  Fe82  1  0.87695430  0.37437100  0.62518280  1
  Fe  Fe83  1  0.00448544  0.25117219  0.75207779  1
  Fe  Fe84  1  0.49677777  0.25403805  0.25156714  1
  Fe  Fe85  1  0.75133057  0.49981489  0.49959301  1
  Fe  Fe86  1  0.74584252  0.25055751  -0.00098728  1
  Fe  Fe87  1  0.37306946  0.62515319  0.37313068  1
  Fe  Fe88  1  0.12648915  0.87486503  0.62531777  1
  Fe  Fe89  1  0.25095903  0.50107330  0.50156606  1
  Co  Co90  1  0.12931553  0.62454745  0.37289971  1
  Co  Co91  1  0.87615908  0.37252258  0.37684432  1
  Co  Co92  1  0.37682961  0.87456271  0.12268044  1
  Co  Co93  1  0.00371141  0.24963441  -0.00224580  1
  Co  Co94  1  0.00363050  0.25202567  0.50201082  1
  Co  Co95  1  0.12248746  0.87610042  0.12568497  1
  Co  Co96  1  0.37753128  0.87096860  0.62534368  1
  Co  Co97  1  0.37470279  0.87237757  0.37362884  1
  Co  Co98  1  0.75103454  0.49695229  -0.00296037  1
  Co  Co99  1  0.24723250  0.74895682  0.00016474  1
  Co  Co100  1  0.37684665  0.12927063  0.62278700  1
  Co  Co101  1  0.62361665  0.37507595  0.87263751  1
  Co  Co102  1  0.37242722  0.87806298  0.87822294  1
  Co  Co103  1  0.49745563  -0.00032023  0.74983831  1
  Co  Co104  1  0.74909885  0.00283226  0.00276999  1
  Co  Co105  1  0.74765787  0.75032384  0.00140107  1
  Co  Co106  1  -0.00417958  0.49911554  0.75310907  1
  Co  Co107  1  0.87500048  0.62839259  0.87762847  1
  Co  Co108  1  0.37327701  0.37536206  0.37836337  1
  Co  Co109  1  0.37402091  0.37341057  0.12273501  1
  Co  Co110  1  0.74979487  0.00158557  0.50081524  1
  Co  Co111  1  0.87457602  0.37244590  0.12372243  1
  Co  Co112  1  0.49372113  -0.00135275  0.49943074  1
  Co  Co113  1  0.25095442  0.24888359  -0.00132815  1
  Co  Co114  1  0.00113328  -0.00303147  0.50008035  1
  Co  Co115  1  0.87354909  0.36763899  0.87390131  1
  Co  Co116  1  0.25291160  -0.00044185  0.50128807  1
  Co  Co117  1  0.37579876  0.62484322  0.87816035  1
  Co  Co118  1  0.50091893  0.74690998  0.49731952  1
  Co  Co119  1  0.62565151  0.12377863  0.87329620  1
  Co  Co120  1  0.12908666  0.37679409  0.87373275  1
  Co  Co121  1  0.50249818  0.25272539  0.49953755  1
  Co  Co122  1  -0.00112628  0.49881137  0.25119663  1
  Co  Co123  1  0.62318621  0.12822196  0.12808558  1
  Co  Co124  1  0.87265842  0.62602617  0.37445312  1
  Co  Co125  1  0.25045264  0.25156266  0.25108921  1
  Co  Co126  1  0.25399797  0.50147771  0.74927967  1
  Co  Co127  1  0.24756312  0.24890009  0.74861778  1
