# generated using pymatgen
data_Fe45Co19
_symmetry_space_group_name_H-M   'P 1'
_cell_length_a   11.41390078
_cell_length_b   11.41580374
_cell_length_c   11.41392314
_cell_angle_alpha   89.98932058
_cell_angle_beta   89.99515759
_cell_angle_gamma   89.99041182
_symmetry_Int_Tables_number   1
_chemical_formula_structural   Fe45Co19
_chemical_formula_sum   'Fe90 Co38'
_cell_volume   1487.22102081
_cell_formula_units_Z   2
loop_
 _symmetry_equiv_pos_site_id
 _symmetry_equiv_pos_as_xyz
  1  'x, y, z'
loop_
 _atom_site_type_symbol
 _atom_site_label
 _atom_site_symmetry_multiplicity
 _atom_site_fract_x
 _atom_site_fract_y
 _atom_site_fract_z
 _atom_site_occupancy
  Fe  Fe0  1  0.75096504  0.00553673  0.49777752  1
  Fe  Fe1  1  0.25010578  0.75027613  0.49758687  1
  Fe  Fe2  1  0.12596970  0.37415026  0.87640371  1
  Fe  Fe3  1  0.74869792  0.49883969  0.24959333  1
  Fe  Fe4  1  0.87516621  0.62467602  0.37343404  1
  Fe  Fe5  1  0.49843789  0.75124734  0.24759456  1
  Fe  Fe6  1  0.00117663  0.49859883  0.24972315  1
  Fe  Fe7  1  0.00119103  0.50082816  0.00121618  1
  Fe  Fe8  1  0.37372925  0.37573281  0.88044069  1
  Fe  Fe9  1  0.62567783  0.87565547  0.62438151  1
  Fe  Fe10  1  0.24938750  -0.00005090  0.75197520  1
  Fe  Fe11  1  0.62524153  0.87109659  0.11775155  1
  Fe  Fe12  1  0.62654632  0.62840176  0.12484131  1
  Fe  Fe13  1  -0.00184493  0.24692251  0.49979505  1
  Fe  Fe14  1  0.62152214  0.37507617  0.37612503  1
  Fe  Fe15  1  0.50292793  0.00047236  0.75181502  1
  Fe  Fe16  1  0.25187700  0.74784080  -0.00017858  1
  Fe  Fe17  1  0.74942440  0.25013480  0.25102045  1
  Fe  Fe18  1  0.12678676  0.62714247  0.62878190  1
  Fe  Fe19  1  0.75263584  0.50020559  0.00178434  1
  Fe  Fe20  1  0.37285352  0.62369495  0.62596657  1
  Fe  Fe21  1  0.49918517  0.74906628  0.50048614  1
  Fe  Fe22  1  0.62310503  0.87778875  0.37585942  1
  Fe  Fe23  1  -0.00102363  0.75002668  -0.00108812  1
  Fe  Fe24  1  0.37507312  0.12589360  0.87681339  1
  Fe  Fe25  1  0.87422933  0.37514226  0.87632455  1
  Fe  Fe26  1  0.87593640  0.37381175  0.37426041  1
  Fe  Fe27  1  0.74906901  0.75198279  0.75229215  1
  Fe  Fe28  1  0.25187730  0.49538596  0.25130079  1
  Fe  Fe29  1  0.37795778  0.62056404  0.37351087  1
  Fe  Fe30  1  0.25313575  0.25242791  0.24936810  1
  Fe  Fe31  1  0.49958555  0.00419256  0.50179907  1
  Fe  Fe32  1  0.74881795  0.49718973  0.75025200  1
  Fe  Fe33  1  0.62844726  0.12720433  0.62691070  1
  Fe  Fe34  1  0.00023199  0.24995987  0.24836220  1
  Fe  Fe35  1  0.74985627  0.75046235  0.49637774  1
  Fe  Fe36  1  0.12475848  0.12488786  0.37334477  1
  Fe  Fe37  1  0.00168798  0.74960461  0.49877128  1
  Fe  Fe38  1  0.62624056  0.37247665  0.62384371  1
  Fe  Fe39  1  0.00076851  -0.00179251  0.75108887  1
  Fe  Fe40  1  0.12603085  0.62765260  0.87020846  1
  Fe  Fe41  1  0.25106970  0.24818785  0.49908033  1
  Fe  Fe42  1  0.37663801  0.12327263  0.37310405  1
  Fe  Fe43  1  0.12539537  0.87472454  0.12326056  1
  Fe  Fe44  1  0.00232370  0.75182637  0.25170447  1
  Fe  Fe45  1  0.49771920  0.50309672  0.00362497  1
  Fe  Fe46  1  0.49939944  0.49825831  0.74934050  1
  Fe  Fe47  1  0.24773081  0.49711542  0.49953152  1
  Fe  Fe48  1  0.87478801  0.62589453  0.62594015  1
  Fe  Fe49  1  0.87325905  0.87628289  0.62468503  1
  Fe  Fe50  1  0.12634280  0.12556733  0.12419651  1
  Fe  Fe51  1  0.49956052  0.75134357  0.75060824  1
  Fe  Fe52  1  0.12570060  0.12468659  0.62752953  1
  Fe  Fe53  1  0.00232631  0.49791650  0.74783075  1
  Fe  Fe54  1  -0.00045429  0.24977542  0.75046451  1
  Fe  Fe55  1  0.74889324  -0.00151487  0.24677430  1
  Fe  Fe56  1  0.12661963  0.37453390  0.12330348  1
  Fe  Fe57  1  0.49899560  -0.00184968  0.24450022  1
  Fe  Fe58  1  0.87664443  0.87799634  0.37149933  1
  Fe  Fe59  1  0.62469193  0.37361005  0.12098368  1
  Fe  Fe60  1  0.24928870  -0.00082245  0.24961340  1
  Fe  Fe61  1  0.37554954  0.87798189  0.37625230  1
  Fe  Fe62  1  0.62618310  0.62606029  0.62590044  1
  Fe  Fe63  1  0.62446932  0.62558095  0.87615758  1
  Fe  Fe64  1  0.25068550  0.75185214  0.25255474  1
  Fe  Fe65  1  0.50282451  0.25141341  0.75453521  1
  Fe  Fe66  1  0.24991767  0.00287003  -0.00037742  1
  Fe  Fe67  1  0.12697622  0.62516503  0.12749832  1
  Fe  Fe68  1  -0.00056936  0.24945120  0.00047335  1
  Fe  Fe69  1  0.24906864  0.25035683  0.75191745  1
  Fe  Fe70  1  0.37332688  0.62347582  0.87337850  1
  Fe  Fe71  1  0.62900106  0.12340109  0.87879349  1
  Fe  Fe72  1  -0.00072487  -0.00033673  0.00074020  1
  Fe  Fe73  1  0.49637611  0.25266394  0.24689505  1
  Fe  Fe74  1  0.00043567  0.00244944  0.49939929  1
  Fe  Fe75  1  0.62405421  0.12673249  0.12322961  1
  Fe  Fe76  1  0.49970604  0.24680116  0.49965495  1
  Fe  Fe77  1  0.37508058  0.37319915  0.62456104  1
  Fe  Fe78  1  0.87637801  0.62387797  0.87251259  1
  Fe  Fe79  1  0.62189952  0.62353466  0.37332416  1
  Fe  Fe80  1  0.00287818  0.49947652  0.50040264  1
  Fe  Fe81  1  0.87239264  0.87638552  0.87585047  1
  Fe  Fe82  1  0.87375626  0.12547554  0.12552848  1
  Fe  Fe83  1  0.37746681  0.87585247  0.87832520  1
  Fe  Fe84  1  0.74872199  0.49948667  0.49881227  1
  Fe  Fe85  1  0.37489217  0.87837590  0.62419869  1
  Fe  Fe86  1  0.87292772  0.37148322  0.62368587  1
  Fe  Fe87  1  0.12745133  0.87463478  0.62532555  1
  Fe  Fe88  1  0.87257936  0.12472231  0.87366769  1
  Fe  Fe89  1  0.87395496  0.62753851  0.12749321  1
  Co  Co90  1  0.62116313  0.12407294  0.37083116  1
  Co  Co91  1  0.37443775  0.12556068  0.12446021  1
  Co  Co92  1  0.24926218  0.49603192  0.74978384  1
  Co  Co93  1  0.50137287  0.50096939  0.50455434  1
  Co  Co94  1  0.00272506  0.00025517  0.24695393  1
  Co  Co95  1  0.37254365  0.37479259  0.11801705  1
  Co  Co96  1  0.62482313  0.37868722  0.88047534  1
  Co  Co97  1  0.87642505  0.12345847  0.36961266  1
  Co  Co98  1  0.12506532  0.37157051  0.62469911  1
  Co  Co99  1  0.24844732  0.24709776  -0.00045280  1
  Co  Co100  1  0.24691333  0.50348723  -0.00078628  1
  Co  Co101  1  0.12568154  0.62281235  0.37379623  1
  Co  Co102  1  0.75015327  0.24647415  0.49537470  1
  Co  Co103  1  0.74828822  0.25276245  0.75392421  1
  Co  Co104  1  0.74795740  -0.00183097  0.75041944  1
  Co  Co105  1  0.37229073  0.87567638  0.12246673  1
  Co  Co106  1  0.24979277  0.00318814  0.49993682  1
  Co  Co107  1  0.12299053  0.37248372  0.37472787  1
  Co  Co108  1  0.12332370  0.12527304  0.87469013  1
  Co  Co109  1  0.49951605  0.00257993  0.00164628  1
  Co  Co110  1  0.74789329  0.75232106  0.25264914  1
  Co  Co111  1  0.87636360  0.87223734  0.12689037  1
  Co  Co112  1  0.87330546  0.12575383  0.62900097  1
  Co  Co113  1  0.75410093  0.74894367  -0.00301237  1
  Co  Co114  1  0.75178787  0.25072724  -0.00012511  1
  Co  Co115  1  0.62326275  0.87404752  0.87997681  1
  Co  Co116  1  -0.00197677  0.75367670  0.75002683  1
  Co  Co117  1  0.37904224  0.37674192  0.37818763  1
  Co  Co118  1  0.75186723  -0.00077764  0.00335478  1
  Co  Co119  1  0.37556856  0.12586762  0.62898000  1
  Co  Co120  1  0.12454439  0.87732517  0.37555104  1
  Co  Co121  1  0.37173401  0.62400517  0.12936426  1
  Co  Co122  1  0.25368601  0.75402476  0.75061550  1
  Co  Co123  1  0.50008081  0.49694799  0.24402977  1
  Co  Co124  1  0.12656049  0.87369699  0.87711777  1
  Co  Co125  1  0.87550991  0.37469063  0.12586140  1
  Co  Co126  1  0.50024516  0.24777337  -0.00071843  1
  Co  Co127  1  0.49521263  0.74632281  0.00093633  1
