# generated using pymatgen
data_Fe45Co19
_symmetry_space_group_name_H-M   'P 1'
_cell_length_a   11.41601799
_cell_length_b   11.41604908
_cell_length_c   11.41623258
_cell_angle_alpha   90.01023625
_cell_angle_beta   89.98797804
_cell_angle_gamma   89.99869860
_symmetry_Int_Tables_number   1
_chemical_formula_structural   Fe45Co19
_chemical_formula_sum   'Fe90 Co38'
_cell_volume   1487.82983366
_cell_formula_units_Z   2
loop_
 _symmetry_equiv_pos_site_id
 _symmetry_equiv_pos_as_xyz
  1  'x, y, z'
loop_
 _atom_site_type_symbol
 _atom_site_label
 _atom_site_symmetry_multiplicity
 _atom_site_fract_x
 _atom_site_fract_y
 _atom_site_fract_z
 _atom_site_occupancy
  Fe  Fe0  1  0.74963700  0.25260090  -0.00050290  1
  Fe  Fe1  1  0.25212019  0.49890223  -0.00197427  1
  Fe  Fe2  1  0.24675288  0.25426442  0.25002944  1
  Fe  Fe3  1  0.50198214  -0.00034876  0.74746494  1
  Fe  Fe4  1  0.50457938  0.25088063  0.24728574  1
  Fe  Fe5  1  0.87253171  0.12378977  0.62539909  1
  Fe  Fe6  1  0.62671134  0.37527308  0.62273843  1
  Fe  Fe7  1  0.74926408  0.00136033  0.49985134  1
  Fe  Fe8  1  0.37497855  0.87316005  0.62443843  1
  Fe  Fe9  1  -0.00131113  0.24874323  -0.00005095  1
  Fe  Fe10  1  0.37474419  0.62574913  0.37431731  1
  Fe  Fe11  1  0.12369794  0.87019390  0.37339625  1
  Fe  Fe12  1  0.24817030  0.49789794  0.25198910  1
  Fe  Fe13  1  -0.00133378  0.24718786  0.49871846  1
  Fe  Fe14  1  0.12327198  0.87490587  0.87578964  1
  Fe  Fe15  1  0.37527508  0.62470108  0.12654035  1
  Fe  Fe16  1  0.49932733  0.00136855  0.00482215  1
  Fe  Fe17  1  0.50019862  -0.00045843  0.24527587  1
  Fe  Fe18  1  0.24864599  0.00011698  0.49912693  1
  Fe  Fe19  1  0.25147609  0.75026156  -0.00148956  1
  Fe  Fe20  1  0.87264134  0.12631855  0.12618554  1
  Fe  Fe21  1  0.75051793  0.49922769  -0.00096722  1
  Fe  Fe22  1  0.75098114  -0.00315612  -0.00299499  1
  Fe  Fe23  1  0.12626836  0.62529521  0.87305068  1
  Fe  Fe24  1  0.12752202  0.87335363  0.12478724  1
  Fe  Fe25  1  -0.00026600  0.50726736  0.49980175  1
  Fe  Fe26  1  0.50134334  0.24836568  0.50064808  1
  Fe  Fe27  1  0.25268353  -0.00182349  0.24779360  1
  Fe  Fe28  1  0.74753327  0.25113729  0.25257671  1
  Fe  Fe29  1  0.87511065  0.37524953  0.12554815  1
  Fe  Fe30  1  0.87255689  0.87226747  0.12541655  1
  Fe  Fe31  1  0.37622624  0.87332823  0.37518836  1
  Fe  Fe32  1  0.62706262  0.62707010  0.62666527  1
  Fe  Fe33  1  0.50198736  0.25031663  0.00121021  1
  Fe  Fe34  1  0.25042033  0.25152820  -0.00034944  1
  Fe  Fe35  1  0.24990135  0.24902619  0.49960985  1
  Fe  Fe36  1  0.87608196  0.87104524  0.37339240  1
  Fe  Fe37  1  0.87232885  0.62567729  0.12698256  1
  Fe  Fe38  1  0.37463109  0.12446144  0.62507934  1
  Fe  Fe39  1  0.87408449  0.37731992  0.62352506  1
  Fe  Fe40  1  0.62340737  0.37807935  0.87568391  1
  Fe  Fe41  1  0.24739778  0.50200923  0.49961287  1
  Fe  Fe42  1  0.24846953  0.74911152  0.50102366  1
  Fe  Fe43  1  -0.00123872  0.50142245  0.00047956  1
  Fe  Fe44  1  0.37782667  0.37573089  0.37535280  1
  Fe  Fe45  1  0.62698168  0.87118941  0.62731560  1
  Fe  Fe46  1  0.12645036  0.12565507  0.12528579  1
  Fe  Fe47  1  0.37823737  0.37705950  0.12414709  1
  Fe  Fe48  1  0.74878524  -0.00062399  0.25059452  1
  Fe  Fe49  1  0.37554168  0.62192619  0.87006543  1
  Fe  Fe50  1  -0.00294675  0.74665248  0.74970704  1
  Fe  Fe51  1  0.62493977  0.62400566  0.37541213  1
  Fe  Fe52  1  0.75150714  0.50057522  0.75047279  1
  Fe  Fe53  1  0.12811734  0.62497285  0.12645009  1
  Fe  Fe54  1  0.37517389  0.37665039  0.62547225  1
  Fe  Fe55  1  0.12374605  0.12537411  0.37301396  1
  Fe  Fe56  1  0.12311238  0.87245124  0.62610943  1
  Fe  Fe57  1  0.50081182  0.74892294  -0.00096796  1
  Fe  Fe58  1  0.12331927  0.37617997  0.62311766  1
  Fe  Fe59  1  0.50145752  0.00020686  0.50195553  1
  Fe  Fe60  1  -0.00186599  0.00304369  0.75254897  1
  Fe  Fe61  1  0.74902824  0.24796497  0.49684494  1
  Fe  Fe62  1  -0.00152114  -0.00073596  0.24898210  1
  Fe  Fe63  1  0.62655706  0.12223331  0.87463536  1
  Fe  Fe64  1  0.12326868  0.37531086  0.87607011  1
  Fe  Fe65  1  0.74745694  0.49834322  0.25232127  1
  Fe  Fe66  1  0.87403282  0.87287345  0.62705106  1
  Fe  Fe67  1  0.75062434  0.24967755  0.75153826  1
  Fe  Fe68  1  0.37701330  0.12527551  0.37293226  1
  Fe  Fe69  1  0.75305703  0.74704539  0.49780266  1
  Fe  Fe70  1  0.62404358  0.62413082  0.87302293  1
  Fe  Fe71  1  0.25013635  0.25253218  0.75076596  1
  Fe  Fe72  1  0.74925443  0.75181899  -0.00360744  1
  Fe  Fe73  1  0.50043424  0.25088595  0.75044167  1
  Fe  Fe74  1  0.87680885  0.37618622  0.37593354  1
  Fe  Fe75  1  0.37352917  0.12433697  0.87619375  1
  Fe  Fe76  1  0.37308773  0.62547983  0.62878079  1
  Fe  Fe77  1  -0.00086192  0.74839508  0.00239079  1
  Fe  Fe78  1  0.24902083  -0.00104998  0.75111566  1
  Fe  Fe79  1  -0.00118465  0.50194107  0.75052396  1
  Fe  Fe80  1  0.50152550  0.74986599  0.24951426  1
  Fe  Fe81  1  -0.00048747  -0.00077053  0.49868898  1
  Fe  Fe82  1  -0.00189214  0.24873561  0.75165905  1
  Fe  Fe83  1  0.62398576  0.87434998  0.37546303  1
  Fe  Fe84  1  0.12501614  0.12470628  0.62585531  1
  Fe  Fe85  1  -0.00047424  0.00190009  -0.00020899  1
  Fe  Fe86  1  0.37710307  0.87648920  0.87663658  1
  Fe  Fe87  1  0.62527058  0.62417182  0.12480011  1
  Fe  Fe88  1  0.50108736  0.50190171  0.50184994  1
  Fe  Fe89  1  0.00288940  0.49920166  0.25018188  1
  Co  Co90  1  0.24879341  0.49563700  0.75052412  1
  Co  Co91  1  0.49931229  0.50211356  -0.00019533  1
  Co  Co92  1  0.37306002  0.12861193  0.12577705  1
  Co  Co93  1  0.37605637  0.87121673  0.12333690  1
  Co  Co94  1  0.62937907  0.12365078  0.12399788  1
  Co  Co95  1  0.49986233  0.74802417  0.50062175  1
  Co  Co96  1  0.74677512  0.74975611  0.25071984  1
  Co  Co97  1  0.62461475  0.37825428  0.12347225  1
  Co  Co98  1  0.50186970  0.49887216  0.74763800  1
  Co  Co99  1  0.62225189  0.12273289  0.37429955  1
  Co  Co100  1  0.00105206  0.25177988  0.24925672  1
  Co  Co101  1  0.87880935  0.87382309  0.87450940  1
  Co  Co102  1  0.25141806  0.75348936  0.75185844  1
  Co  Co103  1  0.87555844  0.12428262  0.37355146  1
  Co  Co104  1  0.87497871  0.62496272  0.87735388  1
  Co  Co105  1  0.75035634  0.50265008  0.49791071  1
  Co  Co106  1  0.12425918  0.62912141  0.37262870  1
  Co  Co107  1  0.12715238  0.12553169  0.87564412  1
  Co  Co108  1  0.62273867  0.37605108  0.37798549  1
  Co  Co109  1  0.25196465  0.75079323  0.24931486  1
  Co  Co110  1  0.62176540  0.87701097  0.87457855  1
  Co  Co111  1  0.25010586  -0.00094721  0.00152232  1
  Co  Co112  1  0.87586483  0.37671459  0.87513975  1
  Co  Co113  1  0.75108630  0.75028288  0.75519557  1
  Co  Co114  1  0.62641236  0.12600444  0.62570404  1
  Co  Co115  1  0.87225809  0.12508991  0.87620884  1
  Co  Co116  1  0.12269058  0.37545232  0.37999713  1
  Co  Co117  1  0.62539513  0.87394009  0.12365498  1
  Co  Co118  1  0.75048670  -0.00131166  0.75069089  1
  Co  Co119  1  0.37810305  0.37607722  0.87587549  1
  Co  Co120  1  0.12432233  0.37669142  0.12081972  1
  Co  Co121  1  0.49939541  0.75037803  0.75044367  1
  Co  Co122  1  -0.00163551  0.74716677  0.50132481  1
  Co  Co123  1  0.50139409  0.50126548  0.25056663  1
  Co  Co124  1  -0.00030990  0.74969305  0.24572476  1
  Co  Co125  1  0.12732863  0.62629585  0.62848026  1
  Co  Co126  1  0.87605618  0.62572395  0.37007780  1
  Co  Co127  1  0.87163984  0.62549854  0.62644059  1
