# generated using pymatgen
data_Fe45Co19
_symmetry_space_group_name_H-M   'P 1'
_cell_length_a   11.41506227
_cell_length_b   11.41505940
_cell_length_c   11.41476675
_cell_angle_alpha   90.00216007
_cell_angle_beta   89.99784230
_cell_angle_gamma   90.00490315
_symmetry_Int_Tables_number   1
_chemical_formula_structural   Fe45Co19
_chemical_formula_sum   'Fe90 Co38'
_cell_volume   1487.38535078
_cell_formula_units_Z   2
loop_
 _symmetry_equiv_pos_site_id
 _symmetry_equiv_pos_as_xyz
  1  'x, y, z'
loop_
 _atom_site_type_symbol
 _atom_site_label
 _atom_site_symmetry_multiplicity
 _atom_site_fract_x
 _atom_site_fract_y
 _atom_site_fract_z
 _atom_site_occupancy
  Fe  Fe0  1  0.62528230  0.62357103  0.12607464  1
  Fe  Fe1  1  0.87595627  0.12225048  0.87630710  1
  Fe  Fe2  1  0.00099590  0.50066071  0.50137630  1
  Fe  Fe3  1  0.74792290  0.75099520  0.49815634  1
  Fe  Fe4  1  0.62569422  0.37250920  0.87197371  1
  Fe  Fe5  1  0.62753676  0.62781805  0.87355540  1
  Fe  Fe6  1  0.25107547  0.24679270  0.49760345  1
  Fe  Fe7  1  0.12400866  0.37396871  0.87499240  1
  Fe  Fe8  1  0.87389341  0.62700573  0.62653106  1
  Fe  Fe9  1  0.12872503  0.12992902  0.12691305  1
  Fe  Fe10  1  0.25305597  0.25113703  0.75140248  1
  Fe  Fe11  1  0.62200019  0.87839180  0.12451763  1
  Fe  Fe12  1  0.87484546  0.37477503  0.87463362  1
  Fe  Fe13  1  0.87878938  0.87799642  0.37513275  1
  Fe  Fe14  1  0.74836950  -0.00388554  -0.00129820  1
  Fe  Fe15  1  0.12288988  0.37341658  0.37554194  1
  Fe  Fe16  1  0.37676959  0.37388028  0.37634886  1
  Fe  Fe17  1  0.12492987  0.12541826  0.62585225  1
  Fe  Fe18  1  0.62608271  0.12490591  0.37212376  1
  Fe  Fe19  1  0.00213835  0.50161151  -0.00026843  1
  Fe  Fe20  1  0.74813911  0.49914512  0.49942398  1
  Fe  Fe21  1  0.87353067  0.62398195  0.37497894  1
  Fe  Fe22  1  0.37449325  0.62464037  0.37278545  1
  Fe  Fe23  1  0.49993667  0.74834015  0.49911522  1
  Fe  Fe24  1  0.24982162  0.75055563  0.49796771  1
  Fe  Fe25  1  0.25051848  -0.00119796  0.75161164  1
  Fe  Fe26  1  0.62525676  0.37368383  0.37378137  1
  Fe  Fe27  1  0.37429617  0.87666201  0.62348765  1
  Fe  Fe28  1  0.49854636  0.00043347  0.75176774  1
  Fe  Fe29  1  0.62243846  0.87537406  0.37292441  1
  Fe  Fe30  1  0.50092625  0.24774244  0.24569931  1
  Fe  Fe31  1  0.37286149  0.62471893  0.62435937  1
  Fe  Fe32  1  0.24640162  0.49910232  0.00274131  1
  Fe  Fe33  1  -0.00160214  0.24884426  0.75024986  1
  Fe  Fe34  1  0.62456976  0.87570010  0.62600590  1
  Fe  Fe35  1  0.74948504  0.49976620  -0.00108332  1
  Fe  Fe36  1  0.50164009  0.24789425  0.00142859  1
  Fe  Fe37  1  0.87272755  0.63142589  0.87605153  1
  Fe  Fe38  1  0.00002599  0.50319422  0.75075938  1
  Fe  Fe39  1  0.87925343  0.87417976  0.12291898  1
  Fe  Fe40  1  0.49795405  0.49800075  0.75065276  1
  Fe  Fe41  1  0.24900382  0.49815860  0.24763759  1
  Fe  Fe42  1  0.49841130  0.00410557  0.24609170  1
  Fe  Fe43  1  0.87045440  0.12470424  0.12568805  1
  Fe  Fe44  1  0.87442428  0.37569327  0.62628906  1
  Fe  Fe45  1  0.49827702  0.24739491  0.50319875  1
  Fe  Fe46  1  0.12399275  0.87361156  0.87600165  1
  Fe  Fe47  1  0.12588945  0.87240027  0.62617803  1
  Fe  Fe48  1  0.49940996  0.00237608  0.50039023  1
  Fe  Fe49  1  0.62706238  0.62625443  0.62781113  1
  Fe  Fe50  1  0.87524247  0.37501302  0.12454083  1
  Fe  Fe51  1  -0.00193505  -0.00459546  0.74987999  1
  Fe  Fe52  1  -0.00198189  0.24938774  0.25116947  1
  Fe  Fe53  1  0.62620293  0.37237737  0.62903238  1
  Fe  Fe54  1  0.25112054  0.49946441  0.74982831  1
  Fe  Fe55  1  0.37511852  0.87465898  0.87875692  1
  Fe  Fe56  1  0.74925837  0.25117390  0.00012837  1
  Fe  Fe57  1  0.00149734  0.24846678  -0.00042316  1
  Fe  Fe58  1  0.49952870  0.49888263  0.24909958  1
  Fe  Fe59  1  0.25099405  0.00257933  0.25004515  1
  Fe  Fe60  1  0.62581187  0.12506293  0.87386041  1
  Fe  Fe61  1  0.75068992  0.75254531  0.24877849  1
  Fe  Fe62  1  0.87591597  0.62670277  0.12294709  1
  Fe  Fe63  1  0.37380941  0.12567075  0.87668513  1
  Fe  Fe64  1  0.37597354  0.87628814  0.37324927  1
  Fe  Fe65  1  0.00405414  0.00173349  0.00265802  1
  Fe  Fe66  1  0.12551775  0.37397549  0.62475066  1
  Fe  Fe67  1  0.75308443  0.25020123  0.49821575  1
  Fe  Fe68  1  0.12568676  0.62648340  0.37151800  1
  Fe  Fe69  1  0.00065879  0.49985355  0.24880627  1
  Fe  Fe70  1  0.50154218  0.49863564  -0.00027518  1
  Fe  Fe71  1  0.75273880  -0.00487977  0.75230665  1
  Fe  Fe72  1  0.74879121  -0.00071137  0.49831522  1
  Fe  Fe73  1  0.50036165  0.74978085  0.00200215  1
  Fe  Fe74  1  0.62617241  0.12565425  0.62846379  1
  Fe  Fe75  1  0.87772836  0.12201592  0.37559473  1
  Fe  Fe76  1  0.12294792  0.87528755  0.36876152  1
  Fe  Fe77  1  0.49754409  0.74882613  0.24808207  1
  Fe  Fe78  1  0.24882155  0.50083198  0.49991590  1
  Fe  Fe79  1  0.00159819  0.74972822  0.49956445  1
  Fe  Fe80  1  0.49745777  0.75068358  0.75019851  1
  Fe  Fe81  1  0.50189190  0.50117903  0.50035058  1
  Fe  Fe82  1  0.12635281  0.62894215  0.87297557  1
  Fe  Fe83  1  0.24834474  0.00172445  0.49660820  1
  Fe  Fe84  1  0.37225691  0.37162952  0.12241119  1
  Fe  Fe85  1  0.37314685  0.62490243  0.87763694  1
  Fe  Fe86  1  0.24859556  0.75039571  0.00678824  1
  Fe  Fe87  1  0.87658234  0.12225559  0.62326722  1
  Fe  Fe88  1  0.24841961  0.00034126  0.00190138  1
  Fe  Fe89  1  0.74990739  0.49809880  0.24996907  1
  Co  Co90  1  0.37473424  0.37576569  0.87912674  1
  Co  Co91  1  0.75107259  0.50029478  0.75228800  1
  Co  Co92  1  0.75129736  -0.00328695  0.25076409  1
  Co  Co93  1  0.37405983  0.37599662  0.62213696  1
  Co  Co94  1  0.87410108  0.87463238  0.62000174  1
  Co  Co95  1  0.74585910  0.75283127  0.00314012  1
  Co  Co96  1  0.75435480  0.24791556  0.75103353  1
  Co  Co97  1  0.25314631  0.75012234  0.24710401  1
  Co  Co98  1  0.37648099  0.87797941  0.12422042  1
  Co  Co99  1  0.12398211  0.12404531  0.87182105  1
  Co  Co100  1  0.12364604  0.37123720  0.12507666  1
  Co  Co101  1  0.49935751  0.00433711  0.00055559  1
  Co  Co102  1  -0.00182957  0.25095841  0.49993527  1
  Co  Co103  1  0.12051904  0.12511885  0.37483560  1
  Co  Co104  1  0.37793667  0.12474474  0.37431650  1
  Co  Co105  1  0.37563964  0.62163154  0.12437480  1
  Co  Co106  1  0.87584628  0.37757279  0.37418491  1
  Co  Co107  1  0.00486791  -0.00180956  0.50187637  1
  Co  Co108  1  0.24720460  0.25011584  -0.00481896  1
  Co  Co109  1  0.25058729  0.25047007  0.25526413  1
  Co  Co110  1  0.87887765  0.87234113  0.88134742  1
  Co  Co111  1  0.12588495  0.62700382  0.62659637  1
  Co  Co112  1  0.75148327  0.25046113  0.25156390  1
  Co  Co113  1  -0.00172815  0.75237073  0.74913242  1
  Co  Co114  1  0.12326638  0.62603577  0.12865408  1
  Co  Co115  1  -0.00283788  0.74834133  0.25046888  1
  Co  Co116  1  0.00538277  0.74842205  0.00128977  1
  Co  Co117  1  0.63033182  0.12250712  0.12468924  1
  Co  Co118  1  0.25284160  0.75102675  0.75012279  1
  Co  Co119  1  0.49505462  0.24990295  0.74970840  1
  Co  Co120  1  0.62691059  0.37579206  0.12539267  1
  Co  Co121  1  0.37035624  0.12806941  0.12297386  1
  Co  Co122  1  0.62160206  0.87479052  0.87527644  1
  Co  Co123  1  0.12357906  0.87422658  0.12939261  1
  Co  Co124  1  0.75143232  0.75585384  0.75062262  1
  Co  Co125  1  0.37236447  0.12177560  0.62553120  1
  Co  Co126  1  0.62553152  0.62497159  0.37198708  1
  Co  Co127  1  0.00024422  0.00415176  0.24526356  1
