# generated using pymatgen
data_Fe45Co19
_symmetry_space_group_name_H-M   'P 1'
_cell_length_a   11.41529414
_cell_length_b   11.41440302
_cell_length_c   11.41451766
_cell_angle_alpha   90.00734516
_cell_angle_beta   89.99775882
_cell_angle_gamma   90.00296747
_symmetry_Int_Tables_number   1
_chemical_formula_structural   Fe45Co19
_chemical_formula_sum   'Fe90 Co38'
_cell_volume   1487.29757184
_cell_formula_units_Z   2
loop_
 _symmetry_equiv_pos_site_id
 _symmetry_equiv_pos_as_xyz
  1  'x, y, z'
loop_
 _atom_site_type_symbol
 _atom_site_label
 _atom_site_symmetry_multiplicity
 _atom_site_fract_x
 _atom_site_fract_y
 _atom_site_fract_z
 _atom_site_occupancy
  Fe  Fe0  1  0.62229756  0.12353243  0.37618793  1
  Fe  Fe1  1  0.62490317  0.37465414  0.37648193  1
  Fe  Fe2  1  0.12512881  0.37591819  0.62702717  1
  Fe  Fe3  1  0.62515550  0.38170014  0.87429049  1
  Fe  Fe4  1  0.74980723  0.24698833  0.24903450  1
  Fe  Fe5  1  0.37816106  0.37350926  0.62814751  1
  Fe  Fe6  1  0.87335583  0.37593080  0.62579989  1
  Fe  Fe7  1  0.87700028  0.62523924  0.62383085  1
  Fe  Fe8  1  0.12404791  0.12293548  0.87317336  1
  Fe  Fe9  1  0.37583598  0.12287602  0.87186801  1
  Fe  Fe10  1  0.87220313  0.87351825  0.61914088  1
  Fe  Fe11  1  0.25194286  0.50119392  -0.00027642  1
  Fe  Fe12  1  0.87407421  0.87393434  0.12483151  1
  Fe  Fe13  1  0.75177837  -0.00015769  -0.00064277  1
  Fe  Fe14  1  0.12354795  0.37632313  0.12674488  1
  Fe  Fe15  1  0.61938296  0.12511292  0.62310522  1
  Fe  Fe16  1  -0.00209841  0.75122082  0.75030383  1
  Fe  Fe17  1  -0.00385200  -0.00283107  0.25516231  1
  Fe  Fe18  1  0.50335281  0.75291348  0.75223788  1
  Fe  Fe19  1  0.37661430  0.62748450  0.12682502  1
  Fe  Fe20  1  0.25024332  0.00040411  0.50277747  1
  Fe  Fe21  1  0.75280292  0.00105200  0.25220262  1
  Fe  Fe22  1  0.74893682  0.24881317  0.50017642  1
  Fe  Fe23  1  0.12477224  0.87479602  0.62419132  1
  Fe  Fe24  1  0.12626172  0.37688497  0.87343669  1
  Fe  Fe25  1  0.37509463  0.37359071  0.12400349  1
  Fe  Fe26  1  0.25003688  0.00055691  0.24922047  1
  Fe  Fe27  1  0.50040758  0.49899239  0.50165395  1
  Fe  Fe28  1  0.37485783  0.37446682  0.37440999  1
  Fe  Fe29  1  0.37680093  0.62374943  0.87329255  1
  Fe  Fe30  1  0.25074323  0.50103384  0.24972635  1
  Fe  Fe31  1  0.12178078  0.12262589  0.12413551  1
  Fe  Fe32  1  0.37895623  0.12254958  0.62882379  1
  Fe  Fe33  1  0.37443380  0.87440181  0.12439016  1
  Fe  Fe34  1  0.62295488  0.62434228  0.62739740  1
  Fe  Fe35  1  0.50124605  -0.00207405  -0.00365103  1
  Fe  Fe36  1  0.25037985  0.25018086  0.50116461  1
  Fe  Fe37  1  0.24961819  0.24891249  -0.00057955  1
  Fe  Fe38  1  0.24892100  0.24781789  0.24929637  1
  Fe  Fe39  1  0.37705731  0.12364880  0.37526718  1
  Fe  Fe40  1  0.50427321  0.75379786  0.24836315  1
  Fe  Fe41  1  -0.00062067  -0.00158670  0.74828865  1
  Fe  Fe42  1  0.50055183  0.25083227  -0.00392347  1
  Fe  Fe43  1  0.74834728  0.74847409  0.00138110  1
  Fe  Fe44  1  0.37754694  0.12367667  0.12447241  1
  Fe  Fe45  1  0.87321312  0.12433004  0.87383042  1
  Fe  Fe46  1  0.24947415  0.75111302  0.49963945  1
  Fe  Fe47  1  0.63009596  0.87610576  0.37810035  1
  Fe  Fe48  1  0.37543064  0.62718063  0.62491403  1
  Fe  Fe49  1  0.87283650  0.62463587  0.87395795  1
  Fe  Fe50  1  0.25035309  0.75125055  0.75209177  1
  Fe  Fe51  1  -0.00063847  0.75305815  0.25388131  1
  Fe  Fe52  1  0.12383920  0.62767560  0.12482889  1
  Fe  Fe53  1  0.37683576  0.87679808  0.62871423  1
  Fe  Fe54  1  0.74725207  -0.00014265  0.74777531  1
  Fe  Fe55  1  0.25016174  0.24828698  0.75025139  1
  Fe  Fe56  1  -0.00004067  0.24985521  0.74959999  1
  Fe  Fe57  1  0.75053224  0.50090596  0.24914479  1
  Fe  Fe58  1  0.87500107  0.37392715  0.37461104  1
  Fe  Fe59  1  0.12497022  0.62518800  0.62616714  1
  Fe  Fe60  1  0.12575288  0.87289264  0.12400009  1
  Fe  Fe61  1  0.87647946  0.37472633  0.12629516  1
  Fe  Fe62  1  -0.00208845  0.50103849  -0.00090001  1
  Fe  Fe63  1  0.74837641  0.50168658  0.50151447  1
  Fe  Fe64  1  0.37314419  0.87490037  0.37364109  1
  Fe  Fe65  1  0.50309122  0.74961777  -0.00030893  1
  Fe  Fe66  1  0.62465051  0.12254437  0.12391515  1
  Fe  Fe67  1  0.74904018  0.74990328  0.74851217  1
  Fe  Fe68  1  0.50066900  0.24899680  0.25005534  1
  Fe  Fe69  1  0.87330433  0.37657882  0.87283212  1
  Fe  Fe70  1  0.12429330  0.62572892  0.87438571  1
  Fe  Fe71  1  0.49996053  0.49924760  0.24919603  1
  Fe  Fe72  1  0.12263905  0.12525253  0.37952030  1
  Fe  Fe73  1  0.87318668  0.62876878  0.37617726  1
  Fe  Fe74  1  -0.00046306  0.24804367  0.25110320  1
  Fe  Fe75  1  0.74620251  0.24964537  0.74930504  1
  Fe  Fe76  1  0.25061048  -0.00097955  -0.00198609  1
  Fe  Fe77  1  0.87797782  0.12543735  0.62188929  1
  Fe  Fe78  1  0.12464381  0.87346870  0.87609620  1
  Fe  Fe79  1  -0.00080640  0.24924849  -0.00159579  1
  Fe  Fe80  1  0.87489029  0.62647584  0.12643901  1
  Fe  Fe81  1  0.50191623  0.75353636  0.50023683  1
  Fe  Fe82  1  0.00071099  0.49887245  0.49884232  1
  Fe  Fe83  1  -0.00253634  -0.00145771  -0.00184260  1
  Fe  Fe84  1  0.62457667  0.62546291  0.37313150  1
  Fe  Fe85  1  0.12645002  0.62545741  0.37477626  1
  Fe  Fe86  1  0.62440676  0.37776472  0.12369048  1
  Fe  Fe87  1  0.37661673  0.62703138  0.37517009  1
  Fe  Fe88  1  0.25071918  0.49912748  0.50073984  1
  Fe  Fe89  1  0.75055235  0.25082889  0.00036074  1
  Co  Co90  1  0.74954062  0.50137413  0.74642262  1
  Co  Co91  1  0.12338600  0.12515984  0.62359577  1
  Co  Co92  1  -0.00068940  -0.00348022  0.49874291  1
  Co  Co93  1  0.62635868  0.87548901  0.62340038  1
  Co  Co94  1  0.49735624  0.50123341  0.00069715  1
  Co  Co95  1  -0.00134890  0.50312916  0.25147406  1
  Co  Co96  1  0.62622896  0.62270750  0.87436280  1
  Co  Co97  1  0.25199162  0.74900562  -0.00148639  1
  Co  Co98  1  0.74806242  0.75103073  0.24741503  1
  Co  Co99  1  0.00307106  0.75041050  0.49837572  1
  Co  Co100  1  0.62680453  0.87897064  0.12293869  1
  Co  Co101  1  0.87566341  0.12483471  0.12315374  1
  Co  Co102  1  0.37434090  0.37611590  0.87352303  1
  Co  Co103  1  -0.00105857  0.50076029  0.75070066  1
  Co  Co104  1  0.00006144  0.25450996  0.50188719  1
  Co  Co105  1  0.24987326  0.74944111  0.24992162  1
  Co  Co106  1  0.24760447  -0.00153697  0.75038960  1
  Co  Co107  1  -0.00304032  0.75007516  -0.00123213  1
  Co  Co108  1  0.50351009  0.25050280  0.75435553  1
  Co  Co109  1  0.75304260  0.50063996  0.00192557  1
  Co  Co110  1  0.74898359  0.00491747  0.50133161  1
  Co  Co111  1  0.74548273  0.74484197  0.50347937  1
  Co  Co112  1  0.87769297  0.12721244  0.37901215  1
  Co  Co113  1  0.86833089  0.87091664  0.38176208  1
  Co  Co114  1  0.12516982  0.37478287  0.37308111  1
  Co  Co115  1  0.25167362  0.50171998  0.74906915  1
  Co  Co116  1  0.62424543  0.37413808  0.62417889  1
  Co  Co117  1  0.49880801  -0.00365810  0.49910618  1
  Co  Co118  1  0.62501169  0.62198441  0.12536913  1
  Co  Co119  1  0.50515925  -0.00205814  0.75304251  1
  Co  Co120  1  0.37561258  0.87516463  0.87413648  1
  Co  Co121  1  0.49822358  0.25013782  0.49875380  1
  Co  Co122  1  0.12834277  0.87631016  0.37525458  1
  Co  Co123  1  0.62782553  0.12339456  0.87728076  1
  Co  Co124  1  0.87191142  0.87540883  0.87396228  1
  Co  Co125  1  0.49958928  0.49976862  0.74766935  1
  Co  Co126  1  0.50066589  -0.00271534  0.25116167  1
  Co  Co127  1  0.62918363  0.87340777  0.87589337  1
