# generated using pymatgen
data_Fe45Co19
_symmetry_space_group_name_H-M   'P 1'
_cell_length_a   11.41486036
_cell_length_b   11.41467706
_cell_length_c   11.41548457
_cell_angle_alpha   90.00111434
_cell_angle_beta   89.99797688
_cell_angle_gamma   89.99398394
_symmetry_Int_Tables_number   1
_chemical_formula_structural   Fe45Co19
_chemical_formula_sum   'Fe90 Co38'
_cell_volume   1487.40275249
_cell_formula_units_Z   2
loop_
 _symmetry_equiv_pos_site_id
 _symmetry_equiv_pos_as_xyz
  1  'x, y, z'
loop_
 _atom_site_type_symbol
 _atom_site_label
 _atom_site_symmetry_multiplicity
 _atom_site_fract_x
 _atom_site_fract_y
 _atom_site_fract_z
 _atom_site_occupancy
  Fe  Fe0  1  -0.00070003  0.49871651  0.24920136  1
  Fe  Fe1  1  0.87803441  0.62526258  0.87587858  1
  Fe  Fe2  1  0.75096937  0.49956232  0.74988873  1
  Fe  Fe3  1  0.87617948  0.62743645  0.37579007  1
  Fe  Fe4  1  0.87377999  0.12263738  0.87480699  1
  Fe  Fe5  1  0.87643429  0.62675555  0.62571924  1
  Fe  Fe6  1  0.49772524  0.00025495  0.74984424  1
  Fe  Fe7  1  0.49751859  0.25385299  0.24798221  1
  Fe  Fe8  1  0.00326284  0.25121076  -0.00062578  1
  Fe  Fe9  1  0.00276874  0.75439309  0.75263131  1
  Fe  Fe10  1  0.24942412  0.00015662  0.24926302  1
  Fe  Fe11  1  0.25278035  0.00050614  0.49940138  1
  Fe  Fe12  1  0.25101717  0.49685838  0.24880001  1
  Fe  Fe13  1  0.62852875  0.12402268  0.62916238  1
  Fe  Fe14  1  0.74778604  0.24787334  0.00191789  1
  Fe  Fe15  1  0.25085540  0.75246780  0.25287904  1
  Fe  Fe16  1  0.37605540  0.87113761  0.12396950  1
  Fe  Fe17  1  0.25178993  0.75206632  0.49846063  1
  Fe  Fe18  1  0.62353461  0.62639696  0.12636261  1
  Fe  Fe19  1  -0.00110467  0.49860761  0.74903020  1
  Fe  Fe20  1  0.12425197  0.62660935  0.37492319  1
  Fe  Fe21  1  0.49672563  0.74883711  0.75382504  1
  Fe  Fe22  1  0.62628179  0.37584683  0.87489559  1
  Fe  Fe23  1  0.25154991  0.50076448  0.75087478  1
  Fe  Fe24  1  0.24959594  0.24833797  0.75133059  1
  Fe  Fe25  1  0.62827392  0.37563242  0.37185625  1
  Fe  Fe26  1  0.75038566  0.75151324  0.24778742  1
  Fe  Fe27  1  0.87421249  0.37538483  0.12342885  1
  Fe  Fe28  1  0.62736080  0.87820149  0.37141497  1
  Fe  Fe29  1  0.87402750  0.37332515  0.62374278  1
  Fe  Fe30  1  0.12433922  0.62711885  0.62535212  1
  Fe  Fe31  1  0.49924747  -0.00032070  0.00157153  1
  Fe  Fe32  1  0.49802468  0.49733295  0.24810455  1
  Fe  Fe33  1  0.12319027  0.12433983  0.62368346  1
  Fe  Fe34  1  0.87384944  0.37424843  0.37547330  1
  Fe  Fe35  1  0.37485449  0.12627743  0.87705998  1
  Fe  Fe36  1  -0.00322539  0.00035967  0.49691807  1
  Fe  Fe37  1  0.50175043  0.24852140  0.49923643  1
  Fe  Fe38  1  0.12383918  0.37218983  0.37257504  1
  Fe  Fe39  1  0.75235415  0.24490469  0.50026190  1
  Fe  Fe40  1  0.62406952  0.87578210  0.87715777  1
  Fe  Fe41  1  0.62666964  0.37484729  0.62582481  1
  Fe  Fe42  1  0.50048646  0.49898605  0.00144190  1
  Fe  Fe43  1  0.87680027  0.87680977  0.87905948  1
  Fe  Fe44  1  0.87888728  0.62830657  0.12434085  1
  Fe  Fe45  1  0.37475765  0.62326907  0.37456115  1
  Fe  Fe46  1  -0.00241464  0.24756698  0.74897921  1
  Fe  Fe47  1  0.12482888  0.12277155  0.87378212  1
  Fe  Fe48  1  0.50128158  0.49917207  0.49994553  1
  Fe  Fe49  1  0.00041634  0.49962752  0.49930515  1
  Fe  Fe50  1  0.00083146  0.75553055  0.25277681  1
  Fe  Fe51  1  0.62623955  0.62373598  0.37300798  1
  Fe  Fe52  1  0.12501695  0.37319942  0.62551950  1
  Fe  Fe53  1  0.62557122  0.12397650  0.87490741  1
  Fe  Fe54  1  0.49981691  0.25057116  0.75140368  1
  Fe  Fe55  1  0.24516397  0.74669394  -0.00336317  1
  Fe  Fe56  1  0.24322173  0.49998576  0.00120049  1
  Fe  Fe57  1  0.12581512  0.87563619  0.62294014  1
  Fe  Fe58  1  0.62739976  0.12264681  0.37013415  1
  Fe  Fe59  1  0.37652126  0.12391174  0.37486849  1
  Fe  Fe60  1  0.74768416  0.00001483  0.00616531  1
  Fe  Fe61  1  0.75086883  0.50192148  0.49974997  1
  Fe  Fe62  1  0.00239681  -0.00049494  0.00206245  1
  Fe  Fe63  1  0.62354196  0.87470274  0.62620019  1
  Fe  Fe64  1  0.37480194  0.37251806  0.62294982  1
  Fe  Fe65  1  0.24925733  0.24849372  0.49681881  1
  Fe  Fe66  1  0.49846541  -0.00173112  0.24641563  1
  Fe  Fe67  1  0.62407099  0.62520841  0.62692461  1
  Fe  Fe68  1  0.37551990  0.13053021  0.12287067  1
  Fe  Fe69  1  0.75072102  0.75207092  0.75205132  1
  Fe  Fe70  1  0.37451463  0.62636501  0.12351379  1
  Fe  Fe71  1  0.37520101  0.62613988  0.62583957  1
  Fe  Fe72  1  0.74970034  0.50244416  0.00193524  1
  Fe  Fe73  1  0.50018969  0.00061194  0.50179533  1
  Fe  Fe74  1  0.75045742  0.75138533  0.50085075  1
  Fe  Fe75  1  0.25076867  -0.00053808  0.74782850  1
  Fe  Fe76  1  0.87532196  0.37555312  0.87690156  1
  Fe  Fe77  1  0.24841525  0.49904344  0.49898796  1
  Fe  Fe78  1  0.24962699  0.00250367  0.00272335  1
  Fe  Fe79  1  0.12423666  0.87380932  0.12453759  1
  Fe  Fe80  1  0.62394424  0.62351527  0.87387934  1
  Fe  Fe81  1  0.87455305  0.87812214  0.62516516  1
  Fe  Fe82  1  0.12286989  0.12928058  0.12923093  1
  Fe  Fe83  1  0.12114454  0.12581031  0.37148716  1
  Fe  Fe84  1  0.37345796  0.37452968  0.87867843  1
  Fe  Fe85  1  0.37175243  0.87441398  0.87630163  1
  Fe  Fe86  1  0.74896180  0.75014410  0.00071022  1
  Fe  Fe87  1  0.75297458  0.24636397  0.24588226  1
  Fe  Fe88  1  0.00533026  0.50031436  0.00295446  1
  Fe  Fe89  1  0.49916490  0.75121806  0.49587522  1
  Co  Co90  1  0.62159389  0.12514096  0.12623179  1
  Co  Co91  1  -0.00115811  0.75216885  0.49961681  1
  Co  Co92  1  0.49822905  0.49840922  0.74999534  1
  Co  Co93  1  0.87533166  0.12240257  0.37261034  1
  Co  Co94  1  0.24419413  0.24878423  -0.00225948  1
  Co  Co95  1  0.37583856  0.87388551  0.62487441  1
  Co  Co96  1  -0.00176347  0.24883090  0.50110988  1
  Co  Co97  1  0.12640230  0.87701223  0.37720045  1
  Co  Co98  1  0.50057818  0.74924587  -0.00193827  1
  Co  Co99  1  0.50405142  0.25147933  -0.00049033  1
  Co  Co100  1  0.75203973  0.25086956  0.75149559  1
  Co  Co101  1  0.49880482  0.74903407  0.25259767  1
  Co  Co102  1  0.37584813  0.37536635  0.37865758  1
  Co  Co103  1  0.62836910  0.37578172  0.12709616  1
  Co  Co104  1  0.37368407  0.62272902  0.87758812  1
  Co  Co105  1  0.00091952  -0.00101601  0.75076820  1
  Co  Co106  1  0.87749938  0.87283762  0.12168085  1
  Co  Co107  1  0.74900337  0.00126629  0.50073804  1
  Co  Co108  1  0.37113495  0.37236723  0.11926153  1
  Co  Co109  1  0.12263159  0.62239058  0.87077750  1
  Co  Co110  1  0.87015784  0.87696538  0.37429298  1
  Co  Co111  1  0.12435258  0.62785631  0.12992688  1
  Co  Co112  1  0.24822946  0.75106596  0.75184309  1
  Co  Co113  1  0.12654605  0.36999844  0.12927389  1
  Co  Co114  1  0.87334202  0.12133437  0.62753753  1
  Co  Co115  1  0.00503475  0.74932616  -0.00279041  1
  Co  Co116  1  0.75378545  0.00103411  0.24273772  1
  Co  Co117  1  -0.00082355  -0.00421093  0.24960285  1
  Co  Co118  1  0.12367277  0.37571081  0.87178617  1
  Co  Co119  1  0.25423493  0.25007249  0.25276883  1
  Co  Co120  1  0.37616223  0.87890009  0.37450572  1
  Co  Co121  1  0.75361968  0.50314208  0.24895835  1
  Co  Co122  1  0.12763702  0.87921489  0.87700097  1
  Co  Co123  1  0.74975997  -0.00300092  0.75193698  1
  Co  Co124  1  0.37511958  0.12698720  0.62415463  1
  Co  Co125  1  0.62255747  0.87319538  0.12621833  1
  Co  Co126  1  -0.00519844  0.25176414  0.25002424  1
  Co  Co127  1  0.87975280  0.12476511  0.12284897  1
