# generated using pymatgen
data_Fe45Co19
_symmetry_space_group_name_H-M   'P 1'
_cell_length_a   11.41407964
_cell_length_b   11.41699696
_cell_length_c   11.41419634
_cell_angle_alpha   90.00688936
_cell_angle_beta   89.99465483
_cell_angle_gamma   90.00362567
_symmetry_Int_Tables_number   1
_chemical_formula_structural   Fe45Co19
_chemical_formula_sum   'Fe90 Co38'
_cell_volume   1487.43541158
_cell_formula_units_Z   2
loop_
 _symmetry_equiv_pos_site_id
 _symmetry_equiv_pos_as_xyz
  1  'x, y, z'
loop_
 _atom_site_type_symbol
 _atom_site_label
 _atom_site_symmetry_multiplicity
 _atom_site_fract_x
 _atom_site_fract_y
 _atom_site_fract_z
 _atom_site_occupancy
  Fe  Fe0  1  0.00110432  0.50444426  0.74633119  1
  Fe  Fe1  1  -0.00351706  0.00039898  0.25021921  1
  Fe  Fe2  1  0.62723500  0.12420010  0.87471015  1
  Fe  Fe3  1  0.62845212  0.12471705  0.37234435  1
  Fe  Fe4  1  0.37498225  0.37799037  0.87461321  1
  Fe  Fe5  1  0.87599015  0.37571591  0.62324890  1
  Fe  Fe6  1  0.37403546  0.12440529  0.12612067  1
  Fe  Fe7  1  0.24973566  0.75091874  0.49784919  1
  Fe  Fe8  1  0.87802008  0.62998125  0.61897228  1
  Fe  Fe9  1  0.49978004  0.74848827  0.25151646  1
  Fe  Fe10  1  0.75086528  0.25122343  0.49766429  1
  Fe  Fe11  1  0.12514354  0.12513933  0.12621035  1
  Fe  Fe12  1  0.74937176  0.25369039  -0.00132312  1
  Fe  Fe13  1  0.50424387  0.50110905  0.00363519  1
  Fe  Fe14  1  0.74910457  0.50120217  0.74343572  1
  Fe  Fe15  1  0.00171862  0.50063427  0.24850294  1
  Fe  Fe16  1  0.50179576  0.50155756  0.74598558  1
  Fe  Fe17  1  0.12634435  0.12169746  0.87333401  1
  Fe  Fe18  1  0.87062298  0.62400519  0.12078211  1
  Fe  Fe19  1  0.12641105  0.62320262  0.87408993  1
  Fe  Fe20  1  0.87440987  0.37930087  0.37602933  1
  Fe  Fe21  1  0.37357987  0.62608355  0.62508337  1
  Fe  Fe22  1  0.62784822  0.12740012  0.12777587  1
  Fe  Fe23  1  0.49964938  0.24903648  0.75150645  1
  Fe  Fe24  1  0.37548959  0.37714253  0.12721948  1
  Fe  Fe25  1  0.49884520  0.25098141  0.25272812  1
  Fe  Fe26  1  0.87428682  0.62267242  0.37859935  1
  Fe  Fe27  1  0.12416614  0.37725215  0.87392452  1
  Fe  Fe28  1  0.50168240  -0.00067655  0.00180303  1
  Fe  Fe29  1  0.25138292  0.50031495  0.49893296  1
  Fe  Fe30  1  0.24953431  0.25055258  0.00007306  1
  Fe  Fe31  1  0.12253349  0.87753515  0.87364625  1
  Fe  Fe32  1  0.12596381  0.87546014  0.37186255  1
  Fe  Fe33  1  -0.00087135  0.24777925  0.75078228  1
  Fe  Fe34  1  0.87324510  0.87147118  0.12496897  1
  Fe  Fe35  1  0.50207134  0.75028298  0.00003506  1
  Fe  Fe36  1  0.12564191  0.37584307  0.62458602  1
  Fe  Fe37  1  0.12511500  0.37579938  0.37408778  1
  Fe  Fe38  1  -0.00016802  0.25115171  0.49793805  1
  Fe  Fe39  1  0.62336925  0.37852888  0.37733327  1
  Fe  Fe40  1  0.25197967  0.24767823  0.49976965  1
  Fe  Fe41  1  0.24859570  0.74998628  0.75018599  1
  Fe  Fe42  1  -0.00192380  0.74690066  -0.00357102  1
  Fe  Fe43  1  0.62818298  0.62479758  0.87460596  1
  Fe  Fe44  1  0.49899584  0.74917911  0.75160552  1
  Fe  Fe45  1  0.37605088  0.87340716  0.12554374  1
  Fe  Fe46  1  0.87315459  0.87361804  0.37591157  1
  Fe  Fe47  1  0.12592436  0.62726146  0.12708133  1
  Fe  Fe48  1  -0.00193865  0.74882550  0.25197884  1
  Fe  Fe49  1  0.37214475  0.12110132  0.87404853  1
  Fe  Fe50  1  0.12627034  0.62501366  0.37477916  1
  Fe  Fe51  1  0.12521811  0.12414897  0.37498036  1
  Fe  Fe52  1  -0.00104093  0.00180840  0.00098049  1
  Fe  Fe53  1  0.50010172  0.74857986  0.49848163  1
  Fe  Fe54  1  0.11950226  0.87282344  0.62857814  1
  Fe  Fe55  1  0.87644651  0.12505044  0.62203429  1
  Fe  Fe56  1  0.37372635  0.62330935  0.87584477  1
  Fe  Fe57  1  0.24855375  0.75271632  0.00146291  1
  Fe  Fe58  1  0.50015267  -0.00051472  0.25031210  1
  Fe  Fe59  1  0.62464535  0.62250486  0.37725923  1
  Fe  Fe60  1  0.25006132  -0.00370729  0.24767241  1
  Fe  Fe61  1  0.75027988  -0.00173056  0.49980096  1
  Fe  Fe62  1  0.37330001  0.62436937  0.12815084  1
  Fe  Fe63  1  0.62684766  0.87218151  0.62601990  1
  Fe  Fe64  1  0.75608992  0.75057362  0.75186527  1
  Fe  Fe65  1  0.62580408  0.12657607  0.62601850  1
  Fe  Fe66  1  0.74636279  0.49949236  0.24674246  1
  Fe  Fe67  1  0.25003863  0.24849933  0.74833494  1
  Fe  Fe68  1  0.62621734  0.87454496  0.87418089  1
  Fe  Fe69  1  0.49962169  -0.00030186  0.74977469  1
  Fe  Fe70  1  0.37684690  0.87449041  0.62428250  1
  Fe  Fe71  1  0.37275898  0.87685288  0.87503640  1
  Fe  Fe72  1  0.75541512  -0.00078096  0.74917197  1
  Fe  Fe73  1  -0.00025194  -0.00133987  0.49948896  1
  Fe  Fe74  1  0.00089783  0.25032333  -0.00109212  1
  Fe  Fe75  1  0.25081194  0.00096780  0.50324415  1
  Fe  Fe76  1  -0.00242938  0.24962095  0.25207345  1
  Fe  Fe77  1  0.62662742  0.87444310  0.37232670  1
  Fe  Fe78  1  0.25091269  0.25188460  0.25140374  1
  Fe  Fe79  1  0.49909383  0.24890051  -0.00105293  1
  Fe  Fe80  1  0.87658923  0.38073882  0.87613036  1
  Fe  Fe81  1  0.24701590  0.49835089  0.00286492  1
  Fe  Fe82  1  0.87641685  0.37619113  0.12375005  1
  Fe  Fe83  1  0.75223123  0.25064104  0.75081622  1
  Fe  Fe84  1  0.37633249  0.37448760  0.62466794  1
  Fe  Fe85  1  0.87178599  0.12768810  0.12629944  1
  Fe  Fe86  1  0.50019413  0.00106334  0.49889339  1
  Fe  Fe87  1  0.74902976  -0.00264973  0.00176358  1
  Fe  Fe88  1  0.49824972  0.24827115  0.49776516  1
  Fe  Fe89  1  0.62478867  0.37679878  0.87286818  1
  Co  Co90  1  0.00467123  0.50125411  0.00203609  1
  Co  Co91  1  0.12354131  0.37246129  0.12668742  1
  Co  Co92  1  0.62351325  0.37007834  0.62355295  1
  Co  Co93  1  0.24981032  -0.00093576  0.74482441  1
  Co  Co94  1  0.74389967  0.49638702  0.00357758  1
  Co  Co95  1  0.37726320  0.37882694  0.37481093  1
  Co  Co96  1  0.00305595  0.75177854  0.49535871  1
  Co  Co97  1  0.12099773  0.12532593  0.62404388  1
  Co  Co98  1  0.24976803  0.75282922  0.24988161  1
  Co  Co99  1  0.50337699  0.50143035  0.24730801  1
  Co  Co100  1  0.74961742  0.75296294  -0.00344813  1
  Co  Co101  1  0.24919129  -0.00227062  0.00336263  1
  Co  Co102  1  0.11929576  0.87303830  0.12474881  1
  Co  Co103  1  0.75299799  -0.00111440  0.25042697  1
  Co  Co104  1  0.87334806  0.12531428  0.87771573  1
  Co  Co105  1  0.62683057  0.87209652  0.12869136  1
  Co  Co106  1  0.24718761  0.49893884  0.25024198  1
  Co  Co107  1  0.62749239  0.63055073  0.12389851  1
  Co  Co108  1  0.62279153  0.36974961  0.12692464  1
  Co  Co109  1  0.37269411  0.12238857  0.37360222  1
  Co  Co110  1  0.87788935  0.87166182  0.62253003  1
  Co  Co111  1  0.24968105  0.50074512  0.74836227  1
  Co  Co112  1  0.62598303  0.63148664  0.62596751  1
  Co  Co113  1  -0.00446108  0.00253459  0.74973994  1
  Co  Co114  1  0.74860102  0.75088191  0.49758787  1
  Co  Co115  1  0.37836058  0.12511621  0.62545245  1
  Co  Co116  1  0.87836228  0.87673242  0.87637638  1
  Co  Co117  1  0.75156729  0.74682373  0.25343554  1
  Co  Co118  1  0.37473373  0.87535744  0.37577063  1
  Co  Co119  1  0.87103238  0.61776162  0.87870146  1
  Co  Co120  1  0.75223696  0.25370888  0.25357026  1
  Co  Co121  1  0.87528304  0.12428460  0.37714866  1
  Co  Co122  1  0.12522456  0.62685357  0.62175083  1
  Co  Co123  1  0.50004846  0.50272202  0.50523187  1
  Co  Co124  1  0.37456532  0.62346654  0.37279007  1
  Co  Co125  1  0.74788545  0.50053776  0.50493400  1
  Co  Co126  1  0.00219649  0.49905432  0.50007915  1
  Co  Co127  1  -0.00243256  0.74490885  0.75403028  1
