# generated using pymatgen
data_Fe45Co19
_symmetry_space_group_name_H-M   'P 1'
_cell_length_a   11.41521429
_cell_length_b   11.41461322
_cell_length_c   11.41606173
_cell_angle_alpha   90.00054328
_cell_angle_beta   89.99516503
_cell_angle_gamma   90.00639977
_symmetry_Int_Tables_number   1
_chemical_formula_structural   Fe45Co19
_chemical_formula_sum   'Fe90 Co38'
_cell_volume   1487.51574999
_cell_formula_units_Z   2
loop_
 _symmetry_equiv_pos_site_id
 _symmetry_equiv_pos_as_xyz
  1  'x, y, z'
loop_
 _atom_site_type_symbol
 _atom_site_label
 _atom_site_symmetry_multiplicity
 _atom_site_fract_x
 _atom_site_fract_y
 _atom_site_fract_z
 _atom_site_occupancy
  Fe  Fe0  1  0.00026134  0.00244054  0.00034215  1
  Fe  Fe1  1  0.24894031  0.00154402  0.25387596  1
  Fe  Fe2  1  0.25142764  -0.00249471  0.74747024  1
  Fe  Fe3  1  0.50373008  0.24983082  0.74541231  1
  Fe  Fe4  1  0.75058149  0.49653577  0.24822589  1
  Fe  Fe5  1  0.74535018  0.24869130  0.50279363  1
  Fe  Fe6  1  0.50049583  0.49818653  0.25050302  1
  Fe  Fe7  1  0.75082869  0.49376257  0.75141685  1
  Fe  Fe8  1  -0.00193398  0.00144398  0.50155213  1
  Fe  Fe9  1  0.24834838  0.24857031  0.49759483  1
  Fe  Fe10  1  0.12624523  0.87569366  0.12519513  1
  Fe  Fe11  1  0.12639215  0.12463842  0.62519311  1
  Fe  Fe12  1  0.87320990  0.62509976  0.12568789  1
  Fe  Fe13  1  0.87392516  0.62265370  0.87375617  1
  Fe  Fe14  1  0.12653438  0.87671305  0.87615478  1
  Fe  Fe15  1  0.62615608  0.12433493  0.87170615  1
  Fe  Fe16  1  0.12405716  0.62386993  0.87287179  1
  Fe  Fe17  1  -0.00136736  0.49645239  0.74493024  1
  Fe  Fe18  1  0.37449804  0.62625833  0.37455952  1
  Fe  Fe19  1  0.37702396  0.37282567  0.37789896  1
  Fe  Fe20  1  0.62622803  0.87651045  0.12534494  1
  Fe  Fe21  1  0.87474571  0.12563372  0.12679707  1
  Fe  Fe22  1  0.50006381  0.50111721  0.74997452  1
  Fe  Fe23  1  0.24680833  0.25317261  0.25351076  1
  Fe  Fe24  1  0.00202225  0.25396378  0.24966919  1
  Fe  Fe25  1  0.50103498  0.24870392  0.00049211  1
  Fe  Fe26  1  0.62221562  0.12452015  0.37425362  1
  Fe  Fe27  1  0.37560676  0.37413567  0.62328630  1
  Fe  Fe28  1  0.87573365  0.87832693  0.87373684  1
  Fe  Fe29  1  0.49761883  0.00030412  0.49789122  1
  Fe  Fe30  1  0.24925972  0.24986684  -0.00064859  1
  Fe  Fe31  1  0.87343379  0.12495632  0.87133409  1
  Fe  Fe32  1  0.87709806  0.12441341  0.37323514  1
  Fe  Fe33  1  0.37278332  0.87539938  0.12449349  1
  Fe  Fe34  1  -0.00097595  0.25120558  0.74899365  1
  Fe  Fe35  1  0.37515013  0.12463663  0.62210712  1
  Fe  Fe36  1  0.12241082  0.61955387  0.37279239  1
  Fe  Fe37  1  0.25203195  0.75214361  0.74875199  1
  Fe  Fe38  1  0.25034589  0.25082552  0.74949769  1
  Fe  Fe39  1  0.12313564  0.87525840  0.62307150  1
  Fe  Fe40  1  0.62550111  0.12531124  0.12707899  1
  Fe  Fe41  1  0.37747622  0.37349040  0.87485990  1
  Fe  Fe42  1  0.62475828  0.62667698  0.62716522  1
  Fe  Fe43  1  0.75303204  0.74987008  0.49883211  1
  Fe  Fe44  1  0.37762212  0.62951890  0.62397053  1
  Fe  Fe45  1  0.75048423  0.00140948  0.00043226  1
  Fe  Fe46  1  0.87203007  0.12451309  0.62865050  1
  Fe  Fe47  1  0.74887140  0.25137000  0.25196854  1
  Fe  Fe48  1  0.12488825  0.12599318  0.12649057  1
  Fe  Fe49  1  0.25140541  0.49916787  0.74992137  1
  Fe  Fe50  1  0.49976402  0.75079009  0.25088045  1
  Fe  Fe51  1  0.24841513  0.74764023  0.00034701  1
  Fe  Fe52  1  0.75070441  0.74974476  -0.00217831  1
  Fe  Fe53  1  0.62715950  0.62384944  0.37297709  1
  Fe  Fe54  1  0.12174037  0.87630154  0.37615541  1
  Fe  Fe55  1  0.87462083  0.87705065  0.12753073  1
  Fe  Fe56  1  0.00189150  0.25052053  0.50202739  1
  Fe  Fe57  1  0.00025740  0.50065436  0.00171060  1
  Fe  Fe58  1  0.49897720  0.00072028  0.00028027  1
  Fe  Fe59  1  0.37408335  0.87461797  0.37591325  1
  Fe  Fe60  1  -0.00099799  0.75144730  0.75019601  1
  Fe  Fe61  1  0.75146004  0.75148464  0.25203192  1
  Fe  Fe62  1  0.50195157  0.74967930  -0.00216786  1
  Fe  Fe63  1  0.50221386  0.50080108  -0.00045601  1
  Fe  Fe64  1  0.12357623  0.37474890  0.87607633  1
  Fe  Fe65  1  0.87667914  0.37720404  0.37935084  1
  Fe  Fe66  1  0.37353057  0.37579489  0.12319754  1
  Fe  Fe67  1  0.74828410  0.75387356  0.75130796  1
  Fe  Fe68  1  0.37416988  0.12514325  0.12846127  1
  Fe  Fe69  1  0.49835477  -0.00379266  0.75109726  1
  Fe  Fe70  1  0.62588776  0.87653854  0.37382097  1
  Fe  Fe71  1  0.37545699  0.62746763  0.87468916  1
  Fe  Fe72  1  0.12509951  0.62517200  0.62603918  1
  Fe  Fe73  1  0.62264873  0.87448458  0.62392753  1
  Fe  Fe74  1  0.87440397  0.37263838  0.12095487  1
  Fe  Fe75  1  0.50181877  0.25230200  0.25138140  1
  Fe  Fe76  1  0.37446246  0.12448243  0.87442314  1
  Fe  Fe77  1  0.75226515  -0.00065830  0.49969329  1
  Fe  Fe78  1  0.24917112  0.49988625  0.50055876  1
  Fe  Fe79  1  -0.00039490  0.74915837  0.25042459  1
  Fe  Fe80  1  0.12843850  0.62052747  0.12837635  1
  Fe  Fe81  1  -0.00510245  0.74541562  0.49985697  1
  Fe  Fe82  1  0.00008503  0.74900389  0.00048952  1
  Fe  Fe83  1  0.50131413  0.50119709  0.49944489  1
  Fe  Fe84  1  0.12565969  0.12426353  0.87413654  1
  Fe  Fe85  1  0.37250255  0.62387705  0.12654353  1
  Fe  Fe86  1  0.75214753  0.50239925  0.50184562  1
  Fe  Fe87  1  0.74911142  0.25180180  -0.00357244  1
  Fe  Fe88  1  0.62674806  0.62460278  0.12497371  1
  Fe  Fe89  1  0.24897000  0.74995969  0.49892713  1
  Co  Co90  1  0.49954262  -0.00107442  0.25007002  1
  Co  Co91  1  0.25002668  0.00104098  0.49857311  1
  Co  Co92  1  0.00197878  0.00116152  0.74928493  1
  Co  Co93  1  0.62447191  0.12025449  0.62528983  1
  Co  Co94  1  0.87692803  0.87647205  0.37331116  1
  Co  Co95  1  0.87673205  0.87473749  0.62582871  1
  Co  Co96  1  0.25282594  0.49576942  0.25359250  1
  Co  Co97  1  0.00101087  0.24699939  0.00016018  1
  Co  Co98  1  0.62159126  0.37436760  0.87545807  1
  Co  Co99  1  -0.00274213  0.49631381  0.24616502  1
  Co  Co100  1  0.12154119  0.12479614  0.37503588  1
  Co  Co101  1  0.37212031  0.87443218  0.87845962  1
  Co  Co102  1  0.62476193  0.37341950  0.12383753  1
  Co  Co103  1  0.37719756  0.87208590  0.62141212  1
  Co  Co104  1  0.87339066  0.37196599  0.62138897  1
  Co  Co105  1  0.62575672  0.87709581  0.87771812  1
  Co  Co106  1  0.62426965  0.37830480  0.62353416  1
  Co  Co107  1  0.87827455  0.37460653  0.87715062  1
  Co  Co108  1  0.12035575  0.37932523  0.37838904  1
  Co  Co109  1  0.00041036  0.00049407  0.24820835  1
  Co  Co110  1  0.50276118  0.74879381  0.49588867  1
  Co  Co111  1  0.62809609  0.62341098  0.87398018  1
  Co  Co112  1  -0.00224614  0.50354516  0.50646692  1
  Co  Co113  1  0.12713384  0.37408562  0.62398076  1
  Co  Co114  1  0.50357578  0.24973123  0.50251863  1
  Co  Co115  1  0.50083443  0.75186044  0.75358141  1
  Co  Co116  1  0.24914311  0.75027086  0.25193244  1
  Co  Co117  1  0.25071143  0.50055602  -0.00462001  1
  Co  Co118  1  0.74767289  0.25341934  0.74906576  1
  Co  Co119  1  0.74843176  -0.00257230  0.74798441  1
  Co  Co120  1  0.12812865  0.37701126  0.12249778  1
  Co  Co121  1  0.62638416  0.37631592  0.37702439  1
  Co  Co122  1  0.24975905  0.00344374  0.00115804  1
  Co  Co123  1  0.74981860  0.00217610  0.25127495  1
  Co  Co124  1  0.74942466  0.49756211  0.00035686  1
  Co  Co125  1  0.87549403  0.62165647  0.37197944  1
  Co  Co126  1  0.37726511  0.12743688  0.37501228  1
  Co  Co127  1  0.87211166  0.62691337  0.63027952  1
