# generated using pymatgen
data_Fe45Co19
_symmetry_space_group_name_H-M   'P 1'
_cell_length_a   11.41458592
_cell_length_b   11.41498840
_cell_length_c   11.41456117
_cell_angle_alpha   89.98928411
_cell_angle_beta   90.00096532
_cell_angle_gamma   90.00169118
_symmetry_Int_Tables_number   1
_chemical_formula_structural   Fe45Co19
_chemical_formula_sum   'Fe90 Co38'
_cell_volume   1487.28722668
_cell_formula_units_Z   2
loop_
 _symmetry_equiv_pos_site_id
 _symmetry_equiv_pos_as_xyz
  1  'x, y, z'
loop_
 _atom_site_type_symbol
 _atom_site_label
 _atom_site_symmetry_multiplicity
 _atom_site_fract_x
 _atom_site_fract_y
 _atom_site_fract_z
 _atom_site_occupancy
  Fe  Fe0  1  0.75106841  0.75106019  0.75081345  1
  Fe  Fe1  1  0.12920661  0.87778992  0.62590957  1
  Fe  Fe2  1  0.49958753  -0.00012537  -0.00072717  1
  Fe  Fe3  1  0.12405792  0.62747524  0.37484871  1
  Fe  Fe4  1  0.49870816  -0.00002699  0.50004382  1
  Fe  Fe5  1  0.87451422  0.62702918  0.37478784  1
  Fe  Fe6  1  0.37415953  0.12374131  0.12352924  1
  Fe  Fe7  1  0.62551010  0.37616098  0.62534369  1
  Fe  Fe8  1  0.49588502  0.75215995  0.00510973  1
  Fe  Fe9  1  0.24809826  0.25051119  0.24660683  1
  Fe  Fe10  1  0.62570872  0.12325653  0.12514516  1
  Fe  Fe11  1  0.62404064  0.62847089  0.87652334  1
  Fe  Fe12  1  0.62165937  0.62489739  0.12440905  1
  Fe  Fe13  1  0.37162971  0.87565345  0.87580913  1
  Fe  Fe14  1  0.74819126  0.75053939  0.24737334  1
  Fe  Fe15  1  -0.00017885  0.50053557  0.50035085  1
  Fe  Fe16  1  -0.00015167  0.24946052  0.50006559  1
  Fe  Fe17  1  0.24886420  0.50148796  0.49998781  1
  Fe  Fe18  1  0.87018824  0.87892355  0.12199319  1
  Fe  Fe19  1  0.75155220  0.24843388  0.50110445  1
  Fe  Fe20  1  0.50192811  -0.00221161  0.24738626  1
  Fe  Fe21  1  0.24883688  0.24581933  0.50136729  1
  Fe  Fe22  1  0.12723103  0.87372454  0.37505607  1
  Fe  Fe23  1  0.87369963  0.62655848  0.62522630  1
  Fe  Fe24  1  0.00024102  0.75313594  0.74760426  1
  Fe  Fe25  1  -0.00019750  0.75098694  0.50289797  1
  Fe  Fe26  1  0.50045824  0.25290358  0.24777834  1
  Fe  Fe27  1  0.62575474  0.87581131  0.62548234  1
  Fe  Fe28  1  0.87852750  0.12066883  0.12664102  1
  Fe  Fe29  1  0.00062671  0.25013973  0.75086001  1
  Fe  Fe30  1  0.24942285  0.49997956  0.24871888  1
  Fe  Fe31  1  0.50050322  0.74974991  0.50081751  1
  Fe  Fe32  1  0.37473001  0.62451165  0.62660354  1
  Fe  Fe33  1  0.37273665  0.62635761  0.87794480  1
  Fe  Fe34  1  0.37280015  0.37559377  0.62586786  1
  Fe  Fe35  1  0.49968686  0.25132385  0.74984639  1
  Fe  Fe36  1  0.24626016  0.24895654  0.00031358  1
  Fe  Fe37  1  0.37252438  0.87780485  0.62596614  1
  Fe  Fe38  1  0.62664417  0.62443388  0.62405278  1
  Fe  Fe39  1  0.62671693  0.87365041  0.87948560  1
  Fe  Fe40  1  0.00046978  0.50054646  -0.00281809  1
  Fe  Fe41  1  0.12119187  0.12541401  0.37167296  1
  Fe  Fe42  1  0.62358167  0.62342501  0.37604001  1
  Fe  Fe43  1  0.12316975  0.12384036  0.87328509  1
  Fe  Fe44  1  0.12692165  0.37403644  0.62637347  1
  Fe  Fe45  1  0.24815215  0.00138011  0.24939653  1
  Fe  Fe46  1  0.62274048  0.12676964  0.87308813  1
  Fe  Fe47  1  0.37408396  0.87490946  0.37384496  1
  Fe  Fe48  1  0.62443346  0.37453508  0.37757422  1
  Fe  Fe49  1  0.12495389  0.62893670  0.87499933  1
  Fe  Fe50  1  0.87372384  0.87466907  0.37528673  1
  Fe  Fe51  1  0.62749255  0.37556938  0.12135181  1
  Fe  Fe52  1  0.75110979  0.00059405  0.49916172  1
  Fe  Fe53  1  0.37814650  0.62492438  0.37221594  1
  Fe  Fe54  1  0.00104073  -0.00121860  0.50024019  1
  Fe  Fe55  1  0.75200181  0.50348952  -0.00390783  1
  Fe  Fe56  1  0.00042035  0.49943371  0.25043564  1
  Fe  Fe57  1  0.25285155  0.74867108  0.24478772  1
  Fe  Fe58  1  0.49866952  0.24923714  0.50189765  1
  Fe  Fe59  1  0.24766571  0.50108619  0.75271895  1
  Fe  Fe60  1  0.37304391  0.37370143  0.87603195  1
  Fe  Fe61  1  0.37599037  0.12479058  0.37261193  1
  Fe  Fe62  1  0.50046821  0.25129329  -0.00005309  1
  Fe  Fe63  1  0.12709659  0.87390658  0.87673121  1
  Fe  Fe64  1  0.75126049  0.00056391  0.75374355  1
  Fe  Fe65  1  0.87425372  0.87503733  0.87731224  1
  Fe  Fe66  1  0.87618749  0.37625175  0.12261178  1
  Fe  Fe67  1  0.62489896  0.87517216  0.37426681  1
  Fe  Fe68  1  0.75313122  0.24579231  -0.00292890  1
  Fe  Fe69  1  0.12477045  0.37315974  0.37374288  1
  Fe  Fe70  1  0.75270752  0.24756345  0.25020799  1
  Fe  Fe71  1  0.37432965  0.37893168  0.12179303  1
  Fe  Fe72  1  0.87409570  0.37433403  0.62767144  1
  Fe  Fe73  1  0.49883585  0.75199354  0.74992372  1
  Fe  Fe74  1  0.75057515  0.49876056  0.75398146  1
  Fe  Fe75  1  0.87513327  0.37393657  0.37453130  1
  Fe  Fe76  1  0.00141562  0.24947848  0.00135604  1
  Fe  Fe77  1  0.37384019  0.12196162  0.62845168  1
  Fe  Fe78  1  -0.00068751  0.75268970  0.24648709  1
  Fe  Fe79  1  0.50096934  0.49959642  0.75370444  1
  Fe  Fe80  1  0.25064648  0.74821313  0.50208518  1
  Fe  Fe81  1  0.37541162  0.37488690  0.37595842  1
  Fe  Fe82  1  0.12720870  0.87883962  0.12197083  1
  Fe  Fe83  1  -0.00297772  0.74964326  0.00213590  1
  Fe  Fe84  1  0.12494812  0.62384397  0.12369028  1
  Fe  Fe85  1  0.87711361  0.12267391  0.62748898  1
  Fe  Fe86  1  0.74956240  0.49960871  0.24991649  1
  Fe  Fe87  1  0.62434656  0.12569681  0.37431198  1
  Fe  Fe88  1  0.62434392  0.12315747  0.62788642  1
  Fe  Fe89  1  0.00037582  0.49997724  0.75118148  1
  Co  Co90  1  0.50152427  0.49610714  0.24974153  1
  Co  Co91  1  0.75334986  0.74521652  0.00170687  1
  Co  Co92  1  0.74981804  0.00100816  0.25122985  1
  Co  Co93  1  0.87815473  0.12322987  0.37500204  1
  Co  Co94  1  0.50207558  0.49903827  -0.00386988  1
  Co  Co95  1  0.12303187  0.37656893  0.12562839  1
  Co  Co96  1  0.87545981  0.37308450  0.87612858  1
  Co  Co97  1  0.12393141  0.37348085  0.87325956  1
  Co  Co98  1  0.24952170  0.00344958  -0.00269723  1
  Co  Co99  1  0.24877497  0.00377385  0.49842119  1
  Co  Co100  1  0.12274451  0.12379888  0.62758905  1
  Co  Co101  1  0.75024931  0.24861437  0.75060047  1
  Co  Co102  1  0.24973379  0.75018102  0.74918547  1
  Co  Co103  1  0.24602075  0.49968998  -0.00219038  1
  Co  Co104  1  0.12262099  0.12262536  0.12700450  1
  Co  Co105  1  0.75017693  0.00547310  -0.00405051  1
  Co  Co106  1  0.87777235  0.62751090  0.87172461  1
  Co  Co107  1  0.87266255  0.87581346  0.62492632  1
  Co  Co108  1  0.25234437  0.74947068  0.00425228  1
  Co  Co109  1  0.74897941  0.75038186  0.49923916  1
  Co  Co110  1  0.37293604  0.88018806  0.12592447  1
  Co  Co111  1  0.00046236  -0.00407401  0.75118541  1
  Co  Co112  1  0.62925531  0.87634403  0.12055200  1
  Co  Co113  1  0.49999064  -0.00261216  0.75323756  1
  Co  Co114  1  0.87934247  0.12573094  0.87238076  1
  Co  Co115  1  0.37751996  0.12721979  0.87578774  1
  Co  Co116  1  0.24994953  0.24718305  0.75130156  1
  Co  Co117  1  -0.00182214  0.25107045  0.24822939  1
  Co  Co118  1  0.87617748  0.62276431  0.12698288  1
  Co  Co119  1  0.24955820  0.00213539  0.75407560  1
  Co  Co120  1  0.62749897  0.37168686  0.87643696  1
  Co  Co121  1  0.75191844  0.49868191  0.50011173  1
  Co  Co122  1  -0.00009598  -0.00463529  0.25015271  1
  Co  Co123  1  0.00032821  -0.00042748  -0.00197098  1
  Co  Co124  1  0.37686796  0.61947161  0.12401952  1
  Co  Co125  1  0.12415795  0.62491882  0.62591012  1
  Co  Co126  1  0.50040935  0.75263276  0.24667406  1
  Co  Co127  1  0.49905002  0.50016447  0.50078247  1
