# generated using pymatgen
data_Fe45Co19
_symmetry_space_group_name_H-M   'P 1'
_cell_length_a   11.41460692
_cell_length_b   11.41452757
_cell_length_c   11.41453953
_cell_angle_alpha   89.99286953
_cell_angle_beta   89.99838324
_cell_angle_gamma   89.99104530
_symmetry_Int_Tables_number   1
_chemical_formula_structural   Fe45Co19
_chemical_formula_sum   'Fe90 Co38'
_cell_volume   1487.22709578
_cell_formula_units_Z   2
loop_
 _symmetry_equiv_pos_site_id
 _symmetry_equiv_pos_as_xyz
  1  'x, y, z'
loop_
 _atom_site_type_symbol
 _atom_site_label
 _atom_site_symmetry_multiplicity
 _atom_site_fract_x
 _atom_site_fract_y
 _atom_site_fract_z
 _atom_site_occupancy
  Fe  Fe0  1  0.37685869  0.62542431  0.62749167  1
  Fe  Fe1  1  0.62519309  0.62365265  0.12615562  1
  Fe  Fe2  1  0.87586496  0.62624677  0.37938925  1
  Fe  Fe3  1  0.50093513  0.25029354  -0.00223303  1
  Fe  Fe4  1  0.74855901  0.00024646  0.50271182  1
  Fe  Fe5  1  0.87418433  0.87903332  0.86888009  1
  Fe  Fe6  1  0.12604093  0.87537691  0.87439618  1
  Fe  Fe7  1  0.24679204  0.50160603  0.75138807  1
  Fe  Fe8  1  0.37154758  0.62641810  0.37614284  1
  Fe  Fe9  1  0.75066585  0.24887620  0.00122932  1
  Fe  Fe10  1  0.37078822  0.87370110  0.37743468  1
  Fe  Fe11  1  0.62754516  0.37588503  0.87478226  1
  Fe  Fe12  1  0.37442783  0.12436751  0.87360057  1
  Fe  Fe13  1  0.12496263  0.12552384  0.62503666  1
  Fe  Fe14  1  0.49664875  0.25448277  0.25409838  1
  Fe  Fe15  1  0.49681833  -0.00195401  0.25031029  1
  Fe  Fe16  1  0.87717542  0.12367538  0.12613571  1
  Fe  Fe17  1  0.87622338  0.12406454  0.37331210  1
  Fe  Fe18  1  0.13186239  0.87414911  0.37408078  1
  Fe  Fe19  1  0.11648255  0.62609684  0.62275083  1
  Fe  Fe20  1  0.24892734  0.24981040  0.00110199  1
  Fe  Fe21  1  0.75186192  0.50020167  0.00130002  1
  Fe  Fe22  1  0.12328408  0.87317784  0.62600196  1
  Fe  Fe23  1  0.62314756  0.12356270  0.12518145  1
  Fe  Fe24  1  0.00393815  0.74926239  0.25272007  1
  Fe  Fe25  1  0.49893750  0.50186028  -0.00215822  1
  Fe  Fe26  1  0.50135152  0.00135463  0.74836918  1
  Fe  Fe27  1  0.12061516  0.62328833  0.87958264  1
  Fe  Fe28  1  0.25078898  0.24896684  0.74944186  1
  Fe  Fe29  1  0.00012159  0.25039390  0.49884670  1
  Fe  Fe30  1  0.24913008  0.74797562  -0.00014326  1
  Fe  Fe31  1  0.62765739  0.12098426  0.87684450  1
  Fe  Fe32  1  0.12539942  0.87602466  0.12565833  1
  Fe  Fe33  1  0.62288271  0.37255351  0.62586141  1
  Fe  Fe34  1  0.50004411  0.49925097  0.75230353  1
  Fe  Fe35  1  0.00039330  0.50204701  0.25117391  1
  Fe  Fe36  1  0.87322505  0.37473217  0.12787573  1
  Fe  Fe37  1  0.75232815  0.50384595  0.74641863  1
  Fe  Fe38  1  0.62473104  0.62470519  0.37507323  1
  Fe  Fe39  1  0.00028812  0.24972916  0.75158827  1
  Fe  Fe40  1  0.37431443  0.62481592  0.12298613  1
  Fe  Fe41  1  0.49936570  0.49927352  0.49983851  1
  Fe  Fe42  1  0.87707360  0.37634578  0.62550346  1
  Fe  Fe43  1  0.62636373  0.87310059  0.62519138  1
  Fe  Fe44  1  0.74802546  0.24883407  0.25031073  1
  Fe  Fe45  1  0.87830222  0.62470946  0.87694266  1
  Fe  Fe46  1  0.50000661  0.75130423  0.75107587  1
  Fe  Fe47  1  0.49930322  0.75009873  0.50031644  1
  Fe  Fe48  1  0.74972972  0.00041756  0.24859139  1
  Fe  Fe49  1  0.25107677  0.24880489  0.49990963  1
  Fe  Fe50  1  0.12752716  0.37689500  0.12319990  1
  Fe  Fe51  1  0.62573728  0.62739950  0.87319049  1
  Fe  Fe52  1  0.75353677  0.74844748  0.74583053  1
  Fe  Fe53  1  0.00314978  0.25013244  0.24919249  1
  Fe  Fe54  1  0.25128298  0.50120000  0.24682690  1
  Fe  Fe55  1  0.87882326  0.62722420  0.12279945  1
  Fe  Fe56  1  0.37672980  0.37224917  0.62599167  1
  Fe  Fe57  1  0.00222676  -0.00219276  0.49863724  1
  Fe  Fe58  1  0.62660566  0.37900731  0.37336822  1
  Fe  Fe59  1  0.87364323  0.37451411  0.37391793  1
  Fe  Fe60  1  0.12385597  0.12543775  0.87653788  1
  Fe  Fe61  1  0.24879632  0.50215038  0.50397120  1
  Fe  Fe62  1  0.62369049  0.37823968  0.12759981  1
  Fe  Fe63  1  0.37487583  0.12773379  0.12672426  1
  Fe  Fe64  1  0.87599044  0.12169549  0.62690012  1
  Fe  Fe65  1  0.75014877  0.75341912  -0.00148788  1
  Fe  Fe66  1  0.12853158  0.37656135  0.37469142  1
  Fe  Fe67  1  0.37246004  0.87549360  0.62397013  1
  Fe  Fe68  1  0.49879989  0.74932285  0.24949680  1
  Fe  Fe69  1  -0.00036295  0.25120074  -0.00050980  1
  Fe  Fe70  1  0.37667564  0.87319076  0.87616580  1
  Fe  Fe71  1  0.25143479  0.00127722  0.00107487  1
  Fe  Fe72  1  0.74899178  0.24644351  0.74965735  1
  Fe  Fe73  1  0.37591323  0.87296420  0.12220966  1
  Fe  Fe74  1  0.12718693  0.12303276  0.37114694  1
  Fe  Fe75  1  0.24960529  0.00124427  0.74804151  1
  Fe  Fe76  1  0.87615246  0.87451980  0.12776424  1
  Fe  Fe77  1  -0.00157560  -0.00097039  -0.00101955  1
  Fe  Fe78  1  0.74913129  0.74834050  0.24975364  1
  Fe  Fe79  1  0.62298366  0.87615051  0.12143100  1
  Fe  Fe80  1  0.24760691  0.74716485  0.75027058  1
  Fe  Fe81  1  0.12341344  0.37443832  0.62595841  1
  Fe  Fe82  1  0.37341667  0.12264445  0.37793086  1
  Fe  Fe83  1  0.87169863  0.87468486  0.37616613  1
  Fe  Fe84  1  0.75019042  0.50239242  0.50294227  1
  Fe  Fe85  1  0.62301635  0.12349161  0.37677839  1
  Fe  Fe86  1  0.62586994  0.87380133  0.37548818  1
  Fe  Fe87  1  0.74989671  0.24964014  0.50005648  1
  Fe  Fe88  1  0.87423223  0.37454054  0.87314412  1
  Fe  Fe89  1  0.37228015  0.37579701  0.87542299  1
  Co  Co90  1  0.00080027  -0.00317147  0.25223551  1
  Co  Co91  1  0.74548490  0.00056510  0.74693665  1
  Co  Co92  1  0.37577476  0.37388967  0.12139748  1
  Co  Co93  1  0.62307718  0.87500063  0.87593198  1
  Co  Co94  1  0.36955475  0.37856145  0.37787864  1
  Co  Co95  1  0.50114588  0.74583647  -0.00013746  1
  Co  Co96  1  0.74982955  0.74790745  0.50390587  1
  Co  Co97  1  0.12382808  0.12228906  0.12522987  1
  Co  Co98  1  0.88301602  0.62556717  0.62056778  1
  Co  Co99  1  0.62143957  0.12912262  0.62239957  1
  Co  Co100  1  0.87773449  0.87662340  0.62572933  1
  Co  Co101  1  0.25059862  0.25063968  0.24997266  1
  Co  Co102  1  -0.00088895  0.74914834  0.75255329  1
  Co  Co103  1  0.49739301  0.00243756  -0.00026907  1
  Co  Co104  1  0.75376265  0.50340663  0.24990913  1
  Co  Co105  1  0.49465034  0.50047655  0.25072970  1
  Co  Co106  1  0.50063517  0.24859667  0.75474793  1
  Co  Co107  1  0.37484465  0.62688749  0.87300990  1
  Co  Co108  1  0.87531947  0.12339315  0.87359758  1
  Co  Co109  1  -0.00061037  0.75578521  -0.00174032  1
  Co  Co110  1  0.50068545  -0.00327972  0.50137757  1
  Co  Co111  1  -0.00260428  0.49449828  0.00001152  1
  Co  Co112  1  0.37816459  0.12680993  0.62310572  1
  Co  Co113  1  0.00451302  0.00117528  0.74993616  1
  Co  Co114  1  0.24961822  0.74861829  0.24560544  1
  Co  Co115  1  0.24804967  0.00066445  0.50299066  1
  Co  Co116  1  0.00092690  0.49601419  0.49666243  1
  Co  Co117  1  0.24883512  0.74755516  0.50499786  1
  Co  Co118  1  0.25153047  0.50217353  -0.00149055  1
  Co  Co119  1  0.00036265  0.49921524  0.75264602  1
  Co  Co120  1  0.12662086  0.37421895  0.87510114  1
  Co  Co121  1  0.12142911  0.62446670  0.12134337  1
  Co  Co122  1  0.00253126  0.75501137  0.49524944  1
  Co  Co123  1  0.12914633  0.62441761  0.37574788  1
  Co  Co124  1  0.75330221  -0.00198129  0.00173988  1
  Co  Co125  1  0.25345366  -0.00083417  0.24727901  1
  Co  Co126  1  0.62079925  0.62562207  0.62612271  1
  Co  Co127  1  0.49888460  0.25315280  0.49495288  1
