# generated using pymatgen
data_Fe45Co19
_symmetry_space_group_name_H-M   'P 1'
_cell_length_a   11.41387293
_cell_length_b   11.41621967
_cell_length_c   11.41431549
_cell_angle_alpha   90.00211424
_cell_angle_beta   89.99595399
_cell_angle_gamma   90.00411716
_symmetry_Int_Tables_number   1
_chemical_formula_structural   Fe45Co19
_chemical_formula_sum   'Fe90 Co38'
_cell_volume   1487.32274507
_cell_formula_units_Z   2
loop_
 _symmetry_equiv_pos_site_id
 _symmetry_equiv_pos_as_xyz
  1  'x, y, z'
loop_
 _atom_site_type_symbol
 _atom_site_label
 _atom_site_symmetry_multiplicity
 _atom_site_fract_x
 _atom_site_fract_y
 _atom_site_fract_z
 _atom_site_occupancy
  Fe  Fe0  1  0.87906327  0.87319437  0.87368019  1
  Fe  Fe1  1  0.62516771  0.12349542  0.62322323  1
  Fe  Fe2  1  0.62403378  0.37556506  0.62638206  1
  Fe  Fe3  1  0.49763202  0.49825849  -0.00034503  1
  Fe  Fe4  1  0.24863928  0.25155119  -0.00062630  1
  Fe  Fe5  1  0.62290420  0.62767658  0.62330408  1
  Fe  Fe6  1  0.62526559  0.12470071  0.12666805  1
  Fe  Fe7  1  0.37183579  0.62463956  0.12430186  1
  Fe  Fe8  1  0.75066652  0.50063785  0.49899137  1
  Fe  Fe9  1  0.49857756  0.74966108  0.25054089  1
  Fe  Fe10  1  0.24842530  0.49861967  0.49848404  1
  Fe  Fe11  1  0.49984578  0.49943112  0.49949346  1
  Fe  Fe12  1  0.87723530  0.62808633  0.37421165  1
  Fe  Fe13  1  0.37130987  0.37510917  0.12832024  1
  Fe  Fe14  1  0.87798803  0.37317144  0.62261663  1
  Fe  Fe15  1  0.74851396  0.75162491  -0.00044954  1
  Fe  Fe16  1  0.12811720  0.62191259  0.12615095  1
  Fe  Fe17  1  0.49795134  0.25037236  0.25235811  1
  Fe  Fe18  1  0.75332085  0.49958560  0.75128878  1
  Fe  Fe19  1  0.37366781  0.62668560  0.37704750  1
  Fe  Fe20  1  0.62569561  0.62483761  0.12666422  1
  Fe  Fe21  1  0.62515037  0.37626641  0.37442264  1
  Fe  Fe22  1  0.00036023  0.49938919  0.49776111  1
  Fe  Fe23  1  0.87950072  0.87393609  0.62603832  1
  Fe  Fe24  1  0.49919009  0.75062586  -0.00157996  1
  Fe  Fe25  1  0.75249145  -0.00237549  0.50057104  1
  Fe  Fe26  1  0.49547525  0.00071303  0.24937753  1
  Fe  Fe27  1  0.75251268  0.50067039  0.25198547  1
  Fe  Fe28  1  0.75033397  -0.00012229  -0.00075371  1
  Fe  Fe29  1  0.87692703  0.37519080  0.12708462  1
  Fe  Fe30  1  0.12398490  0.62810660  0.37268740  1
  Fe  Fe31  1  0.62234384  0.87725813  0.87198127  1
  Fe  Fe32  1  0.37444087  0.12764548  0.38080032  1
  Fe  Fe33  1  0.88072162  0.87111306  0.37446541  1
  Fe  Fe34  1  0.49811926  0.25081212  -0.00075180  1
  Fe  Fe35  1  0.75357781  -0.00085272  0.25085940  1
  Fe  Fe36  1  0.24563514  0.75429996  0.50015565  1
  Fe  Fe37  1  0.00322738  0.00049278  -0.00005921  1
  Fe  Fe38  1  0.24622314  0.74970688  0.75010728  1
  Fe  Fe39  1  0.75148712  0.24955451  0.25076971  1
  Fe  Fe40  1  0.37398107  0.37196663  0.62158015  1
  Fe  Fe41  1  0.49674570  0.24650373  0.74959161  1
  Fe  Fe42  1  0.74851457  0.25118404  0.50006198  1
  Fe  Fe43  1  0.12635792  0.37574387  0.13058506  1
  Fe  Fe44  1  0.37450411  0.87720148  0.87271556  1
  Fe  Fe45  1  0.25187163  0.49926387  0.74928070  1
  Fe  Fe46  1  0.24796931  0.75255653  -0.00006562  1
  Fe  Fe47  1  0.37270698  0.12579090  0.12405809  1
  Fe  Fe48  1  0.62390416  0.12214898  0.37582813  1
  Fe  Fe49  1  0.25189964  0.00422535  0.74763921  1
  Fe  Fe50  1  0.87609449  0.12409851  0.12444381  1
  Fe  Fe51  1  0.12258171  0.37470407  0.37068754  1
  Fe  Fe52  1  0.00540806  0.74999266  -0.00191307  1
  Fe  Fe53  1  0.62449980  0.87540011  0.12741693  1
  Fe  Fe54  1  0.24879150  0.24756477  0.74823695  1
  Fe  Fe55  1  0.75068142  0.25073183  -0.00048616  1
  Fe  Fe56  1  0.87799488  0.12662661  0.87472092  1
  Fe  Fe57  1  0.75105888  0.24973381  0.74980898  1
  Fe  Fe58  1  0.24894337  0.00050749  0.00114851  1
  Fe  Fe59  1  0.12395533  0.62264266  0.62546789  1
  Fe  Fe60  1  0.74900659  0.74999569  0.49832464  1
  Fe  Fe61  1  0.62422186  0.87514828  0.37380718  1
  Fe  Fe62  1  0.12521355  0.37530736  0.87214759  1
  Fe  Fe63  1  0.75312638  0.49740637  -0.00291957  1
  Fe  Fe64  1  0.12254385  0.88070896  0.62480181  1
  Fe  Fe65  1  0.00348469  0.24557859  0.74454639  1
  Fe  Fe66  1  0.37115009  0.87358058  0.37330051  1
  Fe  Fe67  1  0.37046400  0.62387626  0.87726190  1
  Fe  Fe68  1  0.62530363  0.37479600  0.12602614  1
  Fe  Fe69  1  0.87755564  0.62734118  0.62485190  1
  Fe  Fe70  1  0.62390988  0.12378307  0.87510701  1
  Fe  Fe71  1  0.37484943  0.62932580  0.62218040  1
  Fe  Fe72  1  0.87583087  0.87385959  0.12506698  1
  Fe  Fe73  1  0.49689766  0.50204603  0.74949799  1
  Fe  Fe74  1  0.49923409  -0.00004668  0.00087709  1
  Fe  Fe75  1  0.75054560  0.74942623  0.75033593  1
  Fe  Fe76  1  0.00313472  0.24983832  0.00266657  1
  Fe  Fe77  1  0.87510266  0.62692311  0.12439256  1
  Fe  Fe78  1  0.00077130  0.50008076  -0.00235115  1
  Fe  Fe79  1  0.62121303  0.87228507  0.62701518  1
  Fe  Fe80  1  0.49535280  -0.00315538  0.50419570  1
  Fe  Fe81  1  -0.00186372  0.50232026  0.75306560  1
  Fe  Fe82  1  0.12400649  0.12011542  0.37415957  1
  Fe  Fe83  1  0.75255384  0.00053441  0.74884786  1
  Fe  Fe84  1  0.49653425  0.49916072  0.25277979  1
  Fe  Fe85  1  0.62691125  0.62332914  0.87535893  1
  Fe  Fe86  1  0.12755225  0.87847059  0.13151089  1
  Fe  Fe87  1  0.62331444  0.37475334  0.87405372  1
  Fe  Fe88  1  0.87780312  0.12838884  0.37834118  1
  Fe  Fe89  1  0.24343750  0.25072987  0.50071922  1
  Co  Co90  1  -0.00307711  0.00108724  0.24980450  1
  Co  Co91  1  0.24960534  0.74924522  0.25008602  1
  Co  Co92  1  0.37369348  0.87458840  0.12431611  1
  Co  Co93  1  0.49843794  0.74630825  0.75415495  1
  Co  Co94  1  0.00446317  0.75068761  0.50220892  1
  Co  Co95  1  -0.00090541  0.00362124  0.74955772  1
  Co  Co96  1  0.25119377  0.50057956  0.25391306  1
  Co  Co97  1  0.75061067  0.75116164  0.25095287  1
  Co  Co98  1  0.37215113  0.12914866  0.61908753  1
  Co  Co99  1  0.12581762  0.87919297  0.87191040  1
  Co  Co100  1  -0.00002143  0.24765581  0.24894070  1
  Co  Co101  1  0.24853524  0.49499217  0.00018861  1
  Co  Co102  1  0.00549917  0.25021665  0.50218267  1
  Co  Co103  1  0.49686947  0.00418139  0.74585455  1
  Co  Co104  1  0.12780199  0.62193717  0.87500135  1
  Co  Co105  1  0.87921425  0.37040487  0.87334577  1
  Co  Co106  1  0.87434905  0.12633448  0.62207839  1
  Co  Co107  1  0.50415977  0.25122769  0.49995536  1
  Co  Co108  1  0.00279557  0.74928806  0.24653264  1
  Co  Co109  1  0.12356302  0.87797023  0.37195495  1
  Co  Co110  1  0.49881101  0.75292204  0.49722306  1
  Co  Co111  1  0.37274810  0.12323361  0.87747879  1
  Co  Co112  1  0.25021551  0.24718976  0.25264265  1
  Co  Co113  1  0.12661618  0.12350034  0.12707756  1
  Co  Co114  1  -0.00081213  0.50174163  0.25106919  1
  Co  Co115  1  0.12610933  0.11854196  0.62084924  1
  Co  Co116  1  0.25325004  -0.00399530  0.49953749  1
  Co  Co117  1  0.12382014  0.37943211  0.62694399  1
  Co  Co118  1  0.37267243  0.37238286  0.37911815  1
  Co  Co119  1  0.12518558  0.12522827  0.87616159  1
  Co  Co120  1  0.87600353  0.62966337  0.87650933  1
  Co  Co121  1  0.87728454  0.37229429  0.37700111  1
  Co  Co122  1  0.37428898  0.87071362  0.62924131  1
  Co  Co123  1  -0.00259520  0.00056084  0.49938144  1
  Co  Co124  1  0.00462264  0.74886390  0.75044122  1
  Co  Co125  1  0.25385073  0.00260070  0.25096338  1
  Co  Co126  1  0.37376883  0.37438200  0.87290728  1
  Co  Co127  1  0.62421719  0.62517154  0.37442055  1
