# generated using pymatgen
data_Fe45Co19
_symmetry_space_group_name_H-M   'P 1'
_cell_length_a   11.41603015
_cell_length_b   11.41591945
_cell_length_c   11.41460454
_cell_angle_alpha   90.00077257
_cell_angle_beta   90.00431387
_cell_angle_gamma   90.00591428
_symmetry_Int_Tables_number   1
_chemical_formula_structural   Fe45Co19
_chemical_formula_sum   'Fe90 Co38'
_cell_volume   1487.60239563
_cell_formula_units_Z   2
loop_
 _symmetry_equiv_pos_site_id
 _symmetry_equiv_pos_as_xyz
  1  'x, y, z'
loop_
 _atom_site_type_symbol
 _atom_site_label
 _atom_site_symmetry_multiplicity
 _atom_site_fract_x
 _atom_site_fract_y
 _atom_site_fract_z
 _atom_site_occupancy
  Fe  Fe0  1  0.50010784  0.00090744  0.49929365  1
  Fe  Fe1  1  -0.00152383  0.74879325  -0.00121242  1
  Fe  Fe2  1  0.12444324  0.12385745  0.62541726  1
  Fe  Fe3  1  0.62978129  0.12114515  0.37236985  1
  Fe  Fe4  1  -0.00117124  0.74890617  0.49594079  1
  Fe  Fe5  1  0.49938466  0.74998863  0.75453388  1
  Fe  Fe6  1  0.12400711  0.62503456  0.62445670  1
  Fe  Fe7  1  0.24961895  0.75105676  0.49906432  1
  Fe  Fe8  1  0.37528812  0.37895961  0.87756819  1
  Fe  Fe9  1  0.62593303  0.37454003  0.12442029  1
  Fe  Fe10  1  0.37707854  0.62799030  0.12536248  1
  Fe  Fe11  1  -0.00072397  0.49920305  0.75113300  1
  Fe  Fe12  1  0.25203668  -0.00086601  0.49725748  1
  Fe  Fe13  1  0.50190490  0.24890568  0.49671695  1
  Fe  Fe14  1  0.87407831  0.62045316  0.37241394  1
  Fe  Fe15  1  0.49681062  -0.00067399  0.00164857  1
  Fe  Fe16  1  0.87688394  0.37652184  0.12557115  1
  Fe  Fe17  1  0.62484660  0.87474220  0.62599981  1
  Fe  Fe18  1  0.24939756  0.25129655  0.75031243  1
  Fe  Fe19  1  -0.00038084  0.75425814  0.25285765  1
  Fe  Fe20  1  0.75138906  0.49889730  0.74931592  1
  Fe  Fe21  1  0.75215159  0.50222305  0.00161426  1
  Fe  Fe22  1  0.00138826  0.75073102  0.75213808  1
  Fe  Fe23  1  0.37390109  0.62662349  0.37245311  1
  Fe  Fe24  1  0.62368312  0.62542049  0.62625646  1
  Fe  Fe25  1  0.75177128  -0.00002446  0.74960566  1
  Fe  Fe26  1  0.49669312  -0.00241763  0.24736663  1
  Fe  Fe27  1  0.75123502  0.25063502  0.74948468  1
  Fe  Fe28  1  0.87617172  0.37380583  0.87906437  1
  Fe  Fe29  1  0.75152930  0.25123041  0.25028521  1
  Fe  Fe30  1  0.87572232  0.87399163  0.62459046  1
  Fe  Fe31  1  0.62657717  0.62387365  0.37272836  1
  Fe  Fe32  1  0.24767901  0.49927019  0.24917556  1
  Fe  Fe33  1  0.24986276  0.49975481  0.75056647  1
  Fe  Fe34  1  0.87526686  0.12772582  0.87783333  1
  Fe  Fe35  1  0.87680665  0.62564618  0.12608275  1
  Fe  Fe36  1  0.37609916  0.62389199  0.62594875  1
  Fe  Fe37  1  0.74884024  0.75021394  0.75307848  1
  Fe  Fe38  1  0.62619388  0.37570206  0.87705549  1
  Fe  Fe39  1  0.24628755  -0.00063114  0.75338844  1
  Fe  Fe40  1  0.87492382  0.12604655  0.62259773  1
  Fe  Fe41  1  0.62305194  0.62754317  0.12356954  1
  Fe  Fe42  1  0.37540348  0.87564578  0.62486211  1
  Fe  Fe43  1  -0.00325904  0.00053888  0.49538842  1
  Fe  Fe44  1  0.25047664  0.74841532  -0.00009606  1
  Fe  Fe45  1  0.24747597  0.50147750  0.49747114  1
  Fe  Fe46  1  0.37618048  0.37550498  0.62342688  1
  Fe  Fe47  1  0.24819874  0.24863056  0.00279706  1
  Fe  Fe48  1  0.12377229  0.11995274  0.12513955  1
  Fe  Fe49  1  0.12291289  0.87901414  0.12276857  1
  Fe  Fe50  1  0.12667043  0.12234036  0.37149647  1
  Fe  Fe51  1  -0.00105878  0.25106583  0.25412573  1
  Fe  Fe52  1  0.12229548  0.37681860  0.12456343  1
  Fe  Fe53  1  0.50045814  0.50065655  0.49826609  1
  Fe  Fe54  1  0.75187915  -0.00125528  0.00350252  1
  Fe  Fe55  1  0.12322455  0.62526890  0.12714058  1
  Fe  Fe56  1  0.37600012  0.37133877  0.12760091  1
  Fe  Fe57  1  0.62695127  0.87635310  0.37388392  1
  Fe  Fe58  1  0.50010921  -0.00010457  0.75154478  1
  Fe  Fe59  1  0.87581138  0.62480527  0.62657523  1
  Fe  Fe60  1  0.62971311  0.37835442  0.37455069  1
  Fe  Fe61  1  0.62699792  0.12439309  0.87665200  1
  Fe  Fe62  1  0.37270934  0.87479635  0.87686429  1
  Fe  Fe63  1  0.37387552  0.12547149  0.62568379  1
  Fe  Fe64  1  0.62391661  0.62251193  0.87716486  1
  Fe  Fe65  1  0.87352631  0.87318332  0.87745093  1
  Fe  Fe66  1  0.62378362  0.12597868  0.12530194  1
  Fe  Fe67  1  0.37316143  0.12610466  0.87647104  1
  Fe  Fe68  1  0.12327750  0.37509414  0.87851000  1
  Fe  Fe69  1  0.37287571  0.37257084  0.37186691  1
  Fe  Fe70  1  0.00103948  -0.00030428  0.75478522  1
  Fe  Fe71  1  0.12496686  0.62302157  0.87630655  1
  Fe  Fe72  1  0.24814807  0.24924572  0.49872405  1
  Fe  Fe73  1  0.12315673  0.87599988  0.62290250  1
  Fe  Fe74  1  0.62313777  0.87132312  0.12241907  1
  Fe  Fe75  1  0.24996621  0.75624448  0.25105628  1
  Fe  Fe76  1  0.37412230  0.12699580  0.36908128  1
  Fe  Fe77  1  0.50082909  0.50006910  0.24866172  1
  Fe  Fe78  1  0.50032006  0.74990218  0.49799884  1
  Fe  Fe79  1  0.62435973  0.37426744  0.62418114  1
  Fe  Fe80  1  0.12264376  0.37470143  0.62117834  1
  Fe  Fe81  1  0.75100189  0.74990553  0.49928298  1
  Fe  Fe82  1  0.50062849  0.25027787  0.00041518  1
  Fe  Fe83  1  0.24967085  0.74967165  0.75024622  1
  Fe  Fe84  1  0.62579768  0.12572203  0.62552093  1
  Fe  Fe85  1  0.75064770  0.75165939  0.24802675  1
  Fe  Fe86  1  0.87703395  0.37461127  0.61761526  1
  Fe  Fe87  1  0.00055858  0.24958953  0.74940372  1
  Fe  Fe88  1  0.87822609  0.12243773  0.12706439  1
  Fe  Fe89  1  0.49944404  0.25060411  0.75129161  1
  Co  Co90  1  0.49961809  0.49934430  0.00475946  1
  Co  Co91  1  0.12659151  0.62760142  0.37124053  1
  Co  Co92  1  0.87538816  0.62534344  0.87430992  1
  Co  Co93  1  0.50570758  0.25104511  0.25187224  1
  Co  Co94  1  0.37526323  0.87163693  0.12262632  1
  Co  Co95  1  0.49907390  0.75035162  -0.00471109  1
  Co  Co96  1  0.75007241  -0.00149896  0.50395288  1
  Co  Co97  1  0.00126838  0.24875774  0.00401235  1
  Co  Co98  1  0.37431361  0.62156406  0.87637342  1
  Co  Co99  1  0.87898373  0.87450134  0.12352226  1
  Co  Co100  1  0.37687071  0.87447154  0.37569709  1
  Co  Co101  1  0.87041659  0.87695807  0.37374181  1
  Co  Co102  1  0.12556892  0.87632229  0.37649768  1
  Co  Co103  1  0.24346509  0.25017736  0.24708514  1
  Co  Co104  1  0.86913875  0.12192062  0.37217089  1
  Co  Co105  1  0.12452802  0.12917780  0.87625720  1
  Co  Co106  1  0.74915033  0.24847875  0.49772577  1
  Co  Co107  1  0.50088826  0.75096998  0.25163855  1
  Co  Co108  1  0.00227938  0.49838169  0.25170030  1
  Co  Co109  1  0.37531651  0.12907354  0.12771631  1
  Co  Co110  1  -0.00081719  0.50283806  0.00053046  1
  Co  Co111  1  0.74987979  0.50060162  0.24526529  1
  Co  Co112  1  0.00316477  0.50466979  0.49699833  1
  Co  Co113  1  0.87379212  0.37880031  0.37752059  1
  Co  Co114  1  0.62731520  0.87816154  0.87729832  1
  Co  Co115  1  0.74940335  0.50317875  0.50377804  1
  Co  Co116  1  0.75145515  0.74904827  0.00057496  1
  Co  Co117  1  0.24985996  0.50031944  0.00457884  1
  Co  Co118  1  0.75085753  0.24870639  0.00353786  1
  Co  Co119  1  0.25127646  0.00167068  0.00071035  1
  Co  Co120  1  0.74971145  -0.00373925  0.24283774  1
  Co  Co121  1  -0.00030377  -0.00031634  -0.00464521  1
  Co  Co122  1  0.50027473  0.49950976  0.74974615  1
  Co  Co123  1  0.25364735  -0.00385239  0.24746486  1
  Co  Co124  1  0.00009901  0.24539952  0.49461883  1
  Co  Co125  1  -0.00103557  -0.00269206  0.25398152  1
  Co  Co126  1  0.12540285  0.87200973  0.87826426  1
  Co  Co127  1  0.12404833  0.37506232  0.37628822  1
