# generated using pymatgen
data_Fe45Co19
_symmetry_space_group_name_H-M   'P 1'
_cell_length_a   11.41454953
_cell_length_b   11.41394062
_cell_length_c   11.41478346
_cell_angle_alpha   89.99234445
_cell_angle_beta   89.99864075
_cell_angle_gamma   90.00541412
_symmetry_Int_Tables_number   1
_chemical_formula_structural   Fe45Co19
_chemical_formula_sum   'Fe90 Co38'
_cell_volume   1487.17493422
_cell_formula_units_Z   2
loop_
 _symmetry_equiv_pos_site_id
 _symmetry_equiv_pos_as_xyz
  1  'x, y, z'
loop_
 _atom_site_type_symbol
 _atom_site_label
 _atom_site_symmetry_multiplicity
 _atom_site_fract_x
 _atom_site_fract_y
 _atom_site_fract_z
 _atom_site_occupancy
  Fe  Fe0  1  0.12226485  0.12364351  0.37335697  1
  Fe  Fe1  1  0.75036008  0.50080675  0.49907986  1
  Fe  Fe2  1  0.37748312  0.12643296  0.87758311  1
  Fe  Fe3  1  0.25177059  -0.00054145  0.00073103  1
  Fe  Fe4  1  0.87421200  0.87358605  0.12430869  1
  Fe  Fe5  1  0.87661847  0.12349696  0.37326036  1
  Fe  Fe6  1  0.75065126  0.24939371  0.49816051  1
  Fe  Fe7  1  0.12761686  0.62343030  0.62572769  1
  Fe  Fe8  1  0.37421693  0.87210082  0.12379758  1
  Fe  Fe9  1  0.12659590  0.87554699  0.37468179  1
  Fe  Fe10  1  0.74943681  0.25023692  0.75193971  1
  Fe  Fe11  1  0.49779165  0.49930198  0.49812770  1
  Fe  Fe12  1  0.62205778  0.12387558  0.87778751  1
  Fe  Fe13  1  0.50026864  0.75102282  0.00091936  1
  Fe  Fe14  1  0.12889877  0.37663987  0.62440834  1
  Fe  Fe15  1  0.87528708  0.12421147  0.87553162  1
  Fe  Fe16  1  0.49906694  0.25187769  0.75081136  1
  Fe  Fe17  1  0.24838850  0.25100851  0.00199157  1
  Fe  Fe18  1  0.87659554  0.62720587  0.37709393  1
  Fe  Fe19  1  0.62388184  0.62640284  0.37500753  1
  Fe  Fe20  1  0.12643059  0.62600869  0.12436442  1
  Fe  Fe21  1  0.62565360  0.37526383  0.62470203  1
  Fe  Fe22  1  0.74973260  -0.00094952  0.50104023  1
  Fe  Fe23  1  0.74802856  -0.00138300  0.24686636  1
  Fe  Fe24  1  -0.00157551  0.25165392  0.49911964  1
  Fe  Fe25  1  0.87466357  0.62560239  0.12410202  1
  Fe  Fe26  1  0.49989542  -0.00043345  0.75007192  1
  Fe  Fe27  1  0.62719208  0.87484227  0.62799037  1
  Fe  Fe28  1  0.62182648  0.12284960  0.37325506  1
  Fe  Fe29  1  0.25101362  0.50395834  -0.00030251  1
  Fe  Fe30  1  0.37667918  0.87247842  0.87481688  1
  Fe  Fe31  1  0.74540639  -0.00256535  0.00016636  1
  Fe  Fe32  1  0.87862834  0.61916307  0.87392005  1
  Fe  Fe33  1  0.25398488  0.50330391  0.25391297  1
  Fe  Fe34  1  0.00009990  0.75108777  0.24985346  1
  Fe  Fe35  1  0.62301887  0.12496957  0.62478834  1
  Fe  Fe36  1  0.37938108  0.12490157  0.37370369  1
  Fe  Fe37  1  0.12631579  0.87409992  0.12452409  1
  Fe  Fe38  1  0.50056881  0.75172460  0.50227349  1
  Fe  Fe39  1  0.37483121  0.87437006  0.37666994  1
  Fe  Fe40  1  0.49933925  0.25014759  0.49974122  1
  Fe  Fe41  1  0.87365607  0.87339114  0.37551974  1
  Fe  Fe42  1  0.25094485  0.25094316  0.75119065  1
  Fe  Fe43  1  0.25076774  0.00167400  0.50127001  1
  Fe  Fe44  1  0.37237224  0.37570512  0.62267992  1
  Fe  Fe45  1  0.00139872  0.74875158  -0.00246842  1
  Fe  Fe46  1  0.00245668  0.75345294  0.50434695  1
  Fe  Fe47  1  0.00077069  -0.00136259  -0.00014548  1
  Fe  Fe48  1  0.25212200  0.00256376  0.24812966  1
  Fe  Fe49  1  0.75096125  0.50223541  0.25122403  1
  Fe  Fe50  1  0.49592860  0.49699192  0.24940743  1
  Fe  Fe51  1  0.00076708  0.25478261  0.00134371  1
  Fe  Fe52  1  0.74733130  0.24901818  0.24934514  1
  Fe  Fe53  1  0.62610285  0.37576626  0.37513917  1
  Fe  Fe54  1  0.12483487  0.12590614  0.62612960  1
  Fe  Fe55  1  0.25071642  0.74430590  0.75417357  1
  Fe  Fe56  1  0.62536331  0.87417504  0.37393731  1
  Fe  Fe57  1  0.12753194  0.37436343  0.37270892  1
  Fe  Fe58  1  0.62718834  0.37880069  0.87415142  1
  Fe  Fe59  1  0.87475248  0.12336907  0.62711346  1
  Fe  Fe60  1  0.50017637  0.49859403  0.00321774  1
  Fe  Fe61  1  0.74674381  0.25134005  0.00066808  1
  Fe  Fe62  1  0.12313655  0.12388574  0.12536840  1
  Fe  Fe63  1  0.49901418  0.75047324  0.24958117  1
  Fe  Fe64  1  0.25117122  0.24728057  0.49842197  1
  Fe  Fe65  1  0.00061027  -0.00335317  0.50387929  1
  Fe  Fe66  1  0.37271764  0.62416542  0.62169407  1
  Fe  Fe67  1  0.38214472  0.12886703  0.12285548  1
  Fe  Fe68  1  -0.00084253  0.25256514  0.75239172  1
  Fe  Fe69  1  0.37460030  0.37645585  0.87699217  1
  Fe  Fe70  1  0.87539228  0.12368256  0.12437951  1
  Fe  Fe71  1  0.75095561  0.74764282  0.75001544  1
  Fe  Fe72  1  0.87136493  0.37725690  0.12329347  1
  Fe  Fe73  1  0.62519606  0.62433073  0.62496873  1
  Fe  Fe74  1  0.74967517  0.74909466  -0.00219550  1
  Fe  Fe75  1  0.25086056  0.74745256  0.25251396  1
  Fe  Fe76  1  0.12418444  0.37993259  0.87507089  1
  Fe  Fe77  1  0.25031773  0.00290409  0.75112965  1
  Fe  Fe78  1  0.62513809  0.62608838  0.12658288  1
  Fe  Fe79  1  0.00125542  0.49806839  0.49966020  1
  Fe  Fe80  1  0.12443687  0.87426776  0.87238090  1
  Fe  Fe81  1  0.37159641  0.87435718  0.62508996  1
  Fe  Fe82  1  0.87250177  0.37510859  0.62603632  1
  Fe  Fe83  1  0.12443229  0.12504998  0.87610854  1
  Fe  Fe84  1  0.00011282  0.25225608  0.24764288  1
  Fe  Fe85  1  0.87569895  0.87722631  0.87007684  1
  Fe  Fe86  1  -0.00033529  0.49997728  0.24885364  1
  Fe  Fe87  1  0.49722264  0.50069791  0.74889493  1
  Fe  Fe88  1  0.62173213  0.62548586  0.87317030  1
  Fe  Fe89  1  0.87463257  0.62495609  0.62374019  1
  Co  Co90  1  0.13061718  0.37795607  0.12796661  1
  Co  Co91  1  -0.00067422  -0.00320179  0.24917063  1
  Co  Co92  1  0.49799401  0.74812844  0.74552337  1
  Co  Co93  1  0.75115273  0.74900538  0.25022230  1
  Co  Co94  1  0.62557717  0.87144663  0.12515220  1
  Co  Co95  1  0.50036899  -0.00518902  -0.00004969  1
  Co  Co96  1  0.62745092  0.37720547  0.12679736  1
  Co  Co97  1  0.12162122  0.62179686  0.87475857  1
  Co  Co98  1  0.25026666  0.50240145  0.49403000  1
  Co  Co99  1  0.49956941  -0.00331186  0.24754567  1
  Co  Co100  1  0.50367899  0.25606901  -0.00087127  1
  Co  Co101  1  0.62322619  0.87115169  0.87201434  1
  Co  Co102  1  0.87227481  0.87642720  0.62936284  1
  Co  Co103  1  0.37654077  0.12558467  0.62678798  1
  Co  Co104  1  0.74607177  0.00219374  0.75144089  1
  Co  Co105  1  0.00260962  0.00203552  0.74879567  1
  Co  Co106  1  0.37938861  0.62558456  0.87791668  1
  Co  Co107  1  0.74938500  0.50136072  0.74880722  1
  Co  Co108  1  0.50212596  0.25472705  0.25015067  1
  Co  Co109  1  0.24815681  0.74879600  -0.00373029  1
  Co  Co110  1  0.49975071  -0.00263942  0.50192740  1
  Co  Co111  1  0.25062085  0.24483858  0.24958268  1
  Co  Co112  1  -0.00038333  0.74801071  0.74841580  1
  Co  Co113  1  0.87370050  0.37815286  0.87673985  1
  Co  Co114  1  0.74856777  0.75004421  0.50103511  1
  Co  Co115  1  0.87422927  0.37546942  0.37370191  1
  Co  Co116  1  0.12106545  0.62574474  0.37443566  1
  Co  Co117  1  0.25291227  0.50173603  0.75231305  1
  Co  Co118  1  0.74751193  0.50345004  -0.00051904  1
  Co  Co119  1  0.24826619  0.74801599  0.49779841  1
  Co  Co120  1  0.00144039  0.49867712  0.00410029  1
  Co  Co121  1  0.13020024  0.87363813  0.62923664  1
  Co  Co122  1  0.37185874  0.37288591  0.12461805  1
  Co  Co123  1  0.37489148  0.62690727  0.12381638  1
  Co  Co124  1  0.61983685  0.12466792  0.12394451  1
  Co  Co125  1  -0.00004841  0.49825895  0.74650031  1
  Co  Co126  1  0.37268604  0.37178891  0.37583922  1
  Co  Co127  1  0.37910075  0.62846614  0.37715511  1
