# generated using pymatgen
data_Fe45Co19
_symmetry_space_group_name_H-M   'P 1'
_cell_length_a   11.41674897
_cell_length_b   11.41702891
_cell_length_c   11.41545931
_cell_angle_alpha   90.00381798
_cell_angle_beta   90.00320468
_cell_angle_gamma   89.99293757
_symmetry_Int_Tables_number   1
_chemical_formula_structural   Fe45Co19
_chemical_formula_sum   'Fe90 Co38'
_cell_volume   1487.95205775
_cell_formula_units_Z   2
loop_
 _symmetry_equiv_pos_site_id
 _symmetry_equiv_pos_as_xyz
  1  'x, y, z'
loop_
 _atom_site_type_symbol
 _atom_site_label
 _atom_site_symmetry_multiplicity
 _atom_site_fract_x
 _atom_site_fract_y
 _atom_site_fract_z
 _atom_site_occupancy
  Fe  Fe0  1  0.12317966  0.87752561  0.12705628  1
  Fe  Fe1  1  -0.00197996  0.50415262  0.75055115  1
  Fe  Fe2  1  0.62412806  0.62225695  0.12310398  1
  Fe  Fe3  1  0.37654516  0.62782993  0.12526462  1
  Fe  Fe4  1  0.12851670  0.87189443  0.87196210  1
  Fe  Fe5  1  0.00229590  0.25173429  0.74960813  1
  Fe  Fe6  1  -0.00221468  0.50487250  0.00063583  1
  Fe  Fe7  1  0.62092651  0.37592988  0.11826109  1
  Fe  Fe8  1  0.62573031  0.12470490  0.37560121  1
  Fe  Fe9  1  0.49937174  -0.00053059  0.25164731  1
  Fe  Fe10  1  0.37719430  0.87420029  0.12301914  1
  Fe  Fe11  1  0.00148579  0.24805105  0.00029328  1
  Fe  Fe12  1  0.00042664  -0.00207403  0.75111914  1
  Fe  Fe13  1  0.74979826  0.25285045  -0.00255350  1
  Fe  Fe14  1  0.37935621  0.62546708  0.37684435  1
  Fe  Fe15  1  0.12639220  0.12387768  0.62611361  1
  Fe  Fe16  1  0.49881565  0.00019150  0.75131023  1
  Fe  Fe17  1  0.74800668  0.49838347  0.24896262  1
  Fe  Fe18  1  0.87360654  0.86993980  0.87214579  1
  Fe  Fe19  1  0.00119330  -0.00062760  0.49819341  1
  Fe  Fe20  1  0.87343400  0.87404545  0.37695636  1
  Fe  Fe21  1  0.74847213  0.74763812  0.00182832  1
  Fe  Fe22  1  0.12658829  0.87344127  0.62655988  1
  Fe  Fe23  1  0.37461595  0.87495983  0.62610916  1
  Fe  Fe24  1  0.74929566  0.00271938  0.50283317  1
  Fe  Fe25  1  0.24855011  0.25247220  0.49944926  1
  Fe  Fe26  1  0.25298156  0.49960657  0.75046522  1
  Fe  Fe27  1  0.75301804  0.49909288  0.75427169  1
  Fe  Fe28  1  0.87521248  0.12535635  0.62882336  1
  Fe  Fe29  1  0.37905998  0.62405609  0.62167397  1
  Fe  Fe30  1  0.24997550  0.49787502  0.24831290  1
  Fe  Fe31  1  0.12671525  0.62458229  0.62563070  1
  Fe  Fe32  1  0.62500556  0.12439970  0.12287197  1
  Fe  Fe33  1  0.62745094  0.12602643  0.87237951  1
  Fe  Fe34  1  0.37428900  0.12628975  0.12655671  1
  Fe  Fe35  1  0.75170376  0.00088885  0.24983921  1
  Fe  Fe36  1  0.00010946  0.74928106  0.24998684  1
  Fe  Fe37  1  0.74792389  0.74991746  0.25019488  1
  Fe  Fe38  1  0.87644122  0.87579265  0.12346578  1
  Fe  Fe39  1  0.37346496  0.12700419  0.62614549  1
  Fe  Fe40  1  0.62230874  0.62177975  0.62363607  1
  Fe  Fe41  1  0.24988634  0.75120393  0.25019775  1
  Fe  Fe42  1  0.25039557  -0.00182719  -0.00000311  1
  Fe  Fe43  1  0.24903440  -0.00060274  0.49680596  1
  Fe  Fe44  1  0.25328668  0.49809219  0.49942675  1
  Fe  Fe45  1  0.49868297  0.00143079  -0.00206710  1
  Fe  Fe46  1  0.12195555  0.12045659  0.12782287  1
  Fe  Fe47  1  0.74881019  0.24906940  0.50328349  1
  Fe  Fe48  1  0.37138639  0.12605748  0.87315467  1
  Fe  Fe49  1  0.00229581  0.24998567  0.49878679  1
  Fe  Fe50  1  0.49912183  -0.00049300  0.49817791  1
  Fe  Fe51  1  0.12592335  0.37739730  0.62518855  1
  Fe  Fe52  1  0.25138705  0.74950411  0.50018548  1
  Fe  Fe53  1  0.74797896  0.50004522  0.49845761  1
  Fe  Fe54  1  0.12674800  0.12418631  0.87341475  1
  Fe  Fe55  1  0.12562928  0.62426797  0.37452544  1
  Fe  Fe56  1  0.87335573  0.62412173  0.37321672  1
  Fe  Fe57  1  0.00152413  0.49899067  0.24869824  1
  Fe  Fe58  1  0.00208443  0.74858668  0.00136662  1
  Fe  Fe59  1  0.62537727  0.87501067  0.87469945  1
  Fe  Fe60  1  0.87740002  0.37511975  0.12255753  1
  Fe  Fe61  1  0.49981834  0.74971858  0.75100723  1
  Fe  Fe62  1  0.49948092  0.25230835  0.75241694  1
  Fe  Fe63  1  0.24959628  0.25107013  0.00210646  1
  Fe  Fe64  1  0.37300463  0.63101944  0.87847032  1
  Fe  Fe65  1  0.62555257  0.87663773  0.62619175  1
  Fe  Fe66  1  0.25361778  0.49996131  0.00315007  1
  Fe  Fe67  1  -0.00110023  0.50209455  0.50084953  1
  Fe  Fe68  1  0.37214385  0.12629569  0.37302083  1
  Fe  Fe69  1  0.75223093  0.00024556  -0.00221710  1
  Fe  Fe70  1  0.74976603  0.25075513  0.24701131  1
  Fe  Fe71  1  0.62505478  0.62159027  0.87821820  1
  Fe  Fe72  1  0.50317763  0.75260543  0.25248760  1
  Fe  Fe73  1  0.87481509  0.37393319  0.37493935  1
  Fe  Fe74  1  0.87820571  0.12330233  0.12425263  1
  Fe  Fe75  1  0.50181350  0.25117331  0.25021445  1
  Fe  Fe76  1  0.87643860  0.12723725  0.37376445  1
  Fe  Fe77  1  -0.00017237  0.74781452  0.50160530  1
  Fe  Fe78  1  0.24454360  0.25417861  0.24874759  1
  Fe  Fe79  1  0.12765382  0.62699834  0.87549486  1
  Fe  Fe80  1  0.49582875  0.49856391  0.75387431  1
  Fe  Fe81  1  0.74633363  0.74745038  0.50019917  1
  Fe  Fe82  1  0.62487476  0.87779720  0.12411799  1
  Fe  Fe83  1  0.62373599  0.37583542  0.62719226  1
  Fe  Fe84  1  0.87426418  0.12644657  0.87212884  1
  Fe  Fe85  1  0.87560776  0.37576641  0.62592860  1
  Fe  Fe86  1  0.50075438  0.49726220  0.25212077  1
  Fe  Fe87  1  0.87316645  0.87168044  0.62796772  1
  Fe  Fe88  1  0.12534285  0.37700980  0.87683625  1
  Fe  Fe89  1  0.49961695  0.25349682  0.49887285  1
  Co  Co90  1  0.00176338  0.74634405  0.74766609  1
  Co  Co91  1  0.37300071  0.37398939  0.37241157  1
  Co  Co92  1  0.87383548  0.62554699  0.12654094  1
  Co  Co93  1  0.25162276  -0.00315530  0.25040464  1
  Co  Co94  1  0.24815052  0.75239564  0.00347463  1
  Co  Co95  1  0.87171979  0.62554114  0.62506179  1
  Co  Co96  1  0.87960520  0.37414902  0.87589729  1
  Co  Co97  1  0.62251527  0.37827677  0.87816533  1
  Co  Co98  1  0.12659532  0.62502958  0.12581109  1
  Co  Co99  1  0.62255643  0.62475703  0.37596566  1
  Co  Co100  1  0.37445181  0.87316893  0.37542675  1
  Co  Co101  1  0.87496984  0.62985830  0.87579548  1
  Co  Co102  1  0.74492066  0.74570703  0.74963419  1
  Co  Co103  1  0.49908707  0.24640270  -0.00308760  1
  Co  Co104  1  0.00001714  -0.00162723  -0.00518861  1
  Co  Co105  1  0.25073235  -0.00023411  0.74980982  1
  Co  Co106  1  -0.00230460  -0.00142906  0.25434206  1
  Co  Co107  1  0.49330335  0.50162459  -0.00098905  1
  Co  Co108  1  0.12556806  0.12442594  0.37169030  1
  Co  Co109  1  0.62718509  0.87837419  0.37565642  1
  Co  Co110  1  0.50033107  0.49404089  0.49679047  1
  Co  Co111  1  0.12410237  0.37781911  0.37737663  1
  Co  Co112  1  0.37276479  0.37203939  0.87735730  1
  Co  Co113  1  0.37833044  0.37232971  0.12472415  1
  Co  Co114  1  0.37377012  0.87311281  0.87563126  1
  Co  Co115  1  0.24751727  0.25233040  0.74910887  1
  Co  Co116  1  0.74944251  0.25386145  0.75027344  1
  Co  Co117  1  0.50277168  0.75025985  -0.00017092  1
  Co  Co118  1  0.00196783  0.25261175  0.24980760  1
  Co  Co119  1  0.12301730  0.37740093  0.12064357  1
  Co  Co120  1  0.25310689  0.74748460  0.74661603  1
  Co  Co121  1  0.37499272  0.37435433  0.62640631  1
  Co  Co122  1  0.62208228  0.12624196  0.62637221  1
  Co  Co123  1  0.75402858  0.49954435  -0.00106060  1
  Co  Co124  1  0.12511632  0.87267737  0.37515974  1
  Co  Co125  1  0.75032471  0.00049875  0.74920183  1
  Co  Co126  1  0.62766184  0.37207624  0.37489466  1
  Co  Co127  1  0.50255314  0.75346265  0.50038152  1
