# generated using pymatgen
data_Fe45Co19
_symmetry_space_group_name_H-M   'P 1'
_cell_length_a   11.41546379
_cell_length_b   11.41543921
_cell_length_c   11.41543216
_cell_angle_alpha   90.00476331
_cell_angle_beta   89.99843737
_cell_angle_gamma   90.00320047
_symmetry_Int_Tables_number   1
_chemical_formula_structural   Fe45Co19
_chemical_formula_sum   'Fe90 Co38'
_cell_volume   1487.57387087
_cell_formula_units_Z   2
loop_
 _symmetry_equiv_pos_site_id
 _symmetry_equiv_pos_as_xyz
  1  'x, y, z'
loop_
 _atom_site_type_symbol
 _atom_site_label
 _atom_site_symmetry_multiplicity
 _atom_site_fract_x
 _atom_site_fract_y
 _atom_site_fract_z
 _atom_site_occupancy
  Fe  Fe0  1  0.12317819  0.62656128  0.37702189  1
  Fe  Fe1  1  -0.00543494  0.25013011  0.49490015  1
  Fe  Fe2  1  0.37438422  0.87594893  0.87152131  1
  Fe  Fe3  1  0.87461162  0.62168010  0.87385424  1
  Fe  Fe4  1  0.87897633  0.87571358  0.62999139  1
  Fe  Fe5  1  0.62210922  0.87416668  0.12645795  1
  Fe  Fe6  1  0.25061686  0.75048458  -0.00070019  1
  Fe  Fe7  1  0.12652971  0.12877144  0.87871456  1
  Fe  Fe8  1  0.25084593  0.00125188  0.00013956  1
  Fe  Fe9  1  0.50165779  0.50149209  0.25141025  1
  Fe  Fe10  1  0.62459817  0.12658274  0.12316719  1
  Fe  Fe11  1  0.37320660  0.62310583  0.37505713  1
  Fe  Fe12  1  0.62532816  0.12451826  0.87555012  1
  Fe  Fe13  1  0.00062307  0.49512913  0.00154633  1
  Fe  Fe14  1  0.49852758  0.74828428  -0.00184925  1
  Fe  Fe15  1  0.50004349  0.25229923  0.49969124  1
  Fe  Fe16  1  0.75540561  0.25102446  -0.00209740  1
  Fe  Fe17  1  0.37288008  0.37638080  0.37566021  1
  Fe  Fe18  1  0.87738475  0.62203649  0.12773881  1
  Fe  Fe19  1  0.49988061  0.25064410  0.75060026  1
  Fe  Fe20  1  0.50120402  -0.00054971  0.49964393  1
  Fe  Fe21  1  0.87462954  0.37271180  0.62753759  1
  Fe  Fe22  1  0.25114719  0.25297631  0.50296988  1
  Fe  Fe23  1  -0.00087832  0.74956405  -0.00079211  1
  Fe  Fe24  1  0.74918042  0.74948797  0.25049404  1
  Fe  Fe25  1  0.24398961  0.49861864  0.24945196  1
  Fe  Fe26  1  0.24858723  0.49736904  0.50471209  1
  Fe  Fe27  1  0.62883554  0.12848839  0.62424205  1
  Fe  Fe28  1  0.87497918  0.12132496  0.87189909  1
  Fe  Fe29  1  0.12717740  0.62283115  0.87534123  1
  Fe  Fe30  1  0.87443869  0.37950809  0.37031883  1
  Fe  Fe31  1  0.12316154  0.87241934  0.62556061  1
  Fe  Fe32  1  0.49851563  0.00044360  -0.00012965  1
  Fe  Fe33  1  0.75223963  0.24958088  0.25121343  1
  Fe  Fe34  1  0.62394411  0.62446491  0.12327577  1
  Fe  Fe35  1  0.12386938  0.87429300  0.87397659  1
  Fe  Fe36  1  0.74977908  0.50025816  0.50198851  1
  Fe  Fe37  1  0.12157750  0.12849004  0.62218992  1
  Fe  Fe38  1  0.00224108  0.00054188  0.25091937  1
  Fe  Fe39  1  0.87738427  0.12556550  0.12543013  1
  Fe  Fe40  1  0.87666345  0.87555189  0.12478777  1
  Fe  Fe41  1  0.37573851  0.12486102  0.62562001  1
  Fe  Fe42  1  0.37684324  0.87577626  0.37350235  1
  Fe  Fe43  1  0.62496116  0.62597808  0.37853770  1
  Fe  Fe44  1  0.25083945  0.75136329  0.50219858  1
  Fe  Fe45  1  0.37508807  0.37535438  0.12731932  1
  Fe  Fe46  1  0.36852140  0.37471417  0.86929419  1
  Fe  Fe47  1  0.62630106  0.62472274  0.87077379  1
  Fe  Fe48  1  0.75055140  -0.00007544  -0.00004372  1
  Fe  Fe49  1  0.87744106  0.87451545  0.37443061  1
  Fe  Fe50  1  0.74794931  -0.00099468  0.24978911  1
  Fe  Fe51  1  0.24840374  -0.00160595  0.50031271  1
  Fe  Fe52  1  0.24700556  0.74984457  0.25021093  1
  Fe  Fe53  1  0.75248882  -0.00003605  0.50342614  1
  Fe  Fe54  1  0.12564378  0.12754309  0.37564866  1
  Fe  Fe55  1  0.12405750  0.87448042  0.12352710  1
  Fe  Fe56  1  0.87581931  0.62505206  0.62720432  1
  Fe  Fe57  1  0.24890658  0.00104464  0.25090286  1
  Fe  Fe58  1  0.62634276  0.37428906  0.12444091  1
  Fe  Fe59  1  0.75161042  0.49865830  0.00173560  1
  Fe  Fe60  1  0.00024841  0.25068901  0.75400290  1
  Fe  Fe61  1  0.37426836  0.62437566  0.12533602  1
  Fe  Fe62  1  0.50154574  0.00003187  0.74855350  1
  Fe  Fe63  1  0.37167296  0.62309828  0.87133285  1
  Fe  Fe64  1  0.37768073  0.87440164  0.12797797  1
  Fe  Fe65  1  0.49840100  0.75064584  0.50073315  1
  Fe  Fe66  1  0.12228851  0.36799727  0.12448808  1
  Fe  Fe67  1  0.37430435  0.12558256  0.37691562  1
  Fe  Fe68  1  0.24826580  0.49714665  0.00236649  1
  Fe  Fe69  1  0.00279261  0.49808947  0.75012291  1
  Fe  Fe70  1  0.62625386  0.37562672  0.37493127  1
  Fe  Fe71  1  0.75162259  0.74986461  -0.00103537  1
  Fe  Fe72  1  0.49924051  0.24916074  0.25150779  1
  Fe  Fe73  1  0.62625060  0.87472949  0.87387880  1
  Fe  Fe74  1  0.49855029  0.49862254  -0.00329934  1
  Fe  Fe75  1  0.75283876  0.74960425  0.50192551  1
  Fe  Fe76  1  0.62580760  0.37561614  0.62549605  1
  Fe  Fe77  1  -0.00098357  0.00075521  0.50050439  1
  Fe  Fe78  1  0.12277293  0.12964418  0.12321903  1
  Fe  Fe79  1  0.62820426  0.12444113  0.37719122  1
  Fe  Fe80  1  0.37861600  0.62296214  0.62795995  1
  Fe  Fe81  1  0.62893857  0.37621090  0.87407834  1
  Fe  Fe82  1  0.00035876  0.49903194  0.49979750  1
  Fe  Fe83  1  0.62558917  0.87195236  0.62563655  1
  Fe  Fe84  1  0.49650747  0.25165592  -0.00270547  1
  Fe  Fe85  1  0.87654096  0.87794733  0.87198174  1
  Fe  Fe86  1  0.87805875  0.62431898  0.37211771  1
  Fe  Fe87  1  0.37542524  0.12550612  0.12509489  1
  Fe  Fe88  1  0.24733642  0.00210901  0.74854785  1
  Fe  Fe89  1  0.12267981  0.62742846  0.62479906  1
  Co  Co90  1  0.62216901  0.62508532  0.62582637  1
  Co  Co91  1  0.62501687  0.87466695  0.37665261  1
  Co  Co92  1  0.87536362  0.12843339  0.62720126  1
  Co  Co93  1  0.12356516  0.87331775  0.37709842  1
  Co  Co94  1  0.75026990  0.24953270  0.75224817  1
  Co  Co95  1  0.00702830  0.49918819  0.24924923  1
  Co  Co96  1  0.37424064  0.12440409  0.87219870  1
  Co  Co97  1  -0.00601367  0.25317250  -0.00437940  1
  Co  Co98  1  0.00026125  0.74732575  0.75290258  1
  Co  Co99  1  0.74596636  0.50270094  0.25020335  1
  Co  Co100  1  0.24962950  0.74963600  0.74834700  1
  Co  Co101  1  0.25062662  0.24952851  0.25045812  1
  Co  Co102  1  0.74851151  0.00046841  0.74775197  1
  Co  Co103  1  0.87506626  0.37637406  0.12959304  1
  Co  Co104  1  0.75217039  0.74961058  0.74992234  1
  Co  Co105  1  0.24584948  0.49913702  0.74323011  1
  Co  Co106  1  0.37685853  0.37496597  0.62695722  1
  Co  Co107  1  0.50023383  0.49860766  0.49933662  1
  Co  Co108  1  0.50105127  0.00361914  0.25153433  1
  Co  Co109  1  0.50103912  0.74626490  0.25130902  1
  Co  Co110  1  -0.00190328  0.75022932  0.50099107  1
  Co  Co111  1  0.12021571  0.37162532  0.62382631  1
  Co  Co112  1  0.00169828  0.75012039  0.24841081  1
  Co  Co113  1  0.24791588  0.24790291  0.74555357  1
  Co  Co114  1  0.50071744  0.49776307  0.75198056  1
  Co  Co115  1  0.87267623  0.12067798  0.37499490  1
  Co  Co116  1  0.37417951  0.87788489  0.62548122  1
  Co  Co117  1  0.75317618  0.25246254  0.49787539  1
  Co  Co118  1  0.00082921  0.00090208  0.00005652  1
  Co  Co119  1  0.12430388  0.62681339  0.12170349  1
  Co  Co120  1  0.87267329  0.37976883  0.87192431  1
  Co  Co121  1  0.00437068  0.00322466  0.74913150  1
  Co  Co122  1  0.12916998  0.37420768  0.87532229  1
  Co  Co123  1  0.25413432  0.24997959  0.00069624  1
  Co  Co124  1  -0.00223209  0.24958325  0.25461843  1
  Co  Co125  1  0.74946915  0.50124752  0.74556016  1
  Co  Co126  1  0.12590571  0.37351558  0.37843904  1
  Co  Co127  1  0.49918619  0.75117347  0.75009824  1
