# generated using pymatgen
data_Fe45Co19
_symmetry_space_group_name_H-M   'P 1'
_cell_length_a   11.41493936
_cell_length_b   11.41376904
_cell_length_c   11.41460303
_cell_angle_alpha   90.00202115
_cell_angle_beta   90.00267052
_cell_angle_gamma   90.00084966
_symmetry_Int_Tables_number   1
_chemical_formula_structural   Fe45Co19
_chemical_formula_sum   'Fe90 Co38'
_cell_volume   1487.17987732
_cell_formula_units_Z   2
loop_
 _symmetry_equiv_pos_site_id
 _symmetry_equiv_pos_as_xyz
  1  'x, y, z'
loop_
 _atom_site_type_symbol
 _atom_site_label
 _atom_site_symmetry_multiplicity
 _atom_site_fract_x
 _atom_site_fract_y
 _atom_site_fract_z
 _atom_site_occupancy
  Fe  Fe0  1  0.12407123  0.12307891  0.12554741  1
  Fe  Fe1  1  0.25021052  -0.00041458  0.49652644  1
  Fe  Fe2  1  0.49737886  0.75050821  0.75094941  1
  Fe  Fe3  1  0.37516720  0.37555160  0.37526051  1
  Fe  Fe4  1  0.62700157  0.37583283  0.12530864  1
  Fe  Fe5  1  0.37604982  0.87779527  0.62479951  1
  Fe  Fe6  1  0.37359868  0.62753904  0.37595611  1
  Fe  Fe7  1  0.24501291  0.75021166  0.00041011  1
  Fe  Fe8  1  0.75132062  0.75025272  0.50335025  1
  Fe  Fe9  1  0.74748046  0.50099422  -0.00137235  1
  Fe  Fe10  1  -0.00100790  0.24932791  0.00028575  1
  Fe  Fe11  1  0.37578565  0.62551163  0.62277679  1
  Fe  Fe12  1  0.24869866  0.50224503  0.50050553  1
  Fe  Fe13  1  0.75438691  0.75050737  0.24804874  1
  Fe  Fe14  1  0.49956232  0.75346981  0.49908723  1
  Fe  Fe15  1  0.00027551  0.24792368  0.50020294  1
  Fe  Fe16  1  0.12098477  0.62712050  0.12799638  1
  Fe  Fe17  1  0.12350206  0.62731390  0.62712661  1
  Fe  Fe18  1  0.49821180  0.75117552  0.25075295  1
  Fe  Fe19  1  -0.00333788  0.75234273  0.75428119  1
  Fe  Fe20  1  0.62551360  0.62236359  0.86968624  1
  Fe  Fe21  1  0.62482305  0.12308269  0.37276684  1
  Fe  Fe22  1  0.12591778  0.37468830  0.62512978  1
  Fe  Fe23  1  0.12336426  0.63124830  0.37310293  1
  Fe  Fe24  1  0.62357888  0.87580554  0.62741620  1
  Fe  Fe25  1  0.25056967  0.24736161  0.24985145  1
  Fe  Fe26  1  0.87249638  0.12015936  0.12251130  1
  Fe  Fe27  1  0.87584603  0.37477458  0.62410663  1
  Fe  Fe28  1  0.87621314  0.62620735  0.62481354  1
  Fe  Fe29  1  -0.00141035  0.24813899  0.24896618  1
  Fe  Fe30  1  0.49814785  0.25119033  0.75092097  1
  Fe  Fe31  1  0.50092783  0.50102407  0.50220272  1
  Fe  Fe32  1  0.12350125  0.37602435  0.12609760  1
  Fe  Fe33  1  0.75339264  0.75160453  0.75108264  1
  Fe  Fe34  1  0.50166364  -0.00482929  0.25250735  1
  Fe  Fe35  1  0.12434156  0.37418679  0.37370685  1
  Fe  Fe36  1  0.00178281  -0.00257836  0.49953762  1
  Fe  Fe37  1  -0.00216012  -0.00147346  0.75204777  1
  Fe  Fe38  1  0.25052653  0.24707429  0.49782021  1
  Fe  Fe39  1  0.25396492  0.00164074  0.75506377  1
  Fe  Fe40  1  0.87308913  0.37617323  0.87624678  1
  Fe  Fe41  1  0.74803503  -0.00130064  0.49997750  1
  Fe  Fe42  1  0.49998626  0.50178782  0.24897173  1
  Fe  Fe43  1  0.25186383  0.24900706  0.75262056  1
  Fe  Fe44  1  0.24944502  0.24821484  -0.00012725  1
  Fe  Fe45  1  0.25247382  0.75036338  0.74999577  1
  Fe  Fe46  1  0.50053692  0.25109453  0.24852567  1
  Fe  Fe47  1  0.62660090  0.62729597  0.12678061  1
  Fe  Fe48  1  0.37745937  0.12300691  0.62379952  1
  Fe  Fe49  1  0.24944987  -0.00023177  -0.00284664  1
  Fe  Fe50  1  0.50090033  0.24941342  0.50037360  1
  Fe  Fe51  1  0.12523000  0.87478018  0.62788647  1
  Fe  Fe52  1  0.37623224  0.37855365  0.87915472  1
  Fe  Fe53  1  0.37560441  0.62451517  0.12191981  1
  Fe  Fe54  1  0.87473022  0.87439189  0.37597584  1
  Fe  Fe55  1  0.25275711  0.49967181  0.74961297  1
  Fe  Fe56  1  0.74933389  0.50226423  0.50285443  1
  Fe  Fe57  1  0.62477916  0.12616828  0.87598044  1
  Fe  Fe58  1  0.75062964  0.24731624  0.24714387  1
  Fe  Fe59  1  0.87404212  0.12261911  0.87879307  1
  Fe  Fe60  1  0.00235404  0.50406068  -0.00175317  1
  Fe  Fe61  1  0.12568358  0.12363973  0.62670943  1
  Fe  Fe62  1  0.12551340  0.37526194  0.87537999  1
  Fe  Fe63  1  0.37413349  0.37825864  0.12329440  1
  Fe  Fe64  1  -0.00187248  0.50069016  0.75171766  1
  Fe  Fe65  1  0.87219239  0.87328617  0.11723572  1
  Fe  Fe66  1  0.50351298  0.25240523  0.00129473  1
  Fe  Fe67  1  0.12545705  0.87051075  0.37018962  1
  Fe  Fe68  1  0.87536764  0.12261339  0.37416930  1
  Fe  Fe69  1  0.25084388  0.00084824  0.25118273  1
  Fe  Fe70  1  0.50390748  -0.00417432  -0.00274947  1
  Fe  Fe71  1  0.75127230  -0.00199709  0.75269633  1
  Fe  Fe72  1  0.37511188  0.87422986  0.12283513  1
  Fe  Fe73  1  0.37858532  0.12301169  0.12413115  1
  Fe  Fe74  1  -0.00079086  0.24854980  0.75061302  1
  Fe  Fe75  1  0.62656619  0.62797985  0.37597358  1
  Fe  Fe76  1  0.74870684  0.24920540  0.50090630  1
  Fe  Fe77  1  0.00023467  0.50238919  0.49783405  1
  Fe  Fe78  1  0.62324663  0.12124539  0.62681931  1
  Fe  Fe79  1  0.87466284  0.12327284  0.62422830  1
  Fe  Fe80  1  0.50427175  0.75046103  -0.00134689  1
  Fe  Fe81  1  0.62413920  0.37739724  0.62878202  1
  Fe  Fe82  1  0.24948710  0.50212435  0.24895059  1
  Fe  Fe83  1  0.87421599  0.37589284  0.37485583  1
  Fe  Fe84  1  0.62608337  0.37644543  0.37429283  1
  Fe  Fe85  1  0.00411123  -0.00406116  -0.00083232  1
  Fe  Fe86  1  0.75118694  0.25039973  0.75140700  1
  Fe  Fe87  1  0.87565954  0.37842910  0.12475210  1
  Fe  Fe88  1  0.37379665  0.62400722  0.87883119  1
  Fe  Fe89  1  0.75244751  0.50309388  0.25029015  1
  Co  Co90  1  0.62553425  0.87289781  0.87051468  1
  Co  Co91  1  0.50493644  0.50159226  0.00118873  1
  Co  Co92  1  0.12182267  0.12376584  0.37307908  1
  Co  Co93  1  0.74955881  0.25046170  0.00147861  1
  Co  Co94  1  0.87346180  0.62696950  0.87858163  1
  Co  Co95  1  0.87425079  0.62729570  0.37681201  1
  Co  Co96  1  0.75282864  0.50070598  0.74780634  1
  Co  Co97  1  0.24518384  0.50242649  0.00189030  1
  Co  Co98  1  0.49811551  -0.00090422  0.75451462  1
  Co  Co99  1  -0.00089149  0.50282216  0.25216799  1
  Co  Co100  1  0.49563180  0.50085612  0.74884519  1
  Co  Co101  1  -0.00609227  0.75216235  0.24622889  1
  Co  Co102  1  0.37405501  0.37349840  0.62275331  1
  Co  Co103  1  0.00008403  0.75196311  0.50154894  1
  Co  Co104  1  0.87433426  0.87490609  0.88151556  1
  Co  Co105  1  0.12297389  0.12481391  0.87485110  1
  Co  Co106  1  0.24886883  0.75144233  0.50317124  1
  Co  Co107  1  -0.00233092  -0.00369655  0.24821333  1
  Co  Co108  1  0.75033035  -0.00196911  0.24836431  1
  Co  Co109  1  0.12694445  0.87515051  0.12814207  1
  Co  Co110  1  0.12671346  0.87454757  0.87166066  1
  Co  Co111  1  0.12663018  0.62606177  0.87052464  1
  Co  Co112  1  0.62327000  0.12285865  0.12563805  1
  Co  Co113  1  0.87493081  0.87630694  0.62477971  1
  Co  Co114  1  0.37107145  0.87259003  0.37406410  1
  Co  Co115  1  0.87478075  0.62572855  0.11916883  1
  Co  Co116  1  0.37390259  0.87163377  0.87804104  1
  Co  Co117  1  0.37895680  0.12507489  0.37412630  1
  Co  Co118  1  0.62892512  0.87126219  0.37444975  1
  Co  Co119  1  0.62543796  0.37704565  0.87216583  1
  Co  Co120  1  0.00602380  0.75007631  -0.00156152  1
  Co  Co121  1  0.25292187  0.74834923  0.24561901  1
  Co  Co122  1  0.62453464  0.62838120  0.62717861  1
  Co  Co123  1  0.62540221  0.87249416  0.12766547  1
  Co  Co124  1  0.37886664  0.12647486  0.87858346  1
  Co  Co125  1  0.74386344  0.74917571  -0.00273161  1
  Co  Co126  1  0.50104630  -0.00373312  0.49630373  1
  Co  Co127  1  0.74249835  -0.00205346  -0.00081279  1
