# generated using pymatgen
data_Fe45Co19
_symmetry_space_group_name_H-M   'P 1'
_cell_length_a   11.41574995
_cell_length_b   11.41470374
_cell_length_c   11.41519837
_cell_angle_alpha   89.99660110
_cell_angle_beta   89.99611531
_cell_angle_gamma   89.99523722
_symmetry_Int_Tables_number   1
_chemical_formula_structural   Fe45Co19
_chemical_formula_sum   'Fe90 Co38'
_cell_volume   1487.48485116
_cell_formula_units_Z   2
loop_
 _symmetry_equiv_pos_site_id
 _symmetry_equiv_pos_as_xyz
  1  'x, y, z'
loop_
 _atom_site_type_symbol
 _atom_site_label
 _atom_site_symmetry_multiplicity
 _atom_site_fract_x
 _atom_site_fract_y
 _atom_site_fract_z
 _atom_site_occupancy
  Fe  Fe0  1  0.25133330  0.74967001  0.00044537  1
  Fe  Fe1  1  0.87383659  0.87222667  0.87298533  1
  Fe  Fe2  1  0.00085183  0.50047459  0.25222628  1
  Fe  Fe3  1  0.75032480  0.50323615  0.25099004  1
  Fe  Fe4  1  0.62432536  0.62350654  0.62188849  1
  Fe  Fe5  1  0.24938049  0.25081917  0.74841206  1
  Fe  Fe6  1  0.87438225  0.37488062  0.87522005  1
  Fe  Fe7  1  0.37622643  0.62117215  0.12737515  1
  Fe  Fe8  1  0.37649209  0.62537451  0.87310709  1
  Fe  Fe9  1  0.25049353  0.25277328  0.00357623  1
  Fe  Fe10  1  0.49736094  0.75183209  0.49479083  1
  Fe  Fe11  1  0.37637742  0.87701500  0.87335019  1
  Fe  Fe12  1  0.50007648  0.49762067  0.25382610  1
  Fe  Fe13  1  0.25180185  0.75053143  0.24986355  1
  Fe  Fe14  1  0.87471237  0.37644823  0.12428581  1
  Fe  Fe15  1  0.87353378  0.12222912  0.62653119  1
  Fe  Fe16  1  0.25017063  0.25095628  0.49898943  1
  Fe  Fe17  1  0.87316665  0.87214890  0.37413410  1
  Fe  Fe18  1  0.00079977  0.25206306  0.24883525  1
  Fe  Fe19  1  0.50207387  0.74994730  0.74884759  1
  Fe  Fe20  1  0.37146700  0.62288944  0.37700797  1
  Fe  Fe21  1  0.25113475  0.49854993  0.00009525  1
  Fe  Fe22  1  0.50218588  0.49824665  0.74892956  1
  Fe  Fe23  1  -0.00084356  0.24850316  0.74900177  1
  Fe  Fe24  1  0.75004371  0.74597044  0.49925333  1
  Fe  Fe25  1  0.37853365  0.12974893  0.13046796  1
  Fe  Fe26  1  0.25010550  0.00189480  0.25003092  1
  Fe  Fe27  1  -0.00240845  0.00114642  -0.00064347  1
  Fe  Fe28  1  0.37668362  0.37424660  0.87503658  1
  Fe  Fe29  1  0.12681549  0.87410670  0.37560797  1
  Fe  Fe30  1  0.37630077  0.12266536  0.62648518  1
  Fe  Fe31  1  0.12484975  0.87490259  0.62430710  1
  Fe  Fe32  1  0.50262724  0.24993693  0.50061046  1
  Fe  Fe33  1  0.00078880  0.74847580  -0.00040297  1
  Fe  Fe34  1  0.00072980  0.50235024  0.74819905  1
  Fe  Fe35  1  0.87399792  0.37599903  0.37706642  1
  Fe  Fe36  1  0.87136408  0.62778228  0.87068105  1
  Fe  Fe37  1  0.87431864  0.12536371  0.37384910  1
  Fe  Fe38  1  -0.00037970  0.00040706  0.49892641  1
  Fe  Fe39  1  0.24872355  0.49065550  0.25375603  1
  Fe  Fe40  1  0.74884428  0.25133896  0.74800101  1
  Fe  Fe41  1  0.87410384  0.12548543  0.12670762  1
  Fe  Fe42  1  0.37619917  0.37599328  0.62243930  1
  Fe  Fe43  1  0.00168540  0.74889966  0.25073570  1
  Fe  Fe44  1  0.87215903  0.37746623  0.62256660  1
  Fe  Fe45  1  0.50249415  0.25124065  0.74873010  1
  Fe  Fe46  1  0.74803558  0.74454698  0.25037909  1
  Fe  Fe47  1  0.74777936  0.74505567  0.00304872  1
  Fe  Fe48  1  0.49956242  0.74784793  0.00246609  1
  Fe  Fe49  1  0.75085030  0.00014988  0.00187211  1
  Fe  Fe50  1  0.74562341  0.24855043  0.25197059  1
  Fe  Fe51  1  0.25025947  0.49771901  0.74918269  1
  Fe  Fe52  1  0.12500288  0.87547089  0.12429221  1
  Fe  Fe53  1  0.62513918  0.12365718  0.62243388  1
  Fe  Fe54  1  0.62397093  0.87300957  0.87629200  1
  Fe  Fe55  1  0.12635948  0.62548789  0.87292997  1
  Fe  Fe56  1  -0.00379623  0.24833423  0.50163791  1
  Fe  Fe57  1  0.00072663  0.50586523  0.50027608  1
  Fe  Fe58  1  0.62338003  0.87602368  0.62039298  1
  Fe  Fe59  1  0.87394524  0.87300850  0.12724846  1
  Fe  Fe60  1  0.12371862  0.37474653  0.62230128  1
  Fe  Fe61  1  0.25132682  0.00139909  0.49929474  1
  Fe  Fe62  1  0.24924833  0.75241640  0.75079919  1
  Fe  Fe63  1  0.12599577  0.12566656  0.87545126  1
  Fe  Fe64  1  0.12322447  0.37401835  0.87694052  1
  Fe  Fe65  1  0.12639032  0.62270827  0.12723659  1
  Fe  Fe66  1  0.50062739  0.25103271  0.00123127  1
  Fe  Fe67  1  0.25196282  0.00011638  0.00133855  1
  Fe  Fe68  1  0.74588689  0.49902966  0.74984504  1
  Fe  Fe69  1  0.75195487  0.24955449  -0.00061277  1
  Fe  Fe70  1  -0.00152105  -0.00149863  0.25081432  1
  Fe  Fe71  1  0.37851718  0.12892684  0.37079864  1
  Fe  Fe72  1  0.62715034  0.37781163  0.38222833  1
  Fe  Fe73  1  0.74679226  -0.00261675  0.75014215  1
  Fe  Fe74  1  0.62539936  0.12550869  0.87607003  1
  Fe  Fe75  1  0.00160430  0.74471835  0.50157007  1
  Fe  Fe76  1  0.00226667  0.00003126  0.75095883  1
  Fe  Fe77  1  0.50117256  0.50069843  -0.00297371  1
  Fe  Fe78  1  0.12434967  0.12695807  0.12577761  1
  Fe  Fe79  1  0.37727434  0.87538464  0.12865192  1
  Fe  Fe80  1  0.62405628  0.87449833  0.13013420  1
  Fe  Fe81  1  0.37581924  0.87781593  0.62587393  1
  Fe  Fe82  1  0.12422531  0.12746949  0.37497328  1
  Fe  Fe83  1  0.62647453  0.37850566  0.12128276  1
  Fe  Fe84  1  -0.00250381  0.50212141  -0.00006491  1
  Fe  Fe85  1  0.75002371  0.00072129  0.49608365  1
  Fe  Fe86  1  0.37508165  0.12420283  0.87284379  1
  Fe  Fe87  1  0.49989829  0.00043458  0.00169739  1
  Fe  Fe88  1  0.37158497  0.62417651  0.62281178  1
  Fe  Fe89  1  0.87509969  0.87278173  0.62543163  1
  Co  Co90  1  0.87267461  0.12410698  0.87185727  1
  Co  Co91  1  0.62234559  0.12359067  0.37685795  1
  Co  Co92  1  0.62487601  0.62615328  0.87434157  1
  Co  Co93  1  0.74999827  0.00298126  0.25070871  1
  Co  Co94  1  0.62528085  0.37376162  0.87720877  1
  Co  Co95  1  0.49757039  0.50110558  0.50063584  1
  Co  Co96  1  0.24837679  0.49528874  0.49786093  1
  Co  Co97  1  0.12138527  0.37612336  0.12204607  1
  Co  Co98  1  0.25155116  0.75315116  0.50055228  1
  Co  Co99  1  0.75150369  0.24711093  0.49976239  1
  Co  Co100  1  0.24757547  0.25606121  0.24986908  1
  Co  Co101  1  0.49751858  0.74868797  0.25402336  1
  Co  Co102  1  0.62788850  0.87432332  0.37238663  1
  Co  Co103  1  0.87699818  0.62520183  0.12684105  1
  Co  Co104  1  0.62302428  0.62414656  0.37645630  1
  Co  Co105  1  0.87622120  0.62617422  0.37370053  1
  Co  Co106  1  0.00233494  0.74943718  0.74841885  1
  Co  Co107  1  0.75365227  0.50515994  0.49948367  1
  Co  Co108  1  0.24778586  -0.00022022  0.74881398  1
  Co  Co109  1  0.74497910  0.75176983  0.74683405  1
  Co  Co110  1  0.87239543  0.62576639  0.62937937  1
  Co  Co111  1  0.11985156  0.37217602  0.37965352  1
  Co  Co112  1  0.50366199  0.00004101  0.75043228  1
  Co  Co113  1  0.12474140  0.12600996  0.62298212  1
  Co  Co114  1  0.50238245  -0.00038032  0.25164132  1
  Co  Co115  1  -0.00255019  0.24846280  -0.00048564  1
  Co  Co116  1  0.37294102  0.87771619  0.37222971  1
  Co  Co117  1  0.62673306  0.37607688  0.61975426  1
  Co  Co118  1  0.50804659  0.25504298  0.25022740  1
  Co  Co119  1  0.12972449  0.62604172  0.37423961  1
  Co  Co120  1  0.37870895  0.37101568  0.37702232  1
  Co  Co121  1  0.13081916  0.62462083  0.62552961  1
  Co  Co122  1  0.12526314  0.87596656  0.87728788  1
  Co  Co123  1  0.62431632  0.12458111  0.12343283  1
  Co  Co124  1  0.62042489  0.62218659  0.12690223  1
  Co  Co125  1  0.37874971  0.37532127  0.12499493  1
  Co  Co126  1  0.49831006  -0.00183328  0.49671925  1
  Co  Co127  1  0.75175375  0.50381486  -0.00108249  1
