# generated using pymatgen
data_Fe45Co19
_symmetry_space_group_name_H-M   'P 1'
_cell_length_a   11.41483146
_cell_length_b   11.41375319
_cell_length_c   11.41600336
_cell_angle_alpha   89.99476319
_cell_angle_beta   89.99522282
_cell_angle_gamma   90.01536008
_symmetry_Int_Tables_number   1
_chemical_formula_structural   Fe45Co19
_chemical_formula_sum   'Fe90 Co38'
_cell_volume   1487.34613644
_cell_formula_units_Z   2
loop_
 _symmetry_equiv_pos_site_id
 _symmetry_equiv_pos_as_xyz
  1  'x, y, z'
loop_
 _atom_site_type_symbol
 _atom_site_label
 _atom_site_symmetry_multiplicity
 _atom_site_fract_x
 _atom_site_fract_y
 _atom_site_fract_z
 _atom_site_occupancy
  Fe  Fe0  1  -0.00229753  0.75013172  0.75005373  1
  Fe  Fe1  1  0.12499964  0.37725115  0.37460326  1
  Fe  Fe2  1  0.24769727  0.50364087  0.49690635  1
  Fe  Fe3  1  0.74652353  0.25166256  0.75400469  1
  Fe  Fe4  1  0.00037782  0.24914650  -0.00040791  1
  Fe  Fe5  1  0.62257776  0.87000882  0.62780711  1
  Fe  Fe6  1  0.00069581  0.49922251  0.75178725  1
  Fe  Fe7  1  0.12576440  0.37531339  0.87831268  1
  Fe  Fe8  1  0.25078927  0.25078253  0.24890905  1
  Fe  Fe9  1  0.87064405  0.62148720  0.87412494  1
  Fe  Fe10  1  0.37920166  0.12261068  0.87023458  1
  Fe  Fe11  1  0.12685556  0.87305073  0.62606668  1
  Fe  Fe12  1  0.87559602  0.12273861  0.12422683  1
  Fe  Fe13  1  0.87113111  0.62362303  0.12462471  1
  Fe  Fe14  1  0.87669820  0.12260007  0.37289818  1
  Fe  Fe15  1  0.00445385  -0.00136429  0.00162533  1
  Fe  Fe16  1  0.61731816  0.37348541  0.87981321  1
  Fe  Fe17  1  0.00103602  0.00038930  0.50163724  1
  Fe  Fe18  1  0.87374193  0.37848982  0.12041322  1
  Fe  Fe19  1  0.00061467  0.25087962  0.75115158  1
  Fe  Fe20  1  0.25405661  0.75491089  0.75221549  1
  Fe  Fe21  1  0.74664950  -0.00097186  -0.00272442  1
  Fe  Fe22  1  0.87706410  0.62661231  0.37299536  1
  Fe  Fe23  1  0.75250967  0.75309579  0.25061787  1
  Fe  Fe24  1  0.87488749  0.87527456  0.62453448  1
  Fe  Fe25  1  0.37498809  0.37933631  0.12000668  1
  Fe  Fe26  1  0.62513297  0.62577988  0.37142128  1
  Fe  Fe27  1  0.24989189  0.75280892  0.25386165  1
  Fe  Fe28  1  0.12780833  0.37624299  0.12136149  1
  Fe  Fe29  1  0.75086565  0.25089745  0.24941839  1
  Fe  Fe30  1  0.25130486  0.24994134  0.50045974  1
  Fe  Fe31  1  0.37537261  0.37703027  0.37612054  1
  Fe  Fe32  1  0.00055496  0.50035671  0.24684770  1
  Fe  Fe33  1  0.62424606  0.87346960  0.12479381  1
  Fe  Fe34  1  0.87278565  0.12602555  0.62768929  1
  Fe  Fe35  1  0.49811792  0.24901557  0.24724857  1
  Fe  Fe36  1  0.75155400  0.24921988  0.49830754  1
  Fe  Fe37  1  0.74966013  0.74933115  0.50092902  1
  Fe  Fe38  1  0.25387805  0.24719015  -0.00104795  1
  Fe  Fe39  1  0.74973728  -0.00242137  0.25042388  1
  Fe  Fe40  1  0.12934426  0.12491039  0.62824851  1
  Fe  Fe41  1  0.12766986  0.62684378  0.12644255  1
  Fe  Fe42  1  0.25549985  0.25468609  0.75083638  1
  Fe  Fe43  1  0.62391963  0.87504576  0.37540231  1
  Fe  Fe44  1  0.61883036  0.87156730  0.87201038  1
  Fe  Fe45  1  0.74869479  0.50164456  0.49903103  1
  Fe  Fe46  1  -0.00096960  0.74875347  0.00158819  1
  Fe  Fe47  1  0.87451391  0.37448305  0.62682585  1
  Fe  Fe48  1  0.00082116  0.25149454  0.24746846  1
  Fe  Fe49  1  0.00249881  -0.00720845  0.24695794  1
  Fe  Fe50  1  0.62342604  0.37688280  0.12401809  1
  Fe  Fe51  1  0.49628861  0.24776570  0.50378847  1
  Fe  Fe52  1  0.00217256  0.50314222  0.50300623  1
  Fe  Fe53  1  0.00101958  0.24866248  0.50125540  1
  Fe  Fe54  1  0.74901512  -0.00067304  0.50102881  1
  Fe  Fe55  1  0.74621807  -0.00124155  0.75166389  1
  Fe  Fe56  1  0.25157644  0.49855988  0.75367726  1
  Fe  Fe57  1  0.62361394  0.12575692  0.37502471  1
  Fe  Fe58  1  0.37550432  0.12260159  0.37284801  1
  Fe  Fe59  1  0.49894623  0.75149995  0.24951256  1
  Fe  Fe60  1  0.62558593  0.12473798  0.12473645  1
  Fe  Fe61  1  0.24884122  0.74741279  0.49776075  1
  Fe  Fe62  1  0.49998266  0.00160285  0.50449077  1
  Fe  Fe63  1  0.00164919  -0.00062227  0.74999815  1
  Fe  Fe64  1  0.37598303  0.87733673  0.37524155  1
  Fe  Fe65  1  0.74944179  0.25004982  -0.00107056  1
  Fe  Fe66  1  0.87621383  0.87549352  0.87723296  1
  Fe  Fe67  1  0.37294958  0.62419337  0.62404963  1
  Fe  Fe68  1  0.87077201  0.62322454  0.62872992  1
  Fe  Fe69  1  0.49906445  -0.00015000  0.00225472  1
  Fe  Fe70  1  0.12455039  0.12429332  0.37191104  1
  Fe  Fe71  1  0.49995114  0.50086932  0.74978095  1
  Fe  Fe72  1  0.12555280  0.62749505  0.87403392  1
  Fe  Fe73  1  0.25303498  0.75476983  -0.00375927  1
  Fe  Fe74  1  0.62353387  0.37500787  0.62267881  1
  Fe  Fe75  1  0.50130193  0.50393033  0.49946382  1
  Fe  Fe76  1  0.50091356  0.74585833  0.00154593  1
  Fe  Fe77  1  0.49954796  0.74723911  0.50086320  1
  Fe  Fe78  1  0.87428856  0.12433110  0.87548140  1
  Fe  Fe79  1  0.37227849  0.11874088  0.12712304  1
  Fe  Fe80  1  0.12745239  0.37663940  0.62500989  1
  Fe  Fe81  1  0.74722359  0.74841054  -0.00199344  1
  Fe  Fe82  1  0.49830673  0.50177609  0.24855681  1
  Fe  Fe83  1  0.24990889  -0.00010100  0.50054457  1
  Fe  Fe84  1  0.87669118  0.37647576  0.37569461  1
  Fe  Fe85  1  0.62298007  0.37398272  0.37386731  1
  Fe  Fe86  1  0.37607252  0.62379820  0.87656549  1
  Fe  Fe87  1  0.00197965  0.74749855  0.50156625  1
  Fe  Fe88  1  0.37211068  0.62592191  0.12618257  1
  Fe  Fe89  1  0.12830412  0.12339234  0.87387357  1
  Co  Co90  1  0.75281298  0.75407986  0.75105152  1
  Co  Co91  1  0.87610096  0.37623984  0.87719889  1
  Co  Co92  1  0.13051121  0.87186942  0.12192017  1
  Co  Co93  1  0.12375865  0.87360876  0.37751778  1
  Co  Co94  1  0.37427667  0.38005404  0.62222697  1
  Co  Co95  1  0.87665001  0.87439972  0.37800586  1
  Co  Co96  1  0.61943158  0.12638718  0.87547403  1
  Co  Co97  1  0.37492161  0.87328053  0.62261372  1
  Co  Co98  1  0.37617895  0.62488261  0.37389529  1
  Co  Co99  1  0.50244665  -0.00080215  0.24935291  1
  Co  Co100  1  -0.00186279  0.75385609  0.24618020  1
  Co  Co101  1  0.62732716  0.12781834  0.62510871  1
  Co  Co102  1  0.50221243  0.00068005  0.74403177  1
  Co  Co103  1  0.37101918  0.12378199  0.62948690  1
  Co  Co104  1  0.49601631  0.24555525  0.00461218  1
  Co  Co105  1  0.12171113  0.62523571  0.36989574  1
  Co  Co106  1  0.25105723  -0.00681969  0.75308889  1
  Co  Co107  1  0.62700589  0.62670839  0.62926342  1
  Co  Co108  1  0.25128219  -0.00203654  -0.00492826  1
  Co  Co109  1  0.24654964  -0.00329987  0.25082608  1
  Co  Co110  1  0.38077395  0.37649749  0.88013364  1
  Co  Co111  1  0.50301125  0.50884534  0.00184530  1
  Co  Co112  1  0.62602795  0.62798572  0.86848546  1
  Co  Co113  1  0.37435673  0.87531722  0.12549646  1
  Co  Co114  1  0.49414408  0.74602920  0.74884788  1
  Co  Co115  1  0.62801011  0.62564399  0.13032374  1
  Co  Co116  1  0.74615339  0.49401053  0.75241133  1
  Co  Co117  1  0.87225215  0.87529333  0.12011690  1
  Co  Co118  1  0.75043437  0.49809375  0.25213780  1
  Co  Co119  1  0.49839313  0.25225693  0.74546162  1
  Co  Co120  1  0.24901952  0.50259015  -0.00202221  1
  Co  Co121  1  0.12829343  0.62632995  0.63041684  1
  Co  Co122  1  0.38392455  0.87753610  0.87510982  1
  Co  Co123  1  0.74410752  0.50120058  -0.00249386  1
  Co  Co124  1  0.12644197  0.12455255  0.12498962  1
  Co  Co125  1  0.00215225  0.50326775  -0.00074460  1
  Co  Co126  1  0.12132390  0.87293067  0.87564241  1
  Co  Co127  1  0.25121604  0.49905650  0.24969617  1
