# generated using pymatgen
data_Fe45Co19
_symmetry_space_group_name_H-M   'P 1'
_cell_length_a   11.41462058
_cell_length_b   11.41442246
_cell_length_c   11.41504888
_cell_angle_alpha   89.99280873
_cell_angle_beta   90.00232215
_cell_angle_gamma   89.99955108
_symmetry_Int_Tables_number   1
_chemical_formula_structural   Fe45Co19
_chemical_formula_sum   'Fe90 Co38'
_cell_volume   1487.28156287
_cell_formula_units_Z   2
loop_
 _symmetry_equiv_pos_site_id
 _symmetry_equiv_pos_as_xyz
  1  'x, y, z'
loop_
 _atom_site_type_symbol
 _atom_site_label
 _atom_site_symmetry_multiplicity
 _atom_site_fract_x
 _atom_site_fract_y
 _atom_site_fract_z
 _atom_site_occupancy
  Fe  Fe0  1  0.37412897  0.62506250  0.62492683  1
  Fe  Fe1  1  -0.00263740  0.50056804  0.00228726  1
  Fe  Fe2  1  0.75167388  0.00038863  0.00023593  1
  Fe  Fe3  1  0.00338209  0.25147673  0.49928703  1
  Fe  Fe4  1  0.24647507  0.00099421  0.24933064  1
  Fe  Fe5  1  0.50025971  0.50052045  0.49907644  1
  Fe  Fe6  1  0.25083791  -0.00027931  0.00008031  1
  Fe  Fe7  1  0.62373741  0.87827106  0.12572988  1
  Fe  Fe8  1  0.25030467  0.50170086  0.75229678  1
  Fe  Fe9  1  0.24691960  0.74822985  0.24975575  1
  Fe  Fe10  1  0.49967709  0.50043736  0.74770859  1
  Fe  Fe11  1  0.87614924  0.12756343  0.87284860  1
  Fe  Fe12  1  0.12383951  0.62429509  0.62364507  1
  Fe  Fe13  1  0.24998130  0.50080145  0.49838683  1
  Fe  Fe14  1  0.75163994  0.25026649  0.00049776  1
  Fe  Fe15  1  0.25134937  0.74502997  -0.00004272  1
  Fe  Fe16  1  0.87828611  0.87463307  0.12748757  1
  Fe  Fe17  1  0.24421653  0.24937948  0.25023473  1
  Fe  Fe18  1  0.75238528  0.50157967  0.49872866  1
  Fe  Fe19  1  -0.00074293  0.25239440  0.00113395  1
  Fe  Fe20  1  0.12304276  0.62204314  0.37605561  1
  Fe  Fe21  1  0.37639361  0.12384118  0.87379723  1
  Fe  Fe22  1  0.37651926  0.87490074  0.87368418  1
  Fe  Fe23  1  0.12488748  0.87660349  0.37777288  1
  Fe  Fe24  1  0.12846042  0.37893739  0.12375773  1
  Fe  Fe25  1  0.75121929  0.49947405  0.75074511  1
  Fe  Fe26  1  0.37663416  0.62315016  0.37110727  1
  Fe  Fe27  1  0.74982251  0.49971949  0.25016199  1
  Fe  Fe28  1  0.62711164  0.37405525  0.12572962  1
  Fe  Fe29  1  0.75236515  0.49961436  0.00158821  1
  Fe  Fe30  1  0.50099719  0.25141383  0.25022762  1
  Fe  Fe31  1  0.25100772  0.25097385  -0.00012050  1
  Fe  Fe32  1  0.24955369  0.74688287  0.75160897  1
  Fe  Fe33  1  0.87709595  0.37207405  0.37140028  1
  Fe  Fe34  1  0.49781877  -0.00034425  0.50011291  1
  Fe  Fe35  1  0.00079347  0.50001976  0.24841087  1
  Fe  Fe36  1  0.49849945  0.25048174  0.00204735  1
  Fe  Fe37  1  0.87653865  0.12781825  0.62708093  1
  Fe  Fe38  1  0.49895887  0.25178081  0.74790830  1
  Fe  Fe39  1  0.12427114  0.12560988  0.87530966  1
  Fe  Fe40  1  0.62497806  0.37479919  0.87572013  1
  Fe  Fe41  1  0.37531841  0.12349410  0.12621469  1
  Fe  Fe42  1  0.50025285  0.74813897  0.49890974  1
  Fe  Fe43  1  0.87942076  0.12717440  0.37111824  1
  Fe  Fe44  1  0.37231092  0.87550764  0.37525159  1
  Fe  Fe45  1  0.24879044  0.25062936  0.49977383  1
  Fe  Fe46  1  0.37415387  0.12486706  0.37448030  1
  Fe  Fe47  1  0.37479091  0.37625890  0.87391125  1
  Fe  Fe48  1  0.87910596  0.12694815  0.12842411  1
  Fe  Fe49  1  0.62411844  0.62491989  0.12717549  1
  Fe  Fe50  1  0.62541191  0.37350998  0.62274189  1
  Fe  Fe51  1  0.87232717  0.87227741  0.62410748  1
  Fe  Fe52  1  -0.00000696  0.00060547  0.50022128  1
  Fe  Fe53  1  0.87459117  0.37270847  0.62632483  1
  Fe  Fe54  1  0.62328921  0.12262869  0.12603307  1
  Fe  Fe55  1  0.37301106  0.87279781  0.62379657  1
  Fe  Fe56  1  -0.00171948  0.49964985  0.74827272  1
  Fe  Fe57  1  0.62378753  0.12457530  0.37543231  1
  Fe  Fe58  1  0.12681448  0.37487341  0.62525880  1
  Fe  Fe59  1  0.37373963  0.12699316  0.62472718  1
  Fe  Fe60  1  0.24900928  0.00100274  0.74857634  1
  Fe  Fe61  1  0.12532309  0.37686771  0.87527827  1
  Fe  Fe62  1  0.37413470  0.37525669  0.37350411  1
  Fe  Fe63  1  0.75065280  0.75077809  0.25196206  1
  Fe  Fe64  1  0.75180768  0.00046197  0.25122447  1
  Fe  Fe65  1  0.62150266  0.87621795  0.87325218  1
  Fe  Fe66  1  0.12433658  0.87427333  0.87669502  1
  Fe  Fe67  1  0.87597234  0.62595896  0.37438670  1
  Fe  Fe68  1  0.00033623  0.74663037  0.00230373  1
  Fe  Fe69  1  0.74978546  0.75059759  -0.00021212  1
  Fe  Fe70  1  0.00016352  0.74957236  0.74933276  1
  Fe  Fe71  1  0.75082582  0.24937840  0.49819375  1
  Fe  Fe72  1  0.49928846  0.75190484  0.24936847  1
  Fe  Fe73  1  -0.00134053  0.74929901  0.49928393  1
  Fe  Fe74  1  0.62681391  0.87242910  0.62504970  1
  Fe  Fe75  1  0.62323000  0.12421082  0.87404684  1
  Fe  Fe76  1  0.12382808  0.87526344  0.12298645  1
  Fe  Fe77  1  0.74964803  0.00028195  0.74976175  1
  Fe  Fe78  1  0.49672696  0.75115573  0.00275266  1
  Fe  Fe79  1  0.62871936  0.62772042  0.62492462  1
  Fe  Fe80  1  0.62507235  0.37483707  0.37570514  1
  Fe  Fe81  1  0.00188679  0.00021383  0.74903985  1
  Fe  Fe82  1  0.12775133  0.87447711  0.62197455  1
  Fe  Fe83  1  0.62405539  0.12700642  0.62401740  1
  Fe  Fe84  1  0.87558521  0.62491915  0.87429402  1
  Fe  Fe85  1  0.75237799  0.00086923  0.49862986  1
  Fe  Fe86  1  0.87666368  0.87486127  0.87550232  1
  Fe  Fe87  1  0.49597202  0.49863360  0.00541216  1
  Fe  Fe88  1  0.62181075  0.62502085  0.87563523  1
  Fe  Fe89  1  0.62575520  0.87587258  0.37658396  1
  Co  Co90  1  0.00355422  0.74896761  0.25074670  1
  Co  Co91  1  0.37080683  0.37388602  0.12830429  1
  Co  Co92  1  0.87335605  0.62763143  0.62536661  1
  Co  Co93  1  0.37213740  0.87592507  0.12592440  1
  Co  Co94  1  0.75006227  0.75003276  0.75455723  1
  Co  Co95  1  0.00430528  -0.00007535  0.25019201  1
  Co  Co96  1  0.49901498  0.74889708  0.74836685  1
  Co  Co97  1  0.00266040  0.25144923  0.75093944  1
  Co  Co98  1  0.87506083  0.37491013  0.87462790  1
  Co  Co99  1  0.75116823  0.74849918  0.49593533  1
  Co  Co100  1  0.12420439  0.12352195  0.12058780  1
  Co  Co101  1  0.49904328  -0.00009278  0.74648270  1
  Co  Co102  1  0.49854811  -0.00075585  0.00103370  1
  Co  Co103  1  0.12664186  0.62211453  0.12443531  1
  Co  Co104  1  0.87457194  0.37337080  0.12855781  1
  Co  Co105  1  0.87329322  0.62658389  0.12679910  1
  Co  Co106  1  0.49865460  -0.00115841  0.25167397  1
  Co  Co107  1  0.37409387  0.62347299  0.12872460  1
  Co  Co108  1  0.24991799  0.74556089  0.49751006  1
  Co  Co109  1  -0.00173511  0.00095812  -0.00045601  1
  Co  Co110  1  0.25324521  0.50253366  -0.00232554  1
  Co  Co111  1  0.25042219  0.25014740  0.75097368  1
  Co  Co112  1  0.74815280  0.25134452  0.75073711  1
  Co  Co113  1  0.12450072  0.12332979  0.37868389  1
  Co  Co114  1  0.50157215  0.49583134  0.24839474  1
  Co  Co115  1  0.49822547  0.25120552  0.49900067  1
  Co  Co116  1  0.24842090  0.50055901  0.25190147  1
  Co  Co117  1  0.12211422  0.62365781  0.87552925  1
  Co  Co118  1  0.25166140  0.00212036  0.50106585  1
  Co  Co119  1  0.62431096  0.62448480  0.37258417  1
  Co  Co120  1  0.87691488  0.87539319  0.37371708  1
  Co  Co121  1  0.12530799  0.12623890  0.62444942  1
  Co  Co122  1  0.37288836  0.37645454  0.62415313  1
  Co  Co123  1  0.12495691  0.37789166  0.37621607  1
  Co  Co124  1  -0.00241145  0.49882969  0.50121191  1
  Co  Co125  1  0.37852142  0.62407739  0.87548813  1
  Co  Co126  1  0.74724584  0.24913368  0.24991785  1
  Co  Co127  1  0.00855340  0.25137423  0.24860757  1
