# generated using pymatgen
data_Fe45Co19
_symmetry_space_group_name_H-M   'P 1'
_cell_length_a   11.41636098
_cell_length_b   11.41592946
_cell_length_c   11.41544764
_cell_angle_alpha   90.00669339
_cell_angle_beta   90.00605727
_cell_angle_gamma   89.99408095
_symmetry_Int_Tables_number   1
_chemical_formula_structural   Fe45Co19
_chemical_formula_sum   'Fe90 Co38'
_cell_volume   1487.75667684
_cell_formula_units_Z   2
loop_
 _symmetry_equiv_pos_site_id
 _symmetry_equiv_pos_as_xyz
  1  'x, y, z'
loop_
 _atom_site_type_symbol
 _atom_site_label
 _atom_site_symmetry_multiplicity
 _atom_site_fract_x
 _atom_site_fract_y
 _atom_site_fract_z
 _atom_site_occupancy
  Fe  Fe0  1  0.87383786  0.37354516  0.37382382  1
  Fe  Fe1  1  0.75183932  0.50097819  -0.00235334  1
  Fe  Fe2  1  0.49507781  0.50567865  0.00253610  1
  Fe  Fe3  1  0.75432698  -0.00109132  -0.00328211  1
  Fe  Fe4  1  0.24648050  0.75065136  0.75106927  1
  Fe  Fe5  1  0.00002500  0.00160336  0.25794060  1
  Fe  Fe6  1  0.74511989  0.24964910  0.50160658  1
  Fe  Fe7  1  0.12491361  0.37266275  0.37669964  1
  Fe  Fe8  1  0.49848957  0.24694750  0.00106017  1
  Fe  Fe9  1  0.37629880  0.12606864  0.62495562  1
  Fe  Fe10  1  0.74329265  0.24989207  0.74996172  1
  Fe  Fe11  1  0.00186329  0.74851346  0.24888293  1
  Fe  Fe12  1  0.37423290  0.87446678  0.12727518  1
  Fe  Fe13  1  -0.00420369  0.24836203  0.00413767  1
  Fe  Fe14  1  0.12272170  0.87665445  0.87486892  1
  Fe  Fe15  1  0.74718963  0.49870548  0.75159018  1
  Fe  Fe16  1  0.74648170  0.75032588  0.25110919  1
  Fe  Fe17  1  -0.00287782  0.24882805  0.24859975  1
  Fe  Fe18  1  0.37425020  0.37736899  0.12796844  1
  Fe  Fe19  1  0.62445566  0.87881472  0.62190945  1
  Fe  Fe20  1  0.62565178  0.62512060  0.62288823  1
  Fe  Fe21  1  -0.00080033  0.24811097  0.49967907  1
  Fe  Fe22  1  0.00115359  0.50009117  0.25061724  1
  Fe  Fe23  1  0.62255203  0.62956951  0.87811283  1
  Fe  Fe24  1  0.37698322  0.87122001  0.87412193  1
  Fe  Fe25  1  0.25263913  0.49960375  0.49965488  1
  Fe  Fe26  1  0.74683117  0.50064706  0.25102661  1
  Fe  Fe27  1  0.87314386  0.62438981  0.12632564  1
  Fe  Fe28  1  0.12447343  0.87774553  0.12584430  1
  Fe  Fe29  1  0.12339941  0.37336864  0.87540830  1
  Fe  Fe30  1  0.75003757  0.00066130  0.75257538  1
  Fe  Fe31  1  0.12509527  0.87659354  0.62180939  1
  Fe  Fe32  1  0.24999248  0.49867556  0.75155445  1
  Fe  Fe33  1  0.62590011  0.87462785  0.12275611  1
  Fe  Fe34  1  0.24994918  0.25012509  0.74865185  1
  Fe  Fe35  1  0.13026545  0.62278834  0.12187879  1
  Fe  Fe36  1  0.74758188  0.24962154  0.24959749  1
  Fe  Fe37  1  0.49925257  0.75033023  0.50079414  1
  Fe  Fe38  1  0.87882821  0.87758174  0.62698464  1
  Fe  Fe39  1  0.74935129  0.75324619  0.49892869  1
  Fe  Fe40  1  0.62130090  0.37925754  0.37820806  1
  Fe  Fe41  1  0.75056756  0.50001876  0.50022703  1
  Fe  Fe42  1  0.25072582  -0.00048534  0.49543501  1
  Fe  Fe43  1  0.25006113  0.00101032  0.75114975  1
  Fe  Fe44  1  0.37771265  0.37353856  0.87328137  1
  Fe  Fe45  1  0.12557728  0.12584339  0.87569307  1
  Fe  Fe46  1  0.12546737  0.37568120  0.62321719  1
  Fe  Fe47  1  0.87543256  0.37270610  0.87330232  1
  Fe  Fe48  1  0.12523144  0.62425880  0.62382043  1
  Fe  Fe49  1  -0.00025653  0.75146553  0.50095106  1
  Fe  Fe50  1  0.74952331  -0.00202547  0.25471644  1
  Fe  Fe51  1  0.00059793  0.24839612  0.74777045  1
  Fe  Fe52  1  0.50012907  0.00037470  0.75040271  1
  Fe  Fe53  1  0.50273086  0.50139031  0.75054881  1
  Fe  Fe54  1  0.12592316  0.12308951  0.12667893  1
  Fe  Fe55  1  -0.00132844  0.49862016  0.00010611  1
  Fe  Fe56  1  0.74848892  0.75265289  0.75049755  1
  Fe  Fe57  1  0.50412317  0.74576921  0.24595430  1
  Fe  Fe58  1  0.24724244  0.75110645  0.25043281  1
  Fe  Fe59  1  0.12595443  0.12322159  0.62119746  1
  Fe  Fe60  1  0.12555055  0.62426551  0.87633770  1
  Fe  Fe61  1  0.25050085  0.25018506  0.25059439  1
  Fe  Fe62  1  0.87331773  0.12260410  0.62337755  1
  Fe  Fe63  1  0.87347466  0.37525614  0.62650576  1
  Fe  Fe64  1  0.37940820  0.37313031  0.62377643  1
  Fe  Fe65  1  0.37750234  0.87487660  0.37124652  1
  Fe  Fe66  1  0.62359932  0.11872001  0.37918462  1
  Fe  Fe67  1  0.62637264  0.12245741  0.12312839  1
  Fe  Fe68  1  0.12685587  0.37695346  0.12447887  1
  Fe  Fe69  1  0.75237000  0.24854294  0.00105833  1
  Fe  Fe70  1  0.49676364  0.00177911  0.00167667  1
  Fe  Fe71  1  0.62505583  0.37701858  0.12186614  1
  Fe  Fe72  1  0.87405109  0.62711354  0.37481087  1
  Fe  Fe73  1  0.12578691  0.62625134  0.37762678  1
  Fe  Fe74  1  0.87548889  0.62523253  0.62733355  1
  Fe  Fe75  1  -0.00416626  0.00183495  -0.00268711  1
  Fe  Fe76  1  0.37280178  0.87349299  0.62606154  1
  Fe  Fe77  1  0.50266522  0.24844367  0.25010323  1
  Fe  Fe78  1  0.37682007  0.62353860  0.37142934  1
  Fe  Fe79  1  0.37578859  0.12381100  0.37275405  1
  Fe  Fe80  1  0.62250188  0.87276407  0.87866390  1
  Fe  Fe81  1  -0.00118062  0.75156028  0.00059733  1
  Fe  Fe82  1  0.87558411  0.87601126  0.12787076  1
  Fe  Fe83  1  0.25320992  0.00050272  0.00041979  1
  Fe  Fe84  1  0.37890252  0.37671244  0.37518786  1
  Fe  Fe85  1  -0.00211796  0.49941288  0.50004463  1
  Fe  Fe86  1  0.25242784  0.24918864  0.00067539  1
  Fe  Fe87  1  0.37486751  0.62703465  0.62861807  1
  Fe  Fe88  1  0.50612314  0.24753074  0.74943173  1
  Fe  Fe89  1  0.87704440  0.62859501  0.87212404  1
  Co  Co90  1  0.50348007  0.75231206  0.74628133  1
  Co  Co91  1  0.25386720  0.49824342  -0.00464354  1
  Co  Co92  1  0.75450763  0.75244667  -0.00061800  1
  Co  Co93  1  0.00140196  0.00285101  0.75021167  1
  Co  Co94  1  0.63013793  0.62488193  0.12077596  1
  Co  Co95  1  0.87471737  0.12836345  0.87206006  1
  Co  Co96  1  0.37587523  0.62994201  0.87120196  1
  Co  Co97  1  0.87157667  0.12866474  0.37657359  1
  Co  Co98  1  0.49762805  0.50389759  0.50237767  1
  Co  Co99  1  -0.00015134  0.00049923  0.49467196  1
  Co  Co100  1  0.50213468  0.24690348  0.49903471  1
  Co  Co101  1  0.61995752  0.87588963  0.37603257  1
  Co  Co102  1  0.62517111  0.11869641  0.62206997  1
  Co  Co103  1  0.75433139  -0.00443252  0.49673073  1
  Co  Co104  1  0.37526897  0.12605083  0.87242367  1
  Co  Co105  1  0.00376954  0.75006212  0.74864810  1
  Co  Co106  1  0.12582588  0.87189994  0.37621071  1
  Co  Co107  1  0.49476928  -0.00194539  0.50141826  1
  Co  Co108  1  0.62446770  0.12308412  0.87789864  1
  Co  Co109  1  0.87246615  0.37780140  0.12707268  1
  Co  Co110  1  0.62248245  0.37774417  0.62212978  1
  Co  Co111  1  0.62464764  0.62472104  0.37877177  1
  Co  Co112  1  0.50180048  0.00119198  0.24618872  1
  Co  Co113  1  0.25024755  0.75335034  -0.00078499  1
  Co  Co114  1  0.49619615  0.74694862  0.00618872  1
  Co  Co115  1  0.25366389  0.74903345  0.49896824  1
  Co  Co116  1  0.25331272  0.25048320  0.49962915  1
  Co  Co117  1  0.87658331  0.86992634  0.37323318  1
  Co  Co118  1  0.36651301  0.62415289  0.12914536  1
  Co  Co119  1  0.50353396  0.50302818  0.24536922  1
  Co  Co120  1  0.87309690  0.12070567  0.12879232  1
  Co  Co121  1  0.37362208  0.12573736  0.12788469  1
  Co  Co122  1  0.24937315  -0.00082538  0.25101194  1
  Co  Co123  1  0.24701279  0.49812017  0.25428031  1
  Co  Co124  1  0.12727922  0.12814027  0.37451738  1
  Co  Co125  1  0.87755233  0.87323438  0.87084782  1
  Co  Co126  1  0.62277104  0.37562245  0.88013472  1
  Co  Co127  1  0.00043574  0.49911814  0.74980126  1
