# generated using pymatgen
data_Fe45Co19
_symmetry_space_group_name_H-M   'P 1'
_cell_length_a   11.41458517
_cell_length_b   11.41458174
_cell_length_c   11.41537011
_cell_angle_alpha   90.00365446
_cell_angle_beta   89.99506166
_cell_angle_gamma   89.98806991
_symmetry_Int_Tables_number   1
_chemical_formula_structural   Fe45Co19
_chemical_formula_sum   'Fe90 Co38'
_cell_volume   1487.33952955
_cell_formula_units_Z   2
loop_
 _symmetry_equiv_pos_site_id
 _symmetry_equiv_pos_as_xyz
  1  'x, y, z'
loop_
 _atom_site_type_symbol
 _atom_site_label
 _atom_site_symmetry_multiplicity
 _atom_site_fract_x
 _atom_site_fract_y
 _atom_site_fract_z
 _atom_site_occupancy
  Fe  Fe0  1  0.37381170  0.62015879  0.37131029  1
  Fe  Fe1  1  -0.00052358  0.25178998  0.75362863  1
  Fe  Fe2  1  0.62241871  0.87506077  0.62676768  1
  Fe  Fe3  1  0.62464149  0.62183252  0.37331623  1
  Fe  Fe4  1  0.12945978  0.62792517  0.62783182  1
  Fe  Fe5  1  0.62112088  0.87830960  0.87426037  1
  Fe  Fe6  1  0.87581627  0.87903504  0.87546906  1
  Fe  Fe7  1  0.25123635  0.74956386  0.49794440  1
  Fe  Fe8  1  0.24953203  0.49853452  0.49927223  1
  Fe  Fe9  1  0.62631578  0.62501618  0.12613247  1
  Fe  Fe10  1  0.74876005  0.49793378  -0.00216190  1
  Fe  Fe11  1  0.37405747  0.12378811  0.87295966  1
  Fe  Fe12  1  0.49716394  0.00555925  0.00271338  1
  Fe  Fe13  1  0.24798263  0.50048815  0.00076013  1
  Fe  Fe14  1  0.62363080  0.62472441  0.62565166  1
  Fe  Fe15  1  0.87396219  0.62583256  0.12582685  1
  Fe  Fe16  1  0.00152119  0.00026878  0.24942952  1
  Fe  Fe17  1  0.25584361  0.75071444  0.75376524  1
  Fe  Fe18  1  0.00042896  -0.00293201  0.74566788  1
  Fe  Fe19  1  0.37341118  0.62274307  0.12749018  1
  Fe  Fe20  1  0.12637683  0.37110073  0.62450544  1
  Fe  Fe21  1  0.62520928  0.12673619  0.62720299  1
  Fe  Fe22  1  0.12658137  0.62389394  0.37245634  1
  Fe  Fe23  1  0.74965690  0.00189022  -0.00059142  1
  Fe  Fe24  1  0.25028052  0.49815683  0.75012597  1
  Fe  Fe25  1  0.74906607  0.25130129  0.50082305  1
  Fe  Fe26  1  0.00131883  0.24614397  0.50029304  1
  Fe  Fe27  1  0.49399451  0.75061124  0.75046399  1
  Fe  Fe28  1  0.87783644  0.61947273  0.87234133  1
  Fe  Fe29  1  0.00174351  0.75104464  0.49985212  1
  Fe  Fe30  1  0.25118618  0.74971445  -0.00409656  1
  Fe  Fe31  1  0.75254717  0.25257157  0.75390126  1
  Fe  Fe32  1  0.37376353  0.37327840  0.12487591  1
  Fe  Fe33  1  0.87463950  0.37607544  0.62703078  1
  Fe  Fe34  1  0.87738219  0.12287700  0.37645054  1
  Fe  Fe35  1  0.12366478  0.12983446  0.12601041  1
  Fe  Fe36  1  0.87362790  0.62583018  0.62686716  1
  Fe  Fe37  1  0.12810197  0.62709387  0.12667608  1
  Fe  Fe38  1  0.50020567  0.49561616  0.49979701  1
  Fe  Fe39  1  0.62211557  0.62305228  0.87392328  1
  Fe  Fe40  1  0.74962654  0.75185675  0.25196382  1
  Fe  Fe41  1  0.74962962  0.75049454  0.49904411  1
  Fe  Fe42  1  0.75274218  0.25079217  0.25058399  1
  Fe  Fe43  1  0.49756386  0.00486663  0.50332340  1
  Fe  Fe44  1  0.49805619  0.74936902  -0.00074574  1
  Fe  Fe45  1  0.37559129  0.87571528  0.12411087  1
  Fe  Fe46  1  0.87863081  0.12632525  0.12260739  1
  Fe  Fe47  1  0.87510828  0.12385545  0.62708337  1
  Fe  Fe48  1  0.24963999  0.00217240  0.00226085  1
  Fe  Fe49  1  0.75067969  0.74988612  -0.00275726  1
  Fe  Fe50  1  0.50200701  0.49779136  0.00312477  1
  Fe  Fe51  1  0.49905447  0.49848030  0.74739042  1
  Fe  Fe52  1  0.24531948  0.25564117  0.25323448  1
  Fe  Fe53  1  0.49760523  0.74843404  0.49958836  1
  Fe  Fe54  1  0.37354571  0.37093292  0.62309418  1
  Fe  Fe55  1  0.37421579  0.12613877  0.37337308  1
  Fe  Fe56  1  0.62364423  0.12509486  0.87342594  1
  Fe  Fe57  1  0.00080497  0.75125619  0.25151333  1
  Fe  Fe58  1  0.24965213  0.24899132  -0.00389083  1
  Fe  Fe59  1  0.49837991  0.75021414  0.25011956  1
  Fe  Fe60  1  0.12541523  0.87303052  0.12415872  1
  Fe  Fe61  1  0.87952304  0.37236344  0.12033979  1
  Fe  Fe62  1  0.87591828  0.62267033  0.37440865  1
  Fe  Fe63  1  0.24514802  0.00353937  0.50349719  1
  Fe  Fe64  1  0.37425129  0.87812969  0.37636451  1
  Fe  Fe65  1  0.50020882  0.25238235  0.25132577  1
  Fe  Fe66  1  0.24804512  0.24728350  0.49801550  1
  Fe  Fe67  1  0.62461213  0.12878560  0.12476712  1
  Fe  Fe68  1  0.00140598  0.74920726  -0.00287815  1
  Fe  Fe69  1  0.74834812  0.49915357  0.50227396  1
  Fe  Fe70  1  0.87729316  0.37557246  0.37727353  1
  Fe  Fe71  1  0.62380987  0.87597813  0.12462181  1
  Fe  Fe72  1  0.75030260  -0.00093209  0.50365135  1
  Fe  Fe73  1  0.25300696  -0.00169365  0.74605885  1
  Fe  Fe74  1  0.74962912  0.49609055  0.24827422  1
  Fe  Fe75  1  0.37721711  0.37604928  0.87650079  1
  Fe  Fe76  1  0.49768432  0.24954368  0.74934818  1
  Fe  Fe77  1  0.24912749  -0.00117646  0.24906059  1
  Fe  Fe78  1  0.62266824  0.87786020  0.37487966  1
  Fe  Fe79  1  0.12447332  0.12146418  0.87191238  1
  Fe  Fe80  1  0.62519298  0.12567158  0.37473358  1
  Fe  Fe81  1  0.00218006  0.50191252  0.50423088  1
  Fe  Fe82  1  0.00416248  0.49591150  0.24729557  1
  Fe  Fe83  1  0.74973717  0.00056951  0.24854639  1
  Fe  Fe84  1  0.00128490  0.75069825  0.75133685  1
  Fe  Fe85  1  0.87549308  0.87543473  0.12326504  1
  Fe  Fe86  1  0.12037366  0.37977281  0.87787723  1
  Fe  Fe87  1  0.74964488  0.75098649  0.75123616  1
  Fe  Fe88  1  0.87725969  0.87794552  0.37781127  1
  Fe  Fe89  1  0.75319681  0.25101132  -0.00600600  1
  Co  Co90  1  0.25267560  0.75220483  0.25120261  1
  Co  Co91  1  0.00326820  0.00048044  0.00177368  1
  Co  Co92  1  0.00464033  0.00172283  0.50431350  1
  Co  Co93  1  0.24581335  0.49416820  0.24950110  1
  Co  Co94  1  0.12398885  0.12471919  0.37190964  1
  Co  Co95  1  0.49644023  0.00204914  0.74661950  1
  Co  Co96  1  0.12573487  0.87599698  0.37620064  1
  Co  Co97  1  0.74938352  -0.00106172  0.74858688  1
  Co  Co98  1  0.37581360  0.87972302  0.87762910  1
  Co  Co99  1  0.37477000  0.37385245  0.37591688  1
  Co  Co100  1  0.87666707  0.11928613  0.87350061  1
  Co  Co101  1  0.12589227  0.62293006  0.87279048  1
  Co  Co102  1  0.37410981  0.87506639  0.62146140  1
  Co  Co103  1  0.74737326  0.49920635  0.75042449  1
  Co  Co104  1  0.12836113  0.87114192  0.62576462  1
  Co  Co105  1  0.37154360  0.12994402  0.12945978  1
  Co  Co106  1  0.00197005  0.50517873  0.00468681  1
  Co  Co107  1  0.00001057  0.24609379  -0.00718224  1
  Co  Co108  1  0.12144383  0.37497284  0.38017773  1
  Co  Co109  1  0.49628808  0.24744218  -0.00070773  1
  Co  Co110  1  0.37379413  0.62281089  0.62407546  1
  Co  Co111  1  0.49884246  0.00180023  0.24862402  1
  Co  Co112  1  0.00464843  0.49978575  0.74367387  1
  Co  Co113  1  0.50106196  0.49637816  0.24811990  1
  Co  Co114  1  0.12306289  0.36967347  0.11893327  1
  Co  Co115  1  0.12699806  0.87706730  0.87389699  1
  Co  Co116  1  0.87551218  0.87338101  0.62384059  1
  Co  Co117  1  0.62165042  0.37361973  0.87490833  1
  Co  Co118  1  0.87972259  0.38239761  0.87507416  1
  Co  Co119  1  0.12550931  0.12852382  0.63076565  1
  Co  Co120  1  0.62596028  0.37001453  0.12281502  1
  Co  Co121  1  0.62491105  0.37279686  0.62647302  1
  Co  Co122  1  0.37612648  0.62047722  0.87648334  1
  Co  Co123  1  0.37114286  0.13062611  0.62599186  1
  Co  Co124  1  0.62703721  0.37377128  0.37466783  1
  Co  Co125  1  -0.00010439  0.25246829  0.25229697  1
  Co  Co126  1  0.24901320  0.25386684  0.75597544  1
  Co  Co127  1  0.50092119  0.24925574  0.49978083  1
