# generated using pymatgen
data_Fe45Co19
_symmetry_space_group_name_H-M   'P 1'
_cell_length_a   11.41576723
_cell_length_b   11.41448524
_cell_length_c   11.41511942
_cell_angle_alpha   90.00929590
_cell_angle_beta   89.99309689
_cell_angle_gamma   89.98772415
_symmetry_Int_Tables_number   1
_chemical_formula_structural   Fe45Co19
_chemical_formula_sum   'Fe90 Co38'
_cell_volume   1487.44828902
_cell_formula_units_Z   2
loop_
 _symmetry_equiv_pos_site_id
 _symmetry_equiv_pos_as_xyz
  1  'x, y, z'
loop_
 _atom_site_type_symbol
 _atom_site_label
 _atom_site_symmetry_multiplicity
 _atom_site_fract_x
 _atom_site_fract_y
 _atom_site_fract_z
 _atom_site_occupancy
  Fe  Fe0  1  0.24858217  0.75168817  0.75010562  1
  Fe  Fe1  1  0.49985834  0.24953715  0.50023463  1
  Fe  Fe2  1  0.24796790  0.50143646  0.00028887  1
  Fe  Fe3  1  0.74868232  0.25171084  0.75201255  1
  Fe  Fe4  1  -0.00140656  0.00045713  0.74961042  1
  Fe  Fe5  1  0.75038202  0.75206143  0.25101311  1
  Fe  Fe6  1  0.00051864  0.24956365  0.74634629  1
  Fe  Fe7  1  0.87579460  0.87479202  0.12422682  1
  Fe  Fe8  1  0.62789063  0.62536663  0.37497877  1
  Fe  Fe9  1  0.75000315  0.25219885  0.49657345  1
  Fe  Fe10  1  0.00342999  -0.00132049  0.24798874  1
  Fe  Fe11  1  0.24954418  0.24925451  0.24955153  1
  Fe  Fe12  1  0.24886625  0.24928440  0.75010793  1
  Fe  Fe13  1  -0.00084187  0.75149850  0.74896952  1
  Fe  Fe14  1  0.12053261  0.87623602  0.87931381  1
  Fe  Fe15  1  0.74928356  -0.00258040  0.25118913  1
  Fe  Fe16  1  0.12246280  0.37653435  0.12642576  1
  Fe  Fe17  1  0.12062718  0.37675152  0.87601297  1
  Fe  Fe18  1  0.37443927  0.62498686  0.87424613  1
  Fe  Fe19  1  0.24775186  0.49975055  0.25191433  1
  Fe  Fe20  1  0.87772242  0.87595906  0.37490087  1
  Fe  Fe21  1  0.62674039  0.37760160  0.62271716  1
  Fe  Fe22  1  0.50126384  0.25050912  0.74917755  1
  Fe  Fe23  1  0.37659934  0.37449047  0.37424183  1
  Fe  Fe24  1  0.75018429  0.49378800  0.24967553  1
  Fe  Fe25  1  0.12143915  0.62364719  0.87332494  1
  Fe  Fe26  1  0.50014613  0.24718233  0.00468271  1
  Fe  Fe27  1  0.75115763  0.00025049  -0.00070525  1
  Fe  Fe28  1  0.62598830  0.87430065  0.62302397  1
  Fe  Fe29  1  0.24932366  0.75901197  0.24914278  1
  Fe  Fe30  1  0.12500787  0.87461482  0.62245151  1
  Fe  Fe31  1  0.12492733  0.63087792  0.37453302  1
  Fe  Fe32  1  0.24680410  0.49993808  0.74980342  1
  Fe  Fe33  1  0.62491446  0.12468437  0.87641365  1
  Fe  Fe34  1  0.37508575  0.37567904  0.87546924  1
  Fe  Fe35  1  0.12411007  0.12671769  0.37857611  1
  Fe  Fe36  1  0.37726192  0.12383208  0.87491713  1
  Fe  Fe37  1  0.37470074  0.12273214  0.62553430  1
  Fe  Fe38  1  0.37177595  0.11865941  0.12514505  1
  Fe  Fe39  1  0.24902930  0.50295189  0.49781752  1
  Fe  Fe40  1  0.37144032  0.62540959  0.62546661  1
  Fe  Fe41  1  0.87268076  0.62529524  0.62666478  1
  Fe  Fe42  1  0.62380210  0.87291718  0.87621141  1
  Fe  Fe43  1  0.75060533  0.50155154  0.75686554  1
  Fe  Fe44  1  0.87236655  0.37558620  0.62584035  1
  Fe  Fe45  1  0.87114436  0.87442732  0.62514004  1
  Fe  Fe46  1  0.88009452  0.37109995  0.37071557  1
  Fe  Fe47  1  0.74812156  -0.00013180  0.49659822  1
  Fe  Fe48  1  0.87424281  0.62610077  0.37156444  1
  Fe  Fe49  1  0.75462762  0.74519292  -0.00420730  1
  Fe  Fe50  1  0.74919421  -0.00270831  0.75276755  1
  Fe  Fe51  1  0.50085047  0.50110068  0.75021814  1
  Fe  Fe52  1  0.37460219  0.63109166  0.37206537  1
  Fe  Fe53  1  0.37402679  0.37613490  0.62405621  1
  Fe  Fe54  1  0.25094199  0.75047900  0.00161920  1
  Fe  Fe55  1  0.63130418  0.62451577  0.62357923  1
  Fe  Fe56  1  -0.00072391  0.50136614  0.49961419  1
  Fe  Fe57  1  0.62050736  0.87148228  0.37681859  1
  Fe  Fe58  1  0.37836115  0.87543219  0.62126807  1
  Fe  Fe59  1  0.37528303  0.12408269  0.37331903  1
  Fe  Fe60  1  0.37433101  0.37738864  0.12599740  1
  Fe  Fe61  1  0.50009610  0.50305002  0.24954848  1
  Fe  Fe62  1  0.87429132  0.12666201  0.87503111  1
  Fe  Fe63  1  0.87509615  0.12670155  0.37216734  1
  Fe  Fe64  1  0.62623840  0.87513341  0.12314702  1
  Fe  Fe65  1  0.25087601  -0.00326857  0.49619790  1
  Fe  Fe66  1  0.24978216  -0.00129740  0.75199787  1
  Fe  Fe67  1  0.62968707  0.62285844  0.12366030  1
  Fe  Fe68  1  0.49785709  0.50296281  0.00179825  1
  Fe  Fe69  1  -0.00296257  0.74662644  0.00346487  1
  Fe  Fe70  1  -0.00095428  0.00169757  0.50159663  1
  Fe  Fe71  1  0.87160735  0.12448646  0.62494054  1
  Fe  Fe72  1  -0.00050589  0.24844827  0.00331008  1
  Fe  Fe73  1  0.37836326  0.87480055  0.87629392  1
  Fe  Fe74  1  0.12530570  0.62686341  0.12836006  1
  Fe  Fe75  1  -0.00281059  0.74900177  0.50026027  1
  Fe  Fe76  1  0.12912641  0.11948820  0.12330513  1
  Fe  Fe77  1  0.50201394  0.74866533  0.74733742  1
  Fe  Fe78  1  0.12349668  0.37124002  0.37612291  1
  Fe  Fe79  1  0.62553896  0.12954369  0.36999908  1
  Fe  Fe80  1  0.87213344  0.12541074  0.12888046  1
  Fe  Fe81  1  0.62639720  0.12403631  0.62495533  1
  Fe  Fe82  1  0.49703130  0.74865010  0.00565362  1
  Fe  Fe83  1  0.24981829  0.25031779  -0.00036166  1
  Fe  Fe84  1  0.12326997  0.12309645  0.87555072  1
  Fe  Fe85  1  0.75034153  0.25438503  0.00561176  1
  Fe  Fe86  1  0.50041424  0.50358946  0.49892413  1
  Fe  Fe87  1  0.50098614  -0.00143782  0.24868981  1
  Fe  Fe88  1  0.12683671  0.37332025  0.62108125  1
  Fe  Fe89  1  0.62421205  0.37646520  0.87949832  1
  Co  Co90  1  0.12047241  0.87252097  0.37823515  1
  Co  Co91  1  0.87705640  0.87511364  0.87619751  1
  Co  Co92  1  0.24673930  -0.00498714  0.25614897  1
  Co  Co93  1  0.25120231  0.75172630  0.49978344  1
  Co  Co94  1  0.12487129  0.62745496  0.62450386  1
  Co  Co95  1  0.37390965  0.88000045  0.12628807  1
  Co  Co96  1  0.50218827  0.74428296  0.50256657  1
  Co  Co97  1  0.75139531  0.75168411  0.49701422  1
  Co  Co98  1  0.50249786  0.00342686  0.49794090  1
  Co  Co99  1  0.12395446  0.87709621  0.12030145  1
  Co  Co100  1  0.25151622  -0.00269895  -0.00518381  1
  Co  Co101  1  0.00435505  0.24533559  0.24673783  1
  Co  Co102  1  0.74913730  0.25620801  0.24755751  1
  Co  Co103  1  0.75519775  0.49949146  -0.00169145  1
  Co  Co104  1  0.62799962  0.12329123  0.12844037  1
  Co  Co105  1  -0.00337925  0.24950893  0.50363637  1
  Co  Co106  1  0.25348258  0.24894153  0.49942252  1
  Co  Co107  1  0.37040639  0.62415927  0.12826678  1
  Co  Co108  1  -0.00101034  0.75265131  0.24818902  1
  Co  Co109  1  0.38201011  0.87125690  0.37602986  1
  Co  Co110  1  0.88094839  0.37622960  0.12747048  1
  Co  Co111  1  0.87864449  0.37375029  0.87583833  1
  Co  Co112  1  0.50235920  0.74854610  0.24421043  1
  Co  Co113  1  0.61995841  0.37367161  0.37411491  1
  Co  Co114  1  0.62103959  0.37828197  0.12448170  1
  Co  Co115  1  0.50240521  0.00054114  0.00073556  1
  Co  Co116  1  0.50183851  -0.00097170  0.75028546  1
  Co  Co117  1  -0.00477816  0.00313232  0.00193166  1
  Co  Co118  1  0.00104440  0.49733985  0.74494831  1
  Co  Co119  1  0.88099587  0.62268018  0.87076152  1
  Co  Co120  1  -0.00211151  0.50379053  0.00422640  1
  Co  Co121  1  0.74988942  0.74949353  0.75441859  1
  Co  Co122  1  0.00263014  0.50270147  0.25250803  1
  Co  Co123  1  0.62108461  0.62590428  0.87798919  1
  Co  Co124  1  0.75337663  0.49701364  0.49520352  1
  Co  Co125  1  0.49692390  0.24862603  0.24559897  1
  Co  Co126  1  0.12745630  0.12318412  0.62284150  1
  Co  Co127  1  0.87235169  0.62367194  0.13089128  1
