# generated using pymatgen
data_Fe45Co19
_symmetry_space_group_name_H-M   'P 1'
_cell_length_a   11.41556036
_cell_length_b   11.41633737
_cell_length_c   11.41496809
_cell_angle_alpha   89.99059406
_cell_angle_beta   90.00093653
_cell_angle_gamma   90.00540085
_symmetry_Int_Tables_number   1
_chemical_formula_structural   Fe45Co19
_chemical_formula_sum   'Fe90 Co38'
_cell_volume   1487.64299974
_cell_formula_units_Z   2
loop_
 _symmetry_equiv_pos_site_id
 _symmetry_equiv_pos_as_xyz
  1  'x, y, z'
loop_
 _atom_site_type_symbol
 _atom_site_label
 _atom_site_symmetry_multiplicity
 _atom_site_fract_x
 _atom_site_fract_y
 _atom_site_fract_z
 _atom_site_occupancy
  Fe  Fe0  1  0.87995643  0.12806737  0.62380413  1
  Fe  Fe1  1  0.74957291  0.00288042  0.25422538  1
  Fe  Fe2  1  0.00001501  0.49751370  0.00163913  1
  Fe  Fe3  1  0.12555854  0.62515932  0.87592857  1
  Fe  Fe4  1  -0.00323886  -0.00151968  0.49694698  1
  Fe  Fe5  1  0.12487347  0.12760515  0.12119218  1
  Fe  Fe6  1  0.75093125  -0.00010235  -0.00177570  1
  Fe  Fe7  1  0.74677279  0.50251578  0.25194132  1
  Fe  Fe8  1  0.38010161  0.62825277  0.37967833  1
  Fe  Fe9  1  0.37230631  0.87373838  0.12565613  1
  Fe  Fe10  1  0.00123002  0.74917372  0.00219857  1
  Fe  Fe11  1  0.74758729  0.74856035  0.25234489  1
  Fe  Fe12  1  0.87376265  0.87284538  0.12785399  1
  Fe  Fe13  1  0.50429821  0.24929624  0.24902227  1
  Fe  Fe14  1  0.12533595  0.62278797  0.62217311  1
  Fe  Fe15  1  0.62047946  0.62372151  0.87309820  1
  Fe  Fe16  1  0.37481121  0.12440024  0.62676598  1
  Fe  Fe17  1  0.74845469  0.24643476  0.49959631  1
  Fe  Fe18  1  0.62527545  0.87791970  0.38094498  1
  Fe  Fe19  1  0.62487555  0.37829204  0.62414774  1
  Fe  Fe20  1  0.37591648  0.37441616  0.12592426  1
  Fe  Fe21  1  0.25140527  0.74663511  0.74625116  1
  Fe  Fe22  1  0.74473856  0.24620524  0.25090609  1
  Fe  Fe23  1  0.24938089  0.25044021  0.24853638  1
  Fe  Fe24  1  0.62205093  0.11928802  0.62243367  1
  Fe  Fe25  1  0.87528798  0.12502425  0.12658665  1
  Fe  Fe26  1  0.12696115  0.87586654  0.62263875  1
  Fe  Fe27  1  0.74981116  0.24807485  0.00024239  1
  Fe  Fe28  1  0.75187160  0.00086445  0.74861120  1
  Fe  Fe29  1  0.37645159  0.12748493  0.37498192  1
  Fe  Fe30  1  0.24576310  0.24838165  0.74976539  1
  Fe  Fe31  1  0.87813380  0.12718778  0.87323959  1
  Fe  Fe32  1  0.25237191  0.50096358  0.00072627  1
  Fe  Fe33  1  0.50208869  0.49972578  0.24999698  1
  Fe  Fe34  1  0.00418136  0.74940044  0.49320728  1
  Fe  Fe35  1  0.87581211  0.87260117  0.87422291  1
  Fe  Fe36  1  0.12626948  0.87269224  0.87580455  1
  Fe  Fe37  1  0.62431047  0.87363152  0.87123687  1
  Fe  Fe38  1  0.25077996  0.00209367  0.25048501  1
  Fe  Fe39  1  0.74983316  0.74711449  0.74883123  1
  Fe  Fe40  1  -0.00095912  0.49799977  0.49706841  1
  Fe  Fe41  1  0.37740475  0.37346259  0.37455309  1
  Fe  Fe42  1  0.00017430  0.50019802  0.74994644  1
  Fe  Fe43  1  0.49958563  0.74995190  0.00112594  1
  Fe  Fe44  1  0.87521903  0.37443791  0.62419078  1
  Fe  Fe45  1  0.50092256  0.25013160  0.00139865  1
  Fe  Fe46  1  0.12692440  0.37855023  0.37115442  1
  Fe  Fe47  1  0.74806039  0.50144387  0.49744459  1
  Fe  Fe48  1  0.00577334  0.25222365  0.74797115  1
  Fe  Fe49  1  0.49930195  -0.00080957  0.25171299  1
  Fe  Fe50  1  0.62370278  0.37709251  0.87640770  1
  Fe  Fe51  1  -0.00032334  -0.00214474  0.25170887  1
  Fe  Fe52  1  0.00151185  -0.00073476  0.75009991  1
  Fe  Fe53  1  0.49823480  -0.00165201  -0.00193471  1
  Fe  Fe54  1  0.87175614  0.37209213  0.37550945  1
  Fe  Fe55  1  0.74546113  0.74745308  0.50095804  1
  Fe  Fe56  1  0.25124530  0.50063300  0.49647472  1
  Fe  Fe57  1  0.50240466  0.75233779  0.25035908  1
  Fe  Fe58  1  0.37336180  0.87147937  0.37805523  1
  Fe  Fe59  1  0.37551682  0.37459195  0.87494086  1
  Fe  Fe60  1  0.12384488  0.62087684  0.13158939  1
  Fe  Fe61  1  0.50128094  0.25102569  0.74854689  1
  Fe  Fe62  1  0.74984269  0.74812454  -0.00175415  1
  Fe  Fe63  1  0.62294173  0.12403675  0.87482574  1
  Fe  Fe64  1  0.50030148  0.25138071  0.50110643  1
  Fe  Fe65  1  0.62645240  0.87626773  0.12443936  1
  Fe  Fe66  1  0.37366345  0.37718874  0.62471222  1
  Fe  Fe67  1  0.24705672  0.74781763  0.25325060  1
  Fe  Fe68  1  0.24687816  0.25144146  0.50144416  1
  Fe  Fe69  1  0.74842712  0.50280714  -0.00022972  1
  Fe  Fe70  1  0.25204605  0.00075922  -0.00200928  1
  Fe  Fe71  1  -0.00013770  0.74843554  0.74957154  1
  Fe  Fe72  1  0.25211161  0.00082160  0.49871957  1
  Fe  Fe73  1  0.37643508  0.12523631  0.12447885  1
  Fe  Fe74  1  0.74806390  0.24952904  0.74812664  1
  Fe  Fe75  1  0.87384406  0.87227176  0.62281010  1
  Fe  Fe76  1  0.37651548  0.62739196  0.12566602  1
  Fe  Fe77  1  0.12345827  0.12554431  0.37636517  1
  Fe  Fe78  1  0.24909212  0.00280994  0.75257896  1
  Fe  Fe79  1  0.25207963  0.50227244  0.75147900  1
  Fe  Fe80  1  0.12682826  0.87445044  0.12671013  1
  Fe  Fe81  1  0.00134051  0.25371159  0.24855932  1
  Fe  Fe82  1  0.87088280  0.37475813  0.12581269  1
  Fe  Fe83  1  0.87571216  0.37477070  0.87352787  1
  Fe  Fe84  1  0.37321372  0.87091776  0.87324240  1
  Fe  Fe85  1  0.75080737  0.50102768  0.75054091  1
  Fe  Fe86  1  0.49835969  0.74931778  0.74129076  1
  Fe  Fe87  1  0.87545707  0.62692072  0.12831193  1
  Fe  Fe88  1  -0.00107732  -0.00098595  0.00010689  1
  Fe  Fe89  1  0.87566549  0.62475143  0.62288280  1
  Co  Co90  1  0.87123132  0.87172905  0.37503771  1
  Co  Co91  1  0.62509149  0.37391970  0.37485983  1
  Co  Co92  1  0.00272945  0.75228634  0.25395205  1
  Co  Co93  1  0.49390934  -0.00281045  0.50020178  1
  Co  Co94  1  0.62405134  0.62630245  0.12508600  1
  Co  Co95  1  0.37476605  0.62130379  0.61924332  1
  Co  Co96  1  0.12881598  0.87865586  0.37502723  1
  Co  Co97  1  0.12739483  0.38059154  0.62565295  1
  Co  Co98  1  0.37726863  0.62754945  0.87545766  1
  Co  Co99  1  0.87697018  0.62438929  0.87560828  1
  Co  Co100  1  0.87935306  0.12996153  0.37391746  1
  Co  Co101  1  0.36956027  0.87677754  0.62512844  1
  Co  Co102  1  0.24832484  0.74695526  0.00289061  1
  Co  Co103  1  0.25235991  0.25192388  0.00129451  1
  Co  Co104  1  0.62048730  0.12242353  0.37882062  1
  Co  Co105  1  0.50126392  0.49742574  0.49908786  1
  Co  Co106  1  0.12630184  0.37495490  0.87611359  1
  Co  Co107  1  0.49797621  0.50086857  0.00236951  1
  Co  Co108  1  0.12817606  0.37809451  0.12690630  1
  Co  Co109  1  0.62373873  0.12133417  0.12351875  1
  Co  Co110  1  0.49644329  0.49937649  0.74925128  1
  Co  Co111  1  0.62875670  0.88121222  0.62382113  1
  Co  Co112  1  0.24685880  0.74735827  0.49880916  1
  Co  Co113  1  0.12403723  0.61884194  0.37122016  1
  Co  Co114  1  0.62612406  0.37615155  0.12420991  1
  Co  Co115  1  0.87445270  0.62634009  0.37477099  1
  Co  Co116  1  0.62027109  0.62638767  0.37608156  1
  Co  Co117  1  0.75676135  0.00511825  0.49935929  1
  Co  Co118  1  0.12316980  0.12737980  0.87924004  1
  Co  Co119  1  0.62439231  0.61925931  0.62641614  1
  Co  Co120  1  0.25811391  0.50073524  0.25123365  1
  Co  Co121  1  0.12428776  0.12161216  0.62140804  1
  Co  Co122  1  -0.00219207  0.25437707  0.00236470  1
  Co  Co123  1  0.00489221  0.25549824  0.49978195  1
  Co  Co124  1  0.49789438  -0.00197302  0.75070574  1
  Co  Co125  1  -0.00601933  0.49616851  0.25143371  1
  Co  Co126  1  0.50252963  0.75314970  0.50811623  1
  Co  Co127  1  0.37640887  0.12831704  0.87374201  1
