# generated using pymatgen
data_Fe45Co19
_symmetry_space_group_name_H-M   'P 1'
_cell_length_a   11.41397898
_cell_length_b   11.41512119
_cell_length_c   11.41417138
_cell_angle_alpha   89.99732933
_cell_angle_beta   89.99288473
_cell_angle_gamma   89.99979893
_symmetry_Int_Tables_number   1
_chemical_formula_structural   Fe45Co19
_chemical_formula_sum   'Fe90 Co38'
_cell_volume   1487.17467222
_cell_formula_units_Z   2
loop_
 _symmetry_equiv_pos_site_id
 _symmetry_equiv_pos_as_xyz
  1  'x, y, z'
loop_
 _atom_site_type_symbol
 _atom_site_label
 _atom_site_symmetry_multiplicity
 _atom_site_fract_x
 _atom_site_fract_y
 _atom_site_fract_z
 _atom_site_occupancy
  Fe  Fe0  1  0.37579372  0.37139505  0.37573186  1
  Fe  Fe1  1  0.37485531  0.37620794  0.12634294  1
  Fe  Fe2  1  0.50313855  0.49869907  0.25389740  1
  Fe  Fe3  1  0.50076925  0.24895083  0.74684529  1
  Fe  Fe4  1  0.37340225  0.88112287  0.62551370  1
  Fe  Fe5  1  -0.00590027  0.25249880  0.00305753  1
  Fe  Fe6  1  0.87142697  0.11973855  0.12559272  1
  Fe  Fe7  1  0.37540220  0.62263483  0.12573979  1
  Fe  Fe8  1  0.62319635  0.12860977  0.37497945  1
  Fe  Fe9  1  0.87020148  0.37295947  0.86923715  1
  Fe  Fe10  1  0.75133875  0.75206953  0.74762556  1
  Fe  Fe11  1  0.49888738  0.75050674  0.74676669  1
  Fe  Fe12  1  0.37390453  0.12603781  0.87397205  1
  Fe  Fe13  1  0.50559009  0.49976228  0.75260737  1
  Fe  Fe14  1  0.62880007  0.12855016  0.87747012  1
  Fe  Fe15  1  0.24609438  0.00139254  -0.00336162  1
  Fe  Fe16  1  0.62726049  0.87860189  0.12459450  1
  Fe  Fe17  1  0.74556276  0.50074988  0.25725923  1
  Fe  Fe18  1  0.00173895  0.00105905  -0.00301964  1
  Fe  Fe19  1  0.00093357  0.75000889  0.25020267  1
  Fe  Fe20  1  0.25074340  0.49742655  0.49962912  1
  Fe  Fe21  1  0.37317806  0.87816916  0.12467643  1
  Fe  Fe22  1  0.24766032  0.00642873  0.49741555  1
  Fe  Fe23  1  0.37667761  0.62533148  0.37582962  1
  Fe  Fe24  1  0.87839486  0.12114103  0.62502313  1
  Fe  Fe25  1  0.75258900  0.75074484  0.00068395  1
  Fe  Fe26  1  0.24931118  0.49967338  -0.00290694  1
  Fe  Fe27  1  0.24662524  0.00188883  0.25216706  1
  Fe  Fe28  1  0.50070138  0.00267323  0.00043651  1
  Fe  Fe29  1  0.25074204  0.74967184  -0.00048658  1
  Fe  Fe30  1  -0.00105238  0.24941213  0.74691548  1
  Fe  Fe31  1  0.12439648  0.62761398  0.87310178  1
  Fe  Fe32  1  0.49528771  0.24844966  0.50358229  1
  Fe  Fe33  1  0.75065585  0.75107723  0.25065665  1
  Fe  Fe34  1  0.75398239  0.24978221  0.50213262  1
  Fe  Fe35  1  0.50258956  0.49970690  -0.00333317  1
  Fe  Fe36  1  0.87501065  0.87827655  0.12534339  1
  Fe  Fe37  1  0.50337908  -0.00000429  0.75006772  1
  Fe  Fe38  1  0.75508107  0.74892282  0.50147839  1
  Fe  Fe39  1  0.49719774  0.75234796  0.50293487  1
  Fe  Fe40  1  0.24935190  0.74997946  0.50188400  1
  Fe  Fe41  1  0.62654176  0.37415208  0.12495806  1
  Fe  Fe42  1  0.24838139  0.49949114  0.25251294  1
  Fe  Fe43  1  0.62575014  0.62489938  0.12444645  1
  Fe  Fe44  1  0.12350643  0.87775606  0.62424713  1
  Fe  Fe45  1  0.37424701  0.87753215  0.37634352  1
  Fe  Fe46  1  0.75037816  0.00007723  0.74917739  1
  Fe  Fe47  1  0.50048833  0.24741213  0.00468452  1
  Fe  Fe48  1  0.24950998  0.74965542  0.25137931  1
  Fe  Fe49  1  0.12333523  0.62388830  0.12367242  1
  Fe  Fe50  1  0.49899313  0.75052096  0.24891658  1
  Fe  Fe51  1  0.12354600  0.87401232  0.12311955  1
  Fe  Fe52  1  -0.00516562  0.50110387  0.50078449  1
  Fe  Fe53  1  0.50374163  0.49866136  0.49723332  1
  Fe  Fe54  1  0.00259685  -0.00084274  0.49800483  1
  Fe  Fe55  1  0.75114971  0.24944994  0.24899832  1
  Fe  Fe56  1  0.12481094  0.37133853  0.87428143  1
  Fe  Fe57  1  0.87456738  0.62053155  0.12723775  1
  Fe  Fe58  1  0.37692062  0.37367165  0.87291492  1
  Fe  Fe59  1  0.62914216  0.37516825  0.62340456  1
  Fe  Fe60  1  0.87785700  0.12281558  0.37390275  1
  Fe  Fe61  1  0.24906218  0.24980195  0.25332823  1
  Fe  Fe62  1  0.24333203  0.00259858  0.75331686  1
  Fe  Fe63  1  0.25175994  0.25036043  0.00106033  1
  Fe  Fe64  1  0.12421615  0.37491370  0.62278826  1
  Fe  Fe65  1  0.12372828  0.12665233  0.12493384  1
  Fe  Fe66  1  0.62492122  0.12236806  0.62291460  1
  Fe  Fe67  1  0.37355714  0.87494194  0.87341026  1
  Fe  Fe68  1  0.37401470  0.62581428  0.87242697  1
  Fe  Fe69  1  0.12395381  0.37619436  0.12552421  1
  Fe  Fe70  1  0.87470601  0.62402049  0.87108984  1
  Fe  Fe71  1  -0.00165192  0.49805582  -0.00274746  1
  Fe  Fe72  1  0.12256393  0.62508803  0.37706375  1
  Fe  Fe73  1  0.87434377  0.12657334  0.87427948  1
  Fe  Fe74  1  0.37442198  0.62047369  0.62634696  1
  Fe  Fe75  1  0.50116020  0.00384672  0.24967828  1
  Fe  Fe76  1  -0.00192343  0.25191456  0.24847824  1
  Fe  Fe77  1  0.00003760  0.75150771  0.74597662  1
  Fe  Fe78  1  0.12458229  0.62212271  0.62649067  1
  Fe  Fe79  1  0.74916874  -0.00085531  0.49808719  1
  Fe  Fe80  1  0.87891398  0.87397073  0.37655619  1
  Fe  Fe81  1  -0.00138146  0.25121879  0.49984734  1
  Fe  Fe82  1  0.62368111  0.87227431  0.37725457  1
  Fe  Fe83  1  0.62839058  0.62549705  0.62282270  1
  Fe  Fe84  1  0.74801493  0.49813973  -0.00478072  1
  Fe  Fe85  1  0.62507994  0.87214214  0.87474836  1
  Fe  Fe86  1  0.49897140  0.75016456  0.00136797  1
  Fe  Fe87  1  0.87501024  0.37725871  0.37399172  1
  Fe  Fe88  1  0.87815755  0.87543277  0.87352522  1
  Fe  Fe89  1  0.25137884  0.25027301  0.74410334  1
  Co  Co90  1  0.37708486  0.37930171  0.62589023  1
  Co  Co91  1  -0.00394354  0.74790154  0.00148697  1
  Co  Co92  1  0.00321360  0.49974669  0.25173956  1
  Co  Co93  1  0.87277375  0.37681693  0.62777104  1
  Co  Co94  1  0.62687701  0.87448637  0.62389739  1
  Co  Co95  1  0.24830615  0.49746952  0.75173385  1
  Co  Co96  1  0.12279131  0.86963340  0.87550807  1
  Co  Co97  1  0.75053756  -0.00212412  -0.00504691  1
  Co  Co98  1  0.12349090  0.13260410  0.87612082  1
  Co  Co99  1  0.25257196  0.24823572  0.50247879  1
  Co  Co100  1  0.25001021  0.75068475  0.74607137  1
  Co  Co101  1  0.62554419  0.36786310  0.37779813  1
  Co  Co102  1  0.12140575  0.12820100  0.37450917  1
  Co  Co103  1  0.00248565  0.00128118  0.75363589  1
  Co  Co104  1  0.74513223  0.49969754  0.75070518  1
  Co  Co105  1  0.63183057  0.12243885  0.12429967  1
  Co  Co106  1  0.00192893  0.49721324  0.75134124  1
  Co  Co107  1  0.50036253  0.24767187  0.24456899  1
  Co  Co108  1  0.50249023  -0.00001282  0.49887862  1
  Co  Co109  1  0.75381438  0.25229663  0.00413021  1
  Co  Co110  1  0.62670812  0.36746135  0.87460379  1
  Co  Co111  1  0.00037947  0.74843559  0.50337157  1
  Co  Co112  1  0.12155999  0.12612662  0.62363490  1
  Co  Co113  1  0.87389545  0.62229624  0.62915516  1
  Co  Co114  1  0.37546398  0.11929281  0.62671459  1
  Co  Co115  1  0.37714086  0.12614505  0.37506809  1
  Co  Co116  1  0.12357524  0.37406203  0.37821963  1
  Co  Co117  1  0.62621551  0.63073460  0.87523337  1
  Co  Co118  1  0.37042420  0.12345087  0.12521472  1
  Co  Co119  1  0.00154764  -0.00123591  0.24970761  1
  Co  Co120  1  0.87701837  0.62615043  0.37296280  1
  Co  Co121  1  0.87728309  0.87943410  0.62383056  1
  Co  Co122  1  0.74985126  0.24542770  0.74420847  1
  Co  Co123  1  0.62418283  0.63056802  0.37797377  1
  Co  Co124  1  0.74931912  -0.00111338  0.25676298  1
  Co  Co125  1  0.87212547  0.38218019  0.12892889  1
  Co  Co126  1  0.75263151  0.50061742  0.49772853  1
  Co  Co127  1  0.12459973  0.87422909  0.37677160  1
