# generated using pymatgen
data_Fe45Co19
_symmetry_space_group_name_H-M   'P 1'
_cell_length_a   11.41488095
_cell_length_b   11.41548702
_cell_length_c   11.41462429
_cell_angle_alpha   90.00396385
_cell_angle_beta   90.01677463
_cell_angle_gamma   89.99701934
_symmetry_Int_Tables_number   1
_chemical_formula_structural   Fe45Co19
_chemical_formula_sum   'Fe90 Co38'
_cell_volume   1487.39881886
_cell_formula_units_Z   2
loop_
 _symmetry_equiv_pos_site_id
 _symmetry_equiv_pos_as_xyz
  1  'x, y, z'
loop_
 _atom_site_type_symbol
 _atom_site_label
 _atom_site_symmetry_multiplicity
 _atom_site_fract_x
 _atom_site_fract_y
 _atom_site_fract_z
 _atom_site_occupancy
  Fe  Fe0  1  0.87698088  0.87623708  0.87570570  1
  Fe  Fe1  1  0.75018655  -0.00112420  -0.00036768  1
  Fe  Fe2  1  0.24694840  -0.00079555  0.74744292  1
  Fe  Fe3  1  0.87360694  0.87506229  0.37457799  1
  Fe  Fe4  1  0.37621563  0.87993126  0.37454656  1
  Fe  Fe5  1  0.24699419  -0.00132794  0.00329815  1
  Fe  Fe6  1  -0.00022858  0.74891589  0.49782704  1
  Fe  Fe7  1  0.00311068  -0.00178818  0.00226723  1
  Fe  Fe8  1  0.50072872  -0.00055727  -0.00036531  1
  Fe  Fe9  1  0.37339381  0.87616624  0.87525085  1
  Fe  Fe10  1  0.12453929  0.37276061  0.12884729  1
  Fe  Fe11  1  0.12569378  0.62588088  0.87627186  1
  Fe  Fe12  1  0.87586204  0.37506861  0.12718372  1
  Fe  Fe13  1  0.00215378  0.50047177  0.00220960  1
  Fe  Fe14  1  0.49514717  0.25027979  0.75026893  1
  Fe  Fe15  1  0.37153314  0.12514453  0.61931162  1
  Fe  Fe16  1  0.87280910  0.62689471  0.12685901  1
  Fe  Fe17  1  0.75065039  0.00009756  0.74731786  1
  Fe  Fe18  1  0.75079200  0.50083052  0.00123113  1
  Fe  Fe19  1  0.00227454  0.00079001  0.74860270  1
  Fe  Fe20  1  0.49944988  0.50129186  0.24813836  1
  Fe  Fe21  1  0.87556742  0.12362059  0.12318157  1
  Fe  Fe22  1  0.00147567  0.00109212  0.24877913  1
  Fe  Fe23  1  0.75143298  0.50026102  0.74883275  1
  Fe  Fe24  1  0.25140559  0.24865323  0.25161534  1
  Fe  Fe25  1  0.50076695  0.49925897  0.49926465  1
  Fe  Fe26  1  0.62438467  0.62596686  0.87702739  1
  Fe  Fe27  1  0.50094414  0.24775833  0.25108769  1
  Fe  Fe28  1  0.37704355  0.12314190  0.12700025  1
  Fe  Fe29  1  0.75164364  0.24968737  0.00002844  1
  Fe  Fe30  1  0.87253769  0.62504781  0.37490329  1
  Fe  Fe31  1  0.62634022  0.87391303  0.37905435  1
  Fe  Fe32  1  0.37240174  0.62222145  0.37456870  1
  Fe  Fe33  1  0.49972787  -0.00051647  0.74825547  1
  Fe  Fe34  1  -0.00149284  0.24745652  0.25125332  1
  Fe  Fe35  1  0.49861361  0.25099753  0.49867874  1
  Fe  Fe36  1  0.37475500  0.12306727  0.87641677  1
  Fe  Fe37  1  0.74863030  -0.00082732  0.25023134  1
  Fe  Fe38  1  0.37502295  0.37555978  0.37264157  1
  Fe  Fe39  1  0.62752751  0.37614651  0.37274876  1
  Fe  Fe40  1  0.62445709  0.12615322  0.12398298  1
  Fe  Fe41  1  0.37303926  0.62335228  0.62209888  1
  Fe  Fe42  1  0.25088039  0.49839740  0.00431470  1
  Fe  Fe43  1  0.87295401  0.12607973  0.37753841  1
  Fe  Fe44  1  0.00190661  0.00059899  0.50008011  1
  Fe  Fe45  1  0.49833403  0.75021067  0.74948268  1
  Fe  Fe46  1  0.25211655  0.75286960  0.00345631  1
  Fe  Fe47  1  0.87490774  0.87397643  0.62221546  1
  Fe  Fe48  1  0.49721144  0.49843735  0.00202218  1
  Fe  Fe49  1  0.62454588  0.37477955  0.62536830  1
  Fe  Fe50  1  0.24827691  -0.00000602  0.24972776  1
  Fe  Fe51  1  -0.00039084  0.75149975  0.00310115  1
  Fe  Fe52  1  0.00199492  0.75065279  0.74918807  1
  Fe  Fe53  1  0.00132979  0.49841888  0.74795139  1
  Fe  Fe54  1  0.00016868  0.25048916  -0.00215856  1
  Fe  Fe55  1  0.24922517  0.75263720  0.49807487  1
  Fe  Fe56  1  0.12649075  0.13039737  0.62235354  1
  Fe  Fe57  1  0.12866499  0.37491826  0.87171401  1
  Fe  Fe58  1  0.62511056  0.12543312  0.62434054  1
  Fe  Fe59  1  0.12831396  0.62880532  0.13063460  1
  Fe  Fe60  1  0.12438244  0.62487820  0.62231336  1
  Fe  Fe61  1  0.00139462  0.50279067  0.25148173  1
  Fe  Fe62  1  0.87669206  0.62484812  0.87465365  1
  Fe  Fe63  1  0.62458757  0.62593210  0.62436774  1
  Fe  Fe64  1  0.50071463  0.00104093  0.49994188  1
  Fe  Fe65  1  0.12694686  0.12742725  0.37738299  1
  Fe  Fe66  1  0.12468491  0.12564465  0.87481194  1
  Fe  Fe67  1  0.25279540  0.25083171  0.00017783  1
  Fe  Fe68  1  0.37440470  0.87617653  0.62375597  1
  Fe  Fe69  1  0.87266002  0.37375188  0.37402480  1
  Fe  Fe70  1  0.49988589  0.74880056  0.49952470  1
  Fe  Fe71  1  0.62460035  0.12607170  0.87494589  1
  Fe  Fe72  1  0.49684407  0.50041884  0.75009482  1
  Fe  Fe73  1  0.62677620  0.12477546  0.37617623  1
  Fe  Fe74  1  0.75071460  0.74965639  0.74811777  1
  Fe  Fe75  1  0.62490927  0.62742406  0.12518584  1
  Fe  Fe76  1  0.62493978  0.87340327  0.87428599  1
  Fe  Fe77  1  0.12364399  0.87300281  0.37280439  1
  Fe  Fe78  1  0.62538081  0.37345960  0.12553945  1
  Fe  Fe79  1  0.24848066  0.74988742  0.74886039  1
  Fe  Fe80  1  0.62441234  0.87230091  0.12313338  1
  Fe  Fe81  1  0.62303797  0.37402371  0.87586903  1
  Fe  Fe82  1  0.37387612  0.62393233  0.87698887  1
  Fe  Fe83  1  0.74961909  0.50121761  0.50069624  1
  Fe  Fe84  1  0.00227635  0.49528573  0.50017417  1
  Fe  Fe85  1  0.87511612  0.37618119  0.87475511  1
  Fe  Fe86  1  0.24558189  0.49397972  0.49917688  1
  Fe  Fe87  1  0.49769386  0.75052858  0.25008931  1
  Fe  Fe88  1  0.75218511  0.24940704  0.75038655  1
  Fe  Fe89  1  0.87640574  0.12919369  0.62211713  1
  Co  Co90  1  0.87605821  0.12191768  0.87675694  1
  Co  Co91  1  0.25519265  0.24734168  0.75098655  1
  Co  Co92  1  0.49761000  0.25015689  -0.00035710  1
  Co  Co93  1  0.12486761  0.87461248  0.87636425  1
  Co  Co94  1  0.75261075  0.74945013  -0.00092009  1
  Co  Co95  1  0.25043133  0.25520342  0.49661824  1
  Co  Co96  1  0.12365145  0.37345755  0.36864699  1
  Co  Co97  1  0.12483039  0.12839963  0.12500256  1
  Co  Co98  1  0.75022042  0.00095020  0.50135321  1
  Co  Co99  1  -0.00215819  0.74800130  0.25118400  1
  Co  Co100  1  0.62413312  0.87424889  0.62280440  1
  Co  Co101  1  0.12361463  0.87356378  0.62290990  1
  Co  Co102  1  0.50445832  0.00008666  0.25080927  1
  Co  Co103  1  0.12449377  0.87200284  0.12937400  1
  Co  Co104  1  0.37507673  0.37254037  0.12847482  1
  Co  Co105  1  -0.00223324  0.24969573  0.75272790  1
  Co  Co106  1  0.74848672  0.75163913  0.25092944  1
  Co  Co107  1  0.87542241  0.87626861  0.12718142  1
  Co  Co108  1  0.74999313  0.50135205  0.24866749  1
  Co  Co109  1  0.49680737  0.75048619  -0.00029415  1
  Co  Co110  1  0.12751463  0.62571310  0.37498122  1
  Co  Co111  1  0.24926500  0.49918064  0.24930089  1
  Co  Co112  1  0.25519577  0.75254476  0.25229899  1
  Co  Co113  1  0.37377717  0.37752846  0.87448766  1
  Co  Co114  1  0.87427389  0.37290614  0.62381349  1
  Co  Co115  1  0.87741978  0.62408787  0.62456419  1
  Co  Co116  1  0.24990976  0.50360800  0.74854828  1
  Co  Co117  1  0.37404486  0.62493204  0.12666029  1
  Co  Co118  1  0.62401154  0.62488869  0.37326209  1
  Co  Co119  1  0.37643734  0.87957018  0.12612491  1
  Co  Co120  1  0.00242506  0.25391704  0.49804469  1
  Co  Co121  1  0.24701792  -0.00229920  0.49912514  1
  Co  Co122  1  0.74981018  0.74680479  0.50056135  1
  Co  Co123  1  0.37409743  0.37643129  0.62535398  1
  Co  Co124  1  0.37393908  0.12285982  0.37526246  1
  Co  Co125  1  0.74763687  0.25075940  0.49962429  1
  Co  Co126  1  0.12642491  0.37028782  0.63051819  1
  Co  Co127  1  0.75047888  0.24779329  0.24893141  1
