# generated using pymatgen
data_Fe45Co19
_symmetry_space_group_name_H-M   'P 1'
_cell_length_a   11.41492140
_cell_length_b   11.41469858
_cell_length_c   11.41389652
_cell_angle_alpha   90.00987650
_cell_angle_beta   89.99059215
_cell_angle_gamma   89.99598315
_symmetry_Int_Tables_number   1
_chemical_formula_structural   Fe45Co19
_chemical_formula_sum   'Fe90 Co38'
_cell_volume   1487.20655471
_cell_formula_units_Z   2
loop_
 _symmetry_equiv_pos_site_id
 _symmetry_equiv_pos_as_xyz
  1  'x, y, z'
loop_
 _atom_site_type_symbol
 _atom_site_label
 _atom_site_symmetry_multiplicity
 _atom_site_fract_x
 _atom_site_fract_y
 _atom_site_fract_z
 _atom_site_occupancy
  Fe  Fe0  1  0.37590473  0.12937923  0.87803825  1
  Fe  Fe1  1  0.49880071  0.00323313  0.00186603  1
  Fe  Fe2  1  0.62512495  0.87513320  0.62533564  1
  Fe  Fe3  1  0.24800558  0.75057757  -0.00019373  1
  Fe  Fe4  1  0.25192628  0.49758909  -0.00278588  1
  Fe  Fe5  1  0.00298466  0.25182046  0.50093079  1
  Fe  Fe6  1  0.12672591  0.12639069  0.37484852  1
  Fe  Fe7  1  0.25208624  0.49894113  0.24964623  1
  Fe  Fe8  1  0.74940421  0.50003515  0.49944578  1
  Fe  Fe9  1  0.25012896  0.25492711  0.75618980  1
  Fe  Fe10  1  0.62574682  0.62591362  0.87286159  1
  Fe  Fe11  1  0.12459721  0.87619499  0.37448616  1
  Fe  Fe12  1  0.37431571  0.12481183  0.62658605  1
  Fe  Fe13  1  0.12411992  0.62496038  0.12575161  1
  Fe  Fe14  1  0.62669200  0.87336698  0.37276107  1
  Fe  Fe15  1  0.12454072  0.87522803  0.62691669  1
  Fe  Fe16  1  0.62020989  0.37368437  0.87535250  1
  Fe  Fe17  1  0.24927972  0.25252447  0.24741444  1
  Fe  Fe18  1  0.49843380  0.74628174  0.25219080  1
  Fe  Fe19  1  0.24964477  0.75047657  0.50039815  1
  Fe  Fe20  1  0.87604411  0.87353352  0.12298302  1
  Fe  Fe21  1  0.37442324  0.37369128  0.37637136  1
  Fe  Fe22  1  0.74980327  -0.00064151  0.74952539  1
  Fe  Fe23  1  0.62454263  0.37665100  0.37191928  1
  Fe  Fe24  1  0.62405334  0.12520775  0.87084477  1
  Fe  Fe25  1  -0.00052453  0.25152466  0.75133001  1
  Fe  Fe26  1  -0.00101752  0.00155477  0.75038437  1
  Fe  Fe27  1  0.49665124  0.50289301  0.25108011  1
  Fe  Fe28  1  -0.00222017  0.50259807  -0.00042866  1
  Fe  Fe29  1  0.62403573  0.87670591  0.12616844  1
  Fe  Fe30  1  0.12903158  0.12126090  0.12044260  1
  Fe  Fe31  1  -0.00024000  -0.00003830  0.50151994  1
  Fe  Fe32  1  0.74829134  0.24981305  0.49804502  1
  Fe  Fe33  1  0.12427024  0.62281103  0.37282311  1
  Fe  Fe34  1  0.37819949  0.87357568  0.87497078  1
  Fe  Fe35  1  0.24903512  0.49851495  0.49959926  1
  Fe  Fe36  1  0.49945685  0.75034902  0.74732398  1
  Fe  Fe37  1  0.37467145  0.87407822  0.37578040  1
  Fe  Fe38  1  0.62821298  0.12136729  0.12965415  1
  Fe  Fe39  1  0.49922683  -0.00067608  0.50161821  1
  Fe  Fe40  1  -0.00059351  0.75066927  0.50003342  1
  Fe  Fe41  1  -0.00087694  0.49891935  0.50044666  1
  Fe  Fe42  1  0.12421156  0.62043001  0.87263635  1
  Fe  Fe43  1  0.37563237  0.87413444  0.12510026  1
  Fe  Fe44  1  0.87293676  0.62729987  0.62656955  1
  Fe  Fe45  1  0.12362021  0.87853311  0.87774281  1
  Fe  Fe46  1  0.37441527  0.37474724  0.62434495  1
  Fe  Fe47  1  0.25015351  0.00100843  0.50088847  1
  Fe  Fe48  1  0.25166308  -0.00064040  0.24890793  1
  Fe  Fe49  1  0.87664311  0.62771541  0.12493627  1
  Fe  Fe50  1  0.87668809  0.37347284  0.37389384  1
  Fe  Fe51  1  -0.00007931  -0.00034656  0.24751437  1
  Fe  Fe52  1  0.12498355  0.62349395  0.62797629  1
  Fe  Fe53  1  0.87540704  0.37559564  0.87569506  1
  Fe  Fe54  1  0.74840427  0.49903595  0.00038431  1
  Fe  Fe55  1  0.87235870  0.12713808  0.62502999  1
  Fe  Fe56  1  0.62533665  0.12265533  0.37358472  1
  Fe  Fe57  1  0.37984337  0.37355474  0.11837370  1
  Fe  Fe58  1  0.12536866  0.37698582  0.62801870  1
  Fe  Fe59  1  0.87363224  0.12500496  0.87614632  1
  Fe  Fe60  1  0.87220006  0.12610810  0.12472805  1
  Fe  Fe61  1  0.74881652  0.74959581  -0.00025199  1
  Fe  Fe62  1  0.62438364  0.62292141  0.12659458  1
  Fe  Fe63  1  0.37498918  0.12679061  0.37422686  1
  Fe  Fe64  1  0.50088430  0.24950678  0.50211500  1
  Fe  Fe65  1  0.37575926  0.62524772  0.87641452  1
  Fe  Fe66  1  0.75142933  0.49900120  0.75027818  1
  Fe  Fe67  1  0.62442589  0.62604214  0.62210332  1
  Fe  Fe68  1  0.87538976  0.12664411  0.37371970  1
  Fe  Fe69  1  0.49734518  0.49931369  0.75013695  1
  Fe  Fe70  1  0.87388220  0.87469976  0.87664301  1
  Fe  Fe71  1  0.74529934  0.25047302  0.00103744  1
  Fe  Fe72  1  0.25264847  -0.00117840  0.75289635  1
  Fe  Fe73  1  0.75180171  0.49977340  0.24914913  1
  Fe  Fe74  1  0.87413625  0.62744026  0.37303907  1
  Fe  Fe75  1  0.24981883  0.74857557  0.25005854  1
  Fe  Fe76  1  0.87452808  0.87244442  0.37330486  1
  Fe  Fe77  1  0.12268128  0.37752249  0.12409155  1
  Fe  Fe78  1  0.12700328  0.12599367  0.62772487  1
  Fe  Fe79  1  0.62678590  0.37239403  0.62698889  1
  Fe  Fe80  1  0.62319143  0.87516537  0.87499932  1
  Fe  Fe81  1  -0.00197937  0.74864829  0.75317951  1
  Fe  Fe82  1  0.00249147  0.25009437  0.24890455  1
  Fe  Fe83  1  0.37656249  0.62537041  0.62068944  1
  Fe  Fe84  1  0.87478646  0.37263130  0.12476463  1
  Fe  Fe85  1  0.75169311  -0.00156713  0.50028126  1
  Fe  Fe86  1  0.25103140  0.74965058  0.75000159  1
  Fe  Fe87  1  0.00402086  0.24853162  -0.00241871  1
  Fe  Fe88  1  0.50070003  0.74675655  0.00168613  1
  Fe  Fe89  1  0.50112679  0.24850673  0.24720739  1
  Co  Co90  1  0.74799628  0.00039716  -0.00061646  1
  Co  Co91  1  0.62775938  0.12486439  0.62586377  1
  Co  Co92  1  0.74928007  0.75166528  0.75020266  1
  Co  Co93  1  0.38254573  0.37200021  0.88128866  1
  Co  Co94  1  0.50184214  0.50471364  -0.00153599  1
  Co  Co95  1  0.00180813  0.74853495  -0.00306332  1
  Co  Co96  1  0.87250244  0.37272100  0.62344265  1
  Co  Co97  1  0.62511621  0.62476779  0.37598731  1
  Co  Co98  1  0.24510865  0.25451078  -0.00259697  1
  Co  Co99  1  0.37368462  0.87490245  0.62482428  1
  Co  Co100  1  0.87205690  0.62451569  0.87541606  1
  Co  Co101  1  0.49850144  0.25035133  0.74658631  1
  Co  Co102  1  0.50064637  0.75313042  0.49879867  1
  Co  Co103  1  0.12591639  0.87664615  0.12268522  1
  Co  Co104  1  0.62217138  0.37862926  0.12645787  1
  Co  Co105  1  0.24984884  0.24983197  0.50094653  1
  Co  Co106  1  0.49822912  0.00009434  0.25009765  1
  Co  Co107  1  0.75068491  0.75077488  0.50096795  1
  Co  Co108  1  0.87613031  0.87443031  0.62743544  1
  Co  Co109  1  0.50167938  0.49566843  0.50034717  1
  Co  Co110  1  0.50684370  0.24409962  0.00509641  1
  Co  Co111  1  0.75108583  0.25098162  0.75254203  1
  Co  Co112  1  0.74873873  0.74916323  0.24736119  1
  Co  Co113  1  0.37147042  0.12716481  0.12403899  1
  Co  Co114  1  0.37290179  0.62506694  0.12236347  1
  Co  Co115  1  0.25549414  -0.00214708  -0.00189058  1
  Co  Co116  1  0.00244877  0.75161252  0.24927444  1
  Co  Co117  1  0.74858623  0.25127722  0.25039972  1
  Co  Co118  1  0.49921675  0.00019217  0.74974251  1
  Co  Co119  1  0.75341899  -0.00186552  0.25056851  1
  Co  Co120  1  0.12534575  0.37539098  0.37498748  1
  Co  Co121  1  -0.00212136  0.00189981  0.00130713  1
  Co  Co122  1  -0.00186605  0.49912702  0.25035081  1
  Co  Co123  1  0.37481301  0.62387930  0.37988724  1
  Co  Co124  1  0.12071321  0.38133500  0.87277765  1
  Co  Co125  1  0.12642245  0.12203538  0.87592442  1
  Co  Co126  1  0.25660767  0.49873343  0.75176458  1
  Co  Co127  1  -0.00583054  0.50015382  0.74745453  1
