# generated using pymatgen
data_Fe45Co19
_symmetry_space_group_name_H-M   'P 1'
_cell_length_a   11.41418580
_cell_length_b   11.41620761
_cell_length_c   11.41552248
_cell_angle_alpha   90.00129347
_cell_angle_beta   89.99978306
_cell_angle_gamma   90.00604986
_symmetry_Int_Tables_number   1
_chemical_formula_structural   Fe45Co19
_chemical_formula_sum   'Fe90 Co38'
_cell_volume   1487.51922327
_cell_formula_units_Z   2
loop_
 _symmetry_equiv_pos_site_id
 _symmetry_equiv_pos_as_xyz
  1  'x, y, z'
loop_
 _atom_site_type_symbol
 _atom_site_label
 _atom_site_symmetry_multiplicity
 _atom_site_fract_x
 _atom_site_fract_y
 _atom_site_fract_z
 _atom_site_occupancy
  Fe  Fe0  1  0.62411884  0.37562008  0.37657913  1
  Fe  Fe1  1  0.37486549  0.62432864  0.87399871  1
  Fe  Fe2  1  0.62374251  0.87461370  0.87624401  1
  Fe  Fe3  1  0.37672320  0.37544805  0.62243113  1
  Fe  Fe4  1  0.74966522  0.25064568  -0.00185215  1
  Fe  Fe5  1  0.12481990  0.62517622  0.87160852  1
  Fe  Fe6  1  0.00017657  0.49889602  0.24710917  1
  Fe  Fe7  1  0.24932774  -0.00133358  0.24805245  1
  Fe  Fe8  1  0.75054183  0.49986838  0.24880723  1
  Fe  Fe9  1  0.87463896  0.62167727  0.87523184  1
  Fe  Fe10  1  0.87405043  0.87391258  0.12392836  1
  Fe  Fe11  1  0.50011205  0.50087993  0.24934147  1
  Fe  Fe12  1  0.12573611  0.62600852  0.37351962  1
  Fe  Fe13  1  0.87902439  0.37480836  0.62398571  1
  Fe  Fe14  1  0.75302134  0.25108351  0.49826408  1
  Fe  Fe15  1  0.62749400  0.62856661  0.12375234  1
  Fe  Fe16  1  0.24711924  0.49770223  0.74678213  1
  Fe  Fe17  1  0.37745823  0.87677027  0.87411754  1
  Fe  Fe18  1  0.87192531  0.12366746  0.62646936  1
  Fe  Fe19  1  0.86976060  0.12327049  0.87364216  1
  Fe  Fe20  1  0.00286450  0.50150664  0.00087599  1
  Fe  Fe21  1  0.62239920  0.37099806  0.62460414  1
  Fe  Fe22  1  0.25084553  0.75232252  0.74960608  1
  Fe  Fe23  1  0.12177562  0.87295808  0.62639712  1
  Fe  Fe24  1  0.87572830  0.62285053  0.37431757  1
  Fe  Fe25  1  0.12337859  0.87495988  0.37507940  1
  Fe  Fe26  1  -0.00054840  -0.00084456  0.75008758  1
  Fe  Fe27  1  0.50451105  0.00357611  0.50288390  1
  Fe  Fe28  1  0.24791669  0.24915763  0.50315064  1
  Fe  Fe29  1  0.50109126  0.00441482  -0.00008109  1
  Fe  Fe30  1  -0.00190829  0.74931859  0.24868648  1
  Fe  Fe31  1  0.62470135  0.87314858  0.37572783  1
  Fe  Fe32  1  0.24804174  -0.00019103  0.50375490  1
  Fe  Fe33  1  0.74960961  -0.00220492  0.24985556  1
  Fe  Fe34  1  0.37548549  0.37718269  0.37912333  1
  Fe  Fe35  1  0.75173079  0.75288287  0.75282787  1
  Fe  Fe36  1  0.00347049  0.50312984  0.50219248  1
  Fe  Fe37  1  0.37672556  0.87623620  0.37682235  1
  Fe  Fe38  1  0.62546757  0.87084371  0.12386418  1
  Fe  Fe39  1  0.37450986  0.62350353  0.62486948  1
  Fe  Fe40  1  0.37371700  0.12329440  0.37494005  1
  Fe  Fe41  1  0.37436822  0.62294951  0.37603080  1
  Fe  Fe42  1  0.37208272  0.12522885  0.87354400  1
  Fe  Fe43  1  0.12741747  0.12458525  0.12560639  1
  Fe  Fe44  1  0.37383078  0.37372165  0.87681195  1
  Fe  Fe45  1  0.37611227  0.87543700  0.12372351  1
  Fe  Fe46  1  0.74993863  0.50001524  0.50212211  1
  Fe  Fe47  1  0.12475398  0.12553490  0.37548878  1
  Fe  Fe48  1  0.37349947  0.37414242  0.12113118  1
  Fe  Fe49  1  0.62635822  0.62704144  0.62760374  1
  Fe  Fe50  1  0.12649654  0.87753227  0.87581589  1
  Fe  Fe51  1  0.62383916  0.37200270  0.87440678  1
  Fe  Fe52  1  0.24810057  0.74904707  0.50168310  1
  Fe  Fe53  1  0.50604404  0.00335371  0.74779609  1
  Fe  Fe54  1  0.75338876  0.75069219  0.49789618  1
  Fe  Fe55  1  0.87855342  0.62671108  0.62883574  1
  Fe  Fe56  1  0.25052163  0.75221388  0.24915104  1
  Fe  Fe57  1  -0.00174071  0.25183649  0.25018531  1
  Fe  Fe58  1  0.62515986  0.62556446  0.37384965  1
  Fe  Fe59  1  0.87490431  0.87510798  0.62382758  1
  Fe  Fe60  1  0.49746029  0.25063491  0.25079664  1
  Fe  Fe61  1  0.62479511  0.37371434  0.12384022  1
  Fe  Fe62  1  -0.00019378  0.24962259  0.75085653  1
  Fe  Fe63  1  0.37462939  0.12571734  0.62711229  1
  Fe  Fe64  1  0.62619264  0.12672269  0.37521871  1
  Fe  Fe65  1  0.50090509  0.50084184  -0.00011110  1
  Fe  Fe66  1  -0.00008560  0.00123287  0.50044411  1
  Fe  Fe67  1  -0.00019416  0.74859682  -0.00037815  1
  Fe  Fe68  1  0.24947907  0.75031587  -0.00002448  1
  Fe  Fe69  1  0.87256207  0.87930603  0.87720564  1
  Fe  Fe70  1  0.24811591  0.49768832  0.24925212  1
  Fe  Fe71  1  0.49973495  0.74691649  0.50035841  1
  Fe  Fe72  1  0.25029869  0.25094811  0.24878562  1
  Fe  Fe73  1  0.87502189  0.37658742  0.12110209  1
  Fe  Fe74  1  0.37910532  0.87480389  0.62568823  1
  Fe  Fe75  1  0.75286733  0.25309299  0.25135889  1
  Fe  Fe76  1  0.50026431  0.49976921  0.74927649  1
  Fe  Fe77  1  0.00001723  -0.00015509  0.24842315  1
  Fe  Fe78  1  0.00080484  0.00179204  0.00099146  1
  Fe  Fe79  1  0.12295509  0.37337616  0.37779588  1
  Fe  Fe80  1  0.00223884  0.24730251  -0.00109327  1
  Fe  Fe81  1  0.50053543  0.00017510  0.24942592  1
  Fe  Fe82  1  0.37337496  0.62462364  0.12420083  1
  Fe  Fe83  1  0.12957286  0.12239696  0.87133951  1
  Fe  Fe84  1  0.12584667  0.37438320  0.87530328  1
  Fe  Fe85  1  0.62523165  0.62573793  0.87397244  1
  Fe  Fe86  1  0.87312176  0.12566834  0.12417542  1
  Fe  Fe87  1  0.87436958  0.12292586  0.37442219  1
  Fe  Fe88  1  0.75222657  0.49562248  0.75123341  1
  Fe  Fe89  1  0.62515494  0.12734378  0.12518445  1
  Co  Co90  1  0.62520413  0.87058204  0.62345188  1
  Co  Co91  1  0.24793890  0.50117562  -0.00085983  1
  Co  Co92  1  0.74785482  0.00065290  0.00245123  1
  Co  Co93  1  0.75366568  0.25493020  0.75123164  1
  Co  Co94  1  0.49851794  0.74798756  -0.00077029  1
  Co  Co95  1  0.74557696  -0.00308770  0.74780034  1
  Co  Co96  1  0.87293848  0.62355041  0.12286252  1
  Co  Co97  1  0.12346563  0.87489108  0.12347853  1
  Co  Co98  1  0.24952144  0.25296942  0.74753655  1
  Co  Co99  1  0.50268668  0.50254934  0.50046320  1
  Co  Co100  1  0.74770268  -0.00060817  0.50016370  1
  Co  Co101  1  0.12474799  0.37414399  0.12330746  1
  Co  Co102  1  0.12648223  0.62571873  0.12627649  1
  Co  Co103  1  0.12086336  0.37337201  0.62379921  1
  Co  Co104  1  0.87755218  0.37505624  0.87933897  1
  Co  Co105  1  0.87665845  0.87755451  0.37455306  1
  Co  Co106  1  0.25046419  -0.00311196  0.74694651  1
  Co  Co107  1  0.49993924  0.24756822  -0.00101596  1
  Co  Co108  1  0.62972870  0.12715560  0.87324370  1
  Co  Co109  1  0.25107910  0.00022350  0.00168830  1
  Co  Co110  1  -0.00065947  0.74904000  0.49784084  1
  Co  Co111  1  0.49803123  0.24826152  0.75136678  1
  Co  Co112  1  0.12361281  0.12407951  0.62778757  1
  Co  Co113  1  0.37429882  0.12571767  0.12593715  1
  Co  Co114  1  0.49791928  0.74917346  0.25049908  1
  Co  Co115  1  0.87687666  0.37905773  0.37692564  1
  Co  Co116  1  0.00017217  0.49702529  0.75097238  1
  Co  Co117  1  0.62994356  0.13148969  0.62610990  1
  Co  Co118  1  0.75290263  0.75007794  0.25211739  1
  Co  Co119  1  0.12195801  0.62892615  0.63010368  1
  Co  Co120  1  0.49872499  0.24709307  0.49871478  1
  Co  Co121  1  0.24486656  0.50125648  0.50248160  1
  Co  Co122  1  0.24850410  0.24728137  -0.00015381  1
  Co  Co123  1  -0.00242946  0.75368246  0.75520817  1
  Co  Co124  1  0.75164342  0.74972450  -0.00289265  1
  Co  Co125  1  0.74713117  0.49891431  -0.00215464  1
  Co  Co126  1  -0.00193007  0.24613567  0.50002857  1
  Co  Co127  1  0.49997105  0.74871225  0.74989499  1
