# generated using pymatgen
data_Fe45Co19
_symmetry_space_group_name_H-M   'P 1'
_cell_length_a   11.41507058
_cell_length_b   11.41420026
_cell_length_c   11.41545676
_cell_angle_alpha   90.01294591
_cell_angle_beta   90.00264013
_cell_angle_gamma   89.99002075
_symmetry_Int_Tables_number   1
_chemical_formula_structural   Fe45Co19
_chemical_formula_sum   'Fe90 Co38'
_cell_volume   1487.36433648
_cell_formula_units_Z   2
loop_
 _symmetry_equiv_pos_site_id
 _symmetry_equiv_pos_as_xyz
  1  'x, y, z'
loop_
 _atom_site_type_symbol
 _atom_site_label
 _atom_site_symmetry_multiplicity
 _atom_site_fract_x
 _atom_site_fract_y
 _atom_site_fract_z
 _atom_site_occupancy
  Fe  Fe0  1  0.87716613  0.37676849  0.12302820  1
  Fe  Fe1  1  0.62846186  0.12724133  0.62381431  1
  Fe  Fe2  1  0.50223459  0.00198385  0.74836772  1
  Fe  Fe3  1  0.12161325  0.62306497  0.87328070  1
  Fe  Fe4  1  -0.00363808  0.74634625  0.74898961  1
  Fe  Fe5  1  0.11817761  0.37791974  0.87493994  1
  Fe  Fe6  1  0.74971254  0.74986151  0.49786267  1
  Fe  Fe7  1  0.12220587  0.87266599  0.37478307  1
  Fe  Fe8  1  0.12713262  0.12516633  0.37894216  1
  Fe  Fe9  1  0.75213940  0.74741129  0.75261401  1
  Fe  Fe10  1  0.50271662  0.24998133  0.74968069  1
  Fe  Fe11  1  0.37462238  0.37906105  0.62732869  1
  Fe  Fe12  1  0.25085282  -0.00070500  0.25225138  1
  Fe  Fe13  1  0.25236842  0.74871650  0.75413583  1
  Fe  Fe14  1  0.74945035  0.00043699  0.74972752  1
  Fe  Fe15  1  0.62581808  0.12556691  0.37451437  1
  Fe  Fe16  1  0.62907039  0.37649559  0.87198795  1
  Fe  Fe17  1  0.37328547  0.12614230  0.12392973  1
  Fe  Fe18  1  0.87384251  0.87333147  0.62462323  1
  Fe  Fe19  1  0.12494191  0.37681024  0.62530477  1
  Fe  Fe20  1  0.75066336  -0.00513716  0.24809115  1
  Fe  Fe21  1  0.74852819  -0.00224106  0.49952463  1
  Fe  Fe22  1  -0.00439910  0.25218394  0.74914470  1
  Fe  Fe23  1  0.50295322  0.49979106  0.00083649  1
  Fe  Fe24  1  0.87437198  0.12416401  0.37460952  1
  Fe  Fe25  1  0.37792432  0.87174284  0.37618607  1
  Fe  Fe26  1  0.75017855  -0.00294978  0.00214971  1
  Fe  Fe27  1  0.87434448  0.12560309  0.87470996  1
  Fe  Fe28  1  -0.00111712  0.00224391  0.00199080  1
  Fe  Fe29  1  0.75141875  0.25200517  -0.00155906  1
  Fe  Fe30  1  0.62995844  0.62801393  0.12646888  1
  Fe  Fe31  1  -0.00077806  0.00032709  0.24795289  1
  Fe  Fe32  1  0.12655423  0.62505550  0.12582561  1
  Fe  Fe33  1  -0.00179425  0.24964363  0.50102848  1
  Fe  Fe34  1  0.86923633  0.37777433  0.62236290  1
  Fe  Fe35  1  0.24846638  0.49958344  -0.00245249  1
  Fe  Fe36  1  0.12558955  0.62480557  0.62654986  1
  Fe  Fe37  1  0.87049001  0.62569522  0.12677545  1
  Fe  Fe38  1  0.24899042  -0.00367563  0.75192536  1
  Fe  Fe39  1  0.50232918  0.00143451  0.00105032  1
  Fe  Fe40  1  0.37675327  0.87264404  0.62610059  1
  Fe  Fe41  1  0.50049820  0.50163421  0.25001887  1
  Fe  Fe42  1  0.37671952  0.37941702  0.87287015  1
  Fe  Fe43  1  0.12237842  0.37592745  0.37601669  1
  Fe  Fe44  1  0.37579029  0.12456050  0.87391279  1
  Fe  Fe45  1  0.50130953  0.25030220  -0.00183901  1
  Fe  Fe46  1  0.75164524  0.25504079  0.25451388  1
  Fe  Fe47  1  0.62861393  0.12670476  0.12597592  1
  Fe  Fe48  1  0.49982814  0.00029628  0.24877508  1
  Fe  Fe49  1  0.37575109  0.87472974  0.12334892  1
  Fe  Fe50  1  0.49766865  0.24971293  0.25303859  1
  Fe  Fe51  1  0.62556326  0.37431339  0.12720493  1
  Fe  Fe52  1  0.12332886  0.37391610  0.12412083  1
  Fe  Fe53  1  0.12294544  0.87304364  0.62748226  1
  Fe  Fe54  1  0.24957611  0.50008694  0.25139157  1
  Fe  Fe55  1  0.12620852  0.12676977  0.12477126  1
  Fe  Fe56  1  0.87775805  0.87491184  0.87531193  1
  Fe  Fe57  1  -0.00176364  0.74685801  0.00134845  1
  Fe  Fe58  1  0.62971342  0.37612971  0.62230600  1
  Fe  Fe59  1  0.87868004  0.87271801  0.37522001  1
  Fe  Fe60  1  0.62161712  0.87148838  0.37430582  1
  Fe  Fe61  1  0.49920056  0.50321815  0.49978022  1
  Fe  Fe62  1  0.25154825  0.50063689  0.49932283  1
  Fe  Fe63  1  0.12312781  0.62562713  0.37439961  1
  Fe  Fe64  1  0.00112718  -0.00144632  0.50230988  1
  Fe  Fe65  1  0.25092796  0.74934765  0.50089514  1
  Fe  Fe66  1  0.49813389  0.25083007  0.49872189  1
  Fe  Fe67  1  0.12707177  0.12470211  0.62433720  1
  Fe  Fe68  1  0.49934277  0.74602711  0.74970348  1
  Fe  Fe69  1  0.50035017  0.74916887  0.00036206  1
  Fe  Fe70  1  0.24934970  0.25157894  -0.00315351  1
  Fe  Fe71  1  0.62415415  0.62660469  0.37186980  1
  Fe  Fe72  1  0.25122998  0.75082346  -0.00474006  1
  Fe  Fe73  1  0.50170492  -0.00206338  0.50219472  1
  Fe  Fe74  1  -0.00196308  0.50294616  0.50174349  1
  Fe  Fe75  1  0.62347379  0.87547955  0.87376094  1
  Fe  Fe76  1  0.24887459  -0.00221860  -0.00398943  1
  Fe  Fe77  1  0.37151395  0.12466051  0.62243305  1
  Fe  Fe78  1  0.87624532  0.62534479  0.37245929  1
  Fe  Fe79  1  0.25079841  0.75037730  0.25001209  1
  Fe  Fe80  1  0.12222998  0.12481928  0.87252319  1
  Fe  Fe81  1  0.24930893  0.25270630  0.75031462  1
  Fe  Fe82  1  0.62831674  0.62498366  0.62448184  1
  Fe  Fe83  1  0.12339624  0.87418851  0.12367912  1
  Fe  Fe84  1  0.37430766  0.37526625  0.12531057  1
  Fe  Fe85  1  0.87282748  0.12421012  0.62385869  1
  Fe  Fe86  1  -0.00146631  0.25026140  0.25056926  1
  Fe  Fe87  1  0.25183507  0.25020048  0.25418575  1
  Fe  Fe88  1  0.37366329  0.62394045  0.12351382  1
  Fe  Fe89  1  0.62692190  0.62363640  0.87646698  1
  Co  Co90  1  0.87485717  0.62057482  0.87792839  1
  Co  Co91  1  0.00020049  0.74875309  0.50177148  1
  Co  Co92  1  0.24869625  -0.00585278  0.50061413  1
  Co  Co93  1  0.87751249  0.87208684  0.12412278  1
  Co  Co94  1  0.74834514  0.49941156  0.00164372  1
  Co  Co95  1  0.37516419  0.62688820  0.37471031  1
  Co  Co96  1  0.38007082  0.87541140  0.87438379  1
  Co  Co97  1  0.00076385  0.74831921  0.24735586  1
  Co  Co98  1  0.50548547  0.50074220  0.74890878  1
  Co  Co99  1  0.37589536  0.37853788  0.37402993  1
  Co  Co100  1  0.87770621  0.37770055  0.37824420  1
  Co  Co101  1  0.75078280  0.75420188  0.25150967  1
  Co  Co102  1  0.87601894  0.37950008  0.87710715  1
  Co  Co103  1  0.50062417  0.74722572  0.50354162  1
  Co  Co104  1  0.62403889  0.87272393  0.12408803  1
  Co  Co105  1  0.37341759  0.62266349  0.62739746  1
  Co  Co106  1  0.25138072  0.25424585  0.49999206  1
  Co  Co107  1  -0.00042582  0.50081533  0.24768491  1
  Co  Co108  1  0.75208654  0.50271692  0.74965628  1
  Co  Co109  1  0.62731616  0.12454199  0.87636342  1
  Co  Co110  1  0.75052461  0.24905016  0.49606900  1
  Co  Co111  1  0.62284922  0.37632888  0.37813228  1
  Co  Co112  1  0.87146678  0.12703560  0.12686937  1
  Co  Co113  1  0.87208971  0.62579908  0.62220883  1
  Co  Co114  1  -0.00482084  0.50079110  0.74590159  1
  Co  Co115  1  0.49886767  0.74831841  0.24607356  1
  Co  Co116  1  0.75061905  0.75236981  -0.00257751  1
  Co  Co117  1  -0.00122065  0.24740729  -0.00065749  1
  Co  Co118  1  0.11888699  0.87303018  0.87477763  1
  Co  Co119  1  0.75132408  0.25040344  0.75109013  1
  Co  Co120  1  0.37416592  0.12246170  0.37941325  1
  Co  Co121  1  0.24738919  0.50089937  0.75275150  1
  Co  Co122  1  0.75002456  0.49707140  0.25156730  1
  Co  Co123  1  0.37759223  0.62041717  0.87529853  1
  Co  Co124  1  0.74970156  0.50407932  0.49543664  1
  Co  Co125  1  0.62711096  0.87152625  0.62768006  1
  Co  Co126  1  -0.00105925  0.00061211  0.74764200  1
  Co  Co127  1  0.00033068  0.50379620  0.00446948  1
