# generated using pymatgen
data_Fe45Co19
_symmetry_space_group_name_H-M   'P 1'
_cell_length_a   11.41608725
_cell_length_b   11.41456163
_cell_length_c   11.41480088
_cell_angle_alpha   89.99390763
_cell_angle_beta   90.00055663
_cell_angle_gamma   89.99620538
_symmetry_Int_Tables_number   1
_chemical_formula_structural   Fe45Co19
_chemical_formula_sum   'Fe90 Co38'
_cell_volume   1487.45848415
_cell_formula_units_Z   2
loop_
 _symmetry_equiv_pos_site_id
 _symmetry_equiv_pos_as_xyz
  1  'x, y, z'
loop_
 _atom_site_type_symbol
 _atom_site_label
 _atom_site_symmetry_multiplicity
 _atom_site_fract_x
 _atom_site_fract_y
 _atom_site_fract_z
 _atom_site_occupancy
  Fe  Fe0  1  0.12451664  0.37555276  0.12649896  1
  Fe  Fe1  1  0.00102664  0.25040635  0.74983963  1
  Fe  Fe2  1  0.37625590  0.37399701  0.37516317  1
  Fe  Fe3  1  0.25086020  0.50153915  0.25162054  1
  Fe  Fe4  1  0.24908010  0.25006294  0.50123058  1
  Fe  Fe5  1  0.50229257  0.24602246  0.50119348  1
  Fe  Fe6  1  0.87521328  0.12487445  0.12583490  1
  Fe  Fe7  1  0.12337936  0.62623144  0.62230696  1
  Fe  Fe8  1  0.25050007  -0.00560703  0.24768676  1
  Fe  Fe9  1  0.62189427  0.87852198  0.62215977  1
  Fe  Fe10  1  0.62538780  0.62336300  0.37949330  1
  Fe  Fe11  1  0.12657661  0.37779653  0.87439142  1
  Fe  Fe12  1  0.75016351  0.00050525  0.49781919  1
  Fe  Fe13  1  0.62320145  0.87601321  0.87654062  1
  Fe  Fe14  1  0.25110499  0.50156123  0.74883507  1
  Fe  Fe15  1  0.37681822  0.12759234  0.86947046  1
  Fe  Fe16  1  0.49626997  -0.00044994  -0.00008355  1
  Fe  Fe17  1  0.87248152  0.12452028  0.87480571  1
  Fe  Fe18  1  0.87523548  0.87308955  0.37687334  1
  Fe  Fe19  1  0.25434294  -0.00255614  0.74863215  1
  Fe  Fe20  1  0.62252638  0.87842134  0.12665981  1
  Fe  Fe21  1  0.50150329  0.50016097  0.74948435  1
  Fe  Fe22  1  0.37505940  0.62798356  0.87494255  1
  Fe  Fe23  1  -0.00391150  0.50512673  0.49565317  1
  Fe  Fe24  1  0.12686335  0.12311368  0.87330021  1
  Fe  Fe25  1  0.50200146  0.24873280  0.00084610  1
  Fe  Fe26  1  0.75131929  -0.00066618  0.00101066  1
  Fe  Fe27  1  0.87262681  0.37542809  0.87781375  1
  Fe  Fe28  1  0.25248790  -0.00396004  0.00128583  1
  Fe  Fe29  1  0.87335706  0.12590735  0.37398987  1
  Fe  Fe30  1  -0.00043057  -0.00212959  0.74973878  1
  Fe  Fe31  1  0.25196163  0.50068278  0.00047706  1
  Fe  Fe32  1  0.87394042  0.12373121  0.62559868  1
  Fe  Fe33  1  0.25566557  -0.00284412  0.50186142  1
  Fe  Fe34  1  -0.00024196  0.25222985  0.25069777  1
  Fe  Fe35  1  0.37624516  0.37114473  0.62673345  1
  Fe  Fe36  1  -0.00060409  -0.00059511  -0.00126050  1
  Fe  Fe37  1  0.37996172  0.62662587  0.62101219  1
  Fe  Fe38  1  0.24985305  0.25052391  -0.00122433  1
  Fe  Fe39  1  0.87698258  0.87270769  0.12509707  1
  Fe  Fe40  1  0.50224680  0.75024821  0.74901648  1
  Fe  Fe41  1  0.74812600  -0.00095100  0.75120257  1
  Fe  Fe42  1  0.25438688  0.50204378  0.49894849  1
  Fe  Fe43  1  0.49996625  0.50161314  0.25201414  1
  Fe  Fe44  1  0.00100906  0.24879128  -0.00096639  1
  Fe  Fe45  1  0.62620882  0.62243789  0.12428622  1
  Fe  Fe46  1  0.12615248  0.87309532  0.87430597  1
  Fe  Fe47  1  0.37811023  0.86847268  0.37115412  1
  Fe  Fe48  1  0.87512062  0.37554857  0.62481662  1
  Fe  Fe49  1  0.50068721  0.24812673  0.24976127  1
  Fe  Fe50  1  0.25016354  0.74948064  0.74669207  1
  Fe  Fe51  1  0.12395274  0.37736386  0.37561200  1
  Fe  Fe52  1  0.74761852  0.75042161  0.75081992  1
  Fe  Fe53  1  0.00000980  0.50344163  0.75183002  1
  Fe  Fe54  1  0.37202872  0.12519934  0.12658812  1
  Fe  Fe55  1  0.12492447  0.87288610  0.37824867  1
  Fe  Fe56  1  -0.00079889  -0.00178554  0.25167420  1
  Fe  Fe57  1  0.49885433  0.50168926  0.00050124  1
  Fe  Fe58  1  0.37565652  0.37423211  0.12686021  1
  Fe  Fe59  1  0.74626992  0.24896879  0.75087161  1
  Fe  Fe60  1  0.62118681  0.88065974  0.37372151  1
  Fe  Fe61  1  0.00162970  0.74759671  0.25406858  1
  Fe  Fe62  1  0.74977597  0.74907968  -0.00144555  1
  Fe  Fe63  1  0.74882783  0.24834354  0.50127188  1
  Fe  Fe64  1  -0.00139060  0.74895284  -0.00498144  1
  Fe  Fe65  1  0.12333427  0.37744066  0.62282766  1
  Fe  Fe66  1  0.74768379  0.50298375  0.75132352  1
  Fe  Fe67  1  0.75088794  0.25342556  0.24676255  1
  Fe  Fe68  1  0.12292084  0.87350921  0.62189104  1
  Fe  Fe69  1  0.75113009  0.50079959  0.49992874  1
  Fe  Fe70  1  0.62532446  0.37715840  0.62334552  1
  Fe  Fe71  1  0.12694627  0.12264848  0.62479439  1
  Fe  Fe72  1  -0.00050836  0.50271811  -0.00117746  1
  Fe  Fe73  1  0.12714547  0.12281299  0.37428631  1
  Fe  Fe74  1  0.50053957  0.74986250  0.00217155  1
  Fe  Fe75  1  0.37287008  0.12606124  0.37386400  1
  Fe  Fe76  1  0.00036749  0.24761865  0.50018063  1
  Fe  Fe77  1  0.87437226  0.62454883  0.12753768  1
  Fe  Fe78  1  0.12408720  0.62515908  0.12615233  1
  Fe  Fe79  1  0.87254376  0.62901626  0.62527233  1
  Fe  Fe80  1  0.74610717  0.75295386  0.25132174  1
  Fe  Fe81  1  0.25087958  0.75271227  0.00375722  1
  Fe  Fe82  1  0.75157822  0.49599009  0.24912158  1
  Fe  Fe83  1  0.87637012  0.87365825  0.62313625  1
  Fe  Fe84  1  0.62604948  0.12216215  0.12807288  1
  Fe  Fe85  1  0.62604287  0.37691760  0.87964673  1
  Fe  Fe86  1  0.37562104  0.37292822  0.87241294  1
  Fe  Fe87  1  0.37514893  0.62835415  0.12895576  1
  Fe  Fe88  1  0.12670900  0.12353036  0.12681779  1
  Fe  Fe89  1  0.62488596  0.37380750  0.37569526  1
  Co  Co90  1  0.86830642  0.62679280  0.37268139  1
  Co  Co91  1  0.12879837  0.62692299  0.87539052  1
  Co  Co92  1  0.87379215  0.87558705  0.87450291  1
  Co  Co93  1  0.50659586  0.74655252  0.24997394  1
  Co  Co94  1  0.87277215  0.62458103  0.87337726  1
  Co  Co95  1  0.74645920  0.75303208  0.49908879  1
  Co  Co96  1  0.49856356  0.49856711  0.49972367  1
  Co  Co97  1  -0.00037179  0.75020868  0.75101705  1
  Co  Co98  1  0.12008910  0.87463160  0.12343016  1
  Co  Co99  1  0.24611058  0.75141086  0.24789290  1
  Co  Co100  1  0.62457664  0.62429571  0.62254596  1
  Co  Co101  1  0.24541932  0.25207197  0.74914704  1
  Co  Co102  1  0.24915731  0.25238120  0.25079528  1
  Co  Co103  1  0.25171526  0.75011074  0.50184213  1
  Co  Co104  1  0.37950923  0.87200436  0.12957212  1
  Co  Co105  1  0.87488870  0.37371647  0.37769093  1
  Co  Co106  1  0.75022531  0.50302236  0.00071402  1
  Co  Co107  1  0.87662718  0.37653615  0.12073959  1
  Co  Co108  1  0.75383656  -0.00299855  0.24962285  1
  Co  Co109  1  0.50338665  0.75175828  0.49923660  1
  Co  Co110  1  0.62272803  0.37685001  0.12406394  1
  Co  Co111  1  0.37594829  0.62981995  0.37441116  1
  Co  Co112  1  -0.00212836  0.74662466  0.49769593  1
  Co  Co113  1  0.49603550  0.00357541  0.25064828  1
  Co  Co114  1  -0.00143601  0.50085034  0.25266938  1
  Co  Co115  1  0.62797584  0.12380127  0.37232293  1
  Co  Co116  1  0.62286621  0.62577274  0.87596135  1
  Co  Co117  1  0.37851323  0.87268753  0.62491624  1
  Co  Co118  1  0.62390373  0.12142848  0.87610715  1
  Co  Co119  1  0.12943140  0.62538063  0.37626664  1
  Co  Co120  1  0.37573854  0.12861862  0.62938986  1
  Co  Co121  1  0.74761355  0.24780076  0.00242107  1
  Co  Co122  1  -0.00146305  0.00154712  0.49920451  1
  Co  Co123  1  0.49531442  0.00259215  0.49823889  1
  Co  Co124  1  0.49830406  -0.00168147  0.74959758  1
  Co  Co125  1  0.50790445  0.25175406  0.74907669  1
  Co  Co126  1  0.37521873  0.87130626  0.87426364  1
  Co  Co127  1  0.62354404  0.11998904  0.62475779  1
