# generated using pymatgen
data_Fe45Co19
_symmetry_space_group_name_H-M   'P 1'
_cell_length_a   11.41514461
_cell_length_b   11.41461120
_cell_length_c   11.41524817
_cell_angle_alpha   90.00671101
_cell_angle_beta   89.99214226
_cell_angle_gamma   90.00309065
_symmetry_Int_Tables_number   1
_chemical_formula_structural   Fe45Co19
_chemical_formula_sum   'Fe90 Co38'
_cell_volume   1487.40038873
_cell_formula_units_Z   2
loop_
 _symmetry_equiv_pos_site_id
 _symmetry_equiv_pos_as_xyz
  1  'x, y, z'
loop_
 _atom_site_type_symbol
 _atom_site_label
 _atom_site_symmetry_multiplicity
 _atom_site_fract_x
 _atom_site_fract_y
 _atom_site_fract_z
 _atom_site_occupancy
  Fe  Fe0  1  0.37642188  0.12413582  0.12172469  1
  Fe  Fe1  1  0.12485950  0.62534696  0.37493766  1
  Fe  Fe2  1  0.25290538  0.25273751  0.49813614  1
  Fe  Fe3  1  0.12332608  0.87446562  0.12519906  1
  Fe  Fe4  1  0.12148542  0.12486356  0.87459694  1
  Fe  Fe5  1  0.62597548  0.87506409  0.62630922  1
  Fe  Fe6  1  0.87652439  0.88109997  0.87265457  1
  Fe  Fe7  1  0.37627852  0.62335782  0.37495924  1
  Fe  Fe8  1  0.62261736  0.12325445  0.62193587  1
  Fe  Fe9  1  -0.00322108  0.75227162  0.00048735  1
  Fe  Fe10  1  -0.00252587  0.24996614  -0.00184485  1
  Fe  Fe11  1  0.75045056  0.24839945  0.50029769  1
  Fe  Fe12  1  0.49941436  0.24753051  0.74956955  1
  Fe  Fe13  1  -0.00041564  0.49880460  0.50272714  1
  Fe  Fe14  1  0.24867729  0.50004539  0.00083095  1
  Fe  Fe15  1  0.24885825  -0.00315199  -0.00221809  1
  Fe  Fe16  1  0.12490701  0.12535483  0.12354349  1
  Fe  Fe17  1  0.12489142  0.12567198  0.62529675  1
  Fe  Fe18  1  0.50360299  0.74824862  0.24881233  1
  Fe  Fe19  1  0.87290519  0.87567213  0.37318336  1
  Fe  Fe20  1  0.75014865  0.25238055  -0.00215475  1
  Fe  Fe21  1  0.75242164  0.24578426  0.74942834  1
  Fe  Fe22  1  0.74894462  0.74994439  0.50008276  1
  Fe  Fe23  1  0.37629414  0.62631918  0.62548078  1
  Fe  Fe24  1  -0.00199607  0.00180604  0.25071010  1
  Fe  Fe25  1  0.12246147  0.62702238  0.12477391  1
  Fe  Fe26  1  0.87213720  0.62309197  0.87737250  1
  Fe  Fe27  1  -0.00098623  0.49853542  -0.00074960  1
  Fe  Fe28  1  0.12578666  0.37573027  0.37286652  1
  Fe  Fe29  1  0.37650717  0.62556106  0.12238858  1
  Fe  Fe30  1  0.12445336  0.12425500  0.37600957  1
  Fe  Fe31  1  0.87344807  0.37467984  0.37556119  1
  Fe  Fe32  1  0.62663094  0.37432080  0.62844433  1
  Fe  Fe33  1  0.74889458  -0.00116288  0.49693805  1
  Fe  Fe34  1  0.12329508  0.87519577  0.62509268  1
  Fe  Fe35  1  0.25004854  0.74865740  0.24913132  1
  Fe  Fe36  1  0.25292042  0.24827237  0.25229578  1
  Fe  Fe37  1  -0.00214674  0.25011482  0.50186025  1
  Fe  Fe38  1  0.49966002  0.24473013  0.25182017  1
  Fe  Fe39  1  0.87600544  0.11929004  0.62474225  1
  Fe  Fe40  1  0.25031858  -0.00158467  0.49939956  1
  Fe  Fe41  1  0.12399614  0.87500531  0.37368087  1
  Fe  Fe42  1  0.87355666  0.62408175  0.37411924  1
  Fe  Fe43  1  0.87332740  0.62405904  0.62690244  1
  Fe  Fe44  1  0.50386189  0.50274189  0.75180326  1
  Fe  Fe45  1  0.62282849  0.87722118  0.87461503  1
  Fe  Fe46  1  0.37618331  0.37446975  0.87398774  1
  Fe  Fe47  1  0.37689671  0.12409483  0.62093983  1
  Fe  Fe48  1  0.74877259  -0.00067553  0.00102770  1
  Fe  Fe49  1  0.37691363  0.87384805  0.12192926  1
  Fe  Fe50  1  0.25250289  0.00119377  0.25001118  1
  Fe  Fe51  1  0.87316989  0.37507498  0.12722185  1
  Fe  Fe52  1  -0.00213953  0.50130714  0.24891112  1
  Fe  Fe53  1  0.12445913  0.62751092  0.87499310  1
  Fe  Fe54  1  -0.00247410  0.75199755  0.74905654  1
  Fe  Fe55  1  0.62566269  0.37248037  0.12615924  1
  Fe  Fe56  1  0.87309994  0.12542952  0.12360972  1
  Fe  Fe57  1  0.12598837  0.37344959  0.12585924  1
  Fe  Fe58  1  0.25153334  0.75103422  0.49899444  1
  Fe  Fe59  1  -0.00099846  0.24838197  0.25032213  1
  Fe  Fe60  1  0.62373213  0.12589939  0.87816950  1
  Fe  Fe61  1  0.37674768  0.87527382  0.62751183  1
  Fe  Fe62  1  0.74859097  0.24540870  0.25317828  1
  Fe  Fe63  1  0.87354067  0.37688490  0.86901351  1
  Fe  Fe64  1  0.75073166  0.75152791  0.75083481  1
  Fe  Fe65  1  0.50416029  0.49725632  -0.00104682  1
  Fe  Fe66  1  0.37459670  0.37546807  0.12672440  1
  Fe  Fe67  1  0.37573899  0.37520142  0.62744320  1
  Fe  Fe68  1  0.62502004  0.87628046  0.12728843  1
  Fe  Fe69  1  0.87468440  0.87616221  0.12753404  1
  Fe  Fe70  1  0.74926521  0.74534542  0.24782052  1
  Fe  Fe71  1  0.25035502  -0.00089083  0.75207356  1
  Fe  Fe72  1  0.62523986  0.37453161  0.37505877  1
  Fe  Fe73  1  -0.00234724  0.75221819  0.50010204  1
  Fe  Fe74  1  0.12401267  0.37231077  0.62967824  1
  Fe  Fe75  1  0.25133112  0.25052710  -0.00165982  1
  Fe  Fe76  1  0.50192134  0.75215112  0.49825397  1
  Fe  Fe77  1  0.37783911  0.87702641  0.37238419  1
  Fe  Fe78  1  0.62945389  0.62600406  0.87975154  1
  Fe  Fe79  1  0.50198177  0.49927259  0.50115021  1
  Fe  Fe80  1  0.24898977  0.50059177  0.75054895  1
  Fe  Fe81  1  0.50113153  0.75000318  0.75248663  1
  Fe  Fe82  1  0.37821491  0.12300409  0.87719914  1
  Fe  Fe83  1  0.50417190  0.50241723  0.24943942  1
  Fe  Fe84  1  0.37412702  0.62787046  0.87811523  1
  Fe  Fe85  1  0.12422715  0.37184795  0.87173249  1
  Fe  Fe86  1  0.25049164  0.75310739  0.75265697  1
  Fe  Fe87  1  0.74808880  0.50119305  0.50191852  1
  Fe  Fe88  1  0.12544072  0.62662458  0.62538698  1
  Fe  Fe89  1  0.25087348  0.49853724  0.49988508  1
  Co  Co90  1  0.87234748  0.87800745  0.62536955  1
  Co  Co91  1  0.49963592  0.25258744  0.00075307  1
  Co  Co92  1  0.62137321  0.12238363  0.37811702  1
  Co  Co93  1  0.74881781  0.50157192  0.24935662  1
  Co  Co94  1  0.62475109  0.62516698  0.37648552  1
  Co  Co95  1  0.50047486  0.00344642  0.24750826  1
  Co  Co96  1  0.00087374  0.50138524  0.74966183  1
  Co  Co97  1  -0.00054098  -0.00008054  0.00308754  1
  Co  Co98  1  0.87617700  0.12497901  0.37596628  1
  Co  Co99  1  0.37676156  0.37757002  0.37154218  1
  Co  Co100  1  0.50342191  0.75075334  0.00004010  1
  Co  Co101  1  0.75157812  0.75634262  0.00017151  1
  Co  Co102  1  0.24874648  0.50288065  0.24834224  1
  Co  Co103  1  0.37756109  0.87478058  0.87692942  1
  Co  Co104  1  0.62895730  0.62442502  0.11916314  1
  Co  Co105  1  0.50194626  -0.00577046  0.50031176  1
  Co  Co106  1  -0.00038345  -0.00173871  0.49882196  1
  Co  Co107  1  0.74629849  0.00181846  0.75073415  1
  Co  Co108  1  0.12210975  0.87481123  0.87562967  1
  Co  Co109  1  0.74690717  0.50299945  0.74958431  1
  Co  Co110  1  0.87467222  0.12053086  0.87688413  1
  Co  Co111  1  0.62721612  0.87569271  0.37114092  1
  Co  Co112  1  0.24827348  0.75172319  0.00122061  1
  Co  Co113  1  0.87281673  0.37718235  0.62715620  1
  Co  Co114  1  0.50001716  0.25382329  0.49953165  1
  Co  Co115  1  -0.00196591  0.74923156  0.25060244  1
  Co  Co116  1  0.74965539  0.00471412  0.25013688  1
  Co  Co117  1  0.62475388  0.62855254  0.62524824  1
  Co  Co118  1  0.25340167  0.24697982  0.75112273  1
  Co  Co119  1  0.00192206  0.00042335  0.74821247  1
  Co  Co120  1  0.62689200  0.12668068  0.12162620  1
  Co  Co121  1  0.62575997  0.37120898  0.87039191  1
  Co  Co122  1  -0.00599754  0.24672354  0.74918089  1
  Co  Co123  1  0.50241463  -0.00078128  0.00186491  1
  Co  Co124  1  0.87245268  0.62345102  0.12124534  1
  Co  Co125  1  0.74862212  0.49358556  0.00016678  1
  Co  Co126  1  0.50017836  0.00139367  0.74937747  1
  Co  Co127  1  0.37841993  0.12271827  0.37990302  1
