# generated using pymatgen
data_Fe45Co19
_symmetry_space_group_name_H-M   'P 1'
_cell_length_a   11.41457878
_cell_length_b   11.41373459
_cell_length_c   11.41358637
_cell_angle_alpha   90.00624095
_cell_angle_beta   90.00210127
_cell_angle_gamma   90.00167156
_symmetry_Int_Tables_number   1
_chemical_formula_structural   Fe45Co19
_chemical_formula_sum   'Fe90 Co38'
_cell_volume   1486.99595028
_cell_formula_units_Z   2
loop_
 _symmetry_equiv_pos_site_id
 _symmetry_equiv_pos_as_xyz
  1  'x, y, z'
loop_
 _atom_site_type_symbol
 _atom_site_label
 _atom_site_symmetry_multiplicity
 _atom_site_fract_x
 _atom_site_fract_y
 _atom_site_fract_z
 _atom_site_occupancy
  Fe  Fe0  1  0.50143442  -0.00064716  0.74854992  1
  Fe  Fe1  1  0.24790130  0.74788437  0.50036314  1
  Fe  Fe2  1  0.12235907  0.37740087  0.87332866  1
  Fe  Fe3  1  0.00000820  -0.00011193  0.00100651  1
  Fe  Fe4  1  0.24757705  0.74989673  0.24916678  1
  Fe  Fe5  1  0.50111955  -0.00324651  0.25137382  1
  Fe  Fe6  1  0.49852947  0.24826136  0.50382811  1
  Fe  Fe7  1  0.49954971  -0.00154438  -0.00055409  1
  Fe  Fe8  1  0.00204604  0.75225656  0.24989154  1
  Fe  Fe9  1  0.74939632  0.25044550  0.75070213  1
  Fe  Fe10  1  0.61967130  0.62746263  0.87882014  1
  Fe  Fe11  1  0.12463688  0.12461005  0.87376280  1
  Fe  Fe12  1  0.12686436  0.87576350  0.37603847  1
  Fe  Fe13  1  0.74700856  0.74853726  0.24627463  1
  Fe  Fe14  1  0.75184441  0.50091721  0.50089342  1
  Fe  Fe15  1  0.24942254  0.25251530  0.74614089  1
  Fe  Fe16  1  -0.00065072  0.74829295  -0.00015102  1
  Fe  Fe17  1  0.25150784  0.25098714  0.50356033  1
  Fe  Fe18  1  0.75225442  0.24731865  0.00114014  1
  Fe  Fe19  1  0.00050516  0.25170490  -0.00027099  1
  Fe  Fe20  1  0.62826362  0.87499212  0.62369160  1
  Fe  Fe21  1  0.62679367  0.12582859  0.37554946  1
  Fe  Fe22  1  0.74948109  0.74932120  0.75191439  1
  Fe  Fe23  1  0.87278088  0.87477282  0.12260597  1
  Fe  Fe24  1  -0.00014620  0.25082044  0.50196928  1
  Fe  Fe25  1  0.87445355  0.37511847  0.12466056  1
  Fe  Fe26  1  0.88003606  0.62458174  0.87454671  1
  Fe  Fe27  1  0.87581681  0.62753969  0.37548745  1
  Fe  Fe28  1  0.37665125  0.87152262  0.87282175  1
  Fe  Fe29  1  0.37448412  0.62719893  0.37356792  1
  Fe  Fe30  1  0.00053499  -0.00248732  0.50033176  1
  Fe  Fe31  1  0.25269330  0.50299367  -0.00275053  1
  Fe  Fe32  1  0.50270517  0.75144077  0.24716972  1
  Fe  Fe33  1  0.49934112  0.50141517  0.49854628  1
  Fe  Fe34  1  0.37830822  0.62488960  0.62774474  1
  Fe  Fe35  1  0.62653784  0.62603407  0.37537554  1
  Fe  Fe36  1  0.87839124  0.37613378  0.62914415  1
  Fe  Fe37  1  0.62544552  0.37788814  0.12203298  1
  Fe  Fe38  1  0.37469938  0.12727211  0.87248036  1
  Fe  Fe39  1  0.74953161  0.50132522  0.24920715  1
  Fe  Fe40  1  0.00017242  -0.00246909  0.74973296  1
  Fe  Fe41  1  0.87579134  0.12607569  0.37212225  1
  Fe  Fe42  1  0.00087001  0.49907842  0.25063970  1
  Fe  Fe43  1  0.37381579  0.12371547  0.37556784  1
  Fe  Fe44  1  0.87419013  0.12399358  0.62719482  1
  Fe  Fe45  1  0.75094934  0.50169106  0.75196232  1
  Fe  Fe46  1  0.24810579  0.50145436  0.74854888  1
  Fe  Fe47  1  0.37370785  0.87535141  0.12635951  1
  Fe  Fe48  1  0.24953154  0.49977720  0.25154690  1
  Fe  Fe49  1  0.87550081  0.12422095  0.87341754  1
  Fe  Fe50  1  0.24926251  -0.00026162  0.25010567  1
  Fe  Fe51  1  0.12483555  0.87270621  0.87588261  1
  Fe  Fe52  1  0.37232322  0.87544824  0.62362694  1
  Fe  Fe53  1  0.62613954  0.87246937  0.88008333  1
  Fe  Fe54  1  0.50047620  0.50088496  0.24883541  1
  Fe  Fe55  1  0.24668389  0.74752530  0.74968802  1
  Fe  Fe56  1  0.12403765  0.62382364  0.12379701  1
  Fe  Fe57  1  0.12635903  0.37779004  0.38017750  1
  Fe  Fe58  1  0.75047034  0.25097459  0.50158519  1
  Fe  Fe59  1  0.49983265  0.25177840  0.25019226  1
  Fe  Fe60  1  0.75031620  0.00039433  0.50061729  1
  Fe  Fe61  1  0.62368350  0.62383424  0.62717553  1
  Fe  Fe62  1  0.87275906  0.37388658  0.37386831  1
  Fe  Fe63  1  0.49916516  -0.00102183  0.49929724  1
  Fe  Fe64  1  0.00191991  0.25303958  0.24889805  1
  Fe  Fe65  1  0.75363643  0.50355984  -0.00036485  1
  Fe  Fe66  1  0.37349649  0.37548754  0.12360952  1
  Fe  Fe67  1  0.25321331  0.74778866  -0.00093098  1
  Fe  Fe68  1  0.11870873  0.62388996  0.62211757  1
  Fe  Fe69  1  0.87323665  0.87535339  0.87638343  1
  Fe  Fe70  1  0.49977417  0.25355799  -0.00392607  1
  Fe  Fe71  1  0.12595326  0.12283996  0.62514252  1
  Fe  Fe72  1  0.87528054  0.87145071  0.62508627  1
  Fe  Fe73  1  0.25064333  -0.00007759  -0.00090427  1
  Fe  Fe74  1  0.49930082  0.49492410  0.75636996  1
  Fe  Fe75  1  0.50196179  0.75107302  0.49968807  1
  Fe  Fe76  1  0.37462305  0.37638327  0.37757365  1
  Fe  Fe77  1  0.62326891  0.12511196  0.12498927  1
  Fe  Fe78  1  0.12239848  0.12258586  0.12663490  1
  Fe  Fe79  1  0.24922170  0.25097128  0.24947371  1
  Fe  Fe80  1  0.24942417  -0.00179843  0.75067798  1
  Fe  Fe81  1  0.87146817  0.87285054  0.37553534  1
  Fe  Fe82  1  0.37543132  0.12548871  0.12420453  1
  Fe  Fe83  1  0.12362869  0.12392880  0.37442774  1
  Fe  Fe84  1  0.24718370  0.24931001  0.00129116  1
  Fe  Fe85  1  0.75050637  0.00195359  0.24663842  1
  Fe  Fe86  1  0.62595665  0.12442408  0.87223490  1
  Fe  Fe87  1  0.62591353  0.37430522  0.37567277  1
  Fe  Fe88  1  0.87820351  0.62778436  0.62399240  1
  Fe  Fe89  1  0.62379399  0.37488976  0.62629590  1
  Co  Co90  1  0.00227812  0.75277045  0.49702150  1
  Co  Co91  1  0.37353080  0.62361750  0.12797768  1
  Co  Co92  1  0.00029852  0.75114821  0.75223088  1
  Co  Co93  1  0.62599611  0.12508870  0.62585079  1
  Co  Co94  1  0.49487837  0.74975173  0.00490760  1
  Co  Co95  1  0.37827604  0.62834520  0.87022210  1
  Co  Co96  1  0.63021353  0.37610858  0.87766733  1
  Co  Co97  1  0.74761780  0.74675908  0.50224187  1
  Co  Co98  1  0.12304526  0.62477922  0.87774016  1
  Co  Co99  1  0.75283308  0.74484680  -0.00094967  1
  Co  Co100  1  -0.00448313  0.49941874  0.49753023  1
  Co  Co101  1  0.12649213  0.37824025  0.12358426  1
  Co  Co102  1  0.37318569  0.87208333  0.37481577  1
  Co  Co103  1  0.62812398  0.87433597  0.12049652  1
  Co  Co104  1  0.37766554  0.37784933  0.62550952  1
  Co  Co105  1  0.75050574  0.00452747  0.00137597  1
  Co  Co106  1  0.24889344  -0.00029850  0.49851699  1
  Co  Co107  1  0.36921253  0.37251451  0.87426799  1
  Co  Co108  1  0.87834001  0.62590178  0.12797528  1
  Co  Co109  1  0.12605527  0.87460048  0.12137957  1
  Co  Co110  1  0.50056168  0.25154164  0.75128189  1
  Co  Co111  1  0.25214853  0.50348650  0.50265498  1
  Co  Co112  1  -0.00153130  0.49901646  0.00104905  1
  Co  Co113  1  0.49443725  0.49903987  -0.00261149  1
  Co  Co114  1  0.62308395  0.62328784  0.12021324  1
  Co  Co115  1  0.74953308  -0.00307410  0.75062040  1
  Co  Co116  1  0.74850797  0.24960253  0.24758788  1
  Co  Co117  1  0.00124420  0.24837430  0.74990236  1
  Co  Co118  1  0.12408128  0.62299948  0.37484288  1
  Co  Co119  1  0.37369283  0.12225311  0.62733503  1
  Co  Co120  1  0.00063524  0.50201826  0.75055412  1
  Co  Co121  1  0.87961116  0.12604539  0.12704375  1
  Co  Co122  1  -0.00069972  -0.00489206  0.25035845  1
  Co  Co123  1  0.50271624  0.75405759  0.74753490  1
  Co  Co124  1  0.12566180  0.87467579  0.62618572  1
  Co  Co125  1  0.62835514  0.87489033  0.37521694  1
  Co  Co126  1  0.87634485  0.37487211  0.87366143  1
  Co  Co127  1  0.12174064  0.37791163  0.62340665  1
