# generated using pymatgen
data_Fe45Co19
_symmetry_space_group_name_H-M   'P 1'
_cell_length_a   11.41614855
_cell_length_b   11.41436625
_cell_length_c   11.41527807
_cell_angle_alpha   90.00431057
_cell_angle_beta   89.99366983
_cell_angle_gamma   89.99797578
_symmetry_Int_Tables_number   1
_chemical_formula_structural   Fe45Co19
_chemical_formula_sum   'Fe90 Co38'
_cell_volume   1487.50319151
_cell_formula_units_Z   2
loop_
 _symmetry_equiv_pos_site_id
 _symmetry_equiv_pos_as_xyz
  1  'x, y, z'
loop_
 _atom_site_type_symbol
 _atom_site_label
 _atom_site_symmetry_multiplicity
 _atom_site_fract_x
 _atom_site_fract_y
 _atom_site_fract_z
 _atom_site_occupancy
  Fe  Fe0  1  0.75102222  0.25495457  0.24519102  1
  Fe  Fe1  1  0.74817889  0.25146813  0.74871053  1
  Fe  Fe2  1  0.25195616  -0.00150609  0.75187002  1
  Fe  Fe3  1  0.87732464  0.62401872  0.62274445  1
  Fe  Fe4  1  0.75017929  -0.00251912  0.75249330  1
  Fe  Fe5  1  0.74553225  0.00095405  0.49755971  1
  Fe  Fe6  1  0.24839575  0.74837702  0.00516660  1
  Fe  Fe7  1  0.62446412  0.37389989  0.37462582  1
  Fe  Fe8  1  0.37183454  0.62185369  0.12589542  1
  Fe  Fe9  1  0.24805057  -0.00273393  0.49965259  1
  Fe  Fe10  1  0.25330383  0.25357491  0.24433012  1
  Fe  Fe11  1  0.12474081  0.12325519  0.62731521  1
  Fe  Fe12  1  0.74834824  0.25208791  0.00353810  1
  Fe  Fe13  1  0.00231645  -0.00186194  0.49879526  1
  Fe  Fe14  1  0.74970636  0.74832012  0.00447455  1
  Fe  Fe15  1  0.49863025  -0.00023345  0.25331034  1
  Fe  Fe16  1  0.74990019  0.75031193  0.74763711  1
  Fe  Fe17  1  0.49821828  -0.00180859  0.75316890  1
  Fe  Fe18  1  0.87450178  0.87455059  0.37551041  1
  Fe  Fe19  1  0.62422287  0.37637232  0.87652378  1
  Fe  Fe20  1  0.37763664  0.12028473  0.62346277  1
  Fe  Fe21  1  0.37425060  0.87359831  0.37768491  1
  Fe  Fe22  1  0.74938088  -0.00244918  0.24884844  1
  Fe  Fe23  1  0.88186041  0.61740989  0.12505719  1
  Fe  Fe24  1  0.12486273  0.87275997  0.12904961  1
  Fe  Fe25  1  0.87450998  0.12600359  0.87636824  1
  Fe  Fe26  1  0.12570276  0.37650451  0.62474688  1
  Fe  Fe27  1  0.87566220  0.87310339  0.87868755  1
  Fe  Fe28  1  0.74676088  0.49965042  0.50016850  1
  Fe  Fe29  1  0.50235082  0.24610968  0.49978723  1
  Fe  Fe30  1  0.49960158  0.50379701  -0.00384192  1
  Fe  Fe31  1  0.00296283  0.49868911  0.49445791  1
  Fe  Fe32  1  0.49839125  0.49977024  0.25327311  1
  Fe  Fe33  1  -0.00060130  0.25000129  0.74950788  1
  Fe  Fe34  1  0.12815058  0.12666271  0.37285007  1
  Fe  Fe35  1  -0.00091907  -0.00092261  0.25037952  1
  Fe  Fe36  1  0.62149340  0.87785464  0.62413172  1
  Fe  Fe37  1  0.49540012  0.24921567  0.24832298  1
  Fe  Fe38  1  -0.00149368  -0.00134734  0.75087523  1
  Fe  Fe39  1  0.37652330  0.86869940  0.87875355  1
  Fe  Fe40  1  0.87479464  0.62393558  0.37426710  1
  Fe  Fe41  1  0.37396124  0.37376133  0.37727720  1
  Fe  Fe42  1  0.00352341  0.75294109  0.49819396  1
  Fe  Fe43  1  0.49896799  0.50368279  0.75409406  1
  Fe  Fe44  1  0.74873077  0.50041390  0.75013609  1
  Fe  Fe45  1  0.62253547  0.62299804  0.62531544  1
  Fe  Fe46  1  0.87351060  0.62396519  0.87688227  1
  Fe  Fe47  1  0.49637186  0.25108101  0.00209924  1
  Fe  Fe48  1  0.24640954  0.50129618  -0.00118594  1
  Fe  Fe49  1  0.87327784  0.12708114  0.37438229  1
  Fe  Fe50  1  0.12858770  0.12516624  0.12471457  1
  Fe  Fe51  1  0.00094751  0.25050784  0.49841418  1
  Fe  Fe52  1  0.12646200  0.62852382  0.36759560  1
  Fe  Fe53  1  0.13004617  0.37110759  0.87327637  1
  Fe  Fe54  1  -0.00051176  0.25525061  0.25141199  1
  Fe  Fe55  1  0.25061508  0.24862646  0.50392690  1
  Fe  Fe56  1  0.37029641  0.12761945  0.87930789  1
  Fe  Fe57  1  0.87601463  0.12536236  0.12465172  1
  Fe  Fe58  1  0.37544694  0.62495915  0.62361971  1
  Fe  Fe59  1  0.12963456  0.12765480  0.87529340  1
  Fe  Fe60  1  0.49812774  0.24977387  0.75039322  1
  Fe  Fe61  1  0.24992457  0.50283299  0.49707628  1
  Fe  Fe62  1  0.74900762  0.74958524  0.50095707  1
  Fe  Fe63  1  0.12531471  0.87173992  0.87315196  1
  Fe  Fe64  1  0.12480710  0.62587006  0.62617145  1
  Fe  Fe65  1  0.87467864  0.37656954  0.87884966  1
  Fe  Fe66  1  0.00301945  0.25075435  0.00100359  1
  Fe  Fe67  1  0.00119698  0.50035225  0.75350426  1
  Fe  Fe68  1  0.75293679  0.75138608  0.24608638  1
  Fe  Fe69  1  0.75105182  0.49628044  0.24803598  1
  Fe  Fe70  1  0.25275760  -0.00159828  0.24922790  1
  Fe  Fe71  1  0.25367477  0.75115541  0.74575289  1
  Fe  Fe72  1  0.74553115  0.24957415  0.50361527  1
  Fe  Fe73  1  0.87361839  0.12309003  0.62515431  1
  Fe  Fe74  1  0.62213880  0.86889787  0.87859169  1
  Fe  Fe75  1  0.62213629  0.12381980  0.12699268  1
  Fe  Fe76  1  0.00317596  0.00023681  -0.00007697  1
  Fe  Fe77  1  0.62454850  0.62284666  0.12598330  1
  Fe  Fe78  1  0.37789881  0.37754508  0.62423340  1
  Fe  Fe79  1  0.37450230  0.62768597  0.37501615  1
  Fe  Fe80  1  0.49893622  -0.00049098  -0.00027968  1
  Fe  Fe81  1  -0.00258991  0.75065752  0.74852922  1
  Fe  Fe82  1  0.49804050  0.75187335  0.24616917  1
  Fe  Fe83  1  0.25132837  0.50063886  0.75114086  1
  Fe  Fe84  1  0.87621197  0.37716941  0.62309380  1
  Fe  Fe85  1  0.62457526  0.12604663  0.87544600  1
  Fe  Fe86  1  0.74907713  0.00012980  0.00072221  1
  Fe  Fe87  1  0.49987492  0.74986921  0.50112981  1
  Fe  Fe88  1  0.00289095  0.74646650  0.00278490  1
  Fe  Fe89  1  0.62514873  0.62727383  0.37314526  1
  Co  Co90  1  0.74705658  0.49978719  0.00239236  1
  Co  Co91  1  0.88075601  0.37918605  0.12018806  1
  Co  Co92  1  0.25168713  0.25367157  0.00627216  1
  Co  Co93  1  0.62503071  0.87026492  0.37278829  1
  Co  Co94  1  0.00821850  0.50218786  -0.00615815  1
  Co  Co95  1  0.37276285  0.37490248  0.87534397  1
  Co  Co96  1  0.37688979  0.38173507  0.12331731  1
  Co  Co97  1  0.62324488  0.12101889  0.62898533  1
  Co  Co98  1  0.62264130  0.87659982  0.12439532  1
  Co  Co99  1  0.24768657  -0.00414893  -0.00110477  1
  Co  Co100  1  0.87659735  0.87684366  0.12189404  1
  Co  Co101  1  0.12663610  0.87422010  0.36981752  1
  Co  Co102  1  0.49952804  0.74525188  0.00565231  1
  Co  Co103  1  0.25170640  0.49808333  0.25340859  1
  Co  Co104  1  0.50319996  0.00267145  0.49335272  1
  Co  Co105  1  0.24733961  0.74961503  0.49989235  1
  Co  Co106  1  -0.00068052  0.49359119  0.25786867  1
  Co  Co107  1  0.62017221  0.37773993  0.62607966  1
  Co  Co108  1  0.12543155  0.87467085  0.62804138  1
  Co  Co109  1  0.61883120  0.37684086  0.12465785  1
  Co  Co110  1  0.37059342  0.12600014  0.37545079  1
  Co  Co111  1  0.49922275  0.74811198  0.74720562  1
  Co  Co112  1  0.37396272  0.12050597  0.12278083  1
  Co  Co113  1  0.13167784  0.37114323  0.37588769  1
  Co  Co114  1  0.50003768  0.50185050  0.49587436  1
  Co  Co115  1  0.25348694  0.24881932  0.74513617  1
  Co  Co116  1  0.87462418  0.87592357  0.62184927  1
  Co  Co117  1  0.12793885  0.62991607  0.87082089  1
  Co  Co118  1  0.12326486  0.38007136  0.12646837  1
  Co  Co119  1  -0.00469825  0.75165950  0.24985291  1
  Co  Co120  1  0.37270637  0.62950564  0.87602301  1
  Co  Co121  1  0.37627140  0.87733038  0.12296672  1
  Co  Co122  1  0.62685502  0.62854769  0.87551864  1
  Co  Co123  1  0.87027379  0.37384792  0.37873633  1
  Co  Co124  1  0.37703878  0.87695993  0.62139171  1
  Co  Co125  1  0.25469635  0.75144804  0.24832080  1
  Co  Co126  1  0.62735331  0.12868971  0.36922169  1
  Co  Co127  1  0.12347863  0.62223755  0.13304865  1
