# generated using pymatgen
data_Fe45Co19
_symmetry_space_group_name_H-M   'P 1'
_cell_length_a   11.41628794
_cell_length_b   11.41490712
_cell_length_c   11.41446835
_cell_angle_alpha   89.98986810
_cell_angle_beta   90.00502977
_cell_angle_gamma   89.99436530
_symmetry_Int_Tables_number   1
_chemical_formula_structural   Fe45Co19
_chemical_formula_sum   'Fe90 Co38'
_cell_volume   1487.48629698
_cell_formula_units_Z   2
loop_
 _symmetry_equiv_pos_site_id
 _symmetry_equiv_pos_as_xyz
  1  'x, y, z'
loop_
 _atom_site_type_symbol
 _atom_site_label
 _atom_site_symmetry_multiplicity
 _atom_site_fract_x
 _atom_site_fract_y
 _atom_site_fract_z
 _atom_site_occupancy
  Fe  Fe0  1  0.37719850  0.87390172  0.62833917  1
  Fe  Fe1  1  0.50135895  -0.00157212  0.75023571  1
  Fe  Fe2  1  0.37621598  0.37414778  0.12595430  1
  Fe  Fe3  1  0.50017132  0.74954592  0.50049940  1
  Fe  Fe4  1  0.24935775  0.49999576  0.74893690  1
  Fe  Fe5  1  0.87479409  0.37486260  0.87510940  1
  Fe  Fe6  1  0.74925271  0.24697537  0.50015438  1
  Fe  Fe7  1  0.74755949  0.75121812  -0.00172107  1
  Fe  Fe8  1  0.25035664  0.25216531  0.25297766  1
  Fe  Fe9  1  0.00095630  0.75059130  0.49661390  1
  Fe  Fe10  1  0.25291033  0.49749798  0.49606714  1
  Fe  Fe11  1  0.75089287  0.75360419  0.50002883  1
  Fe  Fe12  1  0.87896897  0.87782623  0.37334722  1
  Fe  Fe13  1  0.12677073  0.12117057  0.37292999  1
  Fe  Fe14  1  0.87180428  0.62784068  0.62721000  1
  Fe  Fe15  1  -0.00005787  0.75322380  0.75071034  1
  Fe  Fe16  1  -0.00049888  0.49978996  0.74901574  1
  Fe  Fe17  1  0.62374089  0.87635612  0.12341690  1
  Fe  Fe18  1  0.12225718  0.87554082  0.12765467  1
  Fe  Fe19  1  0.49995974  0.00289885  0.24881761  1
  Fe  Fe20  1  0.62330928  0.87682522  0.37488562  1
  Fe  Fe21  1  0.12874950  0.62302946  0.12779044  1
  Fe  Fe22  1  0.12685589  0.37728669  0.12409166  1
  Fe  Fe23  1  -0.00234976  0.00199756  -0.00069741  1
  Fe  Fe24  1  0.87542851  0.37437034  0.62381522  1
  Fe  Fe25  1  0.49947930  0.24643443  0.74989873  1
  Fe  Fe26  1  0.24781818  -0.00555595  0.75297624  1
  Fe  Fe27  1  0.25112826  0.25079936  0.74932771  1
  Fe  Fe28  1  0.87346095  0.62520444  0.37400133  1
  Fe  Fe29  1  0.12105301  0.87667653  0.62385333  1
  Fe  Fe30  1  0.87525504  0.12162178  0.62757566  1
  Fe  Fe31  1  0.12555488  0.37477443  0.62292275  1
  Fe  Fe32  1  0.12598495  0.37657707  0.87618024  1
  Fe  Fe33  1  0.87596636  0.37279698  0.37533041  1
  Fe  Fe34  1  0.74954245  0.49844277  0.00048079  1
  Fe  Fe35  1  0.75209077  -0.00772385  0.75001616  1
  Fe  Fe36  1  0.49942819  0.50296472  0.50083972  1
  Fe  Fe37  1  0.74919600  0.75105248  0.25040458  1
  Fe  Fe38  1  0.37303673  0.62676097  0.12803503  1
  Fe  Fe39  1  -0.00074641  0.50234990  0.00001815  1
  Fe  Fe40  1  0.75086932  0.00023901  0.49998468  1
  Fe  Fe41  1  0.50146971  0.50215561  0.74849659  1
  Fe  Fe42  1  0.74814828  0.49885840  0.25054664  1
  Fe  Fe43  1  0.12599875  0.62576646  0.62454051  1
  Fe  Fe44  1  0.37351364  0.62937132  0.87194332  1
  Fe  Fe45  1  0.62568464  0.62445316  0.12453147  1
  Fe  Fe46  1  -0.00065684  0.50162393  0.25007392  1
  Fe  Fe47  1  0.25199474  -0.00303683  0.00083654  1
  Fe  Fe48  1  0.62414091  0.12577798  0.12043488  1
  Fe  Fe49  1  0.74963601  0.25064739  0.75094809  1
  Fe  Fe50  1  0.74592556  0.25042673  0.24920410  1
  Fe  Fe51  1  0.12711251  0.62643408  0.87439315  1
  Fe  Fe52  1  0.25006751  0.75171320  0.00028327  1
  Fe  Fe53  1  0.62799272  0.12109629  0.87834947  1
  Fe  Fe54  1  0.62090203  0.37243765  0.37603758  1
  Fe  Fe55  1  0.00126705  0.24794392  0.25047694  1
  Fe  Fe56  1  0.87498117  0.37531951  0.12536097  1
  Fe  Fe57  1  0.37705781  0.87380913  0.37182011  1
  Fe  Fe58  1  0.37518204  0.37586472  0.87344236  1
  Fe  Fe59  1  0.49778510  0.24322559  0.50417744  1
  Fe  Fe60  1  0.62397258  0.37569238  0.87647163  1
  Fe  Fe61  1  0.12733828  0.12211652  0.62664609  1
  Fe  Fe62  1  0.12787384  0.62517267  0.37244551  1
  Fe  Fe63  1  0.00051299  0.24813896  0.75086773  1
  Fe  Fe64  1  0.37448194  0.12706709  0.12517146  1
  Fe  Fe65  1  0.37421289  0.12210069  0.87517165  1
  Fe  Fe66  1  0.62313159  0.37294383  0.62467279  1
  Fe  Fe67  1  0.87343112  0.12774168  0.12354956  1
  Fe  Fe68  1  0.49931947  0.00303642  0.50082737  1
  Fe  Fe69  1  0.25284557  0.25060030  0.49939089  1
  Fe  Fe70  1  0.49803657  0.50124194  -0.00084496  1
  Fe  Fe71  1  0.50165232  0.75003003  -0.00221571  1
  Fe  Fe72  1  0.74906150  0.49920614  0.50093111  1
  Fe  Fe73  1  0.25155295  0.25117134  -0.00179026  1
  Fe  Fe74  1  -0.00016122  0.74638482  0.00167438  1
  Fe  Fe75  1  0.00021187  0.24527881  0.49994381  1
  Fe  Fe76  1  0.62488712  0.62719447  0.37511358  1
  Fe  Fe77  1  0.87053733  0.62663281  0.87225093  1
  Fe  Fe78  1  0.37714897  0.87304276  0.12638881  1
  Fe  Fe79  1  0.12703652  0.12442737  0.12453762  1
  Fe  Fe80  1  0.12564917  0.12306841  0.87556956  1
  Fe  Fe81  1  0.25101482  -0.00229578  0.49774000  1
  Fe  Fe82  1  -0.00057130  0.24922091  -0.00178521  1
  Fe  Fe83  1  0.75025973  0.00130551  0.24867613  1
  Fe  Fe84  1  0.24890506  0.75298427  0.49789407  1
  Fe  Fe85  1  -0.00073836  0.50101889  0.49985565  1
  Fe  Fe86  1  0.87671622  0.87216932  0.12499230  1
  Fe  Fe87  1  0.62871460  0.62884976  0.62798279  1
  Fe  Fe88  1  0.49867495  0.50214687  0.25170070  1
  Fe  Fe89  1  0.37349573  0.62767169  0.62643921  1
  Co  Co90  1  0.62459103  0.12424068  0.37543414  1
  Co  Co91  1  0.74730997  0.75806506  0.75114367  1
  Co  Co92  1  0.37435349  0.12478983  0.37354098  1
  Co  Co93  1  0.75340277  -0.00120612  0.00304098  1
  Co  Co94  1  -0.00243085  0.00358244  0.24745277  1
  Co  Co95  1  0.37628007  0.37571640  0.62512921  1
  Co  Co96  1  0.25269036  -0.00156005  0.24798292  1
  Co  Co97  1  0.00028723  0.00361842  0.49874016  1
  Co  Co98  1  0.50514764  0.75110016  0.75176203  1
  Co  Co99  1  0.87905732  0.87509642  0.62215461  1
  Co  Co100  1  0.87311190  0.12550299  0.37361718  1
  Co  Co101  1  0.25347245  0.49654505  0.25431664  1
  Co  Co102  1  0.24696464  0.75382890  0.74891967  1
  Co  Co103  1  0.49591191  0.00078038  0.00184047  1
  Co  Co104  1  0.24896459  0.75358783  0.25069252  1
  Co  Co105  1  0.87107876  0.62523058  0.12510500  1
  Co  Co106  1  -0.00021014  0.74706624  0.25046553  1
  Co  Co107  1  0.37124959  0.12122446  0.62787087  1
  Co  Co108  1  0.62806890  0.62328316  0.87401257  1
  Co  Co109  1  0.62322719  0.87969206  0.88001446  1
  Co  Co110  1  0.49943111  0.24917215  -0.00268874  1
  Co  Co111  1  0.87696852  0.87374948  0.87930259  1
  Co  Co112  1  0.74913481  0.25216499  0.00042806  1
  Co  Co113  1  -0.00010438  -0.00110336  0.75321946  1
  Co  Co114  1  0.37656870  0.87300527  0.87386364  1
  Co  Co115  1  0.50296745  0.74979337  0.24940883  1
  Co  Co116  1  0.12174105  0.37407607  0.37579179  1
  Co  Co117  1  0.87173685  0.12369568  0.87446665  1
  Co  Co118  1  0.38181712  0.37158804  0.37626509  1
  Co  Co119  1  0.37432188  0.62925649  0.37432622  1
  Co  Co120  1  0.74931363  0.49665789  0.74778196  1
  Co  Co121  1  0.62791952  0.12229869  0.62744103  1
  Co  Co122  1  0.50189517  0.24641759  0.24795718  1
  Co  Co123  1  0.12281558  0.87399970  0.87968468  1
  Co  Co124  1  0.12154936  0.87838857  0.37055708  1
  Co  Co125  1  0.25240555  0.50088597  -0.00095970  1
  Co  Co126  1  0.62293107  0.87527773  0.62153364  1
  Co  Co127  1  0.62156863  0.37673637  0.12418834  1
