# generated using pymatgen
data_Fe45Co19
_symmetry_space_group_name_H-M   'P 1'
_cell_length_a   11.41545630
_cell_length_b   11.41496660
_cell_length_c   11.41557629
_cell_angle_alpha   90.00014554
_cell_angle_beta   89.99902639
_cell_angle_gamma   89.99105292
_symmetry_Int_Tables_number   1
_chemical_formula_structural   Fe45Co19
_chemical_formula_sum   'Fe90 Co38'
_cell_volume   1487.53007829
_cell_formula_units_Z   2
loop_
 _symmetry_equiv_pos_site_id
 _symmetry_equiv_pos_as_xyz
  1  'x, y, z'
loop_
 _atom_site_type_symbol
 _atom_site_label
 _atom_site_symmetry_multiplicity
 _atom_site_fract_x
 _atom_site_fract_y
 _atom_site_fract_z
 _atom_site_occupancy
  Fe  Fe0  1  0.87502464  0.62362496  0.87306762  1
  Fe  Fe1  1  0.75333774  0.75353168  0.75011442  1
  Fe  Fe2  1  0.12750680  0.37348346  0.12504362  1
  Fe  Fe3  1  0.37451390  0.37595587  0.37602948  1
  Fe  Fe4  1  0.24912341  0.75187246  0.75114062  1
  Fe  Fe5  1  0.75126760  0.00115804  0.49801868  1
  Fe  Fe6  1  0.50227108  0.75262460  0.25230157  1
  Fe  Fe7  1  0.74998365  0.49424996  0.74979397  1
  Fe  Fe8  1  0.25108832  -0.00049856  0.24984383  1
  Fe  Fe9  1  0.37633391  0.87270044  0.12326355  1
  Fe  Fe10  1  0.49959543  0.49855483  0.24781412  1
  Fe  Fe11  1  0.50268117  0.50018088  0.75117736  1
  Fe  Fe12  1  0.62394247  0.62736072  0.12501042  1
  Fe  Fe13  1  0.12370841  0.62511254  0.62648820  1
  Fe  Fe14  1  0.37704589  0.37252171  0.62523135  1
  Fe  Fe15  1  0.25152649  0.49997103  0.74758350  1
  Fe  Fe16  1  0.12333991  0.11980374  0.87252212  1
  Fe  Fe17  1  0.00102809  0.24970065  0.49931012  1
  Fe  Fe18  1  -0.00257336  0.74614297  0.50052322  1
  Fe  Fe19  1  -0.00008085  0.75105885  -0.00305019  1
  Fe  Fe20  1  0.87760312  0.62700810  0.12820525  1
  Fe  Fe21  1  0.12592803  0.12702840  0.12645188  1
  Fe  Fe22  1  0.12255495  0.37692636  0.87565070  1
  Fe  Fe23  1  0.37530636  0.62564827  0.87427483  1
  Fe  Fe24  1  0.37426265  0.62453192  0.37418717  1
  Fe  Fe25  1  -0.00229352  0.25013039  0.74973207  1
  Fe  Fe26  1  0.24996872  -0.00082993  0.50289161  1
  Fe  Fe27  1  -0.00219229  0.00166466  0.50148759  1
  Fe  Fe28  1  0.37751751  0.37430962  0.87489155  1
  Fe  Fe29  1  0.74990374  0.50095664  0.25147044  1
  Fe  Fe30  1  0.37489216  0.12495488  0.87351375  1
  Fe  Fe31  1  0.24820261  0.75092291  -0.00288865  1
  Fe  Fe32  1  0.37156011  0.37246516  0.12370154  1
  Fe  Fe33  1  0.12579914  0.12307582  0.62782430  1
  Fe  Fe34  1  0.24866634  -0.00062717  -0.00138545  1
  Fe  Fe35  1  0.74942941  -0.00054782  0.00507986  1
  Fe  Fe36  1  0.37586641  0.87402116  0.62508156  1
  Fe  Fe37  1  0.75007320  0.24998759  0.25262033  1
  Fe  Fe38  1  0.87390011  0.12637528  0.12665890  1
  Fe  Fe39  1  0.62765088  0.87593124  0.62198168  1
  Fe  Fe40  1  0.12273915  0.62432033  0.87278417  1
  Fe  Fe41  1  0.74773255  0.75178771  0.25267512  1
  Fe  Fe42  1  0.50196294  0.50214261  -0.00089612  1
  Fe  Fe43  1  -0.00006911  0.24936729  -0.00116479  1
  Fe  Fe44  1  0.12452852  0.37622148  0.62382276  1
  Fe  Fe45  1  0.12363068  0.62096405  0.37391910  1
  Fe  Fe46  1  0.12118603  0.87548091  0.62871651  1
  Fe  Fe47  1  0.37221555  0.12758779  0.12517288  1
  Fe  Fe48  1  0.50189911  0.24837466  -0.00011521  1
  Fe  Fe49  1  0.24977597  0.74804792  0.50154953  1
  Fe  Fe50  1  0.49994801  0.24959881  0.24990002  1
  Fe  Fe51  1  0.50256611  0.74934173  0.49971939  1
  Fe  Fe52  1  0.62396807  0.37780151  0.37710062  1
  Fe  Fe53  1  0.87338503  0.12720889  0.62433952  1
  Fe  Fe54  1  0.74735877  0.24948450  0.49876654  1
  Fe  Fe55  1  0.75016313  0.74507849  0.49641906  1
  Fe  Fe56  1  0.87487076  0.37751682  0.37883622  1
  Fe  Fe57  1  0.24915911  0.50074094  0.00072123  1
  Fe  Fe58  1  0.37579226  0.62751201  0.12482368  1
  Fe  Fe59  1  0.50267569  0.24454592  0.50347126  1
  Fe  Fe60  1  0.75378503  -0.00321558  0.74905532  1
  Fe  Fe61  1  0.12318738  0.87524368  0.12413205  1
  Fe  Fe62  1  0.62428677  0.11919459  0.37104909  1
  Fe  Fe63  1  0.62678234  0.12582487  0.87422886  1
  Fe  Fe64  1  0.74912995  0.25507461  0.75119615  1
  Fe  Fe65  1  0.12654697  0.37995081  0.37518272  1
  Fe  Fe66  1  0.12424022  0.12359233  0.37363657  1
  Fe  Fe67  1  0.87403635  0.37434615  0.12233802  1
  Fe  Fe68  1  -0.00360436  0.49848347  0.74750358  1
  Fe  Fe69  1  0.12415454  0.87582366  0.37669060  1
  Fe  Fe70  1  0.37707826  0.87583600  0.87478732  1
  Fe  Fe71  1  -0.00044245  0.25264022  0.25193335  1
  Fe  Fe72  1  0.87436653  0.12413911  0.87601498  1
  Fe  Fe73  1  0.12267282  0.62464573  0.12722878  1
  Fe  Fe74  1  0.50066134  0.00336953  0.74529330  1
  Fe  Fe75  1  -0.00281336  -0.00152062  0.24958798  1
  Fe  Fe76  1  0.37738026  0.87743163  0.37707684  1
  Fe  Fe77  1  0.74969227  0.50027708  -0.00162729  1
  Fe  Fe78  1  0.24975515  0.25039248  0.75206398  1
  Fe  Fe79  1  0.62764726  0.62380595  0.62648018  1
  Fe  Fe80  1  0.87522288  0.87425548  0.37465578  1
  Fe  Fe81  1  0.62538049  0.87563555  0.87648924  1
  Fe  Fe82  1  0.50282025  0.00084223  0.00348555  1
  Fe  Fe83  1  0.49953459  0.50285891  0.50197152  1
  Fe  Fe84  1  0.74960379  0.75031613  -0.00083336  1
  Fe  Fe85  1  0.24859157  0.25009320  0.49833099  1
  Fe  Fe86  1  0.24828019  0.75038711  0.25126507  1
  Fe  Fe87  1  0.62709904  0.37260528  0.12263935  1
  Fe  Fe88  1  0.37579147  0.12221042  0.37602176  1
  Fe  Fe89  1  0.50288423  0.74953764  0.75085963  1
  Co  Co90  1  0.62407565  0.88006698  0.37681170  1
  Co  Co91  1  -0.00114505  0.49587192  0.24840041  1
  Co  Co92  1  -0.00279306  0.50249683  0.50205316  1
  Co  Co93  1  0.62356281  0.37626678  0.62227900  1
  Co  Co94  1  0.75121315  0.24941414  -0.00196318  1
  Co  Co95  1  0.25100093  0.50076903  0.24813938  1
  Co  Co96  1  0.25026878  0.24987984  0.25449767  1
  Co  Co97  1  0.37660196  0.62710410  0.62707937  1
  Co  Co98  1  0.12165309  0.87832310  0.87189649  1
  Co  Co99  1  0.63236303  0.12392442  0.62728266  1
  Co  Co100  1  0.24771708  0.24935701  -0.00518431  1
  Co  Co101  1  0.87532900  0.12538620  0.37447716  1
  Co  Co102  1  0.25228993  0.50167713  0.50282311  1
  Co  Co103  1  -0.00068880  0.00125981  0.00227410  1
  Co  Co104  1  0.25234855  -0.00213389  0.74966014  1
  Co  Co105  1  -0.00705223  -0.00139471  0.74793654  1
  Co  Co106  1  0.87765292  0.37572262  0.87718993  1
  Co  Co107  1  0.87586894  0.87685841  0.87977956  1
  Co  Co108  1  -0.00063915  0.50062870  0.00152221  1
  Co  Co109  1  0.50050006  0.00324049  0.50628152  1
  Co  Co110  1  0.62884574  0.62579109  0.87280133  1
  Co  Co111  1  0.00238861  0.75284082  0.25207620  1
  Co  Co112  1  0.87419166  0.37260090  0.62063388  1
  Co  Co113  1  0.87615557  0.87192413  0.12510995  1
  Co  Co114  1  0.87223044  0.62389150  0.62848533  1
  Co  Co115  1  0.50236675  0.24632131  0.74803760  1
  Co  Co116  1  0.75188589  -0.00262896  0.24746915  1
  Co  Co117  1  0.62774593  0.12841187  0.12775591  1
  Co  Co118  1  -0.00457787  0.75215830  0.75070004  1
  Co  Co119  1  0.50191486  0.74863128  -0.00363107  1
  Co  Co120  1  0.75112734  0.50372232  0.49922158  1
  Co  Co121  1  0.36933133  0.12760095  0.62507297  1
  Co  Co122  1  0.62322565  0.37272049  0.87767806  1
  Co  Co123  1  0.87840805  0.62379699  0.37026523  1
  Co  Co124  1  0.62236906  0.62203727  0.37387844  1
  Co  Co125  1  0.87449303  0.87408440  0.61933608  1
  Co  Co126  1  0.62394286  0.87184008  0.12470112  1
  Co  Co127  1  0.49932304  -0.00071001  0.24521368  1
