# generated using pymatgen
data_Fe45Co19
_symmetry_space_group_name_H-M   'P 1'
_cell_length_a   11.41582967
_cell_length_b   11.41466089
_cell_length_c   11.41527045
_cell_angle_alpha   89.99852979
_cell_angle_beta   90.00095207
_cell_angle_gamma   90.00138485
_symmetry_Int_Tables_number   1
_chemical_formula_structural   Fe45Co19
_chemical_formula_sum   'Fe90 Co38'
_cell_volume   1487.49905773
_cell_formula_units_Z   2
loop_
 _symmetry_equiv_pos_site_id
 _symmetry_equiv_pos_as_xyz
  1  'x, y, z'
loop_
 _atom_site_type_symbol
 _atom_site_label
 _atom_site_symmetry_multiplicity
 _atom_site_fract_x
 _atom_site_fract_y
 _atom_site_fract_z
 _atom_site_occupancy
  Fe  Fe0  1  0.74745356  0.74998682  0.00091127  1
  Fe  Fe1  1  0.12570428  0.87361941  0.12728547  1
  Fe  Fe2  1  0.00009851  0.50103999  0.50245941  1
  Fe  Fe3  1  0.24678505  0.49955226  0.00232760  1
  Fe  Fe4  1  0.00095845  0.49556187  0.00492653  1
  Fe  Fe5  1  0.25144514  0.00105060  0.75000708  1
  Fe  Fe6  1  -0.00135375  0.50118209  0.74634779  1
  Fe  Fe7  1  0.87658333  0.62846304  0.12661765  1
  Fe  Fe8  1  0.87323668  0.37096431  0.62361214  1
  Fe  Fe9  1  0.62493252  0.87659849  0.87409648  1
  Fe  Fe10  1  0.87452086  0.37434161  0.37435390  1
  Fe  Fe11  1  0.50304480  0.49883813  0.00023591  1
  Fe  Fe12  1  -0.00052876  0.24839810  0.50014646  1
  Fe  Fe13  1  0.12510129  0.12787206  0.12458414  1
  Fe  Fe14  1  0.12683494  0.37387676  0.62697282  1
  Fe  Fe15  1  0.37434355  0.37293895  0.12144493  1
  Fe  Fe16  1  0.37619606  0.87659553  0.87569554  1
  Fe  Fe17  1  0.74949561  0.75040129  0.74967350  1
  Fe  Fe18  1  0.75068840  0.00015274  0.74859305  1
  Fe  Fe19  1  0.12626087  0.87627303  0.37343986  1
  Fe  Fe20  1  0.25221713  0.00217552  0.49947031  1
  Fe  Fe21  1  0.87267428  0.87422026  0.62098481  1
  Fe  Fe22  1  0.87494175  0.87433351  0.87638230  1
  Fe  Fe23  1  0.25375211  0.25096562  0.75696229  1
  Fe  Fe24  1  0.49536404  0.50301250  0.25070683  1
  Fe  Fe25  1  0.25428610  0.74622057  0.24947178  1
  Fe  Fe26  1  0.12627543  0.12589583  0.62677137  1
  Fe  Fe27  1  0.87349257  0.12585929  0.12647910  1
  Fe  Fe28  1  0.12463818  0.12394864  0.37257164  1
  Fe  Fe29  1  0.87561855  0.62455422  0.87620368  1
  Fe  Fe30  1  0.12570358  0.87609884  0.62453815  1
  Fe  Fe31  1  0.24988250  0.00172855  0.00069956  1
  Fe  Fe32  1  0.00237325  0.75111946  0.00153496  1
  Fe  Fe33  1  0.62475375  0.62338019  0.87368015  1
  Fe  Fe34  1  0.87379485  0.62621381  0.37470092  1
  Fe  Fe35  1  0.49942106  0.49974173  0.50075474  1
  Fe  Fe36  1  0.74885885  -0.00156761  0.00309700  1
  Fe  Fe37  1  0.75077704  0.50172615  0.24856190  1
  Fe  Fe38  1  0.87389382  0.37605544  0.87688946  1
  Fe  Fe39  1  0.00016420  0.74818760  0.74729552  1
  Fe  Fe40  1  0.62447616  0.37407705  0.12650491  1
  Fe  Fe41  1  -0.00076393  0.25240587  0.24771835  1
  Fe  Fe42  1  0.37680491  0.87261563  0.62156474  1
  Fe  Fe43  1  0.24953480  0.74909364  -0.00059190  1
  Fe  Fe44  1  0.62162798  0.62812099  0.12783774  1
  Fe  Fe45  1  0.37740881  0.87372845  0.37767126  1
  Fe  Fe46  1  0.74749304  0.25042956  -0.00105856  1
  Fe  Fe47  1  0.50152249  -0.00063810  0.00177625  1
  Fe  Fe48  1  0.25446532  0.00129935  0.24908152  1
  Fe  Fe49  1  0.12333160  0.62283254  0.87481866  1
  Fe  Fe50  1  0.25242767  0.25019535  0.25138244  1
  Fe  Fe51  1  0.37793348  0.87112347  0.12419865  1
  Fe  Fe52  1  0.37446644  0.37577624  0.37559290  1
  Fe  Fe53  1  0.74459134  0.74883704  0.49805555  1
  Fe  Fe54  1  0.37719934  0.62463583  0.87768951  1
  Fe  Fe55  1  0.61893296  0.12406977  0.37255532  1
  Fe  Fe56  1  -0.00415009  -0.00327406  0.24990385  1
  Fe  Fe57  1  0.37764153  0.12945142  0.62505686  1
  Fe  Fe58  1  0.62307950  0.87331819  0.13016029  1
  Fe  Fe59  1  0.62396149  0.37689473  0.37468205  1
  Fe  Fe60  1  0.50088666  0.00054400  0.74775529  1
  Fe  Fe61  1  0.37749686  0.12944239  0.12233161  1
  Fe  Fe62  1  0.00039375  0.00027806  0.00137530  1
  Fe  Fe63  1  0.62304300  0.12810071  0.62430155  1
  Fe  Fe64  1  0.74954611  0.50129128  0.00256339  1
  Fe  Fe65  1  0.62322550  0.37152292  0.62455351  1
  Fe  Fe66  1  0.75177849  0.49967275  0.74854588  1
  Fe  Fe67  1  0.62200726  0.87776706  0.37260784  1
  Fe  Fe68  1  0.75060186  0.49818623  0.50094976  1
  Fe  Fe69  1  0.37354344  0.62741517  0.62116072  1
  Fe  Fe70  1  0.25081720  0.24891279  0.49773291  1
  Fe  Fe71  1  -0.00121286  0.00026908  0.74869114  1
  Fe  Fe72  1  0.62523732  0.62333821  0.62552913  1
  Fe  Fe73  1  0.12790353  0.62370348  0.37201806  1
  Fe  Fe74  1  0.62275345  0.12520372  0.12764866  1
  Fe  Fe75  1  0.00003626  0.24940664  0.75250223  1
  Fe  Fe76  1  0.87459522  0.12425853  0.87603336  1
  Fe  Fe77  1  0.50158765  0.75087060  0.74881702  1
  Fe  Fe78  1  0.74723676  0.24973381  0.75260085  1
  Fe  Fe79  1  0.24971897  0.74981380  0.75026084  1
  Fe  Fe80  1  0.12555319  0.87720557  0.87422868  1
  Fe  Fe81  1  0.49779949  0.49671900  0.74909067  1
  Fe  Fe82  1  0.74855116  0.24925092  0.25284361  1
  Fe  Fe83  1  -0.00201617  0.00276168  0.49949495  1
  Fe  Fe84  1  0.25177408  0.49860249  0.75069833  1
  Fe  Fe85  1  0.00134363  0.49788007  0.24668746  1
  Fe  Fe86  1  0.12530260  0.37534164  0.37314303  1
  Fe  Fe87  1  0.75104220  0.00522507  0.49651104  1
  Fe  Fe88  1  0.00335480  0.74775335  0.50010954  1
  Fe  Fe89  1  0.24905671  0.49813338  0.50088273  1
  Co  Co90  1  0.75236547  -0.00047280  0.25178244  1
  Co  Co91  1  0.50406633  0.25111932  -0.00464553  1
  Co  Co92  1  0.49520404  -0.00002799  0.24804095  1
  Co  Co93  1  0.37449282  0.37210443  0.62428842  1
  Co  Co94  1  0.87313154  0.12691425  0.62606446  1
  Co  Co95  1  0.12956031  0.62336208  0.62549458  1
  Co  Co96  1  0.37733232  0.12492839  0.37458955  1
  Co  Co97  1  0.87052228  0.37304372  0.12631045  1
  Co  Co98  1  0.49841704  0.00106946  0.50123069  1
  Co  Co99  1  -0.00175745  0.25140059  0.00030142  1
  Co  Co100  1  0.49985827  0.25203510  0.75588405  1
  Co  Co101  1  0.87146561  0.62750471  0.62252339  1
  Co  Co102  1  0.49722770  0.74547937  0.25407091  1
  Co  Co103  1  0.12479345  0.62663038  0.12779985  1
  Co  Co104  1  0.25321166  0.50083869  0.24728839  1
  Co  Co105  1  0.62689234  0.37908808  0.87464209  1
  Co  Co106  1  0.12951685  0.37032704  0.12521418  1
  Co  Co107  1  0.37724976  0.62502932  0.11980495  1
  Co  Co108  1  0.12310477  0.37629614  0.87469468  1
  Co  Co109  1  0.62606573  0.62117030  0.37348314  1
  Co  Co110  1  0.62465335  0.12111134  0.87527996  1
  Co  Co111  1  0.37252088  0.62524587  0.38154706  1
  Co  Co112  1  0.87347991  0.87207486  0.37864045  1
  Co  Co113  1  0.87430280  0.87303722  0.12419826  1
  Co  Co114  1  0.49904959  0.25169645  0.49705529  1
  Co  Co115  1  0.74866069  0.24814407  0.49563968  1
  Co  Co116  1  0.24637972  0.75215820  0.49969818  1
  Co  Co117  1  0.87766861  0.12765186  0.37153004  1
  Co  Co118  1  0.37592453  0.37784525  0.88037598  1
  Co  Co119  1  0.62702601  0.87834577  0.62307665  1
  Co  Co120  1  0.12414164  0.12352407  0.87537116  1
  Co  Co121  1  0.37837597  0.12080930  0.87691157  1
  Co  Co122  1  -0.00047542  0.75203247  0.25179056  1
  Co  Co123  1  0.24986597  0.24857815  -0.00576408  1
  Co  Co124  1  0.49842224  0.25307579  0.25092700  1
  Co  Co125  1  0.50588410  0.74894792  0.49914820  1
  Co  Co126  1  0.74932451  0.75101465  0.25066364  1
  Co  Co127  1  0.50244675  0.75169166  -0.00271003  1
