# generated using pymatgen
data_Fe45Co19
_symmetry_space_group_name_H-M   'P 1'
_cell_length_a   11.41480792
_cell_length_b   11.41603324
_cell_length_c   11.41575652
_cell_angle_alpha   89.99285594
_cell_angle_beta   89.99439134
_cell_angle_gamma   89.99700791
_symmetry_Int_Tables_number   1
_chemical_formula_structural   Fe45Co19
_chemical_formula_sum   'Fe90 Co38'
_cell_volume   1487.60806401
_cell_formula_units_Z   2
loop_
 _symmetry_equiv_pos_site_id
 _symmetry_equiv_pos_as_xyz
  1  'x, y, z'
loop_
 _atom_site_type_symbol
 _atom_site_label
 _atom_site_symmetry_multiplicity
 _atom_site_fract_x
 _atom_site_fract_y
 _atom_site_fract_z
 _atom_site_occupancy
  Fe  Fe0  1  0.75051566  0.49710011  0.25012516  1
  Fe  Fe1  1  0.12555223  0.12798289  0.87550933  1
  Fe  Fe2  1  0.87140498  0.87687903  0.87026540  1
  Fe  Fe3  1  0.12383606  0.87658331  0.62539616  1
  Fe  Fe4  1  0.12608412  0.12746947  0.12455269  1
  Fe  Fe5  1  0.62596066  0.62393806  0.37454759  1
  Fe  Fe6  1  0.37159836  0.62077373  0.12584879  1
  Fe  Fe7  1  -0.00226610  0.75135222  0.00045006  1
  Fe  Fe8  1  0.63260124  0.12505842  0.12678932  1
  Fe  Fe9  1  0.62550839  0.37421461  0.37868817  1
  Fe  Fe10  1  0.37360190  0.12458257  0.62628434  1
  Fe  Fe11  1  0.62599935  0.37580610  0.62223788  1
  Fe  Fe12  1  0.62791756  0.62438957  0.87884928  1
  Fe  Fe13  1  0.24939196  -0.00065779  0.49782754  1
  Fe  Fe14  1  0.61879892  0.37424021  0.87781997  1
  Fe  Fe15  1  0.62665550  0.87488450  0.62546901  1
  Fe  Fe16  1  0.25127180  0.25382554  0.49694699  1
  Fe  Fe17  1  0.50068983  0.74854392  0.24745690  1
  Fe  Fe18  1  0.49921831  0.24768047  0.49960516  1
  Fe  Fe19  1  0.87386778  0.87751755  0.12444713  1
  Fe  Fe20  1  0.62688850  0.87388849  0.87503896  1
  Fe  Fe21  1  0.74696832  0.25036662  0.75027288  1
  Fe  Fe22  1  0.37737806  0.37764260  0.62627511  1
  Fe  Fe23  1  0.62298429  0.12753411  0.87696177  1
  Fe  Fe24  1  0.50088873  0.24783845  0.24907030  1
  Fe  Fe25  1  0.50049481  0.00319558  0.00242547  1
  Fe  Fe26  1  0.87649388  0.62405353  0.37431466  1
  Fe  Fe27  1  0.12496919  0.62109073  0.12677636  1
  Fe  Fe28  1  0.87376739  0.37362806  0.37756501  1
  Fe  Fe29  1  0.37728470  0.87467837  0.87659803  1
  Fe  Fe30  1  0.24852314  -0.00124636  0.75306741  1
  Fe  Fe31  1  0.00165472  0.25252816  0.74751646  1
  Fe  Fe32  1  0.37625561  0.87566885  0.37355504  1
  Fe  Fe33  1  0.87386419  0.12428114  0.62790446  1
  Fe  Fe34  1  0.25365667  0.25410007  0.75424690  1
  Fe  Fe35  1  -0.00004834  0.75058190  0.50230927  1
  Fe  Fe36  1  0.75103156  0.00130127  0.49864972  1
  Fe  Fe37  1  0.12504382  0.12787513  0.37468896  1
  Fe  Fe38  1  0.62530338  0.12523901  0.62301513  1
  Fe  Fe39  1  0.50182278  0.74665837  0.74970723  1
  Fe  Fe40  1  0.37341019  0.62264796  0.62537609  1
  Fe  Fe41  1  -0.00071649  0.00160575  0.25028972  1
  Fe  Fe42  1  0.24700317  0.74883624  0.25210515  1
  Fe  Fe43  1  0.11973303  0.62074300  0.37179099  1
  Fe  Fe44  1  -0.00104973  0.25153726  0.50301414  1
  Fe  Fe45  1  0.62334730  0.87615880  0.37336311  1
  Fe  Fe46  1  0.87188376  0.62422893  0.12418993  1
  Fe  Fe47  1  0.37718036  0.62338786  0.37479872  1
  Fe  Fe48  1  0.37527568  0.87475665  0.12474203  1
  Fe  Fe49  1  0.24883667  -0.00044241  -0.00208712  1
  Fe  Fe50  1  0.37648344  0.62206159  0.87528101  1
  Fe  Fe51  1  0.74927922  0.50025402  0.74938523  1
  Fe  Fe52  1  0.87438846  0.12536887  0.87313364  1
  Fe  Fe53  1  0.50199496  0.74603008  0.00239128  1
  Fe  Fe54  1  0.24869877  0.74853552  -0.00026656  1
  Fe  Fe55  1  -0.00221539  0.49616831  0.50466286  1
  Fe  Fe56  1  0.49938348  0.00225960  0.49708651  1
  Fe  Fe57  1  0.87731739  0.87343802  0.37559845  1
  Fe  Fe58  1  0.12721412  0.12703600  0.62580867  1
  Fe  Fe59  1  0.12724735  0.37740113  0.12445946  1
  Fe  Fe60  1  0.87399823  0.62373277  0.87423741  1
  Fe  Fe61  1  0.50140186  0.49975469  0.24818840  1
  Fe  Fe62  1  -0.00133692  0.25219451  0.24770054  1
  Fe  Fe63  1  0.12210360  0.62478880  0.87516232  1
  Fe  Fe64  1  0.37243617  0.12591527  0.12636921  1
  Fe  Fe65  1  0.25000279  0.49713625  0.49565250  1
  Fe  Fe66  1  0.62730053  0.62421089  0.62206786  1
  Fe  Fe67  1  -0.00046180  0.49919652  0.00011505  1
  Fe  Fe68  1  0.24767721  0.74976135  0.49760111  1
  Fe  Fe69  1  0.62453579  0.37414337  0.12024008  1
  Fe  Fe70  1  -0.00265067  0.24885090  0.00203656  1
  Fe  Fe71  1  0.75210434  0.74913450  0.50174343  1
  Fe  Fe72  1  -0.00185283  0.75121252  0.74800324  1
  Fe  Fe73  1  0.75114795  0.75090236  0.24946535  1
  Fe  Fe74  1  0.50107698  0.00131080  0.75048362  1
  Fe  Fe75  1  0.24796181  0.49554714  0.75571790  1
  Fe  Fe76  1  0.12370455  0.87444074  0.12548469  1
  Fe  Fe77  1  0.87153366  0.12872183  0.37167015  1
  Fe  Fe78  1  0.25078658  0.25556915  0.25335971  1
  Fe  Fe79  1  0.24885620  -0.00060178  0.25169864  1
  Fe  Fe80  1  -0.00068736  0.00157128  -0.00156047  1
  Fe  Fe81  1  0.62665425  0.87634887  0.12527998  1
  Fe  Fe82  1  0.87176056  0.37348754  0.12180193  1
  Fe  Fe83  1  0.25556647  0.25511512  -0.00343113  1
  Fe  Fe84  1  0.49955185  0.74864753  0.50074614  1
  Fe  Fe85  1  0.12479449  0.62143154  0.62665176  1
  Fe  Fe86  1  0.37579687  0.87427263  0.62562311  1
  Fe  Fe87  1  0.87562546  0.37509457  0.87365614  1
  Fe  Fe88  1  0.24984446  0.75090303  0.75088437  1
  Fe  Fe89  1  -0.00035775  0.00165972  0.50016578  1
  Co  Co90  1  0.49997476  0.50459394  0.00421723  1
  Co  Co91  1  0.49996746  0.50175297  0.50100133  1
  Co  Co92  1  0.74943363  0.74676745  0.74777212  1
  Co  Co93  1  0.62782505  0.12582824  0.37289760  1
  Co  Co94  1  0.75103323  0.24992184  -0.00292839  1
  Co  Co95  1  0.49767006  0.24545083  0.00422530  1
  Co  Co96  1  0.87637127  0.62340881  0.62642641  1
  Co  Co97  1  0.38591650  0.37766446  0.87548101  1
  Co  Co98  1  0.12758734  0.37433155  0.62511809  1
  Co  Co99  1  0.24973294  0.49739780  -0.00451445  1
  Co  Co100  1  0.25104577  0.49736992  0.25476645  1
  Co  Co101  1  0.74957475  0.25525389  0.24955258  1
  Co  Co102  1  0.75113532  0.75187658  0.00065899  1
  Co  Co103  1  0.50405599  0.50336596  0.74767292  1
  Co  Co104  1  0.38146370  0.37493337  0.37464353  1
  Co  Co105  1  0.37585948  0.12419385  0.87414515  1
  Co  Co106  1  0.75213369  -0.00270661  0.25281430  1
  Co  Co107  1  0.75076636  0.24783537  0.50193319  1
  Co  Co108  1  0.75078249  0.00165526  -0.00272928  1
  Co  Co109  1  0.50005548  0.24850598  0.74693130  1
  Co  Co110  1  0.87157370  0.12517071  0.12651106  1
  Co  Co111  1  0.87101867  0.37441322  0.62733546  1
  Co  Co112  1  0.37413870  0.12555016  0.37358671  1
  Co  Co113  1  0.37566943  0.37709550  0.12483813  1
  Co  Co114  1  0.00104541  0.49710540  0.74931573  1
  Co  Co115  1  -0.00093221  0.74994000  0.24776909  1
  Co  Co116  1  0.11943850  0.37607033  0.37463234  1
  Co  Co117  1  -0.00507850  0.49581854  0.24647221  1
  Co  Co118  1  0.00341709  0.00109698  0.75147525  1
  Co  Co119  1  0.50012217  0.00346172  0.24831352  1
  Co  Co120  1  0.75240174  0.50166375  0.49990780  1
  Co  Co121  1  0.12424498  0.87250926  0.87547172  1
  Co  Co122  1  0.12271706  0.87528398  0.37391087  1
  Co  Co123  1  0.87356680  0.87812262  0.62735936  1
  Co  Co124  1  0.63066906  0.62428509  0.12562222  1
  Co  Co125  1  0.12037803  0.37262012  0.87768439  1
  Co  Co126  1  0.75038964  0.49720749  -0.00140387  1
  Co  Co127  1  0.74582951  0.00364752  0.75009801  1
