# generated using pymatgen
data_Fe45Co19
_symmetry_space_group_name_H-M   'P 1'
_cell_length_a   11.41459904
_cell_length_b   11.41461103
_cell_length_c   11.41591777
_cell_angle_alpha   90.00280110
_cell_angle_beta   90.00081050
_cell_angle_gamma   90.00137075
_symmetry_Int_Tables_number   1
_chemical_formula_structural   Fe45Co19
_chemical_formula_sum   'Fe90 Co38'
_cell_volume   1487.41654569
_cell_formula_units_Z   2
loop_
 _symmetry_equiv_pos_site_id
 _symmetry_equiv_pos_as_xyz
  1  'x, y, z'
loop_
 _atom_site_type_symbol
 _atom_site_label
 _atom_site_symmetry_multiplicity
 _atom_site_fract_x
 _atom_site_fract_y
 _atom_site_fract_z
 _atom_site_occupancy
  Fe  Fe0  1  0.24860446  0.00076328  0.75343604  1
  Fe  Fe1  1  0.62123288  0.37371435  0.62415284  1
  Fe  Fe2  1  0.75446395  0.00371915  0.24995996  1
  Fe  Fe3  1  0.13137136  0.37410686  0.87242647  1
  Fe  Fe4  1  0.74969148  0.49723335  0.74939484  1
  Fe  Fe5  1  0.12417606  0.61487668  0.12805478  1
  Fe  Fe6  1  0.00297166  0.00254191  0.75170646  1
  Fe  Fe7  1  0.61957958  0.36959359  0.37430685  1
  Fe  Fe8  1  0.62469609  0.12823980  0.37352814  1
  Fe  Fe9  1  0.87458770  0.87934055  0.62266950  1
  Fe  Fe10  1  0.87618864  0.87901004  0.37755539  1
  Fe  Fe11  1  0.24866780  0.74925526  0.74833267  1
  Fe  Fe12  1  0.00084080  0.25677895  0.00129362  1
  Fe  Fe13  1  0.62547846  0.37262876  0.87547721  1
  Fe  Fe14  1  0.49436240  0.25032290  0.75015801  1
  Fe  Fe15  1  0.49666949  0.49846062  -0.00171521  1
  Fe  Fe16  1  0.25015325  0.25262668  0.50268379  1
  Fe  Fe17  1  0.12318677  0.12790099  0.37206930  1
  Fe  Fe18  1  0.12536942  0.12584529  0.62621448  1
  Fe  Fe19  1  0.37239030  0.87465447  0.12585273  1
  Fe  Fe20  1  0.37339711  0.12952715  0.37263858  1
  Fe  Fe21  1  0.37010452  0.12461835  0.12233989  1
  Fe  Fe22  1  0.50020250  0.75013182  0.49979314  1
  Fe  Fe23  1  0.12622575  0.62413849  0.87490449  1
  Fe  Fe24  1  0.87505890  0.62226265  0.62391940  1
  Fe  Fe25  1  0.62488924  0.62593600  0.37543226  1
  Fe  Fe26  1  0.87797673  0.37270096  0.62889708  1
  Fe  Fe27  1  0.74924732  0.49662025  0.49889388  1
  Fe  Fe28  1  0.62566849  0.62121338  0.12500875  1
  Fe  Fe29  1  0.00044477  0.75199791  0.50210051  1
  Fe  Fe30  1  0.49889631  0.00340474  0.24885367  1
  Fe  Fe31  1  0.49868923  0.00033750  0.75278606  1
  Fe  Fe32  1  0.75015326  0.49697800  0.25181502  1
  Fe  Fe33  1  0.00148874  0.24891338  0.50236093  1
  Fe  Fe34  1  0.00219233  0.74719572  0.00212913  1
  Fe  Fe35  1  0.24997388  0.49484568  0.49149787  1
  Fe  Fe36  1  0.00230464  0.49778340  0.75206292  1
  Fe  Fe37  1  0.00622586  0.00040907  0.00343367  1
  Fe  Fe38  1  0.24701363  0.00136221  0.49759634  1
  Fe  Fe39  1  0.12575223  0.62134620  0.62147018  1
  Fe  Fe40  1  0.49717021  0.49925857  0.25402884  1
  Fe  Fe41  1  0.37452033  0.87579227  0.37302688  1
  Fe  Fe42  1  0.62664370  0.87653651  0.12548673  1
  Fe  Fe43  1  0.62454988  0.87316754  0.87621891  1
  Fe  Fe44  1  -0.00077692  0.74813465  0.24958364  1
  Fe  Fe45  1  0.37170456  0.62019633  0.12791155  1
  Fe  Fe46  1  0.75039348  0.00232188  0.75356985  1
  Fe  Fe47  1  0.50028359  0.74973839  0.24890745  1
  Fe  Fe48  1  0.75285117  0.49479443  -0.00069024  1
  Fe  Fe49  1  0.62663923  0.62477213  0.87568096  1
  Fe  Fe50  1  0.24730193  0.74856133  0.00225423  1
  Fe  Fe51  1  0.37185026  0.87493652  0.87735912  1
  Fe  Fe52  1  0.87667614  0.87772153  0.12420203  1
  Fe  Fe53  1  0.62686767  0.87664312  0.37511413  1
  Fe  Fe54  1  0.75162321  0.25081402  0.24370770  1
  Fe  Fe55  1  0.37363892  0.12333296  0.62590288  1
  Fe  Fe56  1  0.87338876  0.12983598  0.87915116  1
  Fe  Fe57  1  0.87643488  0.12580086  0.62623835  1
  Fe  Fe58  1  0.49794947  -0.00009132  0.00034311  1
  Fe  Fe59  1  0.24917740  0.75121407  0.49870197  1
  Fe  Fe60  1  0.49831778  0.74901228  0.74906984  1
  Fe  Fe61  1  0.24785724  0.74660622  0.25122489  1
  Fe  Fe62  1  0.24567597  0.00089169  0.24718660  1
  Fe  Fe63  1  0.62592669  0.12897491  0.87822118  1
  Fe  Fe64  1  0.62715255  0.87639344  0.62330372  1
  Fe  Fe65  1  0.49432782  0.25327125  0.00206766  1
  Fe  Fe66  1  0.75244800  0.74937330  0.24953461  1
  Fe  Fe67  1  0.87541960  0.62466701  0.37715989  1
  Fe  Fe68  1  0.49925349  0.00306397  0.49738292  1
  Fe  Fe69  1  0.62618469  0.62468480  0.62376251  1
  Fe  Fe70  1  -0.00108458  0.24905277  0.24437849  1
  Fe  Fe71  1  0.49810768  0.49970164  0.75008858  1
  Fe  Fe72  1  0.00182005  0.75030028  0.74730512  1
  Fe  Fe73  1  0.87902524  0.87534445  0.87689949  1
  Fe  Fe74  1  0.12210385  0.87563305  0.37331011  1
  Fe  Fe75  1  0.75151359  0.74912932  0.00180920  1
  Fe  Fe76  1  0.37291774  0.87714114  0.62406106  1
  Fe  Fe77  1  0.74977361  0.24856709  0.50211512  1
  Fe  Fe78  1  0.37288096  0.62357319  0.87494554  1
  Fe  Fe79  1  0.00144407  0.49608872  0.49670333  1
  Fe  Fe80  1  0.62419514  0.12429861  0.62666300  1
  Fe  Fe81  1  0.13113320  0.12897242  0.87978724  1
  Fe  Fe82  1  0.75199622  0.75082151  0.74938656  1
  Fe  Fe83  1  0.87789531  0.61755956  0.12533222  1
  Fe  Fe84  1  0.24933161  0.25658036  0.24511887  1
  Fe  Fe85  1  0.62810217  0.12520900  0.12116078  1
  Fe  Fe86  1  0.37357290  0.62083818  0.62134597  1
  Fe  Fe87  1  0.49929075  0.74857816  0.00236851  1
  Fe  Fe88  1  0.87473319  0.62400944  0.87407081  1
  Fe  Fe89  1  0.87591430  0.37047309  0.37384225  1
  Co  Co90  1  0.37448680  0.38075659  0.12861118  1
  Co  Co91  1  0.12145571  0.36810697  0.37336280  1
  Co  Co92  1  -0.00075323  0.49609683  -0.00791345  1
  Co  Co93  1  0.88045940  0.38078478  0.12766601  1
  Co  Co94  1  0.37450448  0.37821839  0.62283316  1
  Co  Co95  1  0.75265335  0.25738431  0.00544361  1
  Co  Co96  1  0.74832412  0.24881764  0.74791790  1
  Co  Co97  1  0.74980936  0.00583639  0.49877939  1
  Co  Co98  1  0.00186245  0.49976700  0.25801805  1
  Co  Co99  1  0.37126181  0.37550441  0.87142047  1
  Co  Co100  1  0.49845097  0.24498286  0.50409018  1
  Co  Co101  1  0.38124281  0.36716289  0.37570231  1
  Co  Co102  1  0.62117915  0.37777967  0.12542366  1
  Co  Co103  1  0.37149895  0.12529533  0.87854996  1
  Co  Co104  1  0.12490662  0.37575855  0.62589074  1
  Co  Co105  1  0.12619881  0.87746285  0.62561497  1
  Co  Co106  1  0.50051516  0.50028112  0.49698462  1
  Co  Co107  1  0.24959135  0.50032973  0.74875471  1
  Co  Co108  1  0.00477496  0.24858136  0.75293910  1
  Co  Co109  1  0.25304398  0.24967650  0.74681211  1
  Co  Co110  1  0.24665377  -0.00320078  0.00252381  1
  Co  Co111  1  0.12297927  0.62789126  0.37693954  1
  Co  Co112  1  0.37599106  0.62771710  0.37552945  1
  Co  Co113  1  0.25259419  0.25710792  0.00450281  1
  Co  Co114  1  0.87271613  0.37076282  0.86949347  1
  Co  Co115  1  0.75075851  0.74852820  0.49961571  1
  Co  Co116  1  0.00334937  0.00365516  0.49949717  1
  Co  Co117  1  0.12476145  0.87240238  0.12810141  1
  Co  Co118  1  0.49919117  0.24624119  0.24244113  1
  Co  Co119  1  0.25093867  0.49735130  -0.00035123  1
  Co  Co120  1  0.12473218  0.87312946  0.87463109  1
  Co  Co121  1  0.25046896  0.49607475  0.26043672  1
  Co  Co122  1  0.12697116  0.12971693  0.12270065  1
  Co  Co123  1  0.00050731  0.00369122  0.24789205  1
  Co  Co124  1  0.12276906  0.38295776  0.12614991  1
  Co  Co125  1  0.87753634  0.12826571  0.37479816  1
  Co  Co126  1  0.74963127  -0.00140394  -0.00244544  1
  Co  Co127  1  0.87527642  0.12489844  0.11884507  1
