# generated using pymatgen
data_Fe45Co19
_symmetry_space_group_name_H-M   'P 1'
_cell_length_a   11.41489094
_cell_length_b   11.41475653
_cell_length_c   11.41685862
_cell_angle_alpha   90.00000588
_cell_angle_beta   90.00345153
_cell_angle_gamma   89.98207719
_symmetry_Int_Tables_number   1
_chemical_formula_structural   Fe45Co19
_chemical_formula_sum   'Fe90 Co38'
_cell_volume   1487.59606321
_cell_formula_units_Z   2
loop_
 _symmetry_equiv_pos_site_id
 _symmetry_equiv_pos_as_xyz
  1  'x, y, z'
loop_
 _atom_site_type_symbol
 _atom_site_label
 _atom_site_symmetry_multiplicity
 _atom_site_fract_x
 _atom_site_fract_y
 _atom_site_fract_z
 _atom_site_occupancy
  Fe  Fe0  1  0.62686332  0.37598634  0.62469103  1
  Fe  Fe1  1  0.62468331  0.12395033  0.87474557  1
  Fe  Fe2  1  0.50135504  0.49588802  0.25097175  1
  Fe  Fe3  1  0.37904659  0.37064605  0.37722876  1
  Fe  Fe4  1  0.24715866  0.75113663  0.24919730  1
  Fe  Fe5  1  0.50067529  0.74875202  0.00065245  1
  Fe  Fe6  1  0.37424056  0.87433346  0.87056951  1
  Fe  Fe7  1  0.62589575  0.87572101  0.37616279  1
  Fe  Fe8  1  0.24682110  0.75397759  0.50214704  1
  Fe  Fe9  1  0.49779984  0.00060562  -0.00180153  1
  Fe  Fe10  1  0.12380879  0.37458213  0.62592745  1
  Fe  Fe11  1  0.87718391  0.36996910  0.37469216  1
  Fe  Fe12  1  0.74992062  0.74701342  0.00039420  1
  Fe  Fe13  1  0.00070219  0.49794202  0.00067661  1
  Fe  Fe14  1  -0.00160674  0.00150594  0.74958048  1
  Fe  Fe15  1  0.62439272  0.37675051  0.87398870  1
  Fe  Fe16  1  -0.00052176  -0.00180679  0.49756890  1
  Fe  Fe17  1  0.12533609  0.62286803  0.12613096  1
  Fe  Fe18  1  0.49714198  0.50123083  0.74707437  1
  Fe  Fe19  1  0.24799885  0.25143881  -0.00071597  1
  Fe  Fe20  1  0.75197161  0.00227354  0.25237115  1
  Fe  Fe21  1  0.24876129  0.75042199  0.00012041  1
  Fe  Fe22  1  0.75291349  0.50230102  -0.00295186  1
  Fe  Fe23  1  0.25036538  0.50075234  0.74954496  1
  Fe  Fe24  1  0.25087883  0.00057556  -0.00296184  1
  Fe  Fe25  1  0.12420651  0.87459568  0.87151220  1
  Fe  Fe26  1  0.12586754  0.62452993  0.62315076  1
  Fe  Fe27  1  0.75392575  0.50389852  0.75237295  1
  Fe  Fe28  1  0.62801916  0.87480579  0.62587710  1
  Fe  Fe29  1  0.62764643  0.62581940  0.62621455  1
  Fe  Fe30  1  0.62792714  0.62108591  0.12731788  1
  Fe  Fe31  1  0.00108049  0.75054783  0.00485418  1
  Fe  Fe32  1  0.74919028  0.24928769  0.00050505  1
  Fe  Fe33  1  0.25175653  0.49771909  0.49959997  1
  Fe  Fe34  1  0.37500525  0.12655282  0.12706365  1
  Fe  Fe35  1  0.50034849  0.24956998  0.74763434  1
  Fe  Fe36  1  0.37484705  0.37342218  0.87334207  1
  Fe  Fe37  1  0.62527068  0.62416031  0.37379846  1
  Fe  Fe38  1  0.62228328  0.12746524  0.37602193  1
  Fe  Fe39  1  0.24517400  0.25124197  0.25317365  1
  Fe  Fe40  1  0.37577547  0.62705691  0.87285276  1
  Fe  Fe41  1  0.75141802  0.49988333  0.49672135  1
  Fe  Fe42  1  0.87432361  0.87423632  0.12658241  1
  Fe  Fe43  1  0.50056921  0.75043731  0.50212582  1
  Fe  Fe44  1  -0.00223180  0.74766189  0.74548956  1
  Fe  Fe45  1  0.12452409  0.62601130  0.37592531  1
  Fe  Fe46  1  0.75121626  0.24890392  0.50104050  1
  Fe  Fe47  1  0.24859227  0.00081809  0.25393420  1
  Fe  Fe48  1  -0.00060684  -0.00120596  0.00087678  1
  Fe  Fe49  1  0.37343708  0.37496506  0.12581216  1
  Fe  Fe50  1  -0.00179160  0.50032708  0.50026096  1
  Fe  Fe51  1  0.24998872  0.49779042  0.25353543  1
  Fe  Fe52  1  0.12225468  0.62484288  0.87411132  1
  Fe  Fe53  1  0.12312899  0.12379899  0.12579829  1
  Fe  Fe54  1  0.37382292  0.87446273  0.37542383  1
  Fe  Fe55  1  0.00156466  0.25280092  0.00154642  1
  Fe  Fe56  1  0.87572468  0.62977127  0.37280835  1
  Fe  Fe57  1  0.24913023  0.24917659  0.49756734  1
  Fe  Fe58  1  0.37422881  0.62455971  0.12715706  1
  Fe  Fe59  1  0.62560808  0.87745558  0.12496699  1
  Fe  Fe60  1  0.37283643  0.12323140  0.62552757  1
  Fe  Fe61  1  0.37294461  0.87527888  0.12494189  1
  Fe  Fe62  1  0.87569362  0.87264800  0.87507229  1
  Fe  Fe63  1  0.24807234  0.24779557  0.75142053  1
  Fe  Fe64  1  0.87415350  0.37441299  0.12668062  1
  Fe  Fe65  1  0.74660989  0.24986199  0.24783714  1
  Fe  Fe66  1  0.37197531  0.87642230  0.62901728  1
  Fe  Fe67  1  0.87473897  0.87046883  0.37593486  1
  Fe  Fe68  1  -0.00101901  -0.00007608  0.25162249  1
  Fe  Fe69  1  0.87679256  0.37536296  0.62679039  1
  Fe  Fe70  1  0.12451344  0.12200046  0.62156044  1
  Fe  Fe71  1  0.87600659  0.12583943  0.87649250  1
  Fe  Fe72  1  0.49844659  0.00082277  0.25056913  1
  Fe  Fe73  1  0.37482755  0.62692872  0.37670930  1
  Fe  Fe74  1  0.62690407  0.12314331  0.62498939  1
  Fe  Fe75  1  0.49806739  0.00108789  0.50095880  1
  Fe  Fe76  1  0.62503945  0.87346094  0.87229232  1
  Fe  Fe77  1  0.87226486  0.87301427  0.62148717  1
  Fe  Fe78  1  -0.00016023  0.49864496  0.25032444  1
  Fe  Fe79  1  0.50208758  0.25044113  0.00310685  1
  Fe  Fe80  1  0.24904807  0.49891099  -0.00190286  1
  Fe  Fe81  1  0.87502513  0.12410224  0.62228396  1
  Fe  Fe82  1  0.50124716  0.75077434  0.24930659  1
  Fe  Fe83  1  0.75190870  -0.00049535  0.75021734  1
  Fe  Fe84  1  0.12207896  0.12561345  0.87597023  1
  Fe  Fe85  1  0.49904413  0.50084589  -0.00000850  1
  Fe  Fe86  1  0.87945912  0.37459995  0.87140613  1
  Fe  Fe87  1  0.75193839  0.24873144  0.75028906  1
  Fe  Fe88  1  0.75167724  0.00111929  0.00021363  1
  Fe  Fe89  1  0.49878954  0.49912806  0.50197838  1
  Co  Co90  1  0.62524224  0.12040678  0.12427841  1
  Co  Co91  1  0.37693756  0.12810367  0.37367094  1
  Co  Co92  1  0.00382298  0.25083893  0.24879098  1
  Co  Co93  1  0.24808160  0.00382842  0.75336795  1
  Co  Co94  1  0.87987834  0.62648688  0.87719466  1
  Co  Co95  1  0.00247618  0.75019593  0.50215471  1
  Co  Co96  1  0.49976545  0.74888299  0.74764457  1
  Co  Co97  1  0.00058969  0.25065956  0.50244061  1
  Co  Co98  1  0.37268705  0.62699034  0.62214655  1
  Co  Co99  1  0.12155627  0.12406721  0.37737680  1
  Co  Co100  1  0.75188458  0.49664510  0.25501438  1
  Co  Co101  1  0.24772895  0.74782168  0.74905271  1
  Co  Co102  1  0.25091624  -0.00141967  0.49738347  1
  Co  Co103  1  0.74751067  0.74824073  0.49785196  1
  Co  Co104  1  0.00012936  0.24638663  0.74787409  1
  Co  Co105  1  0.50485615  0.25257614  0.24522728  1
  Co  Co106  1  0.12367942  0.37525244  0.87044612  1
  Co  Co107  1  0.12475292  0.87835644  0.62780189  1
  Co  Co108  1  0.49971702  0.24783624  0.50541862  1
  Co  Co109  1  0.62334960  0.37149357  0.37958896  1
  Co  Co110  1  0.12684002  0.87883218  0.12496681  1
  Co  Co111  1  0.75049503  0.00176640  0.49677270  1
  Co  Co112  1  0.12189266  0.37610485  0.37815928  1
  Co  Co113  1  0.87480951  0.62444557  0.12749583  1
  Co  Co114  1  -0.00003900  0.50307687  0.74712213  1
  Co  Co115  1  0.12361126  0.87466130  0.37520030  1
  Co  Co116  1  0.87214212  0.62552868  0.62142951  1
  Co  Co117  1  0.12627648  0.37743616  0.12630941  1
  Co  Co118  1  0.62866993  0.38042128  0.12191678  1
  Co  Co119  1  0.37738008  0.12758441  0.87501893  1
  Co  Co120  1  0.74764172  0.75101819  0.24909294  1
  Co  Co121  1  0.87687158  0.12936996  0.37453680  1
  Co  Co122  1  0.37259460  0.37294376  0.62505357  1
  Co  Co123  1  0.00340801  0.75126256  0.24732477  1
  Co  Co124  1  0.75326822  0.74825682  0.75110483  1
  Co  Co125  1  0.62335325  0.62485594  0.87317157  1
  Co  Co126  1  0.50063934  0.00114945  0.74949317  1
  Co  Co127  1  0.87655817  0.12624234  0.12503470  1
