# generated using pymatgen
data_Fe45Co19
_symmetry_space_group_name_H-M   'P 1'
_cell_length_a   11.41566221
_cell_length_b   11.41520477
_cell_length_c   11.41535760
_cell_angle_alpha   90.00508986
_cell_angle_beta   89.98835516
_cell_angle_gamma   90.00789649
_symmetry_Int_Tables_number   1
_chemical_formula_structural   Fe45Co19
_chemical_formula_sum   'Fe90 Co38'
_cell_volume   1487.55941858
_cell_formula_units_Z   2
loop_
 _symmetry_equiv_pos_site_id
 _symmetry_equiv_pos_as_xyz
  1  'x, y, z'
loop_
 _atom_site_type_symbol
 _atom_site_label
 _atom_site_symmetry_multiplicity
 _atom_site_fract_x
 _atom_site_fract_y
 _atom_site_fract_z
 _atom_site_occupancy
  Fe  Fe0  1  0.62489715  0.37657603  0.12567628  1
  Fe  Fe1  1  0.62564196  0.62944589  0.87554163  1
  Fe  Fe2  1  0.12519113  0.62720323  0.87474329  1
  Fe  Fe3  1  0.87452461  0.37608552  0.87840947  1
  Fe  Fe4  1  0.37588502  0.12676038  0.37663992  1
  Fe  Fe5  1  0.25161504  0.75075989  0.24866353  1
  Fe  Fe6  1  -0.00251700  0.24700367  0.74659430  1
  Fe  Fe7  1  0.62086712  0.62242913  0.62218818  1
  Fe  Fe8  1  0.74861595  0.49911693  0.49912936  1
  Fe  Fe9  1  0.12576365  0.37299950  0.87451604  1
  Fe  Fe10  1  0.62458870  0.12153415  0.12489739  1
  Fe  Fe11  1  0.87510153  0.62510966  0.62291102  1
  Fe  Fe12  1  0.25366433  0.50085213  0.25481756  1
  Fe  Fe13  1  0.62805378  0.12150426  0.62540102  1
  Fe  Fe14  1  0.49900579  0.24854598  0.24887319  1
  Fe  Fe15  1  0.87272112  0.62465258  0.37702166  1
  Fe  Fe16  1  -0.00269998  0.25205730  0.24769078  1
  Fe  Fe17  1  0.37604164  0.38257839  0.62477098  1
  Fe  Fe18  1  0.25195606  0.75230102  0.00331631  1
  Fe  Fe19  1  0.74989433  0.00158949  0.25411628  1
  Fe  Fe20  1  0.12723729  0.62776527  0.37623715  1
  Fe  Fe21  1  -0.00088084  0.75173152  0.00265327  1
  Fe  Fe22  1  0.49663430  0.50229497  0.25643462  1
  Fe  Fe23  1  0.49682562  0.75264181  0.00211234  1
  Fe  Fe24  1  -0.00185205  0.74975517  0.74758776  1
  Fe  Fe25  1  0.49700586  0.74666153  0.25063842  1
  Fe  Fe26  1  0.12599722  0.62292079  0.12657720  1
  Fe  Fe27  1  0.37456012  0.37544065  0.87411583  1
  Fe  Fe28  1  0.62437939  0.87749118  0.12803612  1
  Fe  Fe29  1  0.74916293  0.50146182  0.75119984  1
  Fe  Fe30  1  0.12512492  0.87319406  0.87281996  1
  Fe  Fe31  1  0.00142957  0.75008822  0.50050998  1
  Fe  Fe32  1  -0.00196771  -0.00295457  0.00059644  1
  Fe  Fe33  1  0.62342253  0.37769745  0.62573689  1
  Fe  Fe34  1  0.87374030  0.12238142  0.12340400  1
  Fe  Fe35  1  0.25082210  -0.00236749  -0.00125514  1
  Fe  Fe36  1  0.12282085  0.87631991  0.62505329  1
  Fe  Fe37  1  0.12459118  0.12553318  0.87453882  1
  Fe  Fe38  1  0.37481422  0.12558230  0.87538086  1
  Fe  Fe39  1  0.24804383  0.49924885  -0.00080118  1
  Fe  Fe40  1  0.75287568  0.74916219  0.24870127  1
  Fe  Fe41  1  0.49877646  0.74954653  0.74691364  1
  Fe  Fe42  1  0.12489938  0.37139934  0.37432962  1
  Fe  Fe43  1  0.75191691  0.49849537  0.25034590  1
  Fe  Fe44  1  0.62390416  0.62359358  0.12619395  1
  Fe  Fe45  1  0.74937635  0.25060812  0.50060834  1
  Fe  Fe46  1  0.37552690  0.87226331  0.37550983  1
  Fe  Fe47  1  0.75352582  -0.00048515  0.75502135  1
  Fe  Fe48  1  0.49996494  -0.00092092  0.75331127  1
  Fe  Fe49  1  0.37532402  0.12156469  0.62329354  1
  Fe  Fe50  1  0.00095874  0.49933490  0.49789677  1
  Fe  Fe51  1  0.00186719  0.25200919  0.00337620  1
  Fe  Fe52  1  0.12552688  0.12380025  0.12581957  1
  Fe  Fe53  1  -0.00322949  0.00169658  0.74876506  1
  Fe  Fe54  1  0.74838050  0.24756856  -0.00058255  1
  Fe  Fe55  1  0.75136735  0.75302045  0.00297011  1
  Fe  Fe56  1  0.50615978  -0.00188295  0.49473626  1
  Fe  Fe57  1  0.62513008  0.37351799  0.37381348  1
  Fe  Fe58  1  0.49977959  -0.00380172  -0.00302565  1
  Fe  Fe59  1  0.25145369  0.74672057  0.74273049  1
  Fe  Fe60  1  0.25050247  -0.00051803  0.75016382  1
  Fe  Fe61  1  0.00352687  0.00445336  0.49936022  1
  Fe  Fe62  1  0.37360830  0.62551532  0.87396690  1
  Fe  Fe63  1  0.75112224  0.75206218  0.74671337  1
  Fe  Fe64  1  0.37434814  0.37712267  0.12473801  1
  Fe  Fe65  1  0.12401088  0.87588677  0.12848585  1
  Fe  Fe66  1  0.25195511  0.24815103  0.24762986  1
  Fe  Fe67  1  0.75216077  0.25066397  0.24956990  1
  Fe  Fe68  1  0.25202084  0.24969889  0.74844585  1
  Fe  Fe69  1  0.50100412  0.25059467  0.50215225  1
  Fe  Fe70  1  0.24880796  -0.00018422  0.25320367  1
  Fe  Fe71  1  0.37815324  0.87610582  0.62224294  1
  Fe  Fe72  1  0.37532268  0.12137214  0.12413157  1
  Fe  Fe73  1  -0.00003272  0.50152293  0.75134654  1
  Fe  Fe74  1  0.87565945  0.37511413  0.62347368  1
  Fe  Fe75  1  0.24903334  0.24958939  0.50245473  1
  Fe  Fe76  1  0.75162621  0.24811507  0.75084862  1
  Fe  Fe77  1  0.50120011  0.50106331  -0.00226485  1
  Fe  Fe78  1  0.87574150  0.62074691  0.12232361  1
  Fe  Fe79  1  0.74570820  0.75474554  0.50061756  1
  Fe  Fe80  1  0.24653989  -0.00078217  0.49712588  1
  Fe  Fe81  1  0.49958683  0.24928553  0.74801521  1
  Fe  Fe82  1  0.12519552  0.37677909  0.62547392  1
  Fe  Fe83  1  -0.00205077  0.49751702  0.24988564  1
  Fe  Fe84  1  0.62542372  0.37335455  0.87447495  1
  Fe  Fe85  1  0.87604387  0.12711938  0.37866696  1
  Fe  Fe86  1  0.49936051  0.24901545  0.00041532  1
  Fe  Fe87  1  -0.00186946  0.74977643  0.24901234  1
  Fe  Fe88  1  0.87481692  0.62515634  0.87739814  1
  Fe  Fe89  1  0.87750035  0.87619956  0.37562263  1
  Co  Co90  1  0.00403688  0.49910954  -0.00001459  1
  Co  Co91  1  0.37202631  0.63119179  0.38302445  1
  Co  Co92  1  0.37420233  0.62153573  0.12393344  1
  Co  Co93  1  0.62421208  0.87113853  0.36740230  1
  Co  Co94  1  0.74961671  -0.00146591  -0.00301862  1
  Co  Co95  1  0.62866235  0.62561704  0.37426781  1
  Co  Co96  1  0.50500445  0.75233315  0.50038278  1
  Co  Co97  1  0.00223250  0.24761020  0.50363074  1
  Co  Co98  1  -0.00015117  0.00183158  0.25153518  1
  Co  Co99  1  0.87013034  0.12267937  0.62086648  1
  Co  Co100  1  0.87368316  0.87842811  0.12795025  1
  Co  Co101  1  0.87537863  0.37376021  0.37859839  1
  Co  Co102  1  0.50049128  0.00297704  0.25460863  1
  Co  Co103  1  0.74543417  -0.00329103  0.49408622  1
  Co  Co104  1  0.62470088  0.13063448  0.37537905  1
  Co  Co105  1  0.12485840  0.12996209  0.37253660  1
  Co  Co106  1  0.12790531  0.12471998  0.62775493  1
  Co  Co107  1  0.37945022  0.62023087  0.62044362  1
  Co  Co108  1  0.87829462  0.12668263  0.87832742  1
  Co  Co109  1  0.12328314  0.87207113  0.37406413  1
  Co  Co110  1  0.87564833  0.87197146  0.87499847  1
  Co  Co111  1  0.62578855  0.87169830  0.87441123  1
  Co  Co112  1  0.25044508  0.24921798  0.00072139  1
  Co  Co113  1  0.62284534  0.12491714  0.87372315  1
  Co  Co114  1  0.37415381  0.36946677  0.37592870  1
  Co  Co115  1  0.87210423  0.37721377  0.12019595  1
  Co  Co116  1  0.24792779  0.50258701  0.74997346  1
  Co  Co117  1  0.12911213  0.37659604  0.12839087  1
  Co  Co118  1  0.24807963  0.75222890  0.50613457  1
  Co  Co119  1  0.37630921  0.87855733  0.12906773  1
  Co  Co120  1  0.62511765  0.87968729  0.62923387  1
  Co  Co121  1  0.50252405  0.50124306  0.75398029  1
  Co  Co122  1  0.12272158  0.62273729  0.62260459  1
  Co  Co123  1  0.87556227  0.87754815  0.62137989  1
  Co  Co124  1  0.74601361  0.50181214  -0.00175607  1
  Co  Co125  1  0.37296742  0.87173515  0.87187688  1
  Co  Co126  1  0.24874784  0.49927261  0.49745853  1
  Co  Co127  1  0.50024329  0.49930602  0.49199914  1
