# generated using pymatgen
data_Fe45Co19
_symmetry_space_group_name_H-M   'P 1'
_cell_length_a   11.41377411
_cell_length_b   11.41598552
_cell_length_c   11.41489554
_cell_angle_alpha   89.99952610
_cell_angle_beta   90.00954247
_cell_angle_gamma   89.99427081
_symmetry_Int_Tables_number   1
_chemical_formula_structural   Fe45Co19
_chemical_formula_sum   'Fe90 Co38'
_cell_volume   1487.35492373
_cell_formula_units_Z   2
loop_
 _symmetry_equiv_pos_site_id
 _symmetry_equiv_pos_as_xyz
  1  'x, y, z'
loop_
 _atom_site_type_symbol
 _atom_site_label
 _atom_site_symmetry_multiplicity
 _atom_site_fract_x
 _atom_site_fract_y
 _atom_site_fract_z
 _atom_site_occupancy
  Fe  Fe0  1  0.74846894  0.25005764  0.50167903  1
  Fe  Fe1  1  0.13191766  0.62111507  0.37557555  1
  Fe  Fe2  1  0.37560567  0.12565145  0.12421398  1
  Fe  Fe3  1  0.87952738  0.37493696  0.12742153  1
  Fe  Fe4  1  0.12609353  0.12271188  0.11986399  1
  Fe  Fe5  1  0.50062838  -0.00024901  -0.00220608  1
  Fe  Fe6  1  0.49892209  0.00372130  0.49868199  1
  Fe  Fe7  1  0.87648755  0.37495819  0.62671746  1
  Fe  Fe8  1  0.49572861  0.74894966  0.49674575  1
  Fe  Fe9  1  0.87762203  0.37264476  0.37106254  1
  Fe  Fe10  1  0.12663241  0.62425077  0.62559575  1
  Fe  Fe11  1  0.50118523  0.50260190  -0.00075479  1
  Fe  Fe12  1  0.62475107  0.87597986  0.37659386  1
  Fe  Fe13  1  0.62606802  0.62383628  0.37550302  1
  Fe  Fe14  1  0.00009426  0.00236198  0.50055215  1
  Fe  Fe15  1  0.12609072  0.62465092  0.12508226  1
  Fe  Fe16  1  0.00041215  0.49942314  0.49834661  1
  Fe  Fe17  1  0.37126589  0.37659025  0.37521179  1
  Fe  Fe18  1  0.49947825  0.49883913  0.50086435  1
  Fe  Fe19  1  0.37332770  0.62467758  0.87507155  1
  Fe  Fe20  1  0.74961813  0.24902452  0.24589318  1
  Fe  Fe21  1  0.74898209  0.49749198  0.50072287  1
  Fe  Fe22  1  0.61818671  0.37180167  0.62698885  1
  Fe  Fe23  1  0.74968344  0.49887809  0.00198725  1
  Fe  Fe24  1  0.12882414  0.87767222  0.37797278  1
  Fe  Fe25  1  0.62628107  0.12604067  0.37326152  1
  Fe  Fe26  1  0.75031414  -0.00032567  0.50323534  1
  Fe  Fe27  1  0.25048469  0.49724388  0.00155305  1
  Fe  Fe28  1  0.37503896  0.87737119  0.62239623  1
  Fe  Fe29  1  0.62267241  0.37547425  0.87442429  1
  Fe  Fe30  1  0.12567596  0.87513852  0.62418769  1
  Fe  Fe31  1  0.25364447  0.25292950  0.75174393  1
  Fe  Fe32  1  0.37383890  0.62561003  0.12614725  1
  Fe  Fe33  1  0.87600029  0.62466163  0.12726814  1
  Fe  Fe34  1  0.74490169  -0.00276145  0.74794740  1
  Fe  Fe35  1  0.37949182  0.12742172  0.62653435  1
  Fe  Fe36  1  0.74946730  0.75094341  0.24999319  1
  Fe  Fe37  1  0.62308495  0.87494460  0.12369003  1
  Fe  Fe38  1  0.62465258  0.37431181  0.37123437  1
  Fe  Fe39  1  0.74730075  0.24999730  0.74847084  1
  Fe  Fe40  1  0.62605268  0.62656339  0.87383916  1
  Fe  Fe41  1  0.24649816  0.25448329  0.24502005  1
  Fe  Fe42  1  0.74915272  0.00071637  0.00074585  1
  Fe  Fe43  1  0.00233098  0.74909946  0.25196141  1
  Fe  Fe44  1  0.12742993  0.12602278  0.37526857  1
  Fe  Fe45  1  0.49923662  -0.00041590  0.25071195  1
  Fe  Fe46  1  0.87297557  0.62395366  0.37457649  1
  Fe  Fe47  1  0.12214328  0.87614574  0.12066050  1
  Fe  Fe48  1  0.12502654  0.12759040  0.62855596  1
  Fe  Fe49  1  0.24907461  0.75151616  0.75003450  1
  Fe  Fe50  1  0.37818583  0.37385310  0.12235433  1
  Fe  Fe51  1  0.87589205  0.87681038  0.37529124  1
  Fe  Fe52  1  0.37232551  0.12605010  0.37217542  1
  Fe  Fe53  1  0.49937216  0.49958274  0.24934678  1
  Fe  Fe54  1  -0.00090660  0.24905035  0.49973855  1
  Fe  Fe55  1  0.74769506  0.75276057  0.74615333  1
  Fe  Fe56  1  0.50290282  0.24857204  -0.00048872  1
  Fe  Fe57  1  -0.00016969  0.50046308  0.75266536  1
  Fe  Fe58  1  0.49752574  0.75014805  0.25307029  1
  Fe  Fe59  1  0.37644793  0.87320619  0.87570294  1
  Fe  Fe60  1  0.00193366  0.00239698  0.75404200  1
  Fe  Fe61  1  0.87131029  0.12614750  0.87402969  1
  Fe  Fe62  1  0.24879867  0.75170422  -0.00078652  1
  Fe  Fe63  1  0.62552893  0.62469124  0.12661248  1
  Fe  Fe64  1  0.87963847  0.87475675  0.12279126  1
  Fe  Fe65  1  0.74712959  0.25039002  0.00262981  1
  Fe  Fe66  1  0.12602854  0.37382764  0.87615745  1
  Fe  Fe67  1  0.37649607  0.87438467  0.12353281  1
  Fe  Fe68  1  0.25234703  0.75244287  0.25282636  1
  Fe  Fe69  1  0.87598984  0.87300857  0.87553053  1
  Fe  Fe70  1  0.25126582  0.25106115  0.50215562  1
  Fe  Fe71  1  0.87471702  0.12483111  0.62657522  1
  Fe  Fe72  1  -0.00132450  0.00375214  0.25036136  1
  Fe  Fe73  1  0.25026574  -0.00130721  0.24766374  1
  Fe  Fe74  1  0.87365170  0.37486234  0.87416827  1
  Fe  Fe75  1  -0.00141407  0.50478740  -0.00401490  1
  Fe  Fe76  1  0.75144748  0.00112164  0.24778139  1
  Fe  Fe77  1  0.75115617  0.75237580  0.50288040  1
  Fe  Fe78  1  0.25365143  0.49548984  0.74883074  1
  Fe  Fe79  1  0.87493131  0.62446970  0.62594886  1
  Fe  Fe80  1  0.75040857  0.74963231  0.00112032  1
  Fe  Fe81  1  0.00197126  0.74758672  0.75451599  1
  Fe  Fe82  1  0.00129822  0.74951194  0.49950423  1
  Fe  Fe83  1  0.00018086  0.24671539  -0.00285928  1
  Fe  Fe84  1  0.37320541  0.12640320  0.87726131  1
  Fe  Fe85  1  0.50168516  0.75010969  0.74919898  1
  Fe  Fe86  1  0.25039232  -0.00002512  0.75178105  1
  Fe  Fe87  1  0.74661877  0.49997307  0.74751903  1
  Fe  Fe88  1  0.37487133  0.62365241  0.62483113  1
  Fe  Fe89  1  0.12348843  0.37365580  0.62557202  1
  Co  Co90  1  0.24964498  0.25279435  0.00267816  1
  Co  Co91  1  0.11739392  0.37677682  0.12131719  1
  Co  Co92  1  0.75082862  0.49880272  0.24904437  1
  Co  Co93  1  0.49948514  0.24958281  0.49488666  1
  Co  Co94  1  0.00255844  0.50215186  0.25276206  1
  Co  Co95  1  0.62143331  0.12660790  0.62560577  1
  Co  Co96  1  0.00080750  0.74446146  -0.00347516  1
  Co  Co97  1  0.13139821  0.62213599  0.87414457  1
  Co  Co98  1  0.25080177  0.49720363  0.50587369  1
  Co  Co99  1  0.49806994  0.25077202  0.25045019  1
  Co  Co100  1  0.37249024  0.87966556  0.37791670  1
  Co  Co101  1  0.49894736  0.50194474  0.75080795  1
  Co  Co102  1  0.38072673  0.37215544  0.62496518  1
  Co  Co103  1  0.12981920  0.12764527  0.87589117  1
  Co  Co104  1  0.62442177  0.87297125  0.87716258  1
  Co  Co105  1  0.62654983  0.12503673  0.87473401  1
  Co  Co106  1  0.12424212  0.87582035  0.87744691  1
  Co  Co107  1  0.87536318  0.12621167  0.12349308  1
  Co  Co108  1  0.50069427  -0.00061187  0.75304715  1
  Co  Co109  1  0.37767447  0.37550017  0.87868525  1
  Co  Co110  1  0.24990635  0.00471089  0.50379879  1
  Co  Co111  1  0.12589853  0.37494353  0.37676162  1
  Co  Co112  1  0.00379213  0.24553985  0.24944236  1
  Co  Co113  1  -0.00123000  0.24973334  0.75246142  1
  Co  Co114  1  0.62271104  0.37507860  0.12609049  1
  Co  Co115  1  0.24888553  0.49443732  0.24441460  1
  Co  Co116  1  0.86888537  0.62548628  0.87194074  1
  Co  Co117  1  0.87989500  0.87520116  0.62689444  1
  Co  Co118  1  -0.00104703  0.00372814  -0.00500816  1
  Co  Co119  1  0.61967873  0.87581354  0.62178352  1
  Co  Co120  1  0.37138177  0.61855741  0.37371912  1
  Co  Co121  1  0.25274615  -0.00249425  -0.00184857  1
  Co  Co122  1  0.49888677  0.24865455  0.75541043  1
  Co  Co123  1  0.62229060  0.12418588  0.12591088  1
  Co  Co124  1  0.49986274  0.74752182  0.00022194  1
  Co  Co125  1  0.87256172  0.12654127  0.37577637  1
  Co  Co126  1  0.62402225  0.62584431  0.62265429  1
  Co  Co127  1  0.25220790  0.74872627  0.49911813  1
