# generated using pymatgen
data_Fe45Co19
_symmetry_space_group_name_H-M   'P 1'
_cell_length_a   11.41495356
_cell_length_b   11.41658656
_cell_length_c   11.41557816
_cell_angle_alpha   89.99824458
_cell_angle_beta   90.00512935
_cell_angle_gamma   89.99887095
_symmetry_Int_Tables_number   1
_chemical_formula_structural   Fe45Co19
_chemical_formula_sum   'Fe90 Co38'
_cell_volume   1487.67591720
_cell_formula_units_Z   2
loop_
 _symmetry_equiv_pos_site_id
 _symmetry_equiv_pos_as_xyz
  1  'x, y, z'
loop_
 _atom_site_type_symbol
 _atom_site_label
 _atom_site_symmetry_multiplicity
 _atom_site_fract_x
 _atom_site_fract_y
 _atom_site_fract_z
 _atom_site_occupancy
  Fe  Fe0  1  0.12296600  0.12425008  0.62488700  1
  Fe  Fe1  1  0.12407870  0.87219483  0.87643661  1
  Fe  Fe2  1  0.12557447  0.87487087  0.37530985  1
  Fe  Fe3  1  0.75208883  0.49734119  0.50045139  1
  Fe  Fe4  1  0.62602226  0.62286249  0.62565685  1
  Fe  Fe5  1  0.50062310  0.49832741  -0.00092326  1
  Fe  Fe6  1  0.74849641  -0.00012657  0.25195369  1
  Fe  Fe7  1  0.24474382  0.25424939  0.50269610  1
  Fe  Fe8  1  0.62628149  0.87656889  0.62662006  1
  Fe  Fe9  1  0.24946965  0.74933452  0.50202277  1
  Fe  Fe10  1  -0.00084781  0.74546607  0.75124926  1
  Fe  Fe11  1  0.12769610  0.37381341  0.12714118  1
  Fe  Fe12  1  0.87622462  0.37360953  0.37466833  1
  Fe  Fe13  1  0.75063051  -0.00019015  -0.00059408  1
  Fe  Fe14  1  0.12436294  0.12628081  0.12194392  1
  Fe  Fe15  1  0.62730651  0.12464040  0.87368742  1
  Fe  Fe16  1  0.74757962  0.25326156  0.50167103  1
  Fe  Fe17  1  0.37345324  0.12763999  0.62660100  1
  Fe  Fe18  1  0.49858747  0.50074771  0.25127985  1
  Fe  Fe19  1  0.37196514  0.37468967  0.37372359  1
  Fe  Fe20  1  0.74926124  0.49912390  -0.00024193  1
  Fe  Fe21  1  0.50112498  0.00104412  0.00021901  1
  Fe  Fe22  1  0.87286403  0.62809620  0.87808593  1
  Fe  Fe23  1  0.00093886  -0.00017003  0.24958543  1
  Fe  Fe24  1  0.12584365  0.62415212  0.37633292  1
  Fe  Fe25  1  0.87512279  0.37617460  0.12594386  1
  Fe  Fe26  1  0.62426354  0.87618583  0.12765356  1
  Fe  Fe27  1  0.75005513  -0.00146108  0.50011827  1
  Fe  Fe28  1  0.49754930  0.74969040  0.24983210  1
  Fe  Fe29  1  0.12393898  0.12451753  0.37651217  1
  Fe  Fe30  1  0.62735372  0.87534874  0.87186578  1
  Fe  Fe31  1  0.37352506  0.62541462  0.87488568  1
  Fe  Fe32  1  -0.00195953  0.00319952  0.75299276  1
  Fe  Fe33  1  0.25030496  0.00173279  0.25047606  1
  Fe  Fe34  1  0.87566073  0.12486626  0.12286501  1
  Fe  Fe35  1  0.25052391  0.49853156  -0.00129134  1
  Fe  Fe36  1  0.62624959  0.62473889  0.37406009  1
  Fe  Fe37  1  0.37474148  0.12367698  0.12426467  1
  Fe  Fe38  1  0.87619699  0.37183283  0.87342151  1
  Fe  Fe39  1  0.75536414  0.50169907  0.74737733  1
  Fe  Fe40  1  0.12691672  0.62604014  0.12123393  1
  Fe  Fe41  1  0.50011154  0.00244069  0.74844524  1
  Fe  Fe42  1  0.87644733  0.12658274  0.62221776  1
  Fe  Fe43  1  0.87265468  0.62528816  0.12461111  1
  Fe  Fe44  1  -0.00061310  0.74931274  0.25009762  1
  Fe  Fe45  1  0.37479514  0.12620626  0.37778708  1
  Fe  Fe46  1  0.50076433  0.25015810  -0.00052705  1
  Fe  Fe47  1  0.24922771  -0.00100584  -0.00172576  1
  Fe  Fe48  1  0.24936204  -0.00100829  0.50192741  1
  Fe  Fe49  1  0.25062962  0.49826587  0.74813166  1
  Fe  Fe50  1  0.87608191  0.87395499  0.12323822  1
  Fe  Fe51  1  0.62565685  0.37550518  0.12728121  1
  Fe  Fe52  1  0.00163653  0.24977385  0.25032290  1
  Fe  Fe53  1  0.62446318  0.12475051  0.37649275  1
  Fe  Fe54  1  0.00102112  0.50080401  0.25095603  1
  Fe  Fe55  1  0.37260328  0.37502313  0.12710872  1
  Fe  Fe56  1  0.62716588  0.62419756  0.12667084  1
  Fe  Fe57  1  0.37304035  0.12713309  0.87205251  1
  Fe  Fe58  1  0.50061316  0.74876796  0.74890751  1
  Fe  Fe59  1  0.49770520  0.49939973  0.74834722  1
  Fe  Fe60  1  0.49854369  0.49884522  0.50090720  1
  Fe  Fe61  1  0.12401146  0.12832213  0.87760609  1
  Fe  Fe62  1  0.62593294  0.37532902  0.87108719  1
  Fe  Fe63  1  0.49947897  0.74924841  0.50110967  1
  Fe  Fe64  1  0.12228104  0.87550788  0.62604779  1
  Fe  Fe65  1  0.12232751  0.37365910  0.87159891  1
  Fe  Fe66  1  0.87400803  0.87305979  0.87549556  1
  Fe  Fe67  1  0.24970798  0.49759858  0.50171763  1
  Fe  Fe68  1  0.12069562  0.62091669  0.62477988  1
  Fe  Fe69  1  0.74954591  0.75085529  0.50037952  1
  Fe  Fe70  1  0.25386661  0.74753275  0.24784254  1
  Fe  Fe71  1  0.37473009  0.87547881  0.37444126  1
  Fe  Fe72  1  0.62624330  0.62472820  0.87383191  1
  Fe  Fe73  1  0.87679116  0.12551024  0.37662226  1
  Fe  Fe74  1  0.24892636  0.74859064  0.74932255  1
  Fe  Fe75  1  0.74875356  0.25037938  0.25036328  1
  Fe  Fe76  1  0.37405536  0.87567485  0.87332969  1
  Fe  Fe77  1  0.87720218  0.87338438  0.62544960  1
  Fe  Fe78  1  0.12525056  0.87323316  0.12248101  1
  Fe  Fe79  1  0.50333250  0.25317384  0.50372612  1
  Fe  Fe80  1  0.00048844  0.50009150  -0.00204280  1
  Fe  Fe81  1  0.74938623  0.25126180  0.00136633  1
  Fe  Fe82  1  0.50040592  0.24859027  0.24995527  1
  Fe  Fe83  1  0.87715589  0.87505630  0.37617338  1
  Fe  Fe84  1  0.87482939  0.62564924  0.37613832  1
  Fe  Fe85  1  0.49925061  0.75026888  0.00061107  1
  Fe  Fe86  1  0.74952361  0.24816540  0.74691652  1
  Fe  Fe87  1  0.37344774  0.87480348  0.62709579  1
  Fe  Fe88  1  0.49939709  -0.00079258  0.50073745  1
  Fe  Fe89  1  0.37520205  0.37139079  0.87132578  1
  Co  Co90  1  0.75369155  0.00145833  0.74921716  1
  Co  Co91  1  0.62669036  0.12502907  0.12506119  1
  Co  Co92  1  0.50052059  0.00239962  0.25197306  1
  Co  Co93  1  -0.00009345  0.24563935  0.74957761  1
  Co  Co94  1  0.25021234  0.50407460  0.24955632  1
  Co  Co95  1  0.00065169  -0.00058747  0.50001238  1
  Co  Co96  1  0.62297720  0.87486187  0.37521031  1
  Co  Co97  1  0.25150432  0.25170069  -0.00083237  1
  Co  Co98  1  0.62564553  0.12246876  0.62376116  1
  Co  Co99  1  0.37594759  0.37219617  0.62623487  1
  Co  Co100  1  0.75116966  0.75170127  0.25126646  1
  Co  Co101  1  0.75038857  0.74827166  0.74823335  1
  Co  Co102  1  0.37423505  0.62454086  0.37743082  1
  Co  Co103  1  -0.00087302  0.74768636  -0.00067288  1
  Co  Co104  1  0.87762624  0.62588226  0.62050209  1
  Co  Co105  1  0.12707403  0.37661778  0.37125746  1
  Co  Co106  1  0.24975769  0.24614119  0.25083374  1
  Co  Co107  1  -0.00107031  0.49705051  0.49601986  1
  Co  Co108  1  0.00202581  0.75015797  0.49857759  1
  Co  Co109  1  0.00015650  -0.00053947  -0.00193829  1
  Co  Co110  1  0.87399629  0.12802195  0.87848869  1
  Co  Co111  1  0.37563825  0.62201705  0.12165657  1
  Co  Co112  1  0.11678847  0.37954178  0.62919514  1
  Co  Co113  1  0.74685419  0.75034853  0.00083561  1
  Co  Co114  1  0.62405763  0.37567975  0.37362515  1
  Co  Co115  1  0.24619047  0.25145121  0.74709757  1
  Co  Co116  1  -0.00510330  0.50425722  0.75400786  1
  Co  Co117  1  0.87953567  0.37337356  0.62588842  1
  Co  Co118  1  0.24725419  0.00095575  0.75087959  1
  Co  Co119  1  -0.00060998  0.25291891  0.00155647  1
  Co  Co120  1  0.50340845  0.24883414  0.74856202  1
  Co  Co121  1  0.37414792  0.62523673  0.62549359  1
  Co  Co122  1  0.62581746  0.37894925  0.62830539  1
  Co  Co123  1  0.75091151  0.49902429  0.25197803  1
  Co  Co124  1  0.12809580  0.62451470  0.87558921  1
  Co  Co125  1  0.25420459  0.75107953  0.00015002  1
  Co  Co126  1  0.00388061  0.25267150  0.49823764  1
  Co  Co127  1  0.37541193  0.87904178  0.12573606  1
