# generated using pymatgen
data_Fe45Co19
_symmetry_space_group_name_H-M   'P 1'
_cell_length_a   11.41469432
_cell_length_b   11.41559178
_cell_length_c   11.41544560
_cell_angle_alpha   89.99740732
_cell_angle_beta   90.00459501
_cell_angle_gamma   90.00018872
_symmetry_Int_Tables_number   1
_chemical_formula_structural   Fe45Co19
_chemical_formula_sum   'Fe90 Co38'
_cell_volume   1487.49523450
_cell_formula_units_Z   2
loop_
 _symmetry_equiv_pos_site_id
 _symmetry_equiv_pos_as_xyz
  1  'x, y, z'
loop_
 _atom_site_type_symbol
 _atom_site_label
 _atom_site_symmetry_multiplicity
 _atom_site_fract_x
 _atom_site_fract_y
 _atom_site_fract_z
 _atom_site_occupancy
  Fe  Fe0  1  0.37177967  0.87471823  0.37228960  1
  Fe  Fe1  1  0.62459769  0.37266766  0.87239777  1
  Fe  Fe2  1  0.75503772  0.00377911  0.50215002  1
  Fe  Fe3  1  -0.00320686  -0.00132922  -0.00263895  1
  Fe  Fe4  1  0.62598199  0.12403974  0.12300009  1
  Fe  Fe5  1  -0.00272140  0.49379755  -0.00950380  1
  Fe  Fe6  1  0.62502347  0.87738374  0.87375512  1
  Fe  Fe7  1  0.87365408  0.36954183  0.37475910  1
  Fe  Fe8  1  0.24875350  0.25046654  -0.00038195  1
  Fe  Fe9  1  0.00282344  0.25054643  0.75143404  1
  Fe  Fe10  1  0.62656546  0.37191966  0.37575326  1
  Fe  Fe11  1  0.12418336  0.87732431  0.12568907  1
  Fe  Fe12  1  0.37476693  0.12423240  0.12446340  1
  Fe  Fe13  1  0.75337294  0.00386989  0.25117487  1
  Fe  Fe14  1  0.25117804  0.74732465  0.75087632  1
  Fe  Fe15  1  0.37285016  0.37208992  0.37499859  1
  Fe  Fe16  1  0.74882566  0.75258486  0.00018329  1
  Fe  Fe17  1  0.75124610  0.74851306  0.74806677  1
  Fe  Fe18  1  0.25083233  -0.00184051  -0.00242040  1
  Fe  Fe19  1  0.37589170  0.87531420  0.12362558  1
  Fe  Fe20  1  0.12388536  0.37919349  0.62905596  1
  Fe  Fe21  1  0.37229446  0.62512600  0.37531113  1
  Fe  Fe22  1  0.75246502  -0.00142493  -0.00095754  1
  Fe  Fe23  1  0.49455197  0.00179499  0.49788892  1
  Fe  Fe24  1  0.24820968  0.74799778  0.24588485  1
  Fe  Fe25  1  0.12701065  0.62377971  0.37579623  1
  Fe  Fe26  1  0.12098564  0.62106873  0.62706303  1
  Fe  Fe27  1  0.62772690  0.12810465  0.37779278  1
  Fe  Fe28  1  0.75285358  0.25191381  0.00373282  1
  Fe  Fe29  1  0.37610192  0.37438072  0.62797737  1
  Fe  Fe30  1  0.49885788  0.50043492  0.25079133  1
  Fe  Fe31  1  0.00317762  0.25041504  0.50215693  1
  Fe  Fe32  1  0.12898827  0.12028226  0.62732234  1
  Fe  Fe33  1  0.37310427  0.87758612  0.62744938  1
  Fe  Fe34  1  -0.00207715  0.00171676  0.25017051  1
  Fe  Fe35  1  -0.00201911  0.24802646  0.24687612  1
  Fe  Fe36  1  0.62435402  0.62262702  0.12418750  1
  Fe  Fe37  1  0.49895735  0.50057144  0.49862055  1
  Fe  Fe38  1  0.12281403  0.87430280  0.87096056  1
  Fe  Fe39  1  0.62528894  0.37562359  0.12670467  1
  Fe  Fe40  1  0.75046895  0.74885366  0.25021841  1
  Fe  Fe41  1  0.87600674  0.62306013  0.12172750  1
  Fe  Fe42  1  0.37652872  0.12876690  0.87465933  1
  Fe  Fe43  1  0.00008550  0.50021449  0.25215685  1
  Fe  Fe44  1  0.49951742  0.75019809  0.50066376  1
  Fe  Fe45  1  0.75044336  0.49956298  0.25169651  1
  Fe  Fe46  1  0.75125197  0.49723627  -0.00236322  1
  Fe  Fe47  1  -0.00423917  0.74910206  0.74815052  1
  Fe  Fe48  1  0.74972581  0.74881739  0.50181157  1
  Fe  Fe49  1  0.50160923  0.25098097  -0.00122828  1
  Fe  Fe50  1  0.24892390  0.49808021  0.50077097  1
  Fe  Fe51  1  0.12329656  0.62163979  0.12113212  1
  Fe  Fe52  1  0.12328000  0.37594138  0.12314617  1
  Fe  Fe53  1  0.24854747  0.75130127  0.50402047  1
  Fe  Fe54  1  0.50139312  0.74852527  0.25002795  1
  Fe  Fe55  1  0.87592302  0.87526923  0.37566217  1
  Fe  Fe56  1  0.87741999  0.37575391  0.62652553  1
  Fe  Fe57  1  0.87485714  0.12841193  0.87419025  1
  Fe  Fe58  1  0.25241733  0.50340064  0.75440265  1
  Fe  Fe59  1  0.25019109  0.49993712  -0.00515017  1
  Fe  Fe60  1  0.00118621  0.75129638  0.50273254  1
  Fe  Fe61  1  0.50062427  0.74867267  0.74896662  1
  Fe  Fe62  1  0.62407399  0.62511467  0.87636090  1
  Fe  Fe63  1  0.62623615  0.87619365  0.37620782  1
  Fe  Fe64  1  0.74367848  0.24719928  0.74256687  1
  Fe  Fe65  1  0.62364313  0.62258663  0.62370653  1
  Fe  Fe66  1  0.12675752  0.37433943  0.37314713  1
  Fe  Fe67  1  0.00029075  -0.00027457  0.50417472  1
  Fe  Fe68  1  0.37716693  0.87138271  0.87735497  1
  Fe  Fe69  1  0.49993819  0.24865116  0.50469788  1
  Fe  Fe70  1  0.50053888  0.24889485  0.24975553  1
  Fe  Fe71  1  0.75103759  0.49859431  0.50008350  1
  Fe  Fe72  1  0.75308352  0.50198338  0.75008113  1
  Fe  Fe73  1  0.12666249  0.87641753  0.37445773  1
  Fe  Fe74  1  0.37498947  0.37608129  0.12292555  1
  Fe  Fe75  1  0.75290923  0.00245384  0.74843789  1
  Fe  Fe76  1  -0.00003861  0.74870270  0.24935381  1
  Fe  Fe77  1  0.25011869  0.24970771  0.74961201  1
  Fe  Fe78  1  0.49950646  0.00452757  0.75211136  1
  Fe  Fe79  1  0.24890715  0.24966039  0.24751240  1
  Fe  Fe80  1  0.87565852  0.62543503  0.37738229  1
  Fe  Fe81  1  0.12848647  0.12447076  0.37563015  1
  Fe  Fe82  1  0.62488238  0.87811152  0.12684880  1
  Fe  Fe83  1  0.12367351  0.12483574  0.87549756  1
  Fe  Fe84  1  0.49707378  0.50119272  0.75450836  1
  Fe  Fe85  1  0.12327535  0.12396555  0.12188212  1
  Fe  Fe86  1  0.37593430  0.62496727  0.11925269  1
  Fe  Fe87  1  0.49865951  0.00324439  0.25203761  1
  Fe  Fe88  1  -0.00081581  0.75235463  -0.00038657  1
  Fe  Fe89  1  0.62536849  0.87854812  0.62427215  1
  Co  Co90  1  0.62440371  0.62502981  0.37673050  1
  Co  Co91  1  0.62215681  0.38100262  0.62599133  1
  Co  Co92  1  0.24728236  0.25179711  0.50341141  1
  Co  Co93  1  0.62814385  0.12654181  0.87795210  1
  Co  Co94  1  0.87601699  0.12859286  0.37789461  1
  Co  Co95  1  0.24613892  0.75201177  -0.00003310  1
  Co  Co96  1  0.75147308  0.24780781  0.24652187  1
  Co  Co97  1  0.25074154  -0.00165331  0.49954510  1
  Co  Co98  1  0.50149695  0.49649740  -0.00277999  1
  Co  Co99  1  0.86966866  0.36790382  0.86913042  1
  Co  Co100  1  0.12874794  0.37336626  0.87336527  1
  Co  Co101  1  0.74869610  0.25078162  0.50661505  1
  Co  Co102  1  0.87446870  0.87407913  0.87278993  1
  Co  Co103  1  0.37082557  0.12935009  0.37582991  1
  Co  Co104  1  0.49937436  0.00074190  -0.00179833  1
  Co  Co105  1  0.12652760  0.87661081  0.63016655  1
  Co  Co106  1  0.87418022  0.62829805  0.87802501  1
  Co  Co107  1  0.87751728  0.62199668  0.62307719  1
  Co  Co108  1  0.87354271  0.87408660  0.62491571  1
  Co  Co109  1  -0.00327423  0.00060528  0.74914620  1
  Co  Co110  1  0.62224019  0.11869081  0.62145354  1
  Co  Co111  1  0.37166771  0.12441695  0.62635790  1
  Co  Co112  1  0.00016540  0.49667993  0.49660995  1
  Co  Co113  1  0.87748679  0.37794966  0.12720425  1
  Co  Co114  1  -0.00359048  0.49883071  0.75715831  1
  Co  Co115  1  0.87676216  0.12400730  0.12152564  1
  Co  Co116  1  0.25059613  0.49997635  0.24807239  1
  Co  Co117  1  0.50631147  0.75238086  0.00144928  1
  Co  Co118  1  0.25230451  -0.00054069  0.75574272  1
  Co  Co119  1  0.50396109  0.24658548  0.74724048  1
  Co  Co120  1  0.12232981  0.62748681  0.87371327  1
  Co  Co121  1  0.87504261  0.87489646  0.12722287  1
  Co  Co122  1  0.37587973  0.37086312  0.87347097  1
  Co  Co123  1  0.87878314  0.12929203  0.62675222  1
  Co  Co124  1  -0.00154370  0.25375845  -0.00161186  1
  Co  Co125  1  0.25032188  0.00129503  0.24860461  1
  Co  Co126  1  0.37538223  0.62372377  0.62387810  1
  Co  Co127  1  0.37764783  0.62942843  0.88080828  1
