# generated using pymatgen
data_Fe45Co19
_symmetry_space_group_name_H-M   'P 1'
_cell_length_a   11.41405240
_cell_length_b   11.41399044
_cell_length_c   11.41522229
_cell_angle_alpha   89.99667072
_cell_angle_beta   89.99182579
_cell_angle_gamma   89.99765881
_symmetry_Int_Tables_number   1
_chemical_formula_structural   Fe45Co19
_chemical_formula_sum   'Fe90 Co38'
_cell_volume   1487.17382883
_cell_formula_units_Z   2
loop_
 _symmetry_equiv_pos_site_id
 _symmetry_equiv_pos_as_xyz
  1  'x, y, z'
loop_
 _atom_site_type_symbol
 _atom_site_label
 _atom_site_symmetry_multiplicity
 _atom_site_fract_x
 _atom_site_fract_y
 _atom_site_fract_z
 _atom_site_occupancy
  Fe  Fe0  1  0.24922212  -0.00085798  0.75131549  1
  Fe  Fe1  1  0.37933207  0.37727226  0.12395222  1
  Fe  Fe2  1  0.87334864  0.37337293  0.87267096  1
  Fe  Fe3  1  0.74767933  0.75118405  0.00429853  1
  Fe  Fe4  1  0.25021280  0.75007377  0.74753386  1
  Fe  Fe5  1  0.12791338  0.62479184  0.37526479  1
  Fe  Fe6  1  0.74781639  0.25228162  0.24897673  1
  Fe  Fe7  1  -0.00033388  0.25253287  0.50012967  1
  Fe  Fe8  1  0.12525598  0.87665340  0.12627734  1
  Fe  Fe9  1  0.00010171  0.24861029  0.24856680  1
  Fe  Fe10  1  0.50109317  0.25104825  -0.00086069  1
  Fe  Fe11  1  0.00064746  0.74822507  0.74643446  1
  Fe  Fe12  1  0.87453780  0.37860279  0.12955239  1
  Fe  Fe13  1  0.87544885  0.87306118  0.87329781  1
  Fe  Fe14  1  0.25309563  0.49981448  0.25115272  1
  Fe  Fe15  1  0.25352710  0.49795019  0.49997763  1
  Fe  Fe16  1  0.49943465  0.24598946  0.24634215  1
  Fe  Fe17  1  0.37765467  0.87637836  0.37463059  1
  Fe  Fe18  1  0.50100178  0.50089060  0.49654105  1
  Fe  Fe19  1  0.37695068  0.87408316  0.87480195  1
  Fe  Fe20  1  -0.00214828  0.74888574  0.00381627  1
  Fe  Fe21  1  0.12485069  0.37520374  0.62571756  1
  Fe  Fe22  1  0.87160280  0.62388413  0.62141804  1
  Fe  Fe23  1  0.25359985  0.50086896  0.75030638  1
  Fe  Fe24  1  0.12537606  0.62345568  0.12508251  1
  Fe  Fe25  1  -0.00164317  0.50117661  0.75119468  1
  Fe  Fe26  1  0.63012931  0.12240926  0.12062043  1
  Fe  Fe27  1  0.62535233  0.62121887  0.62352104  1
  Fe  Fe28  1  0.62971081  0.12598034  0.87766401  1
  Fe  Fe29  1  0.62394710  0.62535878  0.87545473  1
  Fe  Fe30  1  0.62361961  0.87722863  0.62591627  1
  Fe  Fe31  1  0.25148404  0.75040551  0.50114756  1
  Fe  Fe32  1  0.49779487  0.24735090  0.50324225  1
  Fe  Fe33  1  0.50166010  0.74904618  0.50019748  1
  Fe  Fe34  1  0.86874903  0.62192276  0.37539622  1
  Fe  Fe35  1  -0.00143886  0.25096731  0.00294825  1
  Fe  Fe36  1  0.25309085  0.00091079  0.49859646  1
  Fe  Fe37  1  0.25329688  0.24815563  0.24777134  1
  Fe  Fe38  1  -0.00274607  0.00110627  0.00094539  1
  Fe  Fe39  1  0.50083793  0.74719368  0.24974791  1
  Fe  Fe40  1  -0.00206743  0.49881999  0.49645714  1
  Fe  Fe41  1  0.74812175  0.74879261  0.74811632  1
  Fe  Fe42  1  0.74620977  0.49741227  0.00124987  1
  Fe  Fe43  1  0.12322796  0.87287208  0.87558528  1
  Fe  Fe44  1  0.12577295  0.37396268  0.37392173  1
  Fe  Fe45  1  0.62521793  0.87574046  0.87475310  1
  Fe  Fe46  1  -0.00169317  0.74600728  0.25052723  1
  Fe  Fe47  1  0.00015041  0.00012329  0.49931139  1
  Fe  Fe48  1  0.74908895  0.25469634  0.50181759  1
  Fe  Fe49  1  0.87570990  0.87374252  0.62327477  1
  Fe  Fe50  1  0.87339973  0.12807743  0.37540703  1
  Fe  Fe51  1  0.12881421  0.12277223  0.12345778  1
  Fe  Fe52  1  -0.00128329  0.00273203  0.25155717  1
  Fe  Fe53  1  0.25245249  0.75034327  0.24869390  1
  Fe  Fe54  1  0.25174497  0.75031768  0.00159690  1
  Fe  Fe55  1  0.12486918  0.12762952  0.87697761  1
  Fe  Fe56  1  0.37769816  0.87633387  0.62605316  1
  Fe  Fe57  1  0.87299167  0.62596305  0.87724195  1
  Fe  Fe58  1  0.87225888  0.87830693  0.12787667  1
  Fe  Fe59  1  0.75100942  0.00089311  0.74991113  1
  Fe  Fe60  1  0.37908348  0.37437481  0.62824236  1
  Fe  Fe61  1  0.87452647  0.12656506  0.62465527  1
  Fe  Fe62  1  0.62403153  0.12524384  0.62468912  1
  Fe  Fe63  1  0.37767587  0.62676155  0.87403757  1
  Fe  Fe64  1  0.87323371  0.12866364  0.87578066  1
  Fe  Fe65  1  0.50067279  0.00386228  0.24929372  1
  Fe  Fe66  1  0.50206909  0.75223030  0.00218213  1
  Fe  Fe67  1  0.12574940  0.37430812  0.87450989  1
  Fe  Fe68  1  0.87317847  0.87352409  0.37520436  1
  Fe  Fe69  1  0.12878481  0.12743809  0.37649704  1
  Fe  Fe70  1  0.37997637  0.62130675  0.12461386  1
  Fe  Fe71  1  0.12720322  0.12664566  0.62362434  1
  Fe  Fe72  1  0.12481316  0.87435507  0.37528999  1
  Fe  Fe73  1  0.49984046  0.00330848  0.75205936  1
  Fe  Fe74  1  0.12495319  0.62606230  0.87566944  1
  Fe  Fe75  1  0.37624963  0.88002880  0.12428829  1
  Fe  Fe76  1  0.12540119  0.62393342  0.62303165  1
  Fe  Fe77  1  0.62442994  0.12726306  0.37696513  1
  Fe  Fe78  1  0.37272818  0.12640074  0.87948631  1
  Fe  Fe79  1  0.25280255  0.49921629  -0.00173032  1
  Fe  Fe80  1  0.74843321  -0.00076893  0.49824675  1
  Fe  Fe81  1  0.12541900  0.37749373  0.12639289  1
  Fe  Fe82  1  0.00106647  0.00107277  0.74845795  1
  Fe  Fe83  1  0.62463601  0.37357376  0.86915872  1
  Fe  Fe84  1  0.25178167  0.25049229  0.74939674  1
  Fe  Fe85  1  0.87349663  0.37534532  0.62761278  1
  Fe  Fe86  1  0.74682030  0.74708129  0.24670983  1
  Fe  Fe87  1  0.62469115  0.87488311  0.37350135  1
  Fe  Fe88  1  0.37791766  0.37212541  0.37363495  1
  Fe  Fe89  1  -0.00024915  0.49978006  0.00016201  1
  Co  Co90  1  0.74701066  0.75236521  0.50114218  1
  Co  Co91  1  0.62031622  0.37530743  0.62796087  1
  Co  Co92  1  0.50219053  0.50189362  0.25657964  1
  Co  Co93  1  0.49893637  0.50179651  0.75185162  1
  Co  Co94  1  0.74849375  0.24920884  0.74710185  1
  Co  Co95  1  0.24885433  -0.00312355  -0.00173228  1
  Co  Co96  1  -0.00104594  0.74736039  0.49785035  1
  Co  Co97  1  0.75272771  -0.00360261  -0.00206768  1
  Co  Co98  1  0.74753056  0.49234673  0.49782886  1
  Co  Co99  1  0.25172369  0.00076704  0.25200591  1
  Co  Co100  1  0.61946222  0.37754183  0.12677074  1
  Co  Co101  1  0.62065172  0.62030273  0.12365002  1
  Co  Co102  1  0.62521497  0.87888383  0.12695616  1
  Co  Co103  1  0.37376409  0.62604188  0.37556382  1
  Co  Co104  1  0.62055925  0.36958995  0.37554516  1
  Co  Co105  1  0.37699360  0.62584145  0.62415630  1
  Co  Co106  1  0.37421070  0.12342345  0.62570989  1
  Co  Co107  1  0.62811154  0.62668783  0.37642841  1
  Co  Co108  1  0.74208882  0.49718773  0.25193509  1
  Co  Co109  1  0.50226187  0.00057800  -0.00111199  1
  Co  Co110  1  0.87499522  0.37436269  0.37023191  1
  Co  Co111  1  0.49985153  0.24507818  0.75215754  1
  Co  Co112  1  0.37569980  0.12613911  0.37520533  1
  Co  Co113  1  0.37510595  0.37275113  0.87363750  1
  Co  Co114  1  0.87008371  0.12476590  0.12532679  1
  Co  Co115  1  0.75020223  0.25630136  0.00254102  1
  Co  Co116  1  0.00115586  0.50321703  0.25295402  1
  Co  Co117  1  0.12495244  0.87526940  0.62241876  1
  Co  Co118  1  0.74818585  0.00253370  0.25463582  1
  Co  Co119  1  0.87158033  0.61977515  0.12530073  1
  Co  Co120  1  0.50113680  0.49657298  -0.00625119  1
  Co  Co121  1  0.00053291  0.25022177  0.74936078  1
  Co  Co122  1  0.74965524  0.50105508  0.75023906  1
  Co  Co123  1  0.25004638  0.25398377  0.00269485  1
  Co  Co124  1  0.37354987  0.12285197  0.12013754  1
  Co  Co125  1  0.25332019  0.25203574  0.50102553  1
  Co  Co126  1  0.50080821  0.00078036  0.49901619  1
  Co  Co127  1  0.50290373  0.74910827  0.74822976  1
