# generated using pymatgen
data_Fe45Co19
_symmetry_space_group_name_H-M   'P 1'
_cell_length_a   11.41656676
_cell_length_b   11.41406607
_cell_length_c   11.41376580
_cell_angle_alpha   90.00971791
_cell_angle_beta   90.00355596
_cell_angle_gamma   89.99557334
_symmetry_Int_Tables_number   1
_chemical_formula_structural   Fe45Co19
_chemical_formula_sum   'Fe90 Co38'
_cell_volume   1487.32148317
_cell_formula_units_Z   2
loop_
 _symmetry_equiv_pos_site_id
 _symmetry_equiv_pos_as_xyz
  1  'x, y, z'
loop_
 _atom_site_type_symbol
 _atom_site_label
 _atom_site_symmetry_multiplicity
 _atom_site_fract_x
 _atom_site_fract_y
 _atom_site_fract_z
 _atom_site_occupancy
  Fe  Fe0  1  0.50236807  0.00020277  0.49996629  1
  Fe  Fe1  1  0.00210644  0.49909246  0.74948861  1
  Fe  Fe2  1  -0.00136064  0.25141729  0.75130265  1
  Fe  Fe3  1  0.74559726  0.50258887  0.25079648  1
  Fe  Fe4  1  -0.00117462  0.24893326  0.24938979  1
  Fe  Fe5  1  0.62239601  0.37220555  0.12247721  1
  Fe  Fe6  1  0.75316639  0.25358346  0.75209348  1
  Fe  Fe7  1  0.75152548  0.24899130  0.25040177  1
  Fe  Fe8  1  0.37323028  0.87650244  0.62508380  1
  Fe  Fe9  1  0.12574655  0.62752702  0.12644356  1
  Fe  Fe10  1  0.12926124  0.12680884  0.12765112  1
  Fe  Fe11  1  0.12578454  0.87411319  0.62602978  1
  Fe  Fe12  1  0.37410174  0.37731992  0.37592062  1
  Fe  Fe13  1  0.37331689  0.87737347  0.12150840  1
  Fe  Fe14  1  0.37558873  0.37758844  0.12260691  1
  Fe  Fe15  1  0.74773460  0.50240917  0.49693442  1
  Fe  Fe16  1  0.12491993  0.12534600  0.87473714  1
  Fe  Fe17  1  0.62499403  0.62554521  0.62642247  1
  Fe  Fe18  1  0.00009816  -0.00150894  0.24570719  1
  Fe  Fe19  1  -0.00207208  0.75223020  0.75110697  1
  Fe  Fe20  1  0.74893564  0.00117877  0.49838453  1
  Fe  Fe21  1  0.49461275  0.24817225  0.24969107  1
  Fe  Fe22  1  0.25218733  0.00130642  0.25169356  1
  Fe  Fe23  1  0.87622406  0.37722338  0.37375792  1
  Fe  Fe24  1  0.74933510  -0.00099046  0.25005201  1
  Fe  Fe25  1  0.87813827  0.62397654  0.37306825  1
  Fe  Fe26  1  0.00178963  0.74936023  0.50149454  1
  Fe  Fe27  1  -0.00025915  -0.00288693  0.75051148  1
  Fe  Fe28  1  0.12557860  0.62677767  0.87668497  1
  Fe  Fe29  1  0.24934624  0.49936450  0.74979999  1
  Fe  Fe30  1  0.12608952  0.37592746  0.87798032  1
  Fe  Fe31  1  0.37378269  0.37745939  0.62298702  1
  Fe  Fe32  1  0.37398875  0.12184329  0.87654803  1
  Fe  Fe33  1  0.24940582  0.50018356  0.24998800  1
  Fe  Fe34  1  0.62977928  0.86918665  0.12428652  1
  Fe  Fe35  1  0.24886826  0.74560840  0.49731189  1
  Fe  Fe36  1  0.24766336  0.00096029  0.49818703  1
  Fe  Fe37  1  0.62596823  0.12603680  0.62762294  1
  Fe  Fe38  1  0.87607182  0.62514637  0.62628093  1
  Fe  Fe39  1  0.50040363  0.24784968  0.49925466  1
  Fe  Fe40  1  0.62269395  0.87046290  0.37445219  1
  Fe  Fe41  1  0.49652991  0.25275444  0.75290777  1
  Fe  Fe42  1  0.87247261  0.12245820  0.12276851  1
  Fe  Fe43  1  0.62598431  0.12948978  0.87661696  1
  Fe  Fe44  1  0.62378803  0.37540892  0.62603798  1
  Fe  Fe45  1  0.75302105  0.75109084  0.75343417  1
  Fe  Fe46  1  0.12628577  0.87252623  0.87948571  1
  Fe  Fe47  1  0.87570525  0.12271461  0.62428858  1
  Fe  Fe48  1  0.75011471  0.74846267  0.49814895  1
  Fe  Fe49  1  0.87501925  0.37654096  0.12477039  1
  Fe  Fe50  1  0.87539583  0.87693802  0.88412011  1
  Fe  Fe51  1  0.37293232  0.62274154  0.62368987  1
  Fe  Fe52  1  0.50021049  -0.00073417  0.24951330  1
  Fe  Fe53  1  0.75082628  -0.00198932  0.75310148  1
  Fe  Fe54  1  0.25345261  0.74959025  0.24843340  1
  Fe  Fe55  1  0.12602956  0.37553776  0.62346103  1
  Fe  Fe56  1  0.25232069  0.75141256  0.75232913  1
  Fe  Fe57  1  0.37400374  0.12346149  0.62459671  1
  Fe  Fe58  1  0.37723788  0.87270414  0.37642208  1
  Fe  Fe59  1  0.49952883  0.74981069  0.00021308  1
  Fe  Fe60  1  0.62279204  0.62445755  0.87397491  1
  Fe  Fe61  1  0.62428427  0.37239631  0.37403544  1
  Fe  Fe62  1  0.49953811  -0.00120401  0.75163126  1
  Fe  Fe63  1  0.12405195  0.12310086  0.62614658  1
  Fe  Fe64  1  0.25140977  0.25015249  0.75034715  1
  Fe  Fe65  1  0.87641420  0.37689358  0.62280980  1
  Fe  Fe66  1  0.87757751  0.62253967  0.87697448  1
  Fe  Fe67  1  0.00006141  0.24765089  0.49712822  1
  Fe  Fe68  1  0.87518114  0.12313112  0.87899706  1
  Fe  Fe69  1  0.50097773  0.50315012  0.49765376  1
  Fe  Fe70  1  0.75069374  0.24802824  0.49819578  1
  Fe  Fe71  1  0.24755700  -0.00147753  -0.00113611  1
  Fe  Fe72  1  0.74608580  0.49916302  0.00021100  1
  Fe  Fe73  1  -0.00348086  0.75285447  0.24465176  1
  Fe  Fe74  1  0.12462314  0.37591386  0.37062675  1
  Fe  Fe75  1  0.25267841  0.25157563  0.00126827  1
  Fe  Fe76  1  -0.00061743  0.25025382  0.00140611  1
  Fe  Fe77  1  0.50383898  -0.00101121  -0.00043372  1
  Fe  Fe78  1  0.24858431  0.24819078  0.49689954  1
  Fe  Fe79  1  0.00324128  0.50017614  0.00390259  1
  Fe  Fe80  1  0.00482482  0.50328634  0.49996525  1
  Fe  Fe81  1  0.49690710  0.75050351  0.74946509  1
  Fe  Fe82  1  0.74978292  0.49740134  0.75111860  1
  Fe  Fe83  1  0.62361092  0.12854291  0.12428456  1
  Fe  Fe84  1  0.62672372  0.87309955  0.62723767  1
  Fe  Fe85  1  0.37908609  0.62163492  0.12618797  1
  Fe  Fe86  1  0.12400419  0.87410893  0.37226789  1
  Fe  Fe87  1  0.87666945  0.87694077  0.37586223  1
  Fe  Fe88  1  0.87108317  0.62660175  0.12374916  1
  Fe  Fe89  1  0.37432205  0.62205380  0.87742540  1
  Co  Co90  1  0.12477567  0.12438793  0.37115467  1
  Co  Co91  1  0.62441516  0.62822240  0.12650337  1
  Co  Co92  1  0.87729292  0.37829494  0.87738921  1
  Co  Co93  1  0.62310397  0.87223007  0.87351554  1
  Co  Co94  1  0.87293533  0.87508255  0.62299660  1
  Co  Co95  1  0.49884835  0.49912219  0.75026706  1
  Co  Co96  1  0.37471350  0.87624972  0.87820270  1
  Co  Co97  1  -0.00016148  0.50139285  0.24535733  1
  Co  Co98  1  0.74380725  0.00099641  -0.00010648  1
  Co  Co99  1  0.62349155  0.12582613  0.37192485  1
  Co  Co100  1  0.24719976  0.50160442  0.00392735  1
  Co  Co101  1  0.75351601  0.74933560  0.25284618  1
  Co  Co102  1  0.86980836  0.87616039  0.11961743  1
  Co  Co103  1  0.49494637  0.25053571  -0.00216708  1
  Co  Co104  1  0.37224766  0.37954834  0.87683537  1
  Co  Co105  1  0.37438904  0.12123774  0.12233086  1
  Co  Co106  1  0.62439936  0.37311361  0.87601637  1
  Co  Co107  1  0.25257275  0.74790039  0.00272477  1
  Co  Co108  1  0.00193586  -0.00036277  0.50055096  1
  Co  Co109  1  0.12267457  0.62701638  0.36806216  1
  Co  Co110  1  0.74869620  0.74720356  -0.00396872  1
  Co  Co111  1  0.25500857  0.25014588  0.25031358  1
  Co  Co112  1  0.00065485  0.74962345  0.00463414  1
  Co  Co113  1  0.75297051  0.25202502  -0.00003981  1
  Co  Co114  1  0.49751371  0.75283266  0.24573800  1
  Co  Co115  1  0.87563805  0.12262689  0.37350838  1
  Co  Co116  1  0.50387513  0.49762151  0.25077074  1
  Co  Co117  1  0.49829093  0.74884175  0.50426688  1
  Co  Co118  1  0.61944995  0.63058293  0.37145502  1
  Co  Co119  1  0.37639791  0.12325967  0.37641679  1
  Co  Co120  1  0.00492820  0.00082785  0.00435833  1
  Co  Co121  1  0.24678860  0.50446549  0.49664391  1
  Co  Co122  1  0.12573374  0.37228552  0.12683127  1
  Co  Co123  1  0.50330083  0.49980031  -0.00053280  1
  Co  Co124  1  0.12579085  0.62751975  0.62945054  1
  Co  Co125  1  0.24877059  -0.00111934  0.75183624  1
  Co  Co126  1  0.12951010  0.87445518  0.12524588  1
  Co  Co127  1  0.37847048  0.62566062  0.37182223  1
