# generated using pymatgen
data_Fe45Co19
_symmetry_space_group_name_H-M   'P 1'
_cell_length_a   11.41574030
_cell_length_b   11.41419099
_cell_length_c   11.41462353
_cell_angle_alpha   90.00203504
_cell_angle_beta   90.00332501
_cell_angle_gamma   90.00363345
_symmetry_Int_Tables_number   1
_chemical_formula_structural   Fe45Co19
_chemical_formula_sum   'Fe90 Co38'
_cell_volume   1487.34187869
_cell_formula_units_Z   2
loop_
 _symmetry_equiv_pos_site_id
 _symmetry_equiv_pos_as_xyz
  1  'x, y, z'
loop_
 _atom_site_type_symbol
 _atom_site_label
 _atom_site_symmetry_multiplicity
 _atom_site_fract_x
 _atom_site_fract_y
 _atom_site_fract_z
 _atom_site_occupancy
  Fe  Fe0  1  0.50052179  -0.00057187  0.00222129  1
  Fe  Fe1  1  0.75156812  0.75512095  0.49978507  1
  Fe  Fe2  1  0.62463596  0.87533023  0.62713597  1
  Fe  Fe3  1  0.75031890  0.50294229  0.75368747  1
  Fe  Fe4  1  0.12469406  0.12299940  0.87603797  1
  Fe  Fe5  1  0.49953463  0.75063108  0.49939474  1
  Fe  Fe6  1  0.87442620  0.37374686  0.62460398  1
  Fe  Fe7  1  0.25046712  0.75128477  0.25305464  1
  Fe  Fe8  1  0.62480003  0.37480528  0.87505830  1
  Fe  Fe9  1  0.00170581  0.24954386  0.25227190  1
  Fe  Fe10  1  -0.00246903  0.00278048  0.74799886  1
  Fe  Fe11  1  0.74844797  0.75234226  0.24977142  1
  Fe  Fe12  1  0.62565960  0.12533564  0.12472596  1
  Fe  Fe13  1  0.75011566  0.24672071  0.75110728  1
  Fe  Fe14  1  0.25018014  0.24742050  0.74815380  1
  Fe  Fe15  1  -0.00007819  0.49999481  0.00028748  1
  Fe  Fe16  1  0.37523127  0.87517407  0.62480666  1
  Fe  Fe17  1  0.50000197  0.49815728  0.00193598  1
  Fe  Fe18  1  0.50004237  0.24704114  0.25164737  1
  Fe  Fe19  1  0.74844780  0.74924975  -0.00340607  1
  Fe  Fe20  1  0.12181936  0.87510730  0.37870535  1
  Fe  Fe21  1  0.37330142  0.37535686  0.87540418  1
  Fe  Fe22  1  0.24991822  0.25016513  0.00104545  1
  Fe  Fe23  1  0.87318842  0.12113091  0.37806161  1
  Fe  Fe24  1  0.75023250  0.49948804  0.49927011  1
  Fe  Fe25  1  0.50057114  0.49800169  0.50022557  1
  Fe  Fe26  1  0.37672347  0.12344441  0.87425195  1
  Fe  Fe27  1  0.37840154  0.87392877  0.12791402  1
  Fe  Fe28  1  0.12595166  0.37503649  0.12563566  1
  Fe  Fe29  1  0.12699768  0.37608706  0.87423389  1
  Fe  Fe30  1  0.25171320  0.00154840  0.25365497  1
  Fe  Fe31  1  0.24993843  0.49797034  0.24999319  1
  Fe  Fe32  1  0.00011764  0.24974259  -0.00027364  1
  Fe  Fe33  1  0.12713279  0.62585127  0.12663023  1
  Fe  Fe34  1  0.37232950  0.36967795  0.37583153  1
  Fe  Fe35  1  -0.00060359  0.24812707  0.74958447  1
  Fe  Fe36  1  0.87221609  0.62395994  0.12403016  1
  Fe  Fe37  1  0.25090634  0.50180737  0.74854390  1
  Fe  Fe38  1  0.00001383  0.74946960  0.74877078  1
  Fe  Fe39  1  0.74756567  0.24942540  0.49932012  1
  Fe  Fe40  1  -0.00043790  0.50070373  0.25150949  1
  Fe  Fe41  1  0.87559151  0.37584495  0.37520841  1
  Fe  Fe42  1  0.62279581  0.87860784  0.37231359  1
  Fe  Fe43  1  0.00037756  0.75225108  0.00140693  1
  Fe  Fe44  1  0.62259261  0.12306461  0.62319140  1
  Fe  Fe45  1  0.74983507  -0.00231606  0.24788343  1
  Fe  Fe46  1  0.24975774  0.50093518  0.49933890  1
  Fe  Fe47  1  0.87629889  0.87608554  0.87395961  1
  Fe  Fe48  1  0.12508301  0.37525105  0.62366728  1
  Fe  Fe49  1  0.12546269  0.87600981  0.12600950  1
  Fe  Fe50  1  -0.00197409  -0.00154965  0.24974889  1
  Fe  Fe51  1  0.62276059  0.87629997  0.87427822  1
  Fe  Fe52  1  0.62538579  0.62630079  0.62522904  1
  Fe  Fe53  1  0.49902083  0.74918653  0.75020950  1
  Fe  Fe54  1  0.87325745  0.62687946  0.37379710  1
  Fe  Fe55  1  0.12436166  0.12260037  0.12539551  1
  Fe  Fe56  1  -0.00130111  0.75104719  0.24995717  1
  Fe  Fe57  1  0.12595889  0.87312082  0.62183686  1
  Fe  Fe58  1  0.37423466  0.37085873  0.62178181  1
  Fe  Fe59  1  0.12511702  0.12254789  0.62125212  1
  Fe  Fe60  1  0.50042968  0.24849312  0.74966897  1
  Fe  Fe61  1  -0.00013800  0.50147604  0.74804101  1
  Fe  Fe62  1  0.37947785  0.87685851  0.37307935  1
  Fe  Fe63  1  0.49866086  0.50031205  0.74702550  1
  Fe  Fe64  1  0.62641276  0.37433950  0.37242699  1
  Fe  Fe65  1  -0.00046164  0.50356925  0.49967171  1
  Fe  Fe66  1  0.12494871  0.87624994  0.87383548  1
  Fe  Fe67  1  0.25037858  -0.00108587  0.00061970  1
  Fe  Fe68  1  0.87186401  0.62840325  0.62611579  1
  Fe  Fe69  1  0.87538184  0.37504352  0.87486039  1
  Fe  Fe70  1  0.37581820  0.87578011  0.87439130  1
  Fe  Fe71  1  0.37531858  0.62526959  0.87544558  1
  Fe  Fe72  1  0.25070611  0.75121459  -0.00021395  1
  Fe  Fe73  1  0.37343264  0.12587487  0.12675883  1
  Fe  Fe74  1  0.75211305  0.25117512  0.24876616  1
  Fe  Fe75  1  0.12631489  0.62558351  0.87529638  1
  Fe  Fe76  1  0.49992490  0.25081619  0.00090055  1
  Fe  Fe77  1  0.75076215  0.25237796  0.00103010  1
  Fe  Fe78  1  0.50092389  0.49968391  0.25089990  1
  Fe  Fe79  1  0.25194055  0.00081450  0.74727133  1
  Fe  Fe80  1  0.62643033  0.37561335  0.62620421  1
  Fe  Fe81  1  0.62540830  0.62482944  0.12410922  1
  Fe  Fe82  1  0.74995950  -0.00087874  0.00028171  1
  Fe  Fe83  1  0.12888836  0.62959473  0.62195269  1
  Fe  Fe84  1  0.75115044  0.00270570  0.74942311  1
  Fe  Fe85  1  0.87666411  0.12335302  0.12306124  1
  Fe  Fe86  1  0.62612152  0.62549263  0.37629595  1
  Fe  Fe87  1  0.00210805  0.24878577  0.49793659  1
  Fe  Fe88  1  0.37511177  0.62538600  0.37552194  1
  Fe  Fe89  1  0.37507865  0.62632472  0.12559633  1
  Co  Co90  1  0.74875824  0.74890908  0.75416893  1
  Co  Co91  1  0.37493345  0.62648293  0.62289579  1
  Co  Co92  1  0.25148302  0.75035099  0.75150304  1
  Co  Co93  1  0.49997462  0.00505199  0.24919017  1
  Co  Co94  1  0.25050145  0.50047048  0.00117022  1
  Co  Co95  1  0.87565801  0.87594915  0.37414374  1
  Co  Co96  1  0.87665235  0.37680937  0.12563965  1
  Co  Co97  1  0.25296943  -0.00186761  0.49916923  1
  Co  Co98  1  0.00051769  -0.00201113  0.00035559  1
  Co  Co99  1  0.87835618  0.62534463  0.87628023  1
  Co  Co100  1  0.62257646  0.87375240  0.12585325  1
  Co  Co101  1  0.74950450  0.49911852  0.25040722  1
  Co  Co102  1  -0.00353431  0.74900285  0.50028934  1
  Co  Co103  1  0.24470092  0.24744347  0.49945977  1
  Co  Co104  1  0.49976240  0.00032946  0.49877094  1
  Co  Co105  1  0.12425150  0.11950213  0.37637552  1
  Co  Co106  1  0.25344856  0.75246216  0.49567336  1
  Co  Co107  1  0.49946179  0.00063858  0.74923142  1
  Co  Co108  1  0.74866163  0.49895325  -0.00153515  1
  Co  Co109  1  0.12586273  0.62700413  0.37493943  1
  Co  Co110  1  0.37746491  0.12743016  0.62140110  1
  Co  Co111  1  0.87564963  0.12473393  0.87740323  1
  Co  Co112  1  0.62346904  0.12437413  0.87688999  1
  Co  Co113  1  0.62019581  0.62403741  0.87467012  1
  Co  Co114  1  0.50187416  0.74710431  0.25088789  1
  Co  Co115  1  -0.00432877  -0.00179285  0.50272938  1
  Co  Co116  1  0.12536600  0.37773900  0.37547232  1
  Co  Co117  1  0.74952603  -0.00340308  0.50215286  1
  Co  Co118  1  0.37375240  0.12816747  0.37881797  1
  Co  Co119  1  0.62444735  0.37468794  0.12738058  1
  Co  Co120  1  0.24635584  0.24845185  0.25019002  1
  Co  Co121  1  0.87347047  0.12740794  0.62135245  1
  Co  Co122  1  0.62841071  0.12192597  0.37434105  1
  Co  Co123  1  0.49924338  0.75138427  -0.00019743  1
  Co  Co124  1  0.87440777  0.87383869  0.62856488  1
  Co  Co125  1  0.37502606  0.37347665  0.12686660  1
  Co  Co126  1  0.50549469  0.25024540  0.49853055  1
  Co  Co127  1  0.87367712  0.87393177  0.12320239  1
