# generated using pymatgen
data_Fe45Co19
_symmetry_space_group_name_H-M   'P 1'
_cell_length_a   11.41423758
_cell_length_b   11.41450975
_cell_length_c   11.41542879
_cell_angle_alpha   90.00239025
_cell_angle_beta   89.99770976
_cell_angle_gamma   90.00025263
_symmetry_Int_Tables_number   1
_chemical_formula_structural   Fe45Co19
_chemical_formula_sum   'Fe90 Co38'
_cell_volume   1487.29254045
_cell_formula_units_Z   2
loop_
 _symmetry_equiv_pos_site_id
 _symmetry_equiv_pos_as_xyz
  1  'x, y, z'
loop_
 _atom_site_type_symbol
 _atom_site_label
 _atom_site_symmetry_multiplicity
 _atom_site_fract_x
 _atom_site_fract_y
 _atom_site_fract_z
 _atom_site_occupancy
  Fe  Fe0  1  0.37271626  0.12403062  0.87328397  1
  Fe  Fe1  1  0.87586684  0.87697251  0.37617394  1
  Fe  Fe2  1  0.37450922  0.62345141  0.12757514  1
  Fe  Fe3  1  0.50078058  0.75151420  0.25273260  1
  Fe  Fe4  1  0.12632583  0.62102846  0.37503909  1
  Fe  Fe5  1  0.74935481  0.74945917  0.00138267  1
  Fe  Fe6  1  0.24940744  0.75143272  -0.00054577  1
  Fe  Fe7  1  0.62437289  0.87565169  0.87575287  1
  Fe  Fe8  1  0.12440160  0.62266950  0.62335406  1
  Fe  Fe9  1  0.12329896  0.12469151  0.37630157  1
  Fe  Fe10  1  0.50035385  0.00183527  0.25186873  1
  Fe  Fe11  1  0.24868487  0.25203462  0.50214046  1
  Fe  Fe12  1  0.11964341  0.37380121  0.12002821  1
  Fe  Fe13  1  0.37225948  0.12566799  0.37404697  1
  Fe  Fe14  1  0.87682712  0.87475340  0.12485915  1
  Fe  Fe15  1  0.50156481  0.74699995  0.00229736  1
  Fe  Fe16  1  0.75055135  0.75053815  0.49779514  1
  Fe  Fe17  1  0.62722683  0.37382876  0.12153419  1
  Fe  Fe18  1  0.24932982  -0.00180763  0.49812964  1
  Fe  Fe19  1  0.87704048  0.87299751  0.62363438  1
  Fe  Fe20  1  0.00188136  0.00496193  0.00360591  1
  Fe  Fe21  1  0.74871214  0.25271572  0.75080295  1
  Fe  Fe22  1  0.37507159  0.37580482  0.87559863  1
  Fe  Fe23  1  0.74967402  0.50023081  -0.00144573  1
  Fe  Fe24  1  0.62508616  0.12533974  0.87410977  1
  Fe  Fe25  1  0.37084638  0.12602022  0.12641079  1
  Fe  Fe26  1  0.00201213  0.00001288  0.25109754  1
  Fe  Fe27  1  0.37789377  0.87442265  0.87424761  1
  Fe  Fe28  1  0.37360491  0.37815617  0.37518311  1
  Fe  Fe29  1  0.37451805  0.37561306  0.62565156  1
  Fe  Fe30  1  0.50054331  0.49723842  0.24748503  1
  Fe  Fe31  1  0.50331302  0.74735775  0.74746646  1
  Fe  Fe32  1  -0.00067220  0.75011947  0.25155553  1
  Fe  Fe33  1  0.24605662  0.25449534  0.25212137  1
  Fe  Fe34  1  0.62626167  0.12691036  0.12447968  1
  Fe  Fe35  1  0.00745412  0.24996277  0.74838149  1
  Fe  Fe36  1  -0.00118489  0.74624840  0.49806023  1
  Fe  Fe37  1  -0.00042422  0.74792294  -0.00006285  1
  Fe  Fe38  1  0.37253325  0.12490342  0.62516615  1
  Fe  Fe39  1  0.12390610  0.62359131  0.87502333  1
  Fe  Fe40  1  0.75051434  -0.00011814  0.25078743  1
  Fe  Fe41  1  0.37354811  0.87650423  0.12619827  1
  Fe  Fe42  1  0.24481852  0.24752071  -0.00404743  1
  Fe  Fe43  1  0.00027167  -0.00086810  0.74430030  1
  Fe  Fe44  1  0.75198611  0.49629296  0.25116404  1
  Fe  Fe45  1  0.12386721  0.87428616  0.61987524  1
  Fe  Fe46  1  0.50039064  0.24977033  -0.00082873  1
  Fe  Fe47  1  0.62456562  0.37662027  0.62353450  1
  Fe  Fe48  1  0.49582105  0.50615214  0.50145579  1
  Fe  Fe49  1  0.74992489  -0.00203048  0.74796942  1
  Fe  Fe50  1  0.62315842  0.87440660  0.62111157  1
  Fe  Fe51  1  0.37565336  0.62409942  0.87433767  1
  Fe  Fe52  1  0.12215015  0.87767481  0.87739179  1
  Fe  Fe53  1  0.00044177  0.50071535  0.74968584  1
  Fe  Fe54  1  0.24651259  0.75168191  0.75063003  1
  Fe  Fe55  1  0.74991116  0.49847586  0.75139810  1
  Fe  Fe56  1  0.87312926  0.62407334  0.12758063  1
  Fe  Fe57  1  0.75438686  0.49876314  0.49931005  1
  Fe  Fe58  1  0.50087202  0.25013495  0.25153957  1
  Fe  Fe59  1  0.62389733  0.37529050  0.37855135  1
  Fe  Fe60  1  0.49901863  0.24933709  0.49946573  1
  Fe  Fe61  1  0.37394407  0.37307364  0.12350432  1
  Fe  Fe62  1  0.62675310  0.62584013  0.37410198  1
  Fe  Fe63  1  0.24671637  -0.00321586  0.25035150  1
  Fe  Fe64  1  0.74911724  0.75141360  0.75024619  1
  Fe  Fe65  1  0.62597603  0.87547007  0.12629267  1
  Fe  Fe66  1  0.24757446  0.49724198  0.74894184  1
  Fe  Fe67  1  0.25453211  0.74577772  0.49671246  1
  Fe  Fe68  1  0.87742536  0.36855765  0.37624866  1
  Fe  Fe69  1  0.50260484  0.50167735  0.75043551  1
  Fe  Fe70  1  0.87680774  0.12539109  0.87116309  1
  Fe  Fe71  1  0.12423599  0.62614040  0.12672543  1
  Fe  Fe72  1  0.25115633  -0.00325785  0.74988766  1
  Fe  Fe73  1  0.62686908  0.12554286  0.62447437  1
  Fe  Fe74  1  0.87886574  0.37206159  0.62402012  1
  Fe  Fe75  1  0.87731451  0.87554903  0.87554913  1
  Fe  Fe76  1  0.12338207  0.37892502  0.38231466  1
  Fe  Fe77  1  0.87573475  0.13204351  0.13024325  1
  Fe  Fe78  1  0.87402804  0.62584250  0.62616731  1
  Fe  Fe79  1  0.49916995  0.24933094  0.74922589  1
  Fe  Fe80  1  0.75237961  0.00262569  0.00030811  1
  Fe  Fe81  1  -0.00161674  0.49745468  0.25027894  1
  Fe  Fe82  1  0.50019677  -0.00011187  0.49822951  1
  Fe  Fe83  1  0.24904235  0.50107815  0.00189064  1
  Fe  Fe84  1  0.62964684  0.12544645  0.37710450  1
  Fe  Fe85  1  0.87984862  0.37302666  0.87882894  1
  Fe  Fe86  1  0.87462078  0.62687471  0.87324083  1
  Fe  Fe87  1  0.37687351  0.87317136  0.62315573  1
  Fe  Fe88  1  0.49872873  0.00066645  0.00025915  1
  Fe  Fe89  1  0.24874925  0.75248727  0.25228793  1
  Co  Co90  1  0.50054385  0.50114416  0.00146231  1
  Co  Co91  1  0.12254902  0.87430581  0.37865052  1
  Co  Co92  1  0.37311582  0.62011182  0.36711943  1
  Co  Co93  1  0.75171594  0.24826391  -0.00208851  1
  Co  Co94  1  0.62333529  0.37441949  0.87578220  1
  Co  Co95  1  0.62977771  0.62323890  0.62269272  1
  Co  Co96  1  0.74652318  0.25373111  0.25113716  1
  Co  Co97  1  0.25490660  0.50282659  0.50272675  1
  Co  Co98  1  0.87334708  0.62587009  0.37286717  1
  Co  Co99  1  -0.00566532  0.50256486  0.49929866  1
  Co  Co100  1  0.00429862  0.25325433  0.25156989  1
  Co  Co101  1  0.37573373  0.87680361  0.37485774  1
  Co  Co102  1  0.12340633  0.87362434  0.12399453  1
  Co  Co103  1  0.12219676  0.37781826  0.87787894  1
  Co  Co104  1  0.25002579  -0.00162012  0.00013639  1
  Co  Co105  1  0.75403405  0.00074041  0.50212848  1
  Co  Co106  1  0.49637311  0.74579751  0.49769717  1
  Co  Co107  1  0.24734863  0.25311927  0.74968454  1
  Co  Co108  1  0.75197388  0.75283855  0.24998881  1
  Co  Co109  1  0.62559868  0.62521867  0.87446116  1
  Co  Co110  1  -0.00188174  0.50461142  0.00086588  1
  Co  Co111  1  0.87369172  0.12797936  0.37168807  1
  Co  Co112  1  0.87320629  0.12880842  0.62805760  1
  Co  Co113  1  0.00201507  0.74993395  0.74981743  1
  Co  Co114  1  0.12592044  0.12011773  0.87071097  1
  Co  Co115  1  0.12950894  0.12285224  0.62517699  1
  Co  Co116  1  0.50024589  0.00081280  0.74857693  1
  Co  Co117  1  0.37324457  0.62671172  0.63118821  1
  Co  Co118  1  0.24572467  0.49498104  0.24615222  1
  Co  Co119  1  -0.00377699  0.00528554  0.50154701  1
  Co  Co120  1  0.12309447  0.37867716  0.62026522  1
  Co  Co121  1  0.62629726  0.87529422  0.37593918  1
  Co  Co122  1  0.00094435  0.24412770  0.50268398  1
  Co  Co123  1  0.75061546  0.25081020  0.50144063  1
  Co  Co124  1  0.00179097  0.24367727  -0.00124231  1
  Co  Co125  1  0.87586521  0.37275787  0.12175334  1
  Co  Co126  1  0.12816940  0.12583078  0.12842806  1
  Co  Co127  1  0.62706435  0.62417181  0.12898010  1
