# generated using pymatgen
data_Fe45Co19
_symmetry_space_group_name_H-M   'P 1'
_cell_length_a   11.41497888
_cell_length_b   11.41494025
_cell_length_c   11.41476624
_cell_angle_alpha   90.00346396
_cell_angle_beta   89.99767549
_cell_angle_gamma   89.99440204
_symmetry_Int_Tables_number   1
_chemical_formula_structural   Fe45Co19
_chemical_formula_sum   'Fe90 Co38'
_cell_volume   1487.35888988
_cell_formula_units_Z   2
loop_
 _symmetry_equiv_pos_site_id
 _symmetry_equiv_pos_as_xyz
  1  'x, y, z'
loop_
 _atom_site_type_symbol
 _atom_site_label
 _atom_site_symmetry_multiplicity
 _atom_site_fract_x
 _atom_site_fract_y
 _atom_site_fract_z
 _atom_site_occupancy
  Fe  Fe0  1  0.25418599  0.75241510  -0.00022466  1
  Fe  Fe1  1  0.75189493  0.24916676  0.50059504  1
  Fe  Fe2  1  0.25140559  0.50014426  0.00196125  1
  Fe  Fe3  1  -0.00053402  0.75116087  0.25197387  1
  Fe  Fe4  1  0.00043910  0.50000226  0.49978147  1
  Fe  Fe5  1  0.74632689  0.50040409  0.24855143  1
  Fe  Fe6  1  0.75442953  0.24731166  -0.00138977  1
  Fe  Fe7  1  0.25525962  0.24536948  -0.00456043  1
  Fe  Fe8  1  0.49980370  0.75088104  0.49872884  1
  Fe  Fe9  1  0.25071562  0.24866945  0.25153927  1
  Fe  Fe10  1  0.62646805  0.62436922  0.62305474  1
  Fe  Fe11  1  0.12359373  0.12601441  0.37578915  1
  Fe  Fe12  1  0.62461806  0.37307180  0.62494401  1
  Fe  Fe13  1  0.12498299  0.87487094  0.12341471  1
  Fe  Fe14  1  0.61992854  0.37511713  0.87766512  1
  Fe  Fe15  1  0.37592800  0.37540255  0.62525158  1
  Fe  Fe16  1  0.50480155  0.00655442  0.25240245  1
  Fe  Fe17  1  0.37534896  0.37382614  0.37491728  1
  Fe  Fe18  1  -0.00182657  0.24980083  0.75230858  1
  Fe  Fe19  1  0.50023967  0.24509851  0.49770277  1
  Fe  Fe20  1  0.25161069  0.50123597  0.74795372  1
  Fe  Fe21  1  0.74454411  0.00332513  0.49990353  1
  Fe  Fe22  1  0.50124899  0.49780309  0.24824074  1
  Fe  Fe23  1  0.87377696  0.37604220  0.37273200  1
  Fe  Fe24  1  0.74991502  0.74979201  0.49778771  1
  Fe  Fe25  1  0.62297845  0.36724316  0.12310271  1
  Fe  Fe26  1  0.75236621  0.74650292  0.75160192  1
  Fe  Fe27  1  -0.00377191  0.75057517  0.50156529  1
  Fe  Fe28  1  0.24653631  0.00056414  0.25010316  1
  Fe  Fe29  1  0.24631561  -0.00156634  0.74472235  1
  Fe  Fe30  1  0.87553626  0.87659329  0.12785468  1
  Fe  Fe31  1  0.37644415  0.12053220  0.62350161  1
  Fe  Fe32  1  0.49732879  0.24939882  0.75299539  1
  Fe  Fe33  1  0.87162541  0.88027015  0.37438134  1
  Fe  Fe34  1  -0.00091118  0.50254944  0.74985023  1
  Fe  Fe35  1  0.88055581  0.12333699  0.12581642  1
  Fe  Fe36  1  0.00214093  -0.00040993  0.50284154  1
  Fe  Fe37  1  0.25414940  0.75224521  0.50077702  1
  Fe  Fe38  1  0.25009109  0.24777839  0.50179812  1
  Fe  Fe39  1  0.37663531  0.88236999  0.37821201  1
  Fe  Fe40  1  0.87538183  0.37782051  0.87726244  1
  Fe  Fe41  1  0.62444607  0.87560007  0.12452754  1
  Fe  Fe42  1  0.12562930  0.37482227  0.37442835  1
  Fe  Fe43  1  0.74857551  0.75142316  0.25080597  1
  Fe  Fe44  1  0.12426766  0.62919696  0.62539456  1
  Fe  Fe45  1  0.62474409  0.87198612  0.87864200  1
  Fe  Fe46  1  0.37699477  0.36972884  0.12370261  1
  Fe  Fe47  1  0.49925809  0.74923835  0.74883844  1
  Fe  Fe48  1  0.24927390  0.50006919  0.50103198  1
  Fe  Fe49  1  0.75175757  0.00059874  0.00150761  1
  Fe  Fe50  1  0.12833739  0.62573914  0.37241018  1
  Fe  Fe51  1  0.62318500  0.62994084  0.12264866  1
  Fe  Fe52  1  0.74759462  0.50233852  0.75234874  1
  Fe  Fe53  1  0.74827204  0.00024129  0.75034124  1
  Fe  Fe54  1  0.25439126  0.74986499  0.74880038  1
  Fe  Fe55  1  0.87404529  0.12323268  0.62631763  1
  Fe  Fe56  1  0.12564727  0.87396961  0.37713601  1
  Fe  Fe57  1  0.37393088  0.62327497  0.37235143  1
  Fe  Fe58  1  0.87447102  0.87466439  0.87408724  1
  Fe  Fe59  1  0.12332642  0.12307809  0.87580940  1
  Fe  Fe60  1  0.75110980  0.25089175  0.75197383  1
  Fe  Fe61  1  0.12593092  0.37075358  0.12367682  1
  Fe  Fe62  1  0.62566274  0.37212609  0.37361335  1
  Fe  Fe63  1  0.12349588  0.62717887  0.87482572  1
  Fe  Fe64  1  0.87413789  0.62481238  0.12444791  1
  Fe  Fe65  1  0.12457364  0.37319989  0.62660906  1
  Fe  Fe66  1  0.49875462  0.00368898  -0.00006679  1
  Fe  Fe67  1  0.50154794  0.50030271  0.49970238  1
  Fe  Fe68  1  0.62570389  0.12549830  0.87627246  1
  Fe  Fe69  1  0.75353571  0.24585739  0.24909021  1
  Fe  Fe70  1  0.87267965  0.62247977  0.37465841  1
  Fe  Fe71  1  0.00139071  0.49843504  0.00275792  1
  Fe  Fe72  1  0.12722249  0.37445015  0.87496005  1
  Fe  Fe73  1  0.49944236  0.75217406  0.25175079  1
  Fe  Fe74  1  0.00153913  0.49764079  0.24837311  1
  Fe  Fe75  1  -0.00223174  0.25004759  0.49929231  1
  Fe  Fe76  1  0.87453831  0.37748921  0.62550678  1
  Fe  Fe77  1  0.37389272  0.62615574  0.12798232  1
  Fe  Fe78  1  0.74676512  0.50167138  0.00019600  1
  Fe  Fe79  1  0.37529127  0.87911919  0.87340793  1
  Fe  Fe80  1  0.37570017  0.87980882  0.12662240  1
  Fe  Fe81  1  0.50429980  -0.00045724  0.74797458  1
  Fe  Fe82  1  0.62549137  0.87357414  0.62378015  1
  Fe  Fe83  1  0.37992955  0.62106340  0.87593047  1
  Fe  Fe84  1  0.25269044  0.24892748  0.75085443  1
  Fe  Fe85  1  0.00062518  -0.00265521  0.74807556  1
  Fe  Fe86  1  0.12229656  0.12496912  0.12246897  1
  Fe  Fe87  1  0.12516560  0.87334482  0.87409771  1
  Fe  Fe88  1  0.12837632  0.62767815  0.12840154  1
  Fe  Fe89  1  -0.00160185  0.75107024  0.00012345  1
  Co  Co90  1  0.49457078  0.75308081  0.00090507  1
  Co  Co91  1  0.25204095  0.75631271  0.25151591  1
  Co  Co92  1  0.62403778  0.62520223  0.37447331  1
  Co  Co93  1  0.12246162  0.12856838  0.62639573  1
  Co  Co94  1  0.25063850  0.00042503  0.00109127  1
  Co  Co95  1  0.37630176  0.38075309  0.87483453  1
  Co  Co96  1  0.50776694  0.00389615  0.49928444  1
  Co  Co97  1  0.25096708  0.49537376  0.24878820  1
  Co  Co98  1  0.37175676  0.12120538  0.37662586  1
  Co  Co99  1  0.37491671  0.12491051  0.12836526  1
  Co  Co100  1  0.49879530  0.24683399  0.25326787  1
  Co  Co101  1  0.87583406  0.12250908  0.87321865  1
  Co  Co102  1  0.62900160  0.12893382  0.37327580  1
  Co  Co103  1  -0.00196278  0.25133112  -0.00196885  1
  Co  Co104  1  0.49411625  0.24495587  -0.00561696  1
  Co  Co105  1  0.87264550  0.37500115  0.12485966  1
  Co  Co106  1  -0.00618915  0.75026378  0.74812965  1
  Co  Co107  1  0.75233344  0.75227106  0.00046413  1
  Co  Co108  1  0.62557089  0.12856180  0.62859943  1
  Co  Co109  1  0.50273639  0.50077250  0.74676614  1
  Co  Co110  1  0.74747233  0.00306386  0.24673299  1
  Co  Co111  1  0.62155319  0.62827721  0.87833035  1
  Co  Co112  1  0.12510682  0.86830131  0.62607860  1
  Co  Co113  1  -0.00052843  0.25115105  0.25062058  1
  Co  Co114  1  0.24475895  0.00027159  0.50341323  1
  Co  Co115  1  0.87073454  0.87810646  0.62384861  1
  Co  Co116  1  0.62599866  0.87563233  0.37351968  1
  Co  Co117  1  0.62365265  0.12891476  0.12135696  1
  Co  Co118  1  0.37405846  0.11743706  0.86957499  1
  Co  Co119  1  0.87595868  0.12109935  0.37533939  1
  Co  Co120  1  0.87295972  0.62207758  0.62235082  1
  Co  Co121  1  0.00365976  -0.00155695  0.25198287  1
  Co  Co122  1  0.37783391  0.88006890  0.62298678  1
  Co  Co123  1  -0.00122508  -0.00291383  -0.00193569  1
  Co  Co124  1  0.74759455  0.49717456  0.49881657  1
  Co  Co125  1  0.87644370  0.62371180  0.87922814  1
  Co  Co126  1  0.37572719  0.62436379  0.62323119  1
  Co  Co127  1  0.50128753  0.49969874  0.00534838  1
