# generated using pymatgen
data_Fe45Co19
_symmetry_space_group_name_H-M   'P 1'
_cell_length_a   11.41627838
_cell_length_b   11.41368712
_cell_length_c   11.41345850
_cell_angle_alpha   90.01683278
_cell_angle_beta   89.99987268
_cell_angle_gamma   89.99103382
_symmetry_Int_Tables_number   1
_chemical_formula_structural   Fe45Co19
_chemical_formula_sum   'Fe90 Co38'
_cell_volume   1487.19444167
_cell_formula_units_Z   2
loop_
 _symmetry_equiv_pos_site_id
 _symmetry_equiv_pos_as_xyz
  1  'x, y, z'
loop_
 _atom_site_type_symbol
 _atom_site_label
 _atom_site_symmetry_multiplicity
 _atom_site_fract_x
 _atom_site_fract_y
 _atom_site_fract_z
 _atom_site_occupancy
  Fe  Fe0  1  -0.00298486  0.24959934  0.25016901  1
  Fe  Fe1  1  0.12721591  0.87458596  0.62324413  1
  Fe  Fe2  1  0.00200817  0.49738609  0.25129268  1
  Fe  Fe3  1  -0.00288007  0.75410046  0.25354012  1
  Fe  Fe4  1  0.50073018  0.74950742  0.24986602  1
  Fe  Fe5  1  0.87532600  0.12270357  0.37545589  1
  Fe  Fe6  1  0.62479144  0.37257735  0.62458641  1
  Fe  Fe7  1  0.25037312  0.74884868  0.25376799  1
  Fe  Fe8  1  0.74908776  0.00353329  0.24884946  1
  Fe  Fe9  1  0.50252865  0.49748744  0.24655348  1
  Fe  Fe10  1  0.25199829  0.74729196  0.49653744  1
  Fe  Fe11  1  0.75013124  0.25063851  0.49855128  1
  Fe  Fe12  1  0.25173950  0.25015986  0.49512247  1
  Fe  Fe13  1  0.50078117  0.49841085  0.50025825  1
  Fe  Fe14  1  0.37235227  0.12737259  0.12614549  1
  Fe  Fe15  1  0.87822568  0.62355023  0.87602458  1
  Fe  Fe16  1  0.87363613  0.87864633  0.62597333  1
  Fe  Fe17  1  0.62317385  0.87731975  0.87344257  1
  Fe  Fe18  1  0.75243495  0.75087119  0.25060999  1
  Fe  Fe19  1  0.62629337  0.87585455  0.37533523  1
  Fe  Fe20  1  0.62318768  0.12739280  0.87392972  1
  Fe  Fe21  1  0.75180140  0.49374743  -0.00335461  1
  Fe  Fe22  1  -0.00142947  0.24950372  0.00146295  1
  Fe  Fe23  1  0.12496259  0.12659753  0.37260855  1
  Fe  Fe24  1  0.75162109  0.25040645  0.75199089  1
  Fe  Fe25  1  0.37596248  0.37729662  0.37551862  1
  Fe  Fe26  1  0.00030050  0.75136721  0.74947282  1
  Fe  Fe27  1  0.62570842  0.87560699  0.12459698  1
  Fe  Fe28  1  0.49963150  0.74952620  0.49932923  1
  Fe  Fe29  1  0.12637193  0.62556377  0.62293178  1
  Fe  Fe30  1  0.87699118  0.37335990  0.62356455  1
  Fe  Fe31  1  0.74895907  0.00453778  0.00033496  1
  Fe  Fe32  1  0.50103361  0.49833389  0.75173615  1
  Fe  Fe33  1  0.49691283  0.25150152  0.75054562  1
  Fe  Fe34  1  0.49741765  0.25036756  0.24972779  1
  Fe  Fe35  1  0.37463853  0.87647959  0.87472678  1
  Fe  Fe36  1  0.75284559  0.75160147  -0.00056387  1
  Fe  Fe37  1  0.62802973  0.62427123  0.12315743  1
  Fe  Fe38  1  0.37470488  0.87538904  0.62595411  1
  Fe  Fe39  1  0.12776054  0.37023567  0.12502710  1
  Fe  Fe40  1  0.12289516  0.62684019  0.12623147  1
  Fe  Fe41  1  0.24593049  0.49967043  0.75204687  1
  Fe  Fe42  1  0.50045213  0.00149140  0.24774312  1
  Fe  Fe43  1  0.24719437  0.00331286  0.00151066  1
  Fe  Fe44  1  0.24798711  0.24977754  0.75223087  1
  Fe  Fe45  1  0.24725824  0.00096417  0.74966151  1
  Fe  Fe46  1  0.24694443  0.49950112  0.25334586  1
  Fe  Fe47  1  0.12413449  0.87469996  0.87437247  1
  Fe  Fe48  1  0.62245926  0.12866695  0.37423810  1
  Fe  Fe49  1  0.24743752  0.74836497  -0.00085095  1
  Fe  Fe50  1  0.62546171  0.62228877  0.37541470  1
  Fe  Fe51  1  0.12475015  0.87454411  0.12799213  1
  Fe  Fe52  1  0.87748914  0.87907478  0.87369332  1
  Fe  Fe53  1  0.62597174  0.62428525  0.62490108  1
  Fe  Fe54  1  0.00252624  0.49927224  0.74797372  1
  Fe  Fe55  1  0.50003529  0.74910106  0.00061035  1
  Fe  Fe56  1  0.37312462  0.37755659  0.87929321  1
  Fe  Fe57  1  0.75082928  0.75151519  0.75132225  1
  Fe  Fe58  1  0.62596242  0.62302170  0.87628478  1
  Fe  Fe59  1  0.25006362  0.00231465  0.49780725  1
  Fe  Fe60  1  0.37570572  0.87700995  0.37464171  1
  Fe  Fe61  1  0.37209732  0.37567110  0.62343721  1
  Fe  Fe62  1  0.12563250  0.37317383  0.62001694  1
  Fe  Fe63  1  0.00162639  0.00239713  0.50167307  1
  Fe  Fe64  1  0.37308899  0.62274662  0.62504209  1
  Fe  Fe65  1  0.50192148  0.00245066  0.50396830  1
  Fe  Fe66  1  0.87600182  0.62286697  0.12389764  1
  Fe  Fe67  1  0.00291168  0.00185388  0.00385243  1
  Fe  Fe68  1  0.87906837  0.12289038  0.87144832  1
  Fe  Fe69  1  0.50038407  0.00359872  0.00225481  1
  Fe  Fe70  1  0.37416843  0.12383700  0.87413980  1
  Fe  Fe71  1  0.49840815  0.74972671  0.75074451  1
  Fe  Fe72  1  0.75026238  0.75044983  0.50010669  1
  Fe  Fe73  1  0.37289673  0.62240515  0.87700703  1
  Fe  Fe74  1  0.74611709  0.00246972  0.50494117  1
  Fe  Fe75  1  0.87492335  0.62179994  0.37578947  1
  Fe  Fe76  1  0.00336994  0.24609718  0.74555033  1
  Fe  Fe77  1  0.37400339  0.87473993  0.12501284  1
  Fe  Fe78  1  0.37118782  0.37472466  0.12130372  1
  Fe  Fe79  1  0.00287322  0.49746301  -0.00084837  1
  Fe  Fe80  1  0.37426226  0.62291813  0.12445925  1
  Fe  Fe81  1  0.87452687  0.62354391  0.62425271  1
  Fe  Fe82  1  0.75062562  0.49673974  0.75069827  1
  Fe  Fe83  1  0.24935747  0.00190803  0.25051382  1
  Fe  Fe84  1  0.87710340  0.37621010  0.37775973  1
  Fe  Fe85  1  0.74948122  0.49534952  0.25067922  1
  Fe  Fe86  1  -0.00171957  0.75170263  0.49731246  1
  Fe  Fe87  1  0.62868152  0.36693348  0.12126354  1
  Fe  Fe88  1  0.37400902  0.12630416  0.62501016  1
  Fe  Fe89  1  0.87470422  0.87841012  0.12601850  1
  Co  Co90  1  0.12335607  0.37155561  0.87526351  1
  Co  Co91  1  0.87175422  0.88041146  0.37724548  1
  Co  Co92  1  0.24392443  0.50133408  -0.00020423  1
  Co  Co93  1  0.37818573  0.62180869  0.37285273  1
  Co  Co94  1  0.62682649  0.13166106  0.12552254  1
  Co  Co95  1  0.62426530  0.87276646  0.62712626  1
  Co  Co96  1  0.87513325  0.12460118  0.12597054  1
  Co  Co97  1  0.12165027  0.62598420  0.37550707  1
  Co  Co98  1  0.87266829  0.12498300  0.62616227  1
  Co  Co99  1  0.00077390  0.50040393  0.50098604  1
  Co  Co100  1  0.12228535  0.37153903  0.37737656  1
  Co  Co101  1  0.75634025  0.24819465  -0.00470092  1
  Co  Co102  1  -0.00116121  0.75250969  0.00139569  1
  Co  Co103  1  0.50251884  0.49846198  0.00218148  1
  Co  Co104  1  0.00400948  0.00112076  0.74446416  1
  Co  Co105  1  0.25033210  0.74996162  0.75053383  1
  Co  Co106  1  0.62345525  0.37312171  0.37517751  1
  Co  Co107  1  0.24861339  0.50001823  0.49602659  1
  Co  Co108  1  0.62410864  0.13115704  0.62776098  1
  Co  Co109  1  0.12222016  0.12550723  0.87546675  1
  Co  Co110  1  0.49751459  0.25064227  0.50032257  1
  Co  Co111  1  0.49947831  0.00141960  0.74705181  1
  Co  Co112  1  -0.00081069  0.24566319  0.50013986  1
  Co  Co113  1  0.12691407  0.87643518  0.37574975  1
  Co  Co114  1  0.62325070  0.37153181  0.87670776  1
  Co  Co115  1  0.75437490  0.25026611  0.25325265  1
  Co  Co116  1  0.88112881  0.37363614  0.87117073  1
  Co  Co117  1  0.75036295  0.49691146  0.50097459  1
  Co  Co118  1  0.00079676  -0.00043415  0.25075656  1
  Co  Co119  1  0.25268236  0.25079579  0.25402781  1
  Co  Co120  1  0.74781582  0.00098942  0.74914871  1
  Co  Co121  1  0.87428019  0.37485668  0.12468296  1
  Co  Co122  1  0.12519398  0.12891465  0.12870934  1
  Co  Co123  1  0.37707967  0.12341518  0.37518839  1
  Co  Co124  1  0.12971907  0.12683042  0.62231248  1
  Co  Co125  1  0.12229200  0.62737039  0.87413125  1
  Co  Co126  1  0.24970403  0.24694262  -0.00236505  1
  Co  Co127  1  0.49599953  0.24852367  0.00012949  1
