# generated using pymatgen
data_Fe45Co19
_symmetry_space_group_name_H-M   'P 1'
_cell_length_a   11.41650930
_cell_length_b   11.41586070
_cell_length_c   11.41433661
_cell_angle_alpha   89.99491092
_cell_angle_beta   90.00816933
_cell_angle_gamma   89.99569295
_symmetry_Int_Tables_number   1
_chemical_formula_structural   Fe45Co19
_chemical_formula_sum   'Fe90 Co38'
_cell_volume   1487.62224456
_cell_formula_units_Z   2
loop_
 _symmetry_equiv_pos_site_id
 _symmetry_equiv_pos_as_xyz
  1  'x, y, z'
loop_
 _atom_site_type_symbol
 _atom_site_label
 _atom_site_symmetry_multiplicity
 _atom_site_fract_x
 _atom_site_fract_y
 _atom_site_fract_z
 _atom_site_occupancy
  Fe  Fe0  1  0.25250300  0.75243846  0.25139693  1
  Fe  Fe1  1  0.75090235  0.49730954  0.75298174  1
  Fe  Fe2  1  0.87513912  0.12561906  0.87409201  1
  Fe  Fe3  1  0.37369096  0.12149594  0.62274218  1
  Fe  Fe4  1  0.00036834  0.00026765  -0.00101471  1
  Fe  Fe5  1  -0.00093591  -0.00050152  0.24866516  1
  Fe  Fe6  1  0.49905991  0.75131439  0.75122294  1
  Fe  Fe7  1  0.87551594  0.37441855  0.12675907  1
  Fe  Fe8  1  0.37403992  0.12310722  0.12292037  1
  Fe  Fe9  1  -0.00327301  0.75105697  0.50162975  1
  Fe  Fe10  1  0.00094473  0.25043276  0.50028847  1
  Fe  Fe11  1  0.87843942  0.37715746  0.37555148  1
  Fe  Fe12  1  0.37452799  0.62659972  0.62590024  1
  Fe  Fe13  1  0.25181187  0.50239315  0.75321821  1
  Fe  Fe14  1  0.50103381  0.50039436  0.24753598  1
  Fe  Fe15  1  0.24833897  0.50044285  0.49812108  1
  Fe  Fe16  1  0.37635091  0.62556314  0.37435686  1
  Fe  Fe17  1  -0.00324270  0.50112589  -0.00276061  1
  Fe  Fe18  1  0.50101667  0.74986757  0.24722051  1
  Fe  Fe19  1  0.00039819  -0.00050294  0.74823811  1
  Fe  Fe20  1  0.24958084  0.24962754  0.49902407  1
  Fe  Fe21  1  0.87435303  0.37716558  0.62367829  1
  Fe  Fe22  1  0.24984995  0.25057438  0.25159692  1
  Fe  Fe23  1  0.12466269  0.37616870  0.12601424  1
  Fe  Fe24  1  0.74998040  0.25343925  -0.00161168  1
  Fe  Fe25  1  0.24864788  0.50058845  0.25153713  1
  Fe  Fe26  1  0.12599654  0.12415052  0.87254714  1
  Fe  Fe27  1  0.50027303  0.25121617  -0.00042406  1
  Fe  Fe28  1  0.75046152  0.24695325  0.25331035  1
  Fe  Fe29  1  0.25216119  0.50180731  -0.00306752  1
  Fe  Fe30  1  0.74859511  0.75064386  0.75076938  1
  Fe  Fe31  1  0.74709797  0.00310914  0.25093182  1
  Fe  Fe32  1  0.25220857  0.74931971  -0.00413513  1
  Fe  Fe33  1  0.87527642  0.87585199  0.37530235  1
  Fe  Fe34  1  0.24829816  0.24861424  -0.00002450  1
  Fe  Fe35  1  0.50084705  0.00114006  0.75035182  1
  Fe  Fe36  1  0.87141269  0.87457599  0.12408279  1
  Fe  Fe37  1  0.74850636  0.75025441  0.25011487  1
  Fe  Fe38  1  0.12601453  0.87315785  0.87329079  1
  Fe  Fe39  1  0.87054767  0.62546146  0.12262149  1
  Fe  Fe40  1  0.62452032  0.62049700  0.87880760  1
  Fe  Fe41  1  0.50368057  0.00234368  0.24631597  1
  Fe  Fe42  1  0.74955741  0.25153370  0.75030644  1
  Fe  Fe43  1  0.00346381  -0.00222074  0.50348112  1
  Fe  Fe44  1  0.37393509  0.12184052  0.87682182  1
  Fe  Fe45  1  0.50171930  0.75195932  0.00050229  1
  Fe  Fe46  1  0.62548942  0.12736972  0.62470304  1
  Fe  Fe47  1  0.62607813  0.87812199  0.87833231  1
  Fe  Fe48  1  0.12327266  0.12419724  0.37466042  1
  Fe  Fe49  1  -0.00193418  0.74871988  0.74946768  1
  Fe  Fe50  1  0.25468748  0.75695687  0.49819487  1
  Fe  Fe51  1  0.49974208  0.24817968  0.24914220  1
  Fe  Fe52  1  0.87386661  0.12570452  0.12475681  1
  Fe  Fe53  1  0.25296005  0.25072278  0.74945205  1
  Fe  Fe54  1  0.74803190  -0.00066391  0.49984807  1
  Fe  Fe55  1  0.37660727  0.12066284  0.37746335  1
  Fe  Fe56  1  0.00050336  0.24992652  0.74814201  1
  Fe  Fe57  1  0.24978178  -0.00283924  0.25217314  1
  Fe  Fe58  1  0.12461773  0.37602182  0.87442713  1
  Fe  Fe59  1  0.37608245  0.62473421  0.12370068  1
  Fe  Fe60  1  0.12438906  0.63022964  0.37520045  1
  Fe  Fe61  1  0.12769772  0.62907929  0.62540390  1
  Fe  Fe62  1  0.62389538  0.87339108  0.62296454  1
  Fe  Fe63  1  0.62113886  0.87414658  0.37640445  1
  Fe  Fe64  1  0.12427082  0.87238486  0.12573079  1
  Fe  Fe65  1  0.37548123  0.87729028  0.12286283  1
  Fe  Fe66  1  0.62698437  0.62400136  0.62413526  1
  Fe  Fe67  1  0.75073281  0.25082219  0.49869289  1
  Fe  Fe68  1  0.62538492  0.12598575  0.87626973  1
  Fe  Fe69  1  0.87310819  0.87464749  0.87439552  1
  Fe  Fe70  1  0.12710152  0.37594529  0.62469878  1
  Fe  Fe71  1  0.74951211  0.00019822  0.74938763  1
  Fe  Fe72  1  -0.00066505  0.50205203  0.74993060  1
  Fe  Fe73  1  0.62447254  0.62645847  0.37636198  1
  Fe  Fe74  1  0.87413417  0.62453285  0.37703830  1
  Fe  Fe75  1  0.37397553  0.37497733  0.12495113  1
  Fe  Fe76  1  0.37542817  0.37624472  0.37585960  1
  Fe  Fe77  1  0.50133264  0.50011900  0.50162696  1
  Fe  Fe78  1  0.12482669  0.12456045  0.12718423  1
  Fe  Fe79  1  0.12547388  0.62669490  0.12386204  1
  Fe  Fe80  1  0.87483028  0.12351399  0.62418056  1
  Fe  Fe81  1  0.74764421  0.50043022  0.25005044  1
  Fe  Fe82  1  0.49919289  0.25118893  0.50338789  1
  Fe  Fe83  1  0.24974069  -0.00351241  0.74733331  1
  Fe  Fe84  1  0.00176941  0.24914575  0.00005038  1
  Fe  Fe85  1  0.00235349  0.50265175  0.25125249  1
  Fe  Fe86  1  0.87100274  0.62451641  0.62394028  1
  Fe  Fe87  1  0.49778582  0.49560369  0.74873491  1
  Fe  Fe88  1  -0.00223416  0.74923702  -0.00097213  1
  Fe  Fe89  1  0.62341829  0.37379807  0.37493159  1
  Co  Co90  1  0.62256516  0.12633022  0.37774429  1
  Co  Co91  1  0.62598280  0.37396392  0.62619525  1
  Co  Co92  1  0.24683694  -0.00487420  0.49857116  1
  Co  Co93  1  0.62735997  0.12754622  0.12210389  1
  Co  Co94  1  0.62800703  0.87640051  0.12394990  1
  Co  Co95  1  0.12388774  0.37413532  0.37456180  1
  Co  Co96  1  0.12656413  0.12556635  0.62505060  1
  Co  Co97  1  0.24629388  -0.00074647  0.00111646  1
  Co  Co98  1  0.87728148  0.37295659  0.87340052  1
  Co  Co99  1  0.37255108  0.37653471  0.62352503  1
  Co  Co100  1  -0.00386570  0.74761909  0.24814217  1
  Co  Co101  1  0.00205850  0.50247476  0.50096059  1
  Co  Co102  1  0.75059205  0.49525318  -0.00122292  1
  Co  Co103  1  0.12058531  0.87240441  0.37276298  1
  Co  Co104  1  0.12306399  0.62582067  0.87464224  1
  Co  Co105  1  0.37526517  0.37422391  0.87647407  1
  Co  Co106  1  0.62626524  0.37317511  0.12764590  1
  Co  Co107  1  0.74766114  0.49884513  0.49847700  1
  Co  Co108  1  0.87308292  0.87575891  0.62625983  1
  Co  Co109  1  0.50086611  0.49610243  0.00421914  1
  Co  Co110  1  0.62168589  0.37537258  0.87282920  1
  Co  Co111  1  0.50147579  0.00080332  0.00117448  1
  Co  Co112  1  0.87176270  0.62670886  0.87475133  1
  Co  Co113  1  0.37797369  0.87576606  0.62551390  1
  Co  Co114  1  0.50246065  0.00056781  0.50351887  1
  Co  Co115  1  0.38216918  0.87866478  0.37458412  1
  Co  Co116  1  0.74816354  0.75005153  -0.00136952  1
  Co  Co117  1  -0.00055269  0.24941229  0.25034587  1
  Co  Co118  1  0.74967608  0.75090723  0.49965652  1
  Co  Co119  1  0.62702215  0.62392467  0.12212827  1
  Co  Co120  1  0.25508134  0.74921620  0.75411378  1
  Co  Co121  1  0.37535724  0.87820267  0.87580571  1
  Co  Co122  1  0.12636174  0.87004372  0.62766594  1
  Co  Co123  1  0.87766488  0.12208452  0.37727197  1
  Co  Co124  1  0.49856796  0.74698766  0.50161614  1
  Co  Co125  1  0.75193841  0.00170557  -0.00045924  1
  Co  Co126  1  0.49642853  0.24826944  0.74871053  1
  Co  Co127  1  0.38161344  0.62389669  0.87603560  1
