# generated using pymatgen
data_Fe45Co19
_symmetry_space_group_name_H-M   'P 1'
_cell_length_a   11.41487756
_cell_length_b   11.41556415
_cell_length_c   11.41478273
_cell_angle_alpha   90.00150497
_cell_angle_beta   90.00409373
_cell_angle_gamma   89.99996117
_symmetry_Int_Tables_number   1
_chemical_formula_structural   Fe45Co19
_chemical_formula_sum   'Fe90 Co38'
_cell_volume   1487.42913715
_cell_formula_units_Z   2
loop_
 _symmetry_equiv_pos_site_id
 _symmetry_equiv_pos_as_xyz
  1  'x, y, z'
loop_
 _atom_site_type_symbol
 _atom_site_label
 _atom_site_symmetry_multiplicity
 _atom_site_fract_x
 _atom_site_fract_y
 _atom_site_fract_z
 _atom_site_occupancy
  Fe  Fe0  1  0.12706591  0.12722591  0.62481910  1
  Fe  Fe1  1  0.50535418  0.49976695  0.75159616  1
  Fe  Fe2  1  0.12607928  0.62451554  0.87626477  1
  Fe  Fe3  1  0.87125455  0.12212740  0.87504633  1
  Fe  Fe4  1  0.87349555  0.87610109  0.12706186  1
  Fe  Fe5  1  0.37447005  0.12388906  0.87029050  1
  Fe  Fe6  1  0.87765813  0.12298806  0.37706057  1
  Fe  Fe7  1  0.12600104  0.12657078  0.12542094  1
  Fe  Fe8  1  0.25184983  0.25085125  0.50097478  1
  Fe  Fe9  1  0.37753416  0.12558279  0.12669863  1
  Fe  Fe10  1  0.49949261  0.75228228  0.00013145  1
  Fe  Fe11  1  -0.00036342  0.74915674  0.49872542  1
  Fe  Fe12  1  0.12296513  0.87844195  0.37520908  1
  Fe  Fe13  1  0.25088587  0.49866981  0.75122853  1
  Fe  Fe14  1  0.37580706  0.87464121  0.62504520  1
  Fe  Fe15  1  0.00102614  0.24835158  0.25204440  1
  Fe  Fe16  1  0.62514035  0.62636085  0.37391404  1
  Fe  Fe17  1  0.37494271  0.87398198  0.37356209  1
  Fe  Fe18  1  0.74902303  0.75143387  0.74904738  1
  Fe  Fe19  1  0.50274114  0.00133190  0.74402903  1
  Fe  Fe20  1  0.50268221  0.50064127  -0.00112506  1
  Fe  Fe21  1  0.62733987  0.62653205  0.12709221  1
  Fe  Fe22  1  0.87761108  0.87745369  0.37529127  1
  Fe  Fe23  1  0.50146860  0.24914461  0.74739719  1
  Fe  Fe24  1  0.62463239  0.87425953  0.37614081  1
  Fe  Fe25  1  0.87574974  0.37616931  0.37467504  1
  Fe  Fe26  1  0.50103088  -0.00028000  0.25024626  1
  Fe  Fe27  1  0.12563318  0.37544376  0.12541677  1
  Fe  Fe28  1  0.87059124  0.37468880  0.87359865  1
  Fe  Fe29  1  0.74638581  0.25017318  0.25240164  1
  Fe  Fe30  1  0.49993839  0.75165556  0.24940866  1
  Fe  Fe31  1  0.62550910  0.62690454  0.62557329  1
  Fe  Fe32  1  0.37728276  0.37794546  0.62465631  1
  Fe  Fe33  1  -0.00075252  0.25005844  0.75041263  1
  Fe  Fe34  1  0.74928883  -0.00249161  0.50332200  1
  Fe  Fe35  1  0.37816653  0.37359381  0.12442633  1
  Fe  Fe36  1  -0.00124856  0.24961717  -0.00086481  1
  Fe  Fe37  1  -0.00142582  0.50020910  0.00098333  1
  Fe  Fe38  1  0.12509736  0.37512814  0.62515240  1
  Fe  Fe39  1  0.74533489  0.24672171  0.74787930  1
  Fe  Fe40  1  0.37707749  0.62468297  0.87420744  1
  Fe  Fe41  1  0.25257401  -0.00033124  -0.00118223  1
  Fe  Fe42  1  -0.00004590  0.49948168  0.50146706  1
  Fe  Fe43  1  -0.00185271  0.50040239  0.75082698  1
  Fe  Fe44  1  0.25009102  0.00072376  0.25000170  1
  Fe  Fe45  1  0.50231745  0.24805546  -0.00221888  1
  Fe  Fe46  1  0.62184925  0.12612237  0.37996342  1
  Fe  Fe47  1  0.74742520  0.49934310  0.49977049  1
  Fe  Fe48  1  0.25249831  0.25064681  0.25175692  1
  Fe  Fe49  1  0.37614811  0.62357038  0.62468092  1
  Fe  Fe50  1  0.25342042  0.75294451  -0.00171265  1
  Fe  Fe51  1  0.12666617  0.87441285  0.12519318  1
  Fe  Fe52  1  0.87471148  0.62239857  0.37302832  1
  Fe  Fe53  1  -0.00106469  0.74872829  0.00054986  1
  Fe  Fe54  1  -0.00038755  -0.00059282  0.74670986  1
  Fe  Fe55  1  0.00220712  0.74749672  0.24979632  1
  Fe  Fe56  1  0.74744457  0.00016622  0.24962678  1
  Fe  Fe57  1  0.62172363  0.37268593  0.37904569  1
  Fe  Fe58  1  0.87279495  0.12493689  0.12580694  1
  Fe  Fe59  1  0.25206559  0.24953279  -0.00268015  1
  Fe  Fe60  1  -0.00077103  0.74935290  0.75083683  1
  Fe  Fe61  1  0.25232562  0.49871592  0.00010927  1
  Fe  Fe62  1  0.37642612  0.37924885  0.37738464  1
  Fe  Fe63  1  0.12561745  0.37767801  0.37529526  1
  Fe  Fe64  1  0.62404314  0.87666383  0.87262370  1
  Fe  Fe65  1  0.25319269  0.75150775  0.75215618  1
  Fe  Fe66  1  -0.00136232  0.00103531  0.00126201  1
  Fe  Fe67  1  0.12507693  0.87611381  0.87458778  1
  Fe  Fe68  1  0.75078293  0.75135268  0.49945875  1
  Fe  Fe69  1  0.87169472  0.62340880  0.12840816  1
  Fe  Fe70  1  0.50167011  0.49922338  0.24979263  1
  Fe  Fe71  1  0.87245655  0.37466337  0.12733072  1
  Fe  Fe72  1  0.37241928  0.62755082  0.12835518  1
  Fe  Fe73  1  0.25107095  0.74582443  0.49607878  1
  Fe  Fe74  1  0.87349245  0.62525968  0.62507247  1
  Fe  Fe75  1  0.74649847  0.49877515  -0.00047170  1
  Fe  Fe76  1  0.87188337  0.37444181  0.62511561  1
  Fe  Fe77  1  0.12638382  0.12496666  0.87259888  1
  Fe  Fe78  1  0.12521635  0.87273872  0.62408623  1
  Fe  Fe79  1  0.50197935  -0.00050481  0.00275711  1
  Fe  Fe80  1  0.87183027  0.62446509  0.87424043  1
  Fe  Fe81  1  0.74600134  0.24757341  0.00091864  1
  Fe  Fe82  1  0.87472461  0.12600454  0.62220018  1
  Fe  Fe83  1  0.87239466  0.87847041  0.87312997  1
  Fe  Fe84  1  0.25062670  0.00058957  0.50096994  1
  Fe  Fe85  1  0.74891419  0.75277103  0.00046127  1
  Fe  Fe86  1  0.49870165  0.74911755  0.50003953  1
  Fe  Fe87  1  0.12537228  0.37468406  0.87486460  1
  Fe  Fe88  1  0.37665290  0.12491270  0.37729406  1
  Fe  Fe89  1  0.12580122  0.62508799  0.62495131  1
  Co  Co90  1  0.62396156  0.12720525  0.61707037  1
  Co  Co91  1  0.00078456  0.00124875  0.50453038  1
  Co  Co92  1  0.12841589  0.62512091  0.12256544  1
  Co  Co93  1  0.25213138  0.25263157  0.74882099  1
  Co  Co94  1  0.87555061  0.87291851  0.62482553  1
  Co  Co95  1  0.74693882  0.50117500  0.74906166  1
  Co  Co96  1  0.00082009  0.50050590  0.24729495  1
  Co  Co97  1  0.25055835  0.50212928  0.50065223  1
  Co  Co98  1  0.49870348  -0.00275871  0.50022535  1
  Co  Co99  1  0.50330000  0.50275283  0.50040599  1
  Co  Co100  1  0.25155623  0.49977776  0.24955137  1
  Co  Co101  1  0.00098294  0.25071546  0.49872048  1
  Co  Co102  1  0.37710204  0.62390380  0.37284214  1
  Co  Co103  1  0.12400012  0.62049873  0.37545057  1
  Co  Co104  1  0.74790096  0.00131032  0.74383249  1
  Co  Co105  1  0.62517085  0.12189538  0.87410021  1
  Co  Co106  1  0.12564780  0.12381370  0.37633670  1
  Co  Co107  1  0.62572960  0.62842541  0.87531135  1
  Co  Co108  1  0.49910328  0.25045680  0.25321545  1
  Co  Co109  1  0.24942893  -0.00247836  0.74833308  1
  Co  Co110  1  0.37395503  0.12359445  0.62522380  1
  Co  Co111  1  0.37957850  0.87893572  0.87275781  1
  Co  Co112  1  0.62290504  0.37278311  0.12432885  1
  Co  Co113  1  0.49868967  0.74887279  0.74922178  1
  Co  Co114  1  0.24654408  0.74949218  0.25380757  1
  Co  Co115  1  0.62624595  0.37330170  0.62280316  1
  Co  Co116  1  0.37416979  0.87506441  0.12793478  1
  Co  Co117  1  0.75125500  0.75183696  0.25229107  1
  Co  Co118  1  0.62371911  0.87204279  0.62431445  1
  Co  Co119  1  0.49501595  0.25074285  0.50306304  1
  Co  Co120  1  0.00090873  0.00184254  0.24713217  1
  Co  Co121  1  0.74712972  -0.00045871  0.00293766  1
  Co  Co122  1  0.37799083  0.37431394  0.87496386  1
  Co  Co123  1  0.62551837  0.87396419  0.12682521  1
  Co  Co124  1  0.74554952  0.49702647  0.25221434  1
  Co  Co125  1  0.75180324  0.25078227  0.49773285  1
  Co  Co126  1  0.62332477  0.12674068  0.12800575  1
  Co  Co127  1  0.62638930  0.37293279  0.87449416  1
