# generated using pymatgen
data_Fe45Co19
_symmetry_space_group_name_H-M   'P 1'
_cell_length_a   11.41464989
_cell_length_b   11.41457242
_cell_length_c   11.41604801
_cell_angle_alpha   90.00397567
_cell_angle_beta   90.00656565
_cell_angle_gamma   89.99750254
_symmetry_Int_Tables_number   1
_chemical_formula_structural   Fe45Co19
_chemical_formula_sum   'Fe90 Co38'
_cell_volume   1487.43509852
_cell_formula_units_Z   2
loop_
 _symmetry_equiv_pos_site_id
 _symmetry_equiv_pos_as_xyz
  1  'x, y, z'
loop_
 _atom_site_type_symbol
 _atom_site_label
 _atom_site_symmetry_multiplicity
 _atom_site_fract_x
 _atom_site_fract_y
 _atom_site_fract_z
 _atom_site_occupancy
  Fe  Fe0  1  0.49432775  0.49942931  0.74458559  1
  Fe  Fe1  1  0.87650162  0.12367913  0.12201331  1
  Fe  Fe2  1  0.00203441  0.49918912  0.25087492  1
  Fe  Fe3  1  0.49506631  0.25119311  0.74829444  1
  Fe  Fe4  1  0.37045387  0.37793966  0.37891616  1
  Fe  Fe5  1  0.87705508  0.62565237  0.12241559  1
  Fe  Fe6  1  0.87807755  0.37708875  0.37829811  1
  Fe  Fe7  1  0.12545780  0.12511479  0.12724584  1
  Fe  Fe8  1  0.37304705  0.87354332  0.62266382  1
  Fe  Fe9  1  0.24804676  0.74813836  -0.00181722  1
  Fe  Fe10  1  0.00189889  0.25326063  0.75031591  1
  Fe  Fe11  1  0.62562408  0.87471629  0.37465459  1
  Fe  Fe12  1  0.12508298  0.62675976  0.12632448  1
  Fe  Fe13  1  0.75015283  0.25053340  0.25108065  1
  Fe  Fe14  1  0.74744316  0.74828548  -0.00087528  1
  Fe  Fe15  1  0.88106397  0.37763501  0.61999809  1
  Fe  Fe16  1  0.12460955  0.12338071  0.37311496  1
  Fe  Fe17  1  0.24885170  0.25020791  0.74582539  1
  Fe  Fe18  1  0.87567312  0.12413480  0.37577201  1
  Fe  Fe19  1  0.00034500  -0.00202752  0.75176773  1
  Fe  Fe20  1  0.62648010  0.87294129  0.62755286  1
  Fe  Fe21  1  0.62295725  0.37414207  0.12547203  1
  Fe  Fe22  1  0.75090267  0.75016891  0.50080825  1
  Fe  Fe23  1  0.25296067  0.50073415  0.24755878  1
  Fe  Fe24  1  0.75284859  0.50063280  0.74822301  1
  Fe  Fe25  1  0.75237751  -0.00178802  0.75001587  1
  Fe  Fe26  1  0.49539927  0.49954688  0.00290063  1
  Fe  Fe27  1  0.62391916  0.37701248  0.87261240  1
  Fe  Fe28  1  0.62469561  0.12512480  0.87300639  1
  Fe  Fe29  1  0.49599062  0.75027926  0.25180079  1
  Fe  Fe30  1  0.62266199  0.62190450  0.37521434  1
  Fe  Fe31  1  0.62280984  0.62252494  0.87279582  1
  Fe  Fe32  1  0.24305882  0.50618403  0.50401002  1
  Fe  Fe33  1  0.87498403  0.87495792  0.88040578  1
  Fe  Fe34  1  -0.00174773  -0.00377858  0.24740255  1
  Fe  Fe35  1  0.37502622  0.12525619  0.12287008  1
  Fe  Fe36  1  0.12799506  0.37405929  0.12714883  1
  Fe  Fe37  1  0.49666992  -0.00115600  0.25050394  1
  Fe  Fe38  1  0.62572774  0.12455299  0.37530357  1
  Fe  Fe39  1  0.87525632  0.37450866  0.12518004  1
  Fe  Fe40  1  0.49592895  0.25229268  0.25287969  1
  Fe  Fe41  1  0.49819496  0.74974036  -0.00099441  1
  Fe  Fe42  1  0.62484718  0.37863413  0.37635336  1
  Fe  Fe43  1  0.00206702  -0.00217438  0.50120537  1
  Fe  Fe44  1  0.75109807  -0.00201051  0.50205903  1
  Fe  Fe45  1  0.49611397  0.00115837  0.74997400  1
  Fe  Fe46  1  0.50073225  0.25365488  0.50182185  1
  Fe  Fe47  1  0.25201446  0.74564435  0.75175671  1
  Fe  Fe48  1  0.12554770  0.61780719  0.87400051  1
  Fe  Fe49  1  0.62235931  0.62377982  0.12693644  1
  Fe  Fe50  1  0.87847930  0.12509375  0.62444540  1
  Fe  Fe51  1  0.74979740  0.50000315  0.25001483  1
  Fe  Fe52  1  0.49778503  0.24997593  -0.00294070  1
  Fe  Fe53  1  0.24847276  0.74782498  0.49804415  1
  Fe  Fe54  1  0.87722222  0.12437450  0.87811578  1
  Fe  Fe55  1  0.24300612  0.24687372  0.50216147  1
  Fe  Fe56  1  0.00244289  0.74907518  0.49840285  1
  Fe  Fe57  1  0.62319772  0.87621105  0.12354815  1
  Fe  Fe58  1  0.24849339  0.25172603  0.00007813  1
  Fe  Fe59  1  0.12544290  0.87476240  0.37307567  1
  Fe  Fe60  1  0.36967639  0.37833695  0.87399650  1
  Fe  Fe61  1  0.87724291  0.37690715  0.87724418  1
  Fe  Fe62  1  0.49773233  0.74908468  0.75032111  1
  Fe  Fe63  1  0.24749112  -0.00138617  0.00004702  1
  Fe  Fe64  1  0.12592200  0.12581749  0.87297729  1
  Fe  Fe65  1  0.87718151  0.62313782  0.87851818  1
  Fe  Fe66  1  0.62507138  0.87541376  0.87424807  1
  Fe  Fe67  1  0.37347394  0.87540365  0.87621339  1
  Fe  Fe68  1  0.62453649  0.12710699  0.62691667  1
  Fe  Fe69  1  0.25181749  0.00262233  0.74641073  1
  Fe  Fe70  1  0.62320895  0.12525377  0.12456355  1
  Fe  Fe71  1  0.12537953  0.87257733  0.62789210  1
  Fe  Fe72  1  0.37382958  0.12390716  0.38014625  1
  Fe  Fe73  1  0.50052825  -0.00139133  0.50178173  1
  Fe  Fe74  1  0.25303150  -0.00123348  0.25089638  1
  Fe  Fe75  1  0.74947781  0.49958425  0.00106124  1
  Fe  Fe76  1  0.49879927  0.74907930  0.49854457  1
  Fe  Fe77  1  0.00145316  0.25145345  0.25278195  1
  Fe  Fe78  1  0.75169744  0.75192338  0.24902499  1
  Fe  Fe79  1  0.75239804  0.25244173  0.74919746  1
  Fe  Fe80  1  0.25540225  0.75143791  0.25189785  1
  Fe  Fe81  1  0.74885506  0.25036331  -0.00099563  1
  Fe  Fe82  1  0.62532851  0.62437257  0.62560749  1
  Fe  Fe83  1  0.00371865  0.25241437  -0.00043333  1
  Fe  Fe84  1  0.75051568  0.25122428  0.50098956  1
  Fe  Fe85  1  -0.00254331  0.75307487  0.24820660  1
  Fe  Fe86  1  0.75226319  -0.00264181  0.24817036  1
  Fe  Fe87  1  0.87567280  0.62491695  0.37484238  1
  Fe  Fe88  1  0.87822492  0.62548690  0.62464547  1
  Fe  Fe89  1  -0.00109843  0.75029446  0.75466984  1
  Co  Co90  1  0.12720841  0.87258854  0.12814184  1
  Co  Co91  1  0.00692827  -0.00122209  -0.00067333  1
  Co  Co92  1  0.12908938  0.37883057  0.87271748  1
  Co  Co93  1  0.37504811  0.62802553  0.62260234  1
  Co  Co94  1  -0.00071221  0.49882458  0.75032786  1
  Co  Co95  1  0.25114965  0.50242777  0.74400466  1
  Co  Co96  1  0.12137479  0.12358918  0.62757504  1
  Co  Co97  1  0.37599109  0.62080402  0.37682174  1
  Co  Co98  1  0.00305974  0.49763501  0.00297678  1
  Co  Co99  1  0.75195192  0.74818924  0.75226357  1
  Co  Co100  1  0.87582301  0.87385141  0.11762597  1
  Co  Co101  1  0.00419989  0.24858043  0.49738797  1
  Co  Co102  1  0.37477275  0.62843153  0.12463508  1
  Co  Co103  1  0.49897435  0.00055740  -0.00280396  1
  Co  Co104  1  0.12854101  0.37602368  0.37520108  1
  Co  Co105  1  0.12873410  0.87590848  0.87052696  1
  Co  Co106  1  0.24994069  0.50090328  0.00401630  1
  Co  Co107  1  0.37358971  0.37168560  0.12447226  1
  Co  Co108  1  0.12153687  0.62912668  0.63068927  1
  Co  Co109  1  0.37526584  0.62216441  0.87548406  1
  Co  Co110  1  0.12176658  0.37692493  0.62471107  1
  Co  Co111  1  0.74743168  0.00137388  -0.00056100  1
  Co  Co112  1  0.49627557  0.49803158  0.24870561  1
  Co  Co113  1  0.37414554  0.87442952  0.12140039  1
  Co  Co114  1  0.24579577  -0.00038550  0.50145665  1
  Co  Co115  1  0.87530372  0.87436740  0.37696338  1
  Co  Co116  1  0.62659868  0.37523054  0.62737346  1
  Co  Co117  1  0.49977418  0.49864862  0.50409832  1
  Co  Co118  1  0.87731537  0.87228791  0.62585310  1
  Co  Co119  1  0.00653729  0.75037454  -0.00246118  1
  Co  Co120  1  0.12579439  0.62776028  0.36829131  1
  Co  Co121  1  0.37118250  0.12551492  0.87591472  1
  Co  Co122  1  0.37416364  0.87631735  0.37899328  1
  Co  Co123  1  0.36871410  0.37451597  0.62125065  1
  Co  Co124  1  0.37594061  0.12569745  0.62102896  1
  Co  Co125  1  0.00696651  0.50554609  0.49655218  1
  Co  Co126  1  0.75020507  0.50145980  0.50109120  1
  Co  Co127  1  0.25230230  0.24788499  0.25176765  1
