# generated using pymatgen
data_Fe45Co19
_symmetry_space_group_name_H-M   'P 1'
_cell_length_a   11.41545242
_cell_length_b   11.41563838
_cell_length_c   11.41633221
_cell_angle_alpha   89.98386753
_cell_angle_beta   90.00048957
_cell_angle_gamma   89.99709753
_symmetry_Int_Tables_number   1
_chemical_formula_structural   Fe45Co19
_chemical_formula_sum   'Fe90 Co38'
_cell_volume   1487.71558059
_cell_formula_units_Z   2
loop_
 _symmetry_equiv_pos_site_id
 _symmetry_equiv_pos_as_xyz
  1  'x, y, z'
loop_
 _atom_site_type_symbol
 _atom_site_label
 _atom_site_symmetry_multiplicity
 _atom_site_fract_x
 _atom_site_fract_y
 _atom_site_fract_z
 _atom_site_occupancy
  Fe  Fe0  1  0.87500775  0.37436556  0.87776567  1
  Fe  Fe1  1  0.49843910  0.50065718  0.74904261  1
  Fe  Fe2  1  0.37895064  0.12340890  0.37605437  1
  Fe  Fe3  1  0.74795220  0.74873247  -0.00223994  1
  Fe  Fe4  1  0.12738635  0.37595930  0.87221446  1
  Fe  Fe5  1  0.62933724  0.37775500  0.62624867  1
  Fe  Fe6  1  0.25112906  0.00152491  0.74933841  1
  Fe  Fe7  1  0.50003054  0.50036522  -0.00020680  1
  Fe  Fe8  1  0.74680951  0.75344936  0.24980166  1
  Fe  Fe9  1  0.12531306  0.62438587  0.37803778  1
  Fe  Fe10  1  0.24903157  0.74916989  0.00003811  1
  Fe  Fe11  1  0.87479756  0.87533805  0.12492862  1
  Fe  Fe12  1  0.62592443  0.62793267  0.37820050  1
  Fe  Fe13  1  0.12274450  0.12507757  0.12364772  1
  Fe  Fe14  1  -0.00102411  0.74962316  0.50165474  1
  Fe  Fe15  1  0.24925620  0.50098900  -0.00087788  1
  Fe  Fe16  1  0.87550448  0.87704204  0.37359639  1
  Fe  Fe17  1  0.25075781  0.00041956  0.00128518  1
  Fe  Fe18  1  0.00011734  0.74566185  0.74734193  1
  Fe  Fe19  1  0.87402586  0.12629212  0.12187398  1
  Fe  Fe20  1  0.62289092  0.87524853  0.87255121  1
  Fe  Fe21  1  -0.00303504  0.00131875  0.75031425  1
  Fe  Fe22  1  0.50098581  0.50209515  0.25006339  1
  Fe  Fe23  1  0.87278426  0.12201904  0.37424235  1
  Fe  Fe24  1  0.74902290  0.49994834  0.25157501  1
  Fe  Fe25  1  0.74763302  0.50233510  -0.00280197  1
  Fe  Fe26  1  0.50160478  0.49972120  0.50061282  1
  Fe  Fe27  1  0.25137025  0.24751889  0.25037474  1
  Fe  Fe28  1  -0.00322098  0.49963345  0.50254647  1
  Fe  Fe29  1  0.12471007  0.87752371  0.62297552  1
  Fe  Fe30  1  0.38066641  0.87413071  0.37907957  1
  Fe  Fe31  1  0.12716568  0.37707743  0.62677240  1
  Fe  Fe32  1  0.62818016  0.12484079  0.12699405  1
  Fe  Fe33  1  0.12213597  0.87902174  0.37730298  1
  Fe  Fe34  1  0.74582666  -0.00363884  0.49986027  1
  Fe  Fe35  1  -0.00327918  0.25144609  0.24590008  1
  Fe  Fe36  1  0.50461919  -0.00207786  0.25000347  1
  Fe  Fe37  1  0.00294060  0.49837827  0.00339389  1
  Fe  Fe38  1  0.87302888  0.62661034  0.37635482  1
  Fe  Fe39  1  0.75138745  0.25064005  0.75329944  1
  Fe  Fe40  1  0.25014557  0.24974669  -0.00017954  1
  Fe  Fe41  1  0.24978913  0.25004467  0.49959025  1
  Fe  Fe42  1  0.37470402  0.87364715  0.87382127  1
  Fe  Fe43  1  0.49960465  0.00014015  -0.00134538  1
  Fe  Fe44  1  -0.00414489  0.50313416  0.74778791  1
  Fe  Fe45  1  0.62344828  0.62871292  0.12356552  1
  Fe  Fe46  1  0.50311748  0.25007789  0.50090193  1
  Fe  Fe47  1  0.12200064  0.12316194  0.37618845  1
  Fe  Fe48  1  0.12369897  0.37388577  0.37362524  1
  Fe  Fe49  1  0.25008444  0.75109679  0.25311717  1
  Fe  Fe50  1  0.00207586  0.74956087  0.00128981  1
  Fe  Fe51  1  0.37544035  0.12649043  0.87452728  1
  Fe  Fe52  1  0.37527270  0.62746245  0.12520851  1
  Fe  Fe53  1  -0.00012862  0.49906342  0.24665935  1
  Fe  Fe54  1  0.87192306  0.12521807  0.62512931  1
  Fe  Fe55  1  0.50198810  0.24987671  0.24964601  1
  Fe  Fe56  1  0.87705181  0.87385750  0.87506164  1
  Fe  Fe57  1  0.12522205  0.12305611  0.62313344  1
  Fe  Fe58  1  0.87332983  0.87429484  0.62632090  1
  Fe  Fe59  1  0.62539665  0.12312397  0.87215818  1
  Fe  Fe60  1  0.24997378  0.50089439  0.25136417  1
  Fe  Fe61  1  0.37554607  0.62720663  0.37815571  1
  Fe  Fe62  1  0.74808183  0.25197565  0.49733837  1
  Fe  Fe63  1  0.37776084  0.37427308  0.37466324  1
  Fe  Fe64  1  0.37567409  0.12456974  0.62424158  1
  Fe  Fe65  1  0.87473021  0.62517581  0.12412363  1
  Fe  Fe66  1  0.62787534  0.37381075  0.12651416  1
  Fe  Fe67  1  0.12442950  0.87538819  0.12618942  1
  Fe  Fe68  1  0.49990751  0.74788834  0.74738725  1
  Fe  Fe69  1  0.75154569  0.00041997  -0.00244747  1
  Fe  Fe70  1  -0.00133837  0.25019061  0.50163226  1
  Fe  Fe71  1  0.63282955  0.62289961  0.62494567  1
  Fe  Fe72  1  0.12459665  0.87502024  0.87405713  1
  Fe  Fe73  1  0.37473247  0.37364851  0.12481371  1
  Fe  Fe74  1  0.50154335  0.24979554  0.00033637  1
  Fe  Fe75  1  0.00065901  0.74964021  0.25012442  1
  Fe  Fe76  1  0.75105197  0.74768366  0.75268281  1
  Fe  Fe77  1  0.37176344  0.37490111  0.62687563  1
  Fe  Fe78  1  0.36931290  0.62327615  0.62102540  1
  Fe  Fe79  1  0.62617412  0.12233077  0.62835466  1
  Fe  Fe80  1  0.87446239  0.37529256  0.37443737  1
  Fe  Fe81  1  0.37682128  0.87680654  0.62242155  1
  Fe  Fe82  1  0.49892880  0.25069643  0.75000939  1
  Fe  Fe83  1  0.62377259  0.37680031  0.87350017  1
  Fe  Fe84  1  0.25052787  0.00032665  0.25105055  1
  Fe  Fe85  1  0.24739538  0.74737976  0.74731683  1
  Fe  Fe86  1  0.12207774  0.12394372  0.87641841  1
  Fe  Fe87  1  0.37808888  0.87419231  0.12487947  1
  Fe  Fe88  1  0.37582664  0.62539021  0.87561105  1
  Fe  Fe89  1  -0.00082755  0.24954564  0.74957360  1
  Co  Co90  1  -0.00422985  0.00013190  0.50231959  1
  Co  Co91  1  0.62358036  0.87470214  0.12046410  1
  Co  Co92  1  0.86924625  0.62538149  0.62219939  1
  Co  Co93  1  0.25154168  0.50325324  0.75264091  1
  Co  Co94  1  0.75381240  -0.00041996  0.75217246  1
  Co  Co95  1  0.24968737  0.24703359  0.75009352  1
  Co  Co96  1  0.37501805  0.37382575  0.87516985  1
  Co  Co97  1  -0.00128161  -0.00267103  -0.00001251  1
  Co  Co98  1  0.50218758  0.74666369  0.50622763  1
  Co  Co99  1  0.49690861  0.00004481  0.75056702  1
  Co  Co100  1  0.00170931  0.25509967  0.00151847  1
  Co  Co101  1  0.12669775  0.62166281  0.62170709  1
  Co  Co102  1  -0.00124801  0.00159939  0.24678819  1
  Co  Co103  1  0.24842951  0.75346386  0.49944391  1
  Co  Co104  1  0.86904584  0.37696999  0.12217045  1
  Co  Co105  1  0.12597309  0.62659254  0.12665337  1
  Co  Co106  1  0.62492006  0.87535861  0.62980355  1
  Co  Co107  1  0.75146853  0.49668898  0.49641911  1
  Co  Co108  1  0.37738523  0.12409061  0.12606193  1
  Co  Co109  1  0.50135940  0.74951175  0.24898987  1
  Co  Co110  1  0.25011657  0.49549747  0.49665584  1
  Co  Co111  1  0.74785376  0.24902342  -0.00302227  1
  Co  Co112  1  0.50535171  0.00172170  0.50147943  1
  Co  Co113  1  0.62622742  0.12559853  0.37263348  1
  Co  Co114  1  0.12985533  0.37410280  0.12783581  1
  Co  Co115  1  0.62242253  0.62459804  0.87218225  1
  Co  Co116  1  0.62030072  0.87112942  0.37728959  1
  Co  Co117  1  0.12277693  0.62537376  0.87479967  1
  Co  Co118  1  0.87808424  0.12718036  0.87660199  1
  Co  Co119  1  0.87830815  0.62525939  0.87892855  1
  Co  Co120  1  0.87186416  0.37335602  0.62548951  1
  Co  Co121  1  0.75063462  0.75546059  0.49942428  1
  Co  Co122  1  0.75308776  0.25167097  0.25172022  1
  Co  Co123  1  0.74793545  -0.00414002  0.24943493  1
  Co  Co124  1  0.50024740  0.75005919  -0.00249727  1
  Co  Co125  1  0.75460547  0.50040898  0.75452380  1
  Co  Co126  1  0.25188153  0.00073290  0.49847298  1
  Co  Co127  1  0.62338173  0.37502645  0.37368462  1
