# generated using pymatgen
data_Fe45Co19
_symmetry_space_group_name_H-M   'P 1'
_cell_length_a   11.41529273
_cell_length_b   11.41430468
_cell_length_c   11.41560451
_cell_angle_alpha   89.99211383
_cell_angle_beta   90.01092447
_cell_angle_gamma   90.00466223
_symmetry_Int_Tables_number   1
_chemical_formula_structural   Fe45Co19
_chemical_formula_sum   'Fe90 Co38'
_cell_volume   1487.42615809
_cell_formula_units_Z   2
loop_
 _symmetry_equiv_pos_site_id
 _symmetry_equiv_pos_as_xyz
  1  'x, y, z'
loop_
 _atom_site_type_symbol
 _atom_site_label
 _atom_site_symmetry_multiplicity
 _atom_site_fract_x
 _atom_site_fract_y
 _atom_site_fract_z
 _atom_site_occupancy
  Fe  Fe0  1  0.49797197  0.24831991  0.25012234  1
  Fe  Fe1  1  0.62634638  0.87541392  0.37284207  1
  Fe  Fe2  1  0.00292400  0.75170390  0.00230462  1
  Fe  Fe3  1  0.62816133  0.87686606  0.62900175  1
  Fe  Fe4  1  -0.00117271  -0.00038685  0.24985595  1
  Fe  Fe5  1  0.74935524  0.75062796  -0.00147134  1
  Fe  Fe6  1  0.75065847  0.24646563  0.50194244  1
  Fe  Fe7  1  0.87665337  0.62643521  0.37734431  1
  Fe  Fe8  1  0.49732673  0.00171126  0.24861651  1
  Fe  Fe9  1  0.87142492  0.87963892  0.62734985  1
  Fe  Fe10  1  0.24960075  0.50276690  0.75027244  1
  Fe  Fe11  1  0.87347668  0.87595827  0.87168312  1
  Fe  Fe12  1  0.24871474  -0.00070564  -0.00000893  1
  Fe  Fe13  1  0.49927467  -0.00146243  0.00068817  1
  Fe  Fe14  1  0.00059794  0.75357951  0.50261025  1
  Fe  Fe15  1  0.00086099  0.25048530  0.00113074  1
  Fe  Fe16  1  0.00191204  0.74983339  0.74762984  1
  Fe  Fe17  1  0.37556932  0.62674043  0.62255672  1
  Fe  Fe18  1  0.24996612  0.50227476  0.49616568  1
  Fe  Fe19  1  0.00062568  0.49932205  0.50105695  1
  Fe  Fe20  1  0.12819178  0.37753364  0.12727067  1
  Fe  Fe21  1  0.50102345  -0.00266845  0.50068350  1
  Fe  Fe22  1  0.12435797  0.12178783  0.12440661  1
  Fe  Fe23  1  -0.00246363  0.24820671  0.24964223  1
  Fe  Fe24  1  0.62361824  0.37141353  0.62631714  1
  Fe  Fe25  1  0.25028617  0.74823326  0.49745174  1
  Fe  Fe26  1  0.49888634  0.75108297  0.00098548  1
  Fe  Fe27  1  0.87545279  0.37376783  0.62531198  1
  Fe  Fe28  1  0.87836505  0.12336206  0.37995858  1
  Fe  Fe29  1  0.37261212  0.12635266  0.87436790  1
  Fe  Fe30  1  0.37899428  0.12913120  0.62423356  1
  Fe  Fe31  1  0.62170970  0.62666267  0.37724112  1
  Fe  Fe32  1  0.50009568  0.75190499  0.74918984  1
  Fe  Fe33  1  0.75246731  0.24907277  -0.00001135  1
  Fe  Fe34  1  0.12718030  0.37658618  0.62390865  1
  Fe  Fe35  1  0.74962552  0.50172182  0.50295680  1
  Fe  Fe36  1  0.24940543  0.74596066  0.25219728  1
  Fe  Fe37  1  0.00059920  0.50234771  0.24900941  1
  Fe  Fe38  1  0.37224501  0.87479880  0.62576008  1
  Fe  Fe39  1  0.87240695  0.87477312  0.12649940  1
  Fe  Fe40  1  0.49946462  0.00022890  0.75112935  1
  Fe  Fe41  1  0.24828114  0.74966115  -0.00112150  1
  Fe  Fe42  1  0.87212426  0.87480585  0.37487457  1
  Fe  Fe43  1  0.12890039  0.87533161  0.62641478  1
  Fe  Fe44  1  0.87537350  0.37445598  0.87272778  1
  Fe  Fe45  1  0.62559196  0.62544755  0.12487988  1
  Fe  Fe46  1  0.62685405  0.37285331  0.12665487  1
  Fe  Fe47  1  0.75109562  0.50050310  -0.00007922  1
  Fe  Fe48  1  0.88006498  0.12255085  0.87612128  1
  Fe  Fe49  1  0.24995527  0.24850982  0.49933453  1
  Fe  Fe50  1  0.12372718  0.37254787  0.37439480  1
  Fe  Fe51  1  0.49906141  0.49782757  0.74897096  1
  Fe  Fe52  1  0.62669239  0.87563381  0.12645305  1
  Fe  Fe53  1  0.12673644  0.87707788  0.87219825  1
  Fe  Fe54  1  0.49931375  0.49707184  0.50085386  1
  Fe  Fe55  1  0.37434487  0.87620245  0.37406880  1
  Fe  Fe56  1  0.75047347  0.50327907  0.74733290  1
  Fe  Fe57  1  0.49867531  0.25167645  0.00010112  1
  Fe  Fe58  1  0.12514174  0.37513562  0.87353370  1
  Fe  Fe59  1  0.75048828  -0.00071877  -0.00099454  1
  Fe  Fe60  1  0.37500288  0.62627202  0.87477920  1
  Fe  Fe61  1  0.62755553  0.37434273  0.87394488  1
  Fe  Fe62  1  0.62369323  0.12487145  0.87564694  1
  Fe  Fe63  1  0.49905790  0.49805415  0.00020497  1
  Fe  Fe64  1  0.00068663  0.74834064  0.24677772  1
  Fe  Fe65  1  0.74879811  0.74962233  0.50280617  1
  Fe  Fe66  1  0.75129146  0.24399258  0.74728749  1
  Fe  Fe67  1  0.87293443  0.37483544  0.12608674  1
  Fe  Fe68  1  0.62436914  0.62616520  0.87360243  1
  Fe  Fe69  1  0.12692209  0.87627954  0.37191386  1
  Fe  Fe70  1  0.25134723  0.24430108  0.25207592  1
  Fe  Fe71  1  0.37268903  0.37723616  0.12768462  1
  Fe  Fe72  1  0.37135233  0.62078510  0.12658668  1
  Fe  Fe73  1  0.75035448  0.50296101  0.25050341  1
  Fe  Fe74  1  0.37124833  0.87653464  0.12694587  1
  Fe  Fe75  1  0.62668637  0.37385990  0.37342291  1
  Fe  Fe76  1  0.00210340  0.24783042  0.74835904  1
  Fe  Fe77  1  0.87673459  0.62624193  0.87407490  1
  Fe  Fe78  1  0.24839681  0.25025300  -0.00060016  1
  Fe  Fe79  1  0.37514064  0.37509272  0.37359652  1
  Fe  Fe80  1  0.37257006  0.37230277  0.87198179  1
  Fe  Fe81  1  0.00117880  0.50209402  0.74784718  1
  Fe  Fe82  1  0.24924101  0.00212971  0.49847933  1
  Fe  Fe83  1  0.37323294  0.87593092  0.87348268  1
  Fe  Fe84  1  0.49889616  0.74947917  0.24951082  1
  Fe  Fe85  1  0.12090088  0.12347250  0.62136042  1
  Fe  Fe86  1  0.00046201  0.50046019  0.00131041  1
  Fe  Fe87  1  0.62370996  0.12456591  0.37576118  1
  Fe  Fe88  1  0.62704383  0.12568193  0.12595097  1
  Fe  Fe89  1  0.87446943  0.37506879  0.37598231  1
  Co  Co90  1  0.88030301  0.12117531  0.62172667  1
  Co  Co91  1  0.12854027  0.87653031  0.12851313  1
  Co  Co92  1  0.74806305  0.00162835  0.50052381  1
  Co  Co93  1  0.87450248  0.62634641  0.12335679  1
  Co  Co94  1  -0.00010437  0.25335012  0.50125717  1
  Co  Co95  1  0.37783483  0.12318500  0.37920158  1
  Co  Co96  1  0.87547432  0.12346270  0.12257651  1
  Co  Co97  1  0.74962684  0.74742801  0.25153066  1
  Co  Co98  1  0.61934987  0.12590575  0.62399352  1
  Co  Co99  1  0.25059644  0.49853905  -0.00430423  1
  Co  Co100  1  0.11926525  0.62746811  0.37693118  1
  Co  Co101  1  0.75236663  0.00226427  0.25160991  1
  Co  Co102  1  0.00228022  -0.00090759  0.74915970  1
  Co  Co103  1  0.50029191  0.25372910  0.49684230  1
  Co  Co104  1  0.00018742  -0.00457405  0.00163386  1
  Co  Co105  1  0.62531366  0.87463248  0.87373663  1
  Co  Co106  1  0.24952117  0.74798171  0.75090394  1
  Co  Co107  1  0.37292891  0.37313437  0.62517581  1
  Co  Co108  1  0.50199126  0.49972451  0.24974645  1
  Co  Co109  1  0.12380914  0.12282140  0.87797379  1
  Co  Co110  1  0.50102187  0.75529334  0.50131409  1
  Co  Co111  1  0.12601729  0.62561012  0.62252339  1
  Co  Co112  1  0.24534420  0.24701117  0.74770891  1
  Co  Co113  1  0.75355295  0.24751444  0.25264959  1
  Co  Co114  1  0.12281043  0.62531997  0.87584018  1
  Co  Co115  1  0.87773267  0.62575578  0.62359929  1
  Co  Co116  1  0.12084531  0.12453334  0.37617829  1
  Co  Co117  1  0.37375311  0.12454399  0.12126229  1
  Co  Co118  1  0.50072065  0.25127416  0.75278447  1
  Co  Co119  1  0.24794554  0.50253131  0.25689048  1
  Co  Co120  1  0.24995534  0.00433046  0.74772180  1
  Co  Co121  1  0.25100281  0.00486670  0.25224609  1
  Co  Co122  1  0.74997124  0.74725275  0.74863369  1
  Co  Co123  1  0.62086361  0.62579633  0.62468237  1
  Co  Co124  1  0.74953615  0.00615421  0.75057705  1
  Co  Co125  1  0.00208986  -0.00664742  0.49891288  1
  Co  Co126  1  0.12826709  0.62239773  0.12343227  1
  Co  Co127  1  0.38068897  0.62587600  0.37666316  1
