# generated using pymatgen
data_Fe45Co19
_symmetry_space_group_name_H-M   'P 1'
_cell_length_a   11.41386626
_cell_length_b   11.41539025
_cell_length_c   11.41532497
_cell_angle_alpha   89.99941480
_cell_angle_beta   90.00027102
_cell_angle_gamma   89.99853455
_symmetry_Int_Tables_number   1
_chemical_formula_structural   Fe45Co19
_chemical_formula_sum   'Fe90 Co38'
_cell_volume   1487.34535443
_cell_formula_units_Z   2
loop_
 _symmetry_equiv_pos_site_id
 _symmetry_equiv_pos_as_xyz
  1  'x, y, z'
loop_
 _atom_site_type_symbol
 _atom_site_label
 _atom_site_symmetry_multiplicity
 _atom_site_fract_x
 _atom_site_fract_y
 _atom_site_fract_z
 _atom_site_occupancy
  Fe  Fe0  1  0.74831527  0.75104837  -0.00119550  1
  Fe  Fe1  1  -0.00092844  0.00056289  0.50152155  1
  Fe  Fe2  1  0.00393900  0.49972509  0.00369627  1
  Fe  Fe3  1  0.37532167  0.87524070  0.37646740  1
  Fe  Fe4  1  0.37109222  0.62623415  0.62548129  1
  Fe  Fe5  1  0.87774176  0.37777711  0.37473678  1
  Fe  Fe6  1  0.75029427  0.49913509  0.24905417  1
  Fe  Fe7  1  0.12275280  0.37572152  0.62663763  1
  Fe  Fe8  1  0.24973293  0.25007135  0.50058675  1
  Fe  Fe9  1  0.25029314  0.50034133  0.49766283  1
  Fe  Fe10  1  0.87503210  0.12565098  0.62840430  1
  Fe  Fe11  1  0.49975905  0.00334799  0.50169047  1
  Fe  Fe12  1  0.87486571  0.87422343  0.37470414  1
  Fe  Fe13  1  0.50038552  0.25187004  -0.00142652  1
  Fe  Fe14  1  0.12270765  0.12689672  0.62796167  1
  Fe  Fe15  1  0.37637665  0.62630523  0.87351534  1
  Fe  Fe16  1  0.62543895  0.12720701  0.12293583  1
  Fe  Fe17  1  0.62449828  0.62278942  0.37578357  1
  Fe  Fe18  1  0.37183051  0.62242522  0.12422519  1
  Fe  Fe19  1  0.74779644  0.49820315  0.00047584  1
  Fe  Fe20  1  0.37400887  0.12476342  0.12664643  1
  Fe  Fe21  1  0.62505094  0.87449944  0.37575462  1
  Fe  Fe22  1  0.37560806  0.37386435  0.37601837  1
  Fe  Fe23  1  0.75016452  0.00128804  0.50036245  1
  Fe  Fe24  1  0.12617929  0.62489779  0.62549820  1
  Fe  Fe25  1  0.25054176  0.74874055  -0.00116779  1
  Fe  Fe26  1  -0.00098902  0.25089681  0.50055833  1
  Fe  Fe27  1  0.87579779  0.12562132  0.37453505  1
  Fe  Fe28  1  0.75161582  0.49889535  0.75030632  1
  Fe  Fe29  1  0.87611802  0.87607938  0.87429368  1
  Fe  Fe30  1  0.49970673  0.49925304  -0.00135459  1
  Fe  Fe31  1  0.75164041  0.25159257  0.75485579  1
  Fe  Fe32  1  0.50150407  0.25245545  0.25033173  1
  Fe  Fe33  1  0.00039765  0.00139563  0.24906736  1
  Fe  Fe34  1  0.37160350  0.87272294  0.62523188  1
  Fe  Fe35  1  0.24844416  0.25018091  0.24875586  1
  Fe  Fe36  1  0.12363735  0.62626228  0.87594332  1
  Fe  Fe37  1  0.37473589  0.87494003  0.12422471  1
  Fe  Fe38  1  0.12709601  0.87305303  0.62416926  1
  Fe  Fe39  1  0.12434721  0.37175352  0.87665173  1
  Fe  Fe40  1  0.87580735  0.12695251  0.12455101  1
  Fe  Fe41  1  -0.00054956  0.74794811  0.49927239  1
  Fe  Fe42  1  0.87465885  0.62621102  0.12286001  1
  Fe  Fe43  1  0.74908371  0.25211873  0.25131291  1
  Fe  Fe44  1  0.87659594  0.62279558  0.62582668  1
  Fe  Fe45  1  0.75067584  0.49970354  0.50077302  1
  Fe  Fe46  1  0.25161218  0.74836932  0.25295382  1
  Fe  Fe47  1  0.74723528  0.00159872  0.75117007  1
  Fe  Fe48  1  0.74905707  -0.00039743  0.00029251  1
  Fe  Fe49  1  0.12605589  0.12394205  0.37362933  1
  Fe  Fe50  1  0.37725998  0.12824808  0.62755282  1
  Fe  Fe51  1  0.75012696  0.25151333  0.49998632  1
  Fe  Fe52  1  0.37070099  0.37676989  0.12241183  1
  Fe  Fe53  1  -0.00080452  0.74680802  0.24860324  1
  Fe  Fe54  1  0.74877322  0.74973605  0.24911755  1
  Fe  Fe55  1  0.87668756  0.62277877  0.87611400  1
  Fe  Fe56  1  0.62601940  0.87401287  0.62642654  1
  Fe  Fe57  1  0.12311296  0.62182359  0.37284980  1
  Fe  Fe58  1  0.50096098  -0.00049089  0.00063432  1
  Fe  Fe59  1  0.62312248  0.62479874  0.87166113  1
  Fe  Fe60  1  0.25166853  0.00260260  0.49977792  1
  Fe  Fe61  1  0.37686994  0.87378385  0.87402529  1
  Fe  Fe62  1  0.62422784  0.62412447  0.12375181  1
  Fe  Fe63  1  0.50065044  0.74768515  0.50306921  1
  Fe  Fe64  1  0.87509535  0.87518737  0.62675521  1
  Fe  Fe65  1  0.12224452  0.12771895  0.87322797  1
  Fe  Fe66  1  0.75101381  0.25138713  -0.00492304  1
  Fe  Fe67  1  0.12523317  0.87617941  0.37572156  1
  Fe  Fe68  1  0.74839261  0.00021693  0.24958661  1
  Fe  Fe69  1  0.50079789  0.00034993  0.25043397  1
  Fe  Fe70  1  0.50025246  0.49921866  0.50274112  1
  Fe  Fe71  1  0.75071861  0.74806895  0.50114356  1
  Fe  Fe72  1  0.12592356  0.87384355  0.12459084  1
  Fe  Fe73  1  0.62353401  0.12745597  0.37692827  1
  Fe  Fe74  1  0.50023465  0.49763133  0.24929588  1
  Fe  Fe75  1  0.37447220  0.37335996  0.87301271  1
  Fe  Fe76  1  0.37703026  0.12581688  0.87222823  1
  Fe  Fe77  1  0.24951092  0.00044565  0.75022505  1
  Fe  Fe78  1  0.37525279  0.37300619  0.62762920  1
  Fe  Fe79  1  0.62190313  0.87286881  0.87382117  1
  Fe  Fe80  1  0.24910240  0.49970984  0.75246442  1
  Fe  Fe81  1  0.12423347  0.87455240  0.87542254  1
  Fe  Fe82  1  0.50044652  0.74943095  0.24794879  1
  Fe  Fe83  1  0.00045414  0.00161945  0.00072211  1
  Fe  Fe84  1  0.87495825  0.87429592  0.12445813  1
  Fe  Fe85  1  0.87630293  0.37296891  0.12375374  1
  Fe  Fe86  1  0.62459087  0.37373408  0.62708663  1
  Fe  Fe87  1  0.12212887  0.37752706  0.37318589  1
  Fe  Fe88  1  0.24925041  0.00317877  0.00058168  1
  Fe  Fe89  1  -0.00078777  0.74982576  0.75093084  1
  Co  Co90  1  0.00143429  0.25083926  0.25017174  1
  Co  Co91  1  0.50408840  0.25007146  0.75226763  1
  Co  Co92  1  0.24900290  0.24986075  0.74956071  1
  Co  Co93  1  0.00217861  0.49947728  0.75085518  1
  Co  Co94  1  -0.00015665  0.74966433  -0.00006025  1
  Co  Co95  1  0.62631422  0.12833294  0.62554931  1
  Co  Co96  1  0.62436832  0.87539218  0.12429787  1
  Co  Co97  1  -0.00149338  0.24953406  -0.00076171  1
  Co  Co98  1  0.75204209  0.74853192  0.75115250  1
  Co  Co99  1  0.49932361  0.74925058  0.74645707  1
  Co  Co100  1  -0.00151960  0.50102385  0.24468732  1
  Co  Co101  1  0.25091354  0.49929005  0.25291949  1
  Co  Co102  1  0.87546669  0.37612846  0.62443471  1
  Co  Co103  1  0.50045270  -0.00122369  0.74774809  1
  Co  Co104  1  0.62384602  0.37847774  0.87386291  1
  Co  Co105  1  0.87361867  0.62309619  0.37525617  1
  Co  Co106  1  -0.00485263  0.25345709  0.75140536  1
  Co  Co107  1  0.00195388  -0.00175824  0.74879222  1
  Co  Co108  1  0.25108592  0.24681870  0.00001072  1
  Co  Co109  1  0.49983225  0.25035835  0.50025748  1
  Co  Co110  1  0.24920469  0.74976797  0.75297624  1
  Co  Co111  1  0.24856924  0.50013347  -0.00491636  1
  Co  Co112  1  0.24912600  0.74721478  0.49504762  1
  Co  Co113  1  0.12807883  0.37483126  0.12370225  1
  Co  Co114  1  0.12980281  0.62488854  0.12542007  1
  Co  Co115  1  -0.00014158  0.50058916  0.50062050  1
  Co  Co116  1  0.25002297  -0.00101953  0.24917444  1
  Co  Co117  1  0.87770169  0.38031543  0.87768993  1
  Co  Co118  1  0.50032574  0.74791586  0.00102767  1
  Co  Co119  1  0.37414120  0.12705068  0.37357281  1
  Co  Co120  1  0.62345883  0.12397418  0.87678532  1
  Co  Co121  1  0.62494149  0.37681946  0.37665726  1
  Co  Co122  1  0.62713988  0.62329583  0.62690200  1
  Co  Co123  1  0.12438676  0.12632617  0.12516960  1
  Co  Co124  1  0.49725920  0.50103149  0.74829357  1
  Co  Co125  1  0.37913455  0.62355881  0.37554309  1
  Co  Co126  1  0.87686182  0.12177151  0.87350571  1
  Co  Co127  1  0.62573211  0.37394355  0.12276546  1
