# generated using pymatgen
data_Fe45Co19
_symmetry_space_group_name_H-M   'P 1'
_cell_length_a   11.41466354
_cell_length_b   11.41448616
_cell_length_c   11.41545124
_cell_angle_alpha   90.00369527
_cell_angle_beta   90.01067105
_cell_angle_gamma   90.00252375
_symmetry_Int_Tables_number   1
_chemical_formula_structural   Fe45Co19
_chemical_formula_sum   'Fe90 Co38'
_cell_volume   1487.34786623
_cell_formula_units_Z   2
loop_
 _symmetry_equiv_pos_site_id
 _symmetry_equiv_pos_as_xyz
  1  'x, y, z'
loop_
 _atom_site_type_symbol
 _atom_site_label
 _atom_site_symmetry_multiplicity
 _atom_site_fract_x
 _atom_site_fract_y
 _atom_site_fract_z
 _atom_site_occupancy
  Fe  Fe0  1  0.74850442  -0.00120965  0.75146392  1
  Fe  Fe1  1  0.87447770  0.62589133  0.62534430  1
  Fe  Fe2  1  0.62462664  0.62391754  0.37246789  1
  Fe  Fe3  1  0.12380335  0.37774755  0.12057020  1
  Fe  Fe4  1  0.12560434  0.87425596  0.62311155  1
  Fe  Fe5  1  -0.00197346  0.00267724  -0.00003853  1
  Fe  Fe6  1  0.87629705  0.12631282  0.62767027  1
  Fe  Fe7  1  0.37537632  0.62683300  0.62489508  1
  Fe  Fe8  1  0.37511049  0.37361734  0.62439449  1
  Fe  Fe9  1  0.12522140  0.37662340  0.37573434  1
  Fe  Fe10  1  0.74838768  0.74982445  0.49860840  1
  Fe  Fe11  1  0.25061890  0.49984981  0.25052436  1
  Fe  Fe12  1  0.12349741  0.12503155  0.87416607  1
  Fe  Fe13  1  0.50076047  0.50239256  0.00176369  1
  Fe  Fe14  1  0.37494877  0.37420847  0.37606303  1
  Fe  Fe15  1  0.62183853  0.37280796  0.87596462  1
  Fe  Fe16  1  0.25253799  0.74928888  -0.00075165  1
  Fe  Fe17  1  0.75254820  0.00332209  0.49777232  1
  Fe  Fe18  1  0.50286325  0.49943814  0.24973828  1
  Fe  Fe19  1  0.25016995  0.74643125  0.49504896  1
  Fe  Fe20  1  0.87335316  0.87665118  0.12453134  1
  Fe  Fe21  1  0.62340370  0.12575044  0.87582041  1
  Fe  Fe22  1  0.86943801  0.62283158  0.12875082  1
  Fe  Fe23  1  -0.00224332  -0.00035362  0.49796144  1
  Fe  Fe24  1  0.00252835  0.50194089  0.75066785  1
  Fe  Fe25  1  0.87358319  0.62452106  0.87305804  1
  Fe  Fe26  1  0.12310555  0.37746802  0.88000317  1
  Fe  Fe27  1  0.12588947  0.37648689  0.62401330  1
  Fe  Fe28  1  0.87357638  0.87414470  0.62382620  1
  Fe  Fe29  1  0.12422924  0.12519507  0.37347855  1
  Fe  Fe30  1  0.00180481  0.74994472  0.75068273  1
  Fe  Fe31  1  0.25012651  -0.00103322  0.74975347  1
  Fe  Fe32  1  0.49962412  0.24844459  0.25062792  1
  Fe  Fe33  1  0.12375027  0.87400427  0.37389504  1
  Fe  Fe34  1  0.12686711  0.62402646  0.12461249  1
  Fe  Fe35  1  0.24904457  0.75056400  0.75148694  1
  Fe  Fe36  1  0.37579414  0.37421612  0.12436410  1
  Fe  Fe37  1  0.24865471  0.50079793  0.75144394  1
  Fe  Fe38  1  0.62438072  0.87206760  0.87894244  1
  Fe  Fe39  1  0.49995203  0.50122886  0.49996928  1
  Fe  Fe40  1  0.62192712  0.87987601  0.37759364  1
  Fe  Fe41  1  0.49946891  -0.00020127  0.00151283  1
  Fe  Fe42  1  0.75128817  0.25003363  0.25243946  1
  Fe  Fe43  1  0.74872450  0.50114965  -0.00093341  1
  Fe  Fe44  1  0.37731201  0.37276351  0.87578376  1
  Fe  Fe45  1  0.12360902  0.12385917  0.12804012  1
  Fe  Fe46  1  0.62609531  0.12547996  0.62428109  1
  Fe  Fe47  1  0.62525359  0.12484816  0.12617226  1
  Fe  Fe48  1  0.62706290  0.37434585  0.12471131  1
  Fe  Fe49  1  0.37985917  0.87538124  0.37448625  1
  Fe  Fe50  1  0.00159287  0.24877704  0.50099630  1
  Fe  Fe51  1  0.24740025  0.25069778  0.74917887  1
  Fe  Fe52  1  0.37620936  0.62652418  0.12976674  1
  Fe  Fe53  1  0.50167026  0.49920792  0.74906575  1
  Fe  Fe54  1  0.74799203  0.75166070  0.25221109  1
  Fe  Fe55  1  0.37729193  0.62620101  0.87343060  1
  Fe  Fe56  1  0.87329117  0.87614173  0.87714426  1
  Fe  Fe57  1  0.37418123  0.12460294  0.12597100  1
  Fe  Fe58  1  0.37692614  0.87260349  0.62307902  1
  Fe  Fe59  1  0.00057738  0.50432002  0.49958883  1
  Fe  Fe60  1  0.25054336  -0.00162315  0.25078804  1
  Fe  Fe61  1  0.25009992  0.50321895  0.49831440  1
  Fe  Fe62  1  0.00007508  -0.00124501  0.74945407  1
  Fe  Fe63  1  -0.00020653  0.74766407  0.49767549  1
  Fe  Fe64  1  0.49936870  0.24708525  0.49992351  1
  Fe  Fe65  1  0.37225062  0.12674110  0.62451488  1
  Fe  Fe66  1  0.87544461  0.37481506  0.62451574  1
  Fe  Fe67  1  0.74752044  0.49746882  0.74971695  1
  Fe  Fe68  1  0.87725692  0.12503735  0.12891520  1
  Fe  Fe69  1  0.24993198  0.24932295  0.00053108  1
  Fe  Fe70  1  -0.00331954  0.49814505  0.24903448  1
  Fe  Fe71  1  0.75048659  0.00009497  0.25208646  1
  Fe  Fe72  1  0.37495272  0.87459747  0.12523096  1
  Fe  Fe73  1  0.25108498  0.00101848  0.49825900  1
  Fe  Fe74  1  0.75185983  0.24700827  -0.00030620  1
  Fe  Fe75  1  0.74904022  0.25226715  0.74881707  1
  Fe  Fe76  1  0.50049473  -0.00284723  0.74776198  1
  Fe  Fe77  1  0.12601539  0.87550355  0.87761866  1
  Fe  Fe78  1  0.62456754  0.62585769  0.62692634  1
  Fe  Fe79  1  0.87775807  0.37280569  0.87683048  1
  Fe  Fe80  1  0.87430129  0.37424356  0.37658242  1
  Fe  Fe81  1  0.62590282  0.87318029  0.12194012  1
  Fe  Fe82  1  0.62554075  0.37201741  0.37731090  1
  Fe  Fe83  1  0.74760224  0.75164516  0.75023665  1
  Fe  Fe84  1  0.37641738  0.12517075  0.87560271  1
  Fe  Fe85  1  0.24897721  0.25162719  0.25070580  1
  Fe  Fe86  1  0.12574107  0.87527847  0.12367318  1
  Fe  Fe87  1  0.74890105  0.49978598  0.50053910  1
  Fe  Fe88  1  -0.00285221  0.74723181  0.00042851  1
  Fe  Fe89  1  -0.00112708  0.75031981  0.25033399  1
  Co  Co90  1  0.12461751  0.12224755  0.62384097  1
  Co  Co91  1  0.24994071  0.00173455  0.00038928  1
  Co  Co92  1  0.75091251  0.24779144  0.50034185  1
  Co  Co93  1  0.87382902  0.87359634  0.37514580  1
  Co  Co94  1  0.50300686  0.75165450  0.25063317  1
  Co  Co95  1  0.62599287  0.87595424  0.62143469  1
  Co  Co96  1  0.75107033  0.00296597  -0.00001609  1
  Co  Co97  1  -0.00450618  0.50417387  0.00130928  1
  Co  Co98  1  -0.00079366  0.24702830  0.00201665  1
  Co  Co99  1  0.37565351  0.87645022  0.87578347  1
  Co  Co100  1  -0.00031002  -0.00403081  0.25149881  1
  Co  Co101  1  0.62331775  0.12372165  0.37444149  1
  Co  Co102  1  0.87522497  0.12653250  0.87118147  1
  Co  Co103  1  0.62442638  0.62657961  0.87443934  1
  Co  Co104  1  0.62322340  0.37360845  0.62265151  1
  Co  Co105  1  0.74918394  0.49645746  0.25244444  1
  Co  Co106  1  0.75234789  0.74721559  -0.00015651  1
  Co  Co107  1  0.37721838  0.62432229  0.37142505  1
  Co  Co108  1  0.25015095  0.75162145  0.25187617  1
  Co  Co109  1  0.12611865  0.62481235  0.87831140  1
  Co  Co110  1  0.50179080  0.74802465  0.49918811  1
  Co  Co111  1  0.87253725  0.37449907  0.12277524  1
  Co  Co112  1  0.24846591  0.24959321  0.49895722  1
  Co  Co113  1  0.87823878  0.12726291  0.37180007  1
  Co  Co114  1  0.50006366  -0.00005245  0.24688944  1
  Co  Co115  1  0.12403836  0.62365572  0.37062153  1
  Co  Co116  1  0.49794121  0.74792667  0.00155154  1
  Co  Co117  1  0.37486448  0.12510026  0.37299360  1
  Co  Co118  1  0.50152463  0.75303167  0.74895545  1
  Co  Co119  1  0.49983454  0.24887475  0.00313487  1
  Co  Co120  1  0.87345247  0.62472306  0.37373864  1
  Co  Co121  1  0.50057476  0.24877746  0.74726817  1
  Co  Co122  1  0.00108556  0.25562938  0.24927975  1
  Co  Co123  1  0.25548210  0.50132707  -0.00010669  1
  Co  Co124  1  0.00289758  0.25181529  0.74880573  1
  Co  Co125  1  0.12621769  0.62677777  0.62511926  1
  Co  Co126  1  0.49839697  0.00329046  0.50281603  1
  Co  Co127  1  0.62752186  0.62543669  0.12633701  1
