# generated using pymatgen
data_Fe45Co19
_symmetry_space_group_name_H-M   'P 1'
_cell_length_a   11.41618165
_cell_length_b   11.41391538
_cell_length_c   11.41403536
_cell_angle_alpha   90.00454933
_cell_angle_beta   90.00495743
_cell_angle_gamma   89.99421940
_symmetry_Int_Tables_number   1
_chemical_formula_structural   Fe45Co19
_chemical_formula_sum   'Fe90 Co38'
_cell_volume   1487.28681322
_cell_formula_units_Z   2
loop_
 _symmetry_equiv_pos_site_id
 _symmetry_equiv_pos_as_xyz
  1  'x, y, z'
loop_
 _atom_site_type_symbol
 _atom_site_label
 _atom_site_symmetry_multiplicity
 _atom_site_fract_x
 _atom_site_fract_y
 _atom_site_fract_z
 _atom_site_occupancy
  Fe  Fe0  1  0.12552333  0.87462279  0.12931244  1
  Fe  Fe1  1  0.74851787  0.25193285  0.49781428  1
  Fe  Fe2  1  -0.00041123  0.75177592  0.00027991  1
  Fe  Fe3  1  0.62422961  0.37668745  0.12560151  1
  Fe  Fe4  1  0.37725984  0.62626738  0.12286463  1
  Fe  Fe5  1  0.49993173  0.50097966  0.24914311  1
  Fe  Fe6  1  0.74963817  0.25077957  0.75009975  1
  Fe  Fe7  1  0.62603337  0.87615148  0.37475135  1
  Fe  Fe8  1  0.50008727  0.75148830  0.25060140  1
  Fe  Fe9  1  0.24861930  0.24797833  0.75080333  1
  Fe  Fe10  1  0.00020441  0.24830279  0.00060254  1
  Fe  Fe11  1  0.50099671  -0.00015377  0.00149863  1
  Fe  Fe12  1  0.24927012  0.49809725  0.00175470  1
  Fe  Fe13  1  -0.00028925  0.74878022  0.75106412  1
  Fe  Fe14  1  0.50148075  0.24843570  0.74942407  1
  Fe  Fe15  1  0.24896397  0.50015086  0.49951713  1
  Fe  Fe16  1  0.87367394  0.87235426  0.37410356  1
  Fe  Fe17  1  0.62371892  0.12384935  0.37482711  1
  Fe  Fe18  1  0.87640697  0.12553058  0.37323969  1
  Fe  Fe19  1  0.62578034  0.87353010  0.12487691  1
  Fe  Fe20  1  0.25210010  0.50054472  0.24895834  1
  Fe  Fe21  1  -0.00046089  -0.00120325  0.49660912  1
  Fe  Fe22  1  0.62601225  0.87589172  0.87359092  1
  Fe  Fe23  1  0.62224419  0.87179171  0.62677370  1
  Fe  Fe24  1  0.75104652  -0.00008548  0.24900912  1
  Fe  Fe25  1  0.50099104  0.24938464  0.50032300  1
  Fe  Fe26  1  0.37380025  0.87618610  0.37269409  1
  Fe  Fe27  1  0.00112284  0.25112436  0.49932423  1
  Fe  Fe28  1  0.25094862  0.50194062  0.75029018  1
  Fe  Fe29  1  0.75053260  0.50199292  0.00568131  1
  Fe  Fe30  1  0.24966123  0.24816994  0.49607375  1
  Fe  Fe31  1  0.37496669  0.87571523  0.87268703  1
  Fe  Fe32  1  0.37568962  0.37532278  0.87547803  1
  Fe  Fe33  1  -0.00094927  0.49959585  0.74909974  1
  Fe  Fe34  1  0.12507018  0.87658394  0.87437161  1
  Fe  Fe35  1  0.12456684  0.87400038  0.62634584  1
  Fe  Fe36  1  0.25004741  0.24709444  0.25192281  1
  Fe  Fe37  1  0.62476071  0.37624460  0.62426046  1
  Fe  Fe38  1  0.50043688  -0.00107768  0.50137274  1
  Fe  Fe39  1  0.37449935  0.12318344  0.87416525  1
  Fe  Fe40  1  0.00286269  0.74754469  0.49495878  1
  Fe  Fe41  1  0.12218869  0.12260346  0.12794470  1
  Fe  Fe42  1  0.12754537  0.87527536  0.36980582  1
  Fe  Fe43  1  0.37612474  0.86924228  0.62675317  1
  Fe  Fe44  1  0.87416423  0.87025357  0.12583701  1
  Fe  Fe45  1  0.50215774  0.50366315  0.50177740  1
  Fe  Fe46  1  0.75063604  0.00013863  0.74818015  1
  Fe  Fe47  1  0.75082339  -0.00015621  0.50106525  1
  Fe  Fe48  1  0.50100549  0.24863939  0.24943193  1
  Fe  Fe49  1  -0.00127778  0.25165052  0.24935411  1
  Fe  Fe50  1  0.25009498  -0.00016011  0.00183170  1
  Fe  Fe51  1  0.37499531  0.37570140  0.62454563  1
  Fe  Fe52  1  0.12363502  0.62546934  0.12788530  1
  Fe  Fe53  1  0.74991920  0.25368742  0.24986418  1
  Fe  Fe54  1  0.87553677  0.62599121  0.87818184  1
  Fe  Fe55  1  0.75288296  0.00131356  0.00128958  1
  Fe  Fe56  1  -0.00694215  0.50276367  0.25013934  1
  Fe  Fe57  1  0.75122064  0.50066827  0.74847630  1
  Fe  Fe58  1  0.24893516  0.24963665  0.00259458  1
  Fe  Fe59  1  0.62566726  0.62372523  0.87652854  1
  Fe  Fe60  1  0.87441891  0.37326675  0.87792617  1
  Fe  Fe61  1  0.87713864  0.87356561  0.62510653  1
  Fe  Fe62  1  0.24968656  0.75119196  0.00203398  1
  Fe  Fe63  1  0.87575990  0.37600360  0.62218712  1
  Fe  Fe64  1  0.24968695  0.00051190  0.49831909  1
  Fe  Fe65  1  0.75128315  0.74949899  0.75172124  1
  Fe  Fe66  1  0.37411565  0.62477631  0.87705476  1
  Fe  Fe67  1  0.12456156  0.62480807  0.87650686  1
  Fe  Fe68  1  -0.00078062  0.00271997  0.75241403  1
  Fe  Fe69  1  -0.00389465  0.00096825  0.00016616  1
  Fe  Fe70  1  0.50137186  0.75072861  -0.00073715  1
  Fe  Fe71  1  0.37512022  0.37459420  0.12521243  1
  Fe  Fe72  1  0.62956612  0.62278638  0.37261912  1
  Fe  Fe73  1  0.87348468  0.62444833  0.62026760  1
  Fe  Fe74  1  0.74836780  0.75125609  0.49953303  1
  Fe  Fe75  1  0.12451521  0.12436758  0.62466534  1
  Fe  Fe76  1  0.12485661  0.37540382  0.62555212  1
  Fe  Fe77  1  -0.00078825  0.49969555  0.00324916  1
  Fe  Fe78  1  0.37761529  0.12199510  0.12769272  1
  Fe  Fe79  1  0.12736691  0.62636844  0.62423078  1
  Fe  Fe80  1  0.37520202  0.12402588  0.62509464  1
  Fe  Fe81  1  0.62643711  0.12374538  0.87485903  1
  Fe  Fe82  1  0.50141910  0.24980137  0.00067777  1
  Fe  Fe83  1  0.62481403  0.37712552  0.87648287  1
  Fe  Fe84  1  0.12447293  0.37366228  0.87556129  1
  Fe  Fe85  1  0.37266373  0.62676889  0.37741966  1
  Fe  Fe86  1  0.12349769  0.37747267  0.37285740  1
  Fe  Fe87  1  0.49873507  0.50440668  0.74759297  1
  Fe  Fe88  1  0.37726357  0.37458424  0.37571905  1
  Fe  Fe89  1  0.87494961  0.12607121  0.62520446  1
  Co  Co90  1  -0.00008283  0.25048804  0.74990374  1
  Co  Co91  1  0.74839618  0.74985046  -0.00188297  1
  Co  Co92  1  0.87479823  0.37233073  0.12157651  1
  Co  Co93  1  0.74724715  0.49655990  0.49806145  1
  Co  Co94  1  0.24698576  0.75253487  0.49731021  1
  Co  Co95  1  0.12746023  0.62325227  0.37091182  1
  Co  Co96  1  0.75424090  0.49742580  0.24719326  1
  Co  Co97  1  0.87682446  0.37635433  0.37791223  1
  Co  Co98  1  0.87479622  0.87471463  0.87397557  1
  Co  Co99  1  0.62585391  0.12405744  0.12645459  1
  Co  Co100  1  0.12557038  0.12400139  0.87658491  1
  Co  Co101  1  0.62810263  0.62765556  0.62417411  1
  Co  Co102  1  0.24957925  -0.00055203  0.74841132  1
  Co  Co103  1  0.00247167  0.50248572  0.49888143  1
  Co  Co104  1  0.87413822  0.63107766  0.12461573  1
  Co  Co105  1  0.86973615  0.62494455  0.37837520  1
  Co  Co106  1  0.50262371  -0.00234782  0.24932540  1
  Co  Co107  1  0.50041777  0.74609534  0.75324503  1
  Co  Co108  1  -0.00132948  0.74837391  0.25385077  1
  Co  Co109  1  0.62396518  0.62609789  0.12652035  1
  Co  Co110  1  0.74681903  0.24934644  0.00159983  1
  Co  Co111  1  0.37560267  0.87608603  0.12645156  1
  Co  Co112  1  0.62646891  0.12499016  0.62306002  1
  Co  Co113  1  0.25267983  0.74832655  0.24782348  1
  Co  Co114  1  0.62168529  0.37621632  0.37343213  1
  Co  Co115  1  0.87464343  0.12717469  0.12737462  1
  Co  Co116  1  0.37989828  0.12358845  0.37465834  1
  Co  Co117  1  0.12466838  0.37624884  0.12803186  1
  Co  Co118  1  0.25040759  0.00335136  0.25077049  1
  Co  Co119  1  0.87303172  0.12728399  0.87441067  1
  Co  Co120  1  0.74922984  0.74939753  0.24978710  1
  Co  Co121  1  0.50219297  0.74899179  0.49561360  1
  Co  Co122  1  0.24902661  0.74980711  0.75266080  1
  Co  Co123  1  -0.00390414  -0.00336457  0.24977597  1
  Co  Co124  1  0.12081729  0.12383407  0.37327082  1
  Co  Co125  1  0.50045198  0.00071831  0.74809447  1
  Co  Co126  1  0.50030249  0.49890596  0.00090493  1
  Co  Co127  1  0.37237574  0.62948323  0.62203160  1
