# generated using pymatgen
data_Fe45Co19
_symmetry_space_group_name_H-M   'P 1'
_cell_length_a   11.41576081
_cell_length_b   11.41570907
_cell_length_c   11.41649166
_cell_angle_alpha   90.00032345
_cell_angle_beta   90.00288471
_cell_angle_gamma   89.99513147
_symmetry_Int_Tables_number   1
_chemical_formula_structural   Fe45Co19
_chemical_formula_sum   'Fe90 Co38'
_cell_volume   1487.78581700
_cell_formula_units_Z   2
loop_
 _symmetry_equiv_pos_site_id
 _symmetry_equiv_pos_as_xyz
  1  'x, y, z'
loop_
 _atom_site_type_symbol
 _atom_site_label
 _atom_site_symmetry_multiplicity
 _atom_site_fract_x
 _atom_site_fract_y
 _atom_site_fract_z
 _atom_site_occupancy
  Fe  Fe0  1  0.37734352  0.12515574  0.12694533  1
  Fe  Fe1  1  -0.00122226  0.74967150  -0.00175936  1
  Fe  Fe2  1  0.50097541  0.25248363  0.25258744  1
  Fe  Fe3  1  0.87517177  0.12494885  0.37656493  1
  Fe  Fe4  1  0.25121062  0.49735341  0.00430090  1
  Fe  Fe5  1  -0.00035569  0.75194712  0.75207092  1
  Fe  Fe6  1  0.49792558  -0.00082114  0.49840584  1
  Fe  Fe7  1  0.12737189  0.87539992  0.62263447  1
  Fe  Fe8  1  0.87780981  0.87969196  0.62720086  1
  Fe  Fe9  1  0.12639049  0.62554740  0.87435487  1
  Fe  Fe10  1  0.37792335  0.87702410  0.87612430  1
  Fe  Fe11  1  0.24990285  0.49758075  0.50127554  1
  Fe  Fe12  1  0.11749194  0.12599894  0.62309585  1
  Fe  Fe13  1  0.74940662  0.50035767  0.00073889  1
  Fe  Fe14  1  0.37744517  0.62884849  0.12801096  1
  Fe  Fe15  1  0.87365836  0.62757724  0.37557477  1
  Fe  Fe16  1  0.38031691  0.87223614  0.12555772  1
  Fe  Fe17  1  0.24837823  0.25044878  0.00735571  1
  Fe  Fe18  1  0.37449607  0.37112878  0.87606879  1
  Fe  Fe19  1  0.75032054  0.49884936  0.74921943  1
  Fe  Fe20  1  0.12682433  0.87529530  0.87604937  1
  Fe  Fe21  1  -0.00131432  0.00030296  0.25181835  1
  Fe  Fe22  1  0.74531835  0.75296701  0.24931083  1
  Fe  Fe23  1  0.74936283  0.24785019  0.25008710  1
  Fe  Fe24  1  0.62628093  0.62413373  0.37710669  1
  Fe  Fe25  1  0.62493835  0.12231117  0.12749159  1
  Fe  Fe26  1  0.75086185  0.00389845  0.50332124  1
  Fe  Fe27  1  0.62198152  0.62758780  0.12600357  1
  Fe  Fe28  1  -0.00091287  0.49796669  0.75160519  1
  Fe  Fe29  1  0.62354475  0.37455105  0.12428030  1
  Fe  Fe30  1  0.00174332  0.75190635  0.25102584  1
  Fe  Fe31  1  0.37266970  0.62746454  0.37243338  1
  Fe  Fe32  1  0.62289334  0.87810926  0.62626677  1
  Fe  Fe33  1  0.00147674  0.24822799  0.00226337  1
  Fe  Fe34  1  0.87441510  0.62832071  0.12486134  1
  Fe  Fe35  1  0.87517079  0.12215052  0.87193974  1
  Fe  Fe36  1  0.25083416  0.49693195  0.74859738  1
  Fe  Fe37  1  0.25191887  0.75021292  0.00090823  1
  Fe  Fe38  1  0.37281237  0.62474220  0.87410187  1
  Fe  Fe39  1  0.75025812  0.75399352  0.75201309  1
  Fe  Fe40  1  0.74629040  -0.00191244  -0.00172011  1
  Fe  Fe41  1  0.74848994  0.75268545  -0.00425558  1
  Fe  Fe42  1  0.87448817  0.37333946  0.37203148  1
  Fe  Fe43  1  0.00077723  0.49775268  0.49751821  1
  Fe  Fe44  1  0.87415573  0.12168642  0.12466585  1
  Fe  Fe45  1  0.87314532  0.37363666  0.87569134  1
  Fe  Fe46  1  0.74769600  0.24529185  0.74805105  1
  Fe  Fe47  1  0.12586399  0.62327633  0.12750915  1
  Fe  Fe48  1  0.00123925  0.75128763  0.49922489  1
  Fe  Fe49  1  0.12822331  0.12441454  0.87725477  1
  Fe  Fe50  1  0.37712835  0.12932403  0.62448014  1
  Fe  Fe51  1  0.12664856  0.37429223  0.36668567  1
  Fe  Fe52  1  0.49854921  0.49660155  0.49903111  1
  Fe  Fe53  1  0.62415050  0.62455480  0.62494831  1
  Fe  Fe54  1  0.24688786  0.25105845  0.50111446  1
  Fe  Fe55  1  0.37365442  0.62450506  0.62498853  1
  Fe  Fe56  1  0.12560746  0.37464521  0.87657275  1
  Fe  Fe57  1  0.25105955  0.00192609  0.74786285  1
  Fe  Fe58  1  0.00038615  0.00078758  -0.00190038  1
  Fe  Fe59  1  0.75060787  0.75061655  0.50383683  1
  Fe  Fe60  1  0.50001660  0.49688590  0.75036049  1
  Fe  Fe61  1  0.49807862  0.49711293  0.25226137  1
  Fe  Fe62  1  0.49880851  0.75148609  0.49722038  1
  Fe  Fe63  1  0.12597209  0.12554589  0.37250670  1
  Fe  Fe64  1  0.12778578  0.62343998  0.37117015  1
  Fe  Fe65  1  0.50368014  0.24939200  0.75212482  1
  Fe  Fe66  1  0.75108362  0.49829057  0.50163625  1
  Fe  Fe67  1  0.12447389  0.87753857  0.12385305  1
  Fe  Fe68  1  0.50369631  -0.00502444  0.25362700  1
  Fe  Fe69  1  0.87385023  0.87597370  0.12487152  1
  Fe  Fe70  1  0.49775568  0.75104038  0.75004000  1
  Fe  Fe71  1  0.50012426  0.50039488  -0.00179116  1
  Fe  Fe72  1  0.87690528  0.37362990  0.12599947  1
  Fe  Fe73  1  0.87721042  0.62519375  0.62605789  1
  Fe  Fe74  1  0.87755969  0.37058113  0.62520410  1
  Fe  Fe75  1  -0.00129425  0.50069532  0.00069734  1
  Fe  Fe76  1  0.37506284  0.12667259  0.37454079  1
  Fe  Fe77  1  0.74786476  0.24792916  0.50183755  1
  Fe  Fe78  1  0.75034738  0.50031913  0.24862725  1
  Fe  Fe79  1  0.50376256  0.25336293  0.49864548  1
  Fe  Fe80  1  0.50255625  0.24588315  -0.00292926  1
  Fe  Fe81  1  0.37164885  0.87473721  0.62154974  1
  Fe  Fe82  1  0.74724184  0.24745548  -0.00135571  1
  Fe  Fe83  1  0.25442884  0.00097823  0.00155951  1
  Fe  Fe84  1  0.87162757  0.87544994  0.37524103  1
  Fe  Fe85  1  0.25207075  0.00016497  0.24918703  1
  Fe  Fe86  1  0.13062038  0.87650393  0.37769677  1
  Fe  Fe87  1  0.24698545  0.25063597  0.74762600  1
  Fe  Fe88  1  0.12520900  0.62557365  0.62694159  1
  Fe  Fe89  1  0.62602476  0.62512942  0.87264039  1
  Co  Co90  1  0.49432336  0.00188864  0.74850672  1
  Co  Co91  1  0.00008561  -0.00146046  0.49696706  1
  Co  Co92  1  0.62178298  0.87441231  0.12024837  1
  Co  Co93  1  0.12218744  0.37524057  0.62580063  1
  Co  Co94  1  0.37617146  0.37225582  0.62531440  1
  Co  Co95  1  0.24975613  0.74571936  0.50035299  1
  Co  Co96  1  0.49857919  0.00567442  0.00053876  1
  Co  Co97  1  0.74959253  0.00193725  0.74760662  1
  Co  Co98  1  0.37101257  0.12841176  0.87407624  1
  Co  Co99  1  -0.00450800  0.50312350  0.25070158  1
  Co  Co100  1  0.24886137  0.75274562  0.24765167  1
  Co  Co101  1  0.63009218  0.87652430  0.38046193  1
  Co  Co102  1  0.00087872  0.24957832  0.75486227  1
  Co  Co103  1  0.62633701  0.37526776  0.87558074  1
  Co  Co104  1  0.25207844  0.75221755  0.75078219  1
  Co  Co105  1  0.25683075  0.49655680  0.24606262  1
  Co  Co106  1  0.87422962  0.62447238  0.87429852  1
  Co  Co107  1  0.36909070  0.87528499  0.37731527  1
  Co  Co108  1  0.00456000  0.00037743  0.75143517  1
  Co  Co109  1  0.62803693  0.37615041  0.37453532  1
  Co  Co110  1  0.62396626  0.12392248  0.37550440  1
  Co  Co111  1  0.00217885  0.25358139  0.49536334  1
  Co  Co112  1  0.12008370  0.37715090  0.12999984  1
  Co  Co113  1  0.50020442  0.74661271  -0.00371811  1
  Co  Co114  1  0.61927438  0.87832822  0.87415634  1
  Co  Co115  1  0.12492000  0.12051284  0.12533713  1
  Co  Co116  1  0.62435198  0.11847620  0.87267899  1
  Co  Co117  1  0.25072953  0.24964636  0.24447977  1
  Co  Co118  1  0.38046268  0.37219077  0.12192208  1
  Co  Co119  1  0.88146467  0.12627663  0.62515939  1
  Co  Co120  1  0.62506544  0.37536158  0.62503202  1
  Co  Co121  1  0.50330722  0.75469210  0.25677825  1
  Co  Co122  1  -0.00144060  0.24479473  0.24736913  1
  Co  Co123  1  0.74805856  -0.00017817  0.25028284  1
  Co  Co124  1  0.87609332  0.87877964  0.87422902  1
  Co  Co125  1  0.37062503  0.37075737  0.37693108  1
  Co  Co126  1  0.25064229  0.00677495  0.50255890  1
  Co  Co127  1  0.62078653  0.12284514  0.62378431  1
