# generated using pymatgen
data_Fe45Co19
_symmetry_space_group_name_H-M   'P 1'
_cell_length_a   11.41601075
_cell_length_b   11.41458826
_cell_length_c   11.41533591
_cell_angle_alpha   90.00835858
_cell_angle_beta   89.99571759
_cell_angle_gamma   90.00305154
_symmetry_Int_Tables_number   1
_chemical_formula_structural   Fe45Co19
_chemical_formula_sum   'Fe90 Co38'
_cell_volume   1487.52169557
_cell_formula_units_Z   2
loop_
 _symmetry_equiv_pos_site_id
 _symmetry_equiv_pos_as_xyz
  1  'x, y, z'
loop_
 _atom_site_type_symbol
 _atom_site_label
 _atom_site_symmetry_multiplicity
 _atom_site_fract_x
 _atom_site_fract_y
 _atom_site_fract_z
 _atom_site_occupancy
  Fe  Fe0  1  0.50061023  0.50344757  0.75049728  1
  Fe  Fe1  1  0.25171638  0.25304222  -0.00292440  1
  Fe  Fe2  1  0.37831117  0.37606723  0.62213513  1
  Fe  Fe3  1  0.12501311  0.87293496  0.37584682  1
  Fe  Fe4  1  0.62622107  0.87594927  0.12223101  1
  Fe  Fe5  1  0.74887890  0.74709508  0.74869094  1
  Fe  Fe6  1  0.12261726  0.12671470  0.37916922  1
  Fe  Fe7  1  0.24765629  0.00181438  0.25086176  1
  Fe  Fe8  1  0.49998379  0.75316582  0.24850399  1
  Fe  Fe9  1  0.00091122  0.50078471  0.49955689  1
  Fe  Fe10  1  0.62569406  0.87212184  0.87879910  1
  Fe  Fe11  1  0.87476919  0.37529533  0.12596706  1
  Fe  Fe12  1  0.25087934  0.24682977  0.50454151  1
  Fe  Fe13  1  0.37337493  0.12591406  0.87087755  1
  Fe  Fe14  1  0.37483951  0.62305091  0.12782838  1
  Fe  Fe15  1  0.12377369  0.87525928  0.12554666  1
  Fe  Fe16  1  0.75149507  0.74999086  0.24981127  1
  Fe  Fe17  1  0.62376560  0.37281480  0.87817451  1
  Fe  Fe18  1  0.87596606  0.62391124  0.12677730  1
  Fe  Fe19  1  0.25269832  0.50428835  0.49655564  1
  Fe  Fe20  1  0.62263704  0.62702354  0.37614621  1
  Fe  Fe21  1  0.62514115  0.86971867  0.62181344  1
  Fe  Fe22  1  0.62819335  0.87555155  0.37739035  1
  Fe  Fe23  1  0.24860359  0.74937254  0.24963823  1
  Fe  Fe24  1  0.37395213  0.87583036  0.37300690  1
  Fe  Fe25  1  0.00550249  0.49817742  0.25020831  1
  Fe  Fe26  1  0.00137451  0.25138050  0.74803445  1
  Fe  Fe27  1  0.00141428  0.50129815  0.74858138  1
  Fe  Fe28  1  0.75245057  0.00600418  0.00213406  1
  Fe  Fe29  1  0.25031585  0.00186006  0.50239030  1
  Fe  Fe30  1  0.87564997  0.12486113  0.62608853  1
  Fe  Fe31  1  0.25127848  0.49835591  0.75108372  1
  Fe  Fe32  1  0.49847167  0.25134546  0.74973078  1
  Fe  Fe33  1  0.37437330  0.37432716  0.12747815  1
  Fe  Fe34  1  0.37520585  0.12576503  0.12659802  1
  Fe  Fe35  1  0.74847425  0.50384969  0.49998650  1
  Fe  Fe36  1  0.12511552  0.37632449  0.62280981  1
  Fe  Fe37  1  -0.00063168  0.00099983  0.50134946  1
  Fe  Fe38  1  0.75072901  0.24678564  0.24788701  1
  Fe  Fe39  1  0.74900646  0.25094382  0.75071765  1
  Fe  Fe40  1  0.50132757  -0.00226976  0.75084797  1
  Fe  Fe41  1  0.24542200  0.49857018  0.25191651  1
  Fe  Fe42  1  0.00050983  -0.00158596  0.75032773  1
  Fe  Fe43  1  0.24966976  -0.00074263  -0.00015612  1
  Fe  Fe44  1  0.87302134  0.87627288  0.87602681  1
  Fe  Fe45  1  0.50187659  0.49494053  0.25492235  1
  Fe  Fe46  1  0.50163071  0.25183090  0.25343680  1
  Fe  Fe47  1  0.62770263  0.12274376  0.37466640  1
  Fe  Fe48  1  0.87189982  0.87769435  0.37628423  1
  Fe  Fe49  1  -0.00159855  0.24868419  -0.00301443  1
  Fe  Fe50  1  0.87637206  0.87746786  0.12375949  1
  Fe  Fe51  1  0.49995346  -0.00000637  0.50000587  1
  Fe  Fe52  1  0.37666789  0.87561503  0.62541933  1
  Fe  Fe53  1  -0.00058564  0.74961380  0.00046472  1
  Fe  Fe54  1  0.12664232  0.62493743  0.87507746  1
  Fe  Fe55  1  0.87308536  0.37711991  0.62517690  1
  Fe  Fe56  1  0.74996722  0.49969535  0.00032857  1
  Fe  Fe57  1  0.74764516  0.00068438  0.74882669  1
  Fe  Fe58  1  0.62463991  0.12799531  0.87812236  1
  Fe  Fe59  1  0.12602586  0.87409708  0.62457382  1
  Fe  Fe60  1  -0.00124568  0.74762775  0.50131031  1
  Fe  Fe61  1  0.50094753  -0.00052004  0.24888573  1
  Fe  Fe62  1  0.00232233  0.49969543  0.00084298  1
  Fe  Fe63  1  0.24911025  0.49714438  -0.00089375  1
  Fe  Fe64  1  0.87200725  0.87400589  0.62442493  1
  Fe  Fe65  1  0.87718652  0.62405280  0.37263397  1
  Fe  Fe66  1  0.24733769  0.25010756  0.25143324  1
  Fe  Fe67  1  0.62268741  0.37663731  0.62103466  1
  Fe  Fe68  1  0.49831969  0.49970853  0.00033159  1
  Fe  Fe69  1  0.62484945  0.62515625  0.12526563  1
  Fe  Fe70  1  0.75087057  0.24791991  0.50068432  1
  Fe  Fe71  1  0.87460486  0.62378243  0.87416332  1
  Fe  Fe72  1  0.87461855  0.37577498  0.87368648  1
  Fe  Fe73  1  0.62212057  0.12607818  0.62428522  1
  Fe  Fe74  1  0.49741258  0.00108130  0.00107991  1
  Fe  Fe75  1  0.25254384  0.74989869  0.00307857  1
  Fe  Fe76  1  0.00069350  0.25141762  0.25422177  1
  Fe  Fe77  1  -0.00067545  0.74834716  0.74841559  1
  Fe  Fe78  1  0.12572188  0.87416362  0.87443981  1
  Fe  Fe79  1  0.62278528  0.62855255  0.87796366  1
  Fe  Fe80  1  0.25283156  0.74854012  0.74856132  1
  Fe  Fe81  1  0.62636241  0.37227687  0.12349750  1
  Fe  Fe82  1  0.74607099  0.50209748  0.74929637  1
  Fe  Fe83  1  0.12339437  0.12627258  0.12366811  1
  Fe  Fe84  1  0.87243486  0.37603797  0.37484067  1
  Fe  Fe85  1  0.12753396  0.12528351  0.87002378  1
  Fe  Fe86  1  0.00032398  0.00018071  0.25200376  1
  Fe  Fe87  1  0.37658902  0.87260694  0.87560866  1
  Fe  Fe88  1  0.37582222  0.12541518  0.37583761  1
  Fe  Fe89  1  0.25329712  0.74663673  0.49938051  1
  Co  Co90  1  -0.00185569  0.75187884  0.24982266  1
  Co  Co91  1  0.37328234  0.87725336  0.12750791  1
  Co  Co92  1  0.37813452  0.12398697  0.62725982  1
  Co  Co93  1  0.87350708  0.12304651  0.37566853  1
  Co  Co94  1  0.49683643  0.74952026  0.00383727  1
  Co  Co95  1  0.12347871  0.62753619  0.37454228  1
  Co  Co96  1  0.74929959  0.00263103  0.50406373  1
  Co  Co97  1  0.37695785  0.62573734  0.36915400  1
  Co  Co98  1  0.49864303  0.49859807  0.49325959  1
  Co  Co99  1  0.74778867  0.50184844  0.24988658  1
  Co  Co100  1  0.37455147  0.62528570  0.87628509  1
  Co  Co101  1  0.12705437  0.62456461  0.62527309  1
  Co  Co102  1  0.50095350  0.24991626  0.49620650  1
  Co  Co103  1  0.75319505  0.74563833  0.49862505  1
  Co  Co104  1  0.62158097  0.12691537  0.12384716  1
  Co  Co105  1  0.37801715  0.37588158  0.87329275  1
  Co  Co106  1  0.63104866  0.37389590  0.37694284  1
  Co  Co107  1  0.88024466  0.12527559  0.12690772  1
  Co  Co108  1  0.75009595  0.00073454  0.24585938  1
  Co  Co109  1  0.49527485  0.25083769  0.00024652  1
  Co  Co110  1  0.37034005  0.37184965  0.37576650  1
  Co  Co111  1  -0.00256857  0.25091711  0.50091766  1
  Co  Co112  1  0.87452180  0.62312561  0.62641351  1
  Co  Co113  1  0.12526102  0.62635309  0.12468475  1
  Co  Co114  1  0.12703541  0.37364208  0.37948189  1
  Co  Co115  1  0.12451062  0.37156192  0.12337645  1
  Co  Co116  1  0.75278614  0.74762251  0.00178104  1
  Co  Co117  1  0.37842021  0.62267377  0.62545175  1
  Co  Co118  1  0.87434688  0.12451045  0.87089196  1
  Co  Co119  1  0.12288381  0.37501087  0.87381715  1
  Co  Co120  1  0.25059408  0.25423829  0.74671949  1
  Co  Co121  1  0.25127842  -0.00314697  0.74868012  1
  Co  Co122  1  0.49492559  0.75055575  0.49790291  1
  Co  Co123  1  0.62080055  0.62679494  0.62044994  1
  Co  Co124  1  0.50021449  0.74965300  0.75064903  1
  Co  Co125  1  0.00187206  0.00124284  -0.00307811  1
  Co  Co126  1  0.75377688  0.24943969  0.00062295  1
  Co  Co127  1  0.12372395  0.12336667  0.62744197  1
