# generated using pymatgen
data_Fe45Co19
_symmetry_space_group_name_H-M   'P 1'
_cell_length_a   11.41507326
_cell_length_b   11.41509172
_cell_length_c   11.41446783
_cell_angle_alpha   90.01431400
_cell_angle_beta   90.00237668
_cell_angle_gamma   89.99839869
_symmetry_Int_Tables_number   1
_chemical_formula_structural   Fe45Co19
_chemical_formula_sum   'Fe90 Co38'
_cell_volume   1487.35200239
_cell_formula_units_Z   2
loop_
 _symmetry_equiv_pos_site_id
 _symmetry_equiv_pos_as_xyz
  1  'x, y, z'
loop_
 _atom_site_type_symbol
 _atom_site_label
 _atom_site_symmetry_multiplicity
 _atom_site_fract_x
 _atom_site_fract_y
 _atom_site_fract_z
 _atom_site_occupancy
  Fe  Fe0  1  0.24823949  0.25222751  0.24753049  1
  Fe  Fe1  1  0.12179101  0.37597334  0.37610043  1
  Fe  Fe2  1  -0.00007264  0.24708101  0.50048464  1
  Fe  Fe3  1  0.87277943  0.37095322  0.87799502  1
  Fe  Fe4  1  0.37633051  0.62570240  0.62652479  1
  Fe  Fe5  1  -0.00389417  0.74696984  -0.00138087  1
  Fe  Fe6  1  0.87339393  0.87511951  0.12253693  1
  Fe  Fe7  1  -0.00504059  0.25212570  0.24825626  1
  Fe  Fe8  1  0.24998192  -0.00308348  0.00142427  1
  Fe  Fe9  1  0.25009904  0.75066855  0.49977414  1
  Fe  Fe10  1  0.62845126  0.62579971  0.12710189  1
  Fe  Fe11  1  0.00091677  0.74963951  0.24838504  1
  Fe  Fe12  1  0.50217809  0.24855076  0.24935733  1
  Fe  Fe13  1  0.75438321  0.49524239  0.25058369  1
  Fe  Fe14  1  0.74897130  0.49925766  0.00170248  1
  Fe  Fe15  1  0.74698393  0.75336025  0.75338331  1
  Fe  Fe16  1  0.62618241  0.37358743  0.37492753  1
  Fe  Fe17  1  0.37533766  0.37560362  0.37283689  1
  Fe  Fe18  1  0.38119147  0.87483428  0.87452326  1
  Fe  Fe19  1  0.50396999  0.24878177  0.00238316  1
  Fe  Fe20  1  0.63226338  0.12391870  0.13067379  1
  Fe  Fe21  1  0.37853417  0.37690551  0.87872512  1
  Fe  Fe22  1  0.37300130  0.12434589  0.12588931  1
  Fe  Fe23  1  0.87067753  0.12566945  0.37172336  1
  Fe  Fe24  1  0.25131082  0.74944002  0.75325622  1
  Fe  Fe25  1  0.62390021  0.12559406  0.62748328  1
  Fe  Fe26  1  0.12408823  0.62698531  0.37520415  1
  Fe  Fe27  1  0.11941966  0.37739892  0.12177201  1
  Fe  Fe28  1  0.12628493  0.62445798  0.11859970  1
  Fe  Fe29  1  -0.00060940  -0.00027099  0.49990536  1
  Fe  Fe30  1  0.62855666  0.62574299  0.37246460  1
  Fe  Fe31  1  0.12238182  0.87350242  0.87794306  1
  Fe  Fe32  1  0.75018208  -0.00237972  0.75273574  1
  Fe  Fe33  1  0.37862216  0.87402512  0.62685711  1
  Fe  Fe34  1  0.12583602  0.12340332  0.37142202  1
  Fe  Fe35  1  0.24754783  0.49969479  0.24690287  1
  Fe  Fe36  1  -0.00144321  -0.00259368  0.25025011  1
  Fe  Fe37  1  0.74935619  0.24980278  0.50186271  1
  Fe  Fe38  1  0.87036087  0.62599832  0.87318447  1
  Fe  Fe39  1  0.37600859  0.12528404  0.62694793  1
  Fe  Fe40  1  -0.00436694  0.00220559  -0.00249761  1
  Fe  Fe41  1  -0.00085936  0.50025473  0.75332639  1
  Fe  Fe42  1  0.75240423  0.50172978  0.50003231  1
  Fe  Fe43  1  0.87662137  0.37472983  0.62360812  1
  Fe  Fe44  1  0.24976919  0.25211511  0.75182746  1
  Fe  Fe45  1  0.50344563  0.00302806  0.00183127  1
  Fe  Fe46  1  0.37613222  0.37666373  0.62574873  1
  Fe  Fe47  1  0.50167476  0.50203116  0.75246523  1
  Fe  Fe48  1  0.25065905  0.50088156  0.49895796  1
  Fe  Fe49  1  0.62768426  0.12687691  0.87267058  1
  Fe  Fe50  1  0.37416190  0.12345894  0.37175950  1
  Fe  Fe51  1  0.50187816  0.00088624  0.49806311  1
  Fe  Fe52  1  0.37798775  0.37734034  0.12316019  1
  Fe  Fe53  1  -0.00376656  0.50634903  0.49926590  1
  Fe  Fe54  1  0.50013026  0.50195769  0.49814933  1
  Fe  Fe55  1  0.62449424  0.87376042  0.37208522  1
  Fe  Fe56  1  0.24942245  -0.00022252  0.49887158  1
  Fe  Fe57  1  0.12357192  0.37659043  0.62357879  1
  Fe  Fe58  1  0.12369014  0.87424171  0.62346368  1
  Fe  Fe59  1  0.50327607  0.74371924  -0.00224110  1
  Fe  Fe60  1  0.38055302  0.87360980  0.12543047  1
  Fe  Fe61  1  0.24828028  0.50096137  0.75383753  1
  Fe  Fe62  1  0.49964693  0.50321156  0.24833355  1
  Fe  Fe63  1  0.24759736  0.75348153  0.24585571  1
  Fe  Fe64  1  0.74971193  0.49592544  0.74852614  1
  Fe  Fe65  1  0.87661274  0.12458418  0.63066107  1
  Fe  Fe66  1  0.12322487  0.12384591  0.87375163  1
  Fe  Fe67  1  0.37599691  0.87586605  0.37145296  1
  Fe  Fe68  1  0.37602851  0.12542722  0.87567355  1
  Fe  Fe69  1  0.62261796  0.87434949  0.62701462  1
  Fe  Fe70  1  0.12407248  0.12423397  0.62872340  1
  Fe  Fe71  1  0.87425228  0.62279208  0.12646942  1
  Fe  Fe72  1  0.37305604  0.62676230  0.37182392  1
  Fe  Fe73  1  -0.00473414  0.24564254  0.00046741  1
  Fe  Fe74  1  0.62649896  0.62491682  0.62641654  1
  Fe  Fe75  1  0.12269789  0.37537709  0.87843926  1
  Fe  Fe76  1  0.75129585  0.74819838  0.49958883  1
  Fe  Fe77  1  0.87618079  0.87072635  0.37640470  1
  Fe  Fe78  1  0.87485448  0.87390238  0.62534312  1
  Fe  Fe79  1  0.25050842  -0.00173278  0.75158102  1
  Fe  Fe80  1  0.62516273  0.37359207  0.87728426  1
  Fe  Fe81  1  0.75157951  -0.00077859  -0.00225174  1
  Fe  Fe82  1  0.12436457  0.62537581  0.62650893  1
  Fe  Fe83  1  0.12367467  0.12202747  0.12543955  1
  Fe  Fe84  1  0.50061919  0.24985706  0.49999757  1
  Fe  Fe85  1  0.50092145  0.74884014  0.49840523  1
  Fe  Fe86  1  0.24909313  0.25093850  0.00115594  1
  Fe  Fe87  1  0.74926017  0.00037892  0.49913558  1
  Fe  Fe88  1  0.24976464  0.25034539  0.49951200  1
  Fe  Fe89  1  -0.00096298  0.74978299  0.75064593  1
  Co  Co90  1  0.62215280  0.87568081  0.87817436  1
  Co  Co91  1  0.00085159  0.25355404  0.75096732  1
  Co  Co92  1  0.50145145  0.00151790  0.75046561  1
  Co  Co93  1  0.24970057  0.49744021  -0.00003372  1
  Co  Co94  1  0.75433964  0.25699348  0.24712122  1
  Co  Co95  1  0.87218708  0.62647501  0.63021588  1
  Co  Co96  1  0.24924300  -0.00432214  0.24651639  1
  Co  Co97  1  0.75097383  0.75323208  0.24776937  1
  Co  Co98  1  -0.00109892  -0.00399100  0.75132706  1
  Co  Co99  1  -0.00266876  0.74689859  0.50196397  1
  Co  Co100  1  0.62307139  0.37710208  0.62333931  1
  Co  Co101  1  0.87147342  0.12175389  0.12800578  1
  Co  Co102  1  0.49986283  0.25137186  0.75104202  1
  Co  Co103  1  0.62946604  0.12737552  0.37175480  1
  Co  Co104  1  -0.00310252  0.50371844  -0.00471871  1
  Co  Co105  1  0.62411486  0.87367806  0.12209033  1
  Co  Co106  1  0.87834294  0.37792406  0.12059016  1
  Co  Co107  1  0.74895785  0.25261914  0.74680710  1
  Co  Co108  1  0.12634223  0.62779031  0.87841610  1
  Co  Co109  1  0.74946107  0.74942522  0.00018899  1
  Co  Co110  1  0.50316532  0.00131251  0.24919846  1
  Co  Co111  1  0.75024708  -0.00693962  0.25177138  1
  Co  Co112  1  0.12348143  0.87416035  0.37692079  1
  Co  Co113  1  0.50158715  0.74729208  0.24924068  1
  Co  Co114  1  0.87496787  0.87282831  0.87644232  1
  Co  Co115  1  0.00011960  0.50091979  0.25062663  1
  Co  Co116  1  0.12045015  0.87566664  0.12022243  1
  Co  Co117  1  0.50222021  0.74610044  0.75328849  1
  Co  Co118  1  0.37204572  0.62528745  0.12256149  1
  Co  Co119  1  0.62360581  0.37641476  0.12609162  1
  Co  Co120  1  0.75040788  0.24885062  0.00446131  1
  Co  Co121  1  0.63039979  0.62261321  0.87390677  1
  Co  Co122  1  0.87673315  0.37479024  0.37924438  1
  Co  Co123  1  0.37243271  0.62292409  0.87806422  1
  Co  Co124  1  0.25301722  0.75515152  -0.00071380  1
  Co  Co125  1  0.50396925  0.50442059  0.00121090  1
  Co  Co126  1  0.87333102  0.12804175  0.87040279  1
  Co  Co127  1  0.87380096  0.62756802  0.37106752  1
