# generated using pymatgen
data_Fe45Co19
_symmetry_space_group_name_H-M   'P 1'
_cell_length_a   11.41559161
_cell_length_b   11.41525413
_cell_length_c   11.41461491
_cell_angle_alpha   89.99644907
_cell_angle_beta   90.00124998
_cell_angle_gamma   89.99191163
_symmetry_Int_Tables_number   1
_chemical_formula_structural   Fe45Co19
_chemical_formula_sum   'Fe90 Co38'
_cell_volume   1487.45990129
_cell_formula_units_Z   2
loop_
 _symmetry_equiv_pos_site_id
 _symmetry_equiv_pos_as_xyz
  1  'x, y, z'
loop_
 _atom_site_type_symbol
 _atom_site_label
 _atom_site_symmetry_multiplicity
 _atom_site_fract_x
 _atom_site_fract_y
 _atom_site_fract_z
 _atom_site_occupancy
  Fe  Fe0  1  0.74771928  0.75013902  0.75005028  1
  Fe  Fe1  1  0.62231471  0.62556019  0.62369295  1
  Fe  Fe2  1  -0.00282604  0.24859282  -0.00162213  1
  Fe  Fe3  1  -0.00017032  0.75061673  0.75071125  1
  Fe  Fe4  1  0.12647130  0.37373405  0.37501011  1
  Fe  Fe5  1  0.12493503  0.37259218  0.62493529  1
  Fe  Fe6  1  0.12374694  0.37560105  0.87723195  1
  Fe  Fe7  1  0.74856742  0.50004520  0.74888623  1
  Fe  Fe8  1  0.25111868  0.74873269  0.74986037  1
  Fe  Fe9  1  0.49738148  0.24917665  0.49908620  1
  Fe  Fe10  1  0.24880353  0.74965524  0.24797328  1
  Fe  Fe11  1  0.74836616  -0.00096850  0.74892235  1
  Fe  Fe12  1  0.62282333  0.37508191  0.62316347  1
  Fe  Fe13  1  0.75025835  0.49956353  0.00105710  1
  Fe  Fe14  1  0.00108450  0.24973233  0.25087933  1
  Fe  Fe15  1  0.62549325  0.12517431  0.37521181  1
  Fe  Fe16  1  0.87352814  0.87636081  0.87605407  1
  Fe  Fe17  1  0.49980356  0.50266116  0.49488008  1
  Fe  Fe18  1  0.50508712  0.25023101  -0.00105310  1
  Fe  Fe19  1  0.87282383  0.12527014  0.12504363  1
  Fe  Fe20  1  0.24955534  0.50027868  0.75122968  1
  Fe  Fe21  1  0.12629122  0.12628178  0.12483646  1
  Fe  Fe22  1  0.74820246  -0.00172992  0.24831077  1
  Fe  Fe23  1  0.25281333  0.74734510  0.50073165  1
  Fe  Fe24  1  0.00168527  0.00031014  0.24974956  1
  Fe  Fe25  1  -0.00005322  0.74983833  0.49894339  1
  Fe  Fe26  1  0.49984504  0.00304469  -0.00183627  1
  Fe  Fe27  1  0.37922616  0.62307336  0.13002237  1
  Fe  Fe28  1  0.49635335  0.74717226  0.49675316  1
  Fe  Fe29  1  0.87552431  0.12404014  0.62621072  1
  Fe  Fe30  1  0.25026544  0.25143775  0.00226080  1
  Fe  Fe31  1  0.62528466  0.87520473  0.37706478  1
  Fe  Fe32  1  0.62076568  0.87656002  0.62298521  1
  Fe  Fe33  1  -0.00126280  0.00139519  -0.00016191  1
  Fe  Fe34  1  0.87527672  0.62386083  0.87376578  1
  Fe  Fe35  1  0.37533380  0.87508665  0.87318325  1
  Fe  Fe36  1  0.87394601  0.87555494  0.37365224  1
  Fe  Fe37  1  0.87368992  0.37620613  0.37363042  1
  Fe  Fe38  1  0.00038910  0.24684013  0.75302672  1
  Fe  Fe39  1  0.12600529  0.87813617  0.87294131  1
  Fe  Fe40  1  0.87559017  0.62305279  0.12715443  1
  Fe  Fe41  1  0.24998070  0.24746868  0.75091482  1
  Fe  Fe42  1  0.25139526  0.50157485  0.50087907  1
  Fe  Fe43  1  0.25145829  0.74886241  0.00098693  1
  Fe  Fe44  1  0.37638245  0.62532396  0.87363468  1
  Fe  Fe45  1  0.50109417  0.25310063  0.24934593  1
  Fe  Fe46  1  0.37715585  0.87568281  0.62831482  1
  Fe  Fe47  1  0.12436816  0.62537636  0.62473205  1
  Fe  Fe48  1  0.50053172  0.49983852  0.75108638  1
  Fe  Fe49  1  0.75054899  0.24834056  0.50101010  1
  Fe  Fe50  1  0.74985048  0.00106358  0.00289935  1
  Fe  Fe51  1  0.12373394  0.62349401  0.87670472  1
  Fe  Fe52  1  0.25066733  0.00088238  0.50308791  1
  Fe  Fe53  1  0.74694053  0.25041806  0.75139105  1
  Fe  Fe54  1  0.24551113  0.49772114  0.24520315  1
  Fe  Fe55  1  0.87416124  0.37574791  0.87391874  1
  Fe  Fe56  1  0.37629088  0.87516370  0.12558982  1
  Fe  Fe57  1  0.12454628  0.87513720  0.12343405  1
  Fe  Fe58  1  0.12919562  0.12590135  0.37523442  1
  Fe  Fe59  1  0.87577841  0.62388519  0.62574558  1
  Fe  Fe60  1  0.00181977  0.74898758  0.24980640  1
  Fe  Fe61  1  0.37693960  0.37228866  0.87498468  1
  Fe  Fe62  1  0.87309665  0.12318979  0.37467507  1
  Fe  Fe63  1  0.37181451  0.12593506  0.37216571  1
  Fe  Fe64  1  0.25237207  0.00099215  -0.00014144  1
  Fe  Fe65  1  0.87272235  0.62452305  0.37219611  1
  Fe  Fe66  1  -0.00013147  0.24920603  0.49877789  1
  Fe  Fe67  1  0.75053737  0.75083483  0.50132271  1
  Fe  Fe68  1  0.62525973  0.62522444  0.87647196  1
  Fe  Fe69  1  0.62205513  0.12253423  0.62462711  1
  Fe  Fe70  1  0.37734602  0.12455594  0.62780680  1
  Fe  Fe71  1  0.62557348  0.87430094  0.87833055  1
  Fe  Fe72  1  0.74614171  0.75219951  0.24403554  1
  Fe  Fe73  1  0.50050641  0.74881083  0.00144487  1
  Fe  Fe74  1  -0.00014476  0.49982725  0.49873750  1
  Fe  Fe75  1  0.50045213  -0.00105505  0.25040119  1
  Fe  Fe76  1  0.87549719  0.37472016  0.62565298  1
  Fe  Fe77  1  0.37304570  0.37596503  0.37291675  1
  Fe  Fe78  1  -0.00199501  0.74997540  -0.00025226  1
  Fe  Fe79  1  0.37619967  0.37553503  0.62610398  1
  Fe  Fe80  1  0.74837786  0.50022526  0.49785471  1
  Fe  Fe81  1  0.00076036  -0.00003528  0.50095850  1
  Fe  Fe82  1  0.37306959  0.87503075  0.37329480  1
  Fe  Fe83  1  0.50005931  0.49859096  -0.00021462  1
  Fe  Fe84  1  0.87644683  0.87628805  0.62525952  1
  Fe  Fe85  1  0.87571150  0.37666555  0.12744335  1
  Fe  Fe86  1  0.74792329  0.25197177  0.24872321  1
  Fe  Fe87  1  0.12686303  0.87494087  0.37597644  1
  Fe  Fe88  1  0.37573340  0.12686685  0.12558202  1
  Fe  Fe89  1  0.25006984  0.49937570  0.00251939  1
  Co  Co90  1  0.00046906  0.00174126  0.75009368  1
  Co  Co91  1  0.87683139  0.87590746  0.12485952  1
  Co  Co92  1  0.00119448  0.49895142  0.74941102  1
  Co  Co93  1  0.50211886  0.75017290  0.75174227  1
  Co  Co94  1  0.12361023  0.62671562  0.12196232  1
  Co  Co95  1  0.62648886  0.62935484  0.37328076  1
  Co  Co96  1  0.12732746  0.62516841  0.37612962  1
  Co  Co97  1  0.50161622  0.75389009  0.25041666  1
  Co  Co98  1  0.00345538  0.50070942  0.25117920  1
  Co  Co99  1  0.12591585  0.87359154  0.62613955  1
  Co  Co100  1  0.49730009  0.00082635  0.49648443  1
  Co  Co101  1  0.12647819  0.12315996  0.87736072  1
  Co  Co102  1  0.62815026  0.12479625  0.87585814  1
  Co  Co103  1  0.25003173  -0.00035371  0.24753111  1
  Co  Co104  1  0.62228120  0.87644792  0.12087873  1
  Co  Co105  1  0.87092003  0.12323725  0.87531594  1
  Co  Co106  1  0.12406615  0.12635049  0.62437639  1
  Co  Co107  1  0.25307783  0.24933634  0.50155384  1
  Co  Co108  1  -0.00131403  0.49997501  0.00043152  1
  Co  Co109  1  0.24988726  0.25305956  0.24641746  1
  Co  Co110  1  0.75045007  0.00020444  0.50030193  1
  Co  Co111  1  0.62518125  0.37687218  0.87490464  1
  Co  Co112  1  0.62183847  0.62248450  0.12504553  1
  Co  Co113  1  0.75084221  0.74761670  0.00287996  1
  Co  Co114  1  0.74938933  0.25282413  0.00035794  1
  Co  Co115  1  0.37329583  0.62269026  0.36788284  1
  Co  Co116  1  0.37692913  0.62396303  0.62774160  1
  Co  Co117  1  0.62538724  0.12523994  0.12601458  1
  Co  Co118  1  0.62619041  0.37035693  0.37874342  1
  Co  Co119  1  0.62500932  0.37676732  0.12327836  1
  Co  Co120  1  0.50040665  0.00044984  0.75482154  1
  Co  Co121  1  0.37894775  0.37570942  0.12503561  1
  Co  Co122  1  0.50613759  0.49602342  0.25427694  1
  Co  Co123  1  0.74517918  0.49831259  0.25207807  1
  Co  Co124  1  0.50255841  0.24971293  0.75084411  1
  Co  Co125  1  0.25139737  0.00251853  0.74956980  1
  Co  Co126  1  0.12017049  0.37274132  0.12262410  1
  Co  Co127  1  0.37501058  0.12847706  0.87617212  1
