# generated using pymatgen
data_Fe45Co19
_symmetry_space_group_name_H-M   'P 1'
_cell_length_a   11.41429100
_cell_length_b   11.41399487
_cell_length_c   11.41618511
_cell_angle_alpha   89.99920316
_cell_angle_beta   89.99925486
_cell_angle_gamma   89.99568910
_symmetry_Int_Tables_number   1
_chemical_formula_structural   Fe45Co19
_chemical_formula_sum   'Fe90 Co38'
_cell_volume   1487.33094709
_cell_formula_units_Z   2
loop_
 _symmetry_equiv_pos_site_id
 _symmetry_equiv_pos_as_xyz
  1  'x, y, z'
loop_
 _atom_site_type_symbol
 _atom_site_label
 _atom_site_symmetry_multiplicity
 _atom_site_fract_x
 _atom_site_fract_y
 _atom_site_fract_z
 _atom_site_occupancy
  Fe  Fe0  1  0.75229972  0.50111632  0.75172274  1
  Fe  Fe1  1  0.62173541  0.62188431  0.62686822  1
  Fe  Fe2  1  0.00056268  0.74995652  0.50074449  1
  Fe  Fe3  1  -0.00015088  0.24986247  0.24965210  1
  Fe  Fe4  1  0.62199003  0.62546612  0.37254362  1
  Fe  Fe5  1  0.87495437  0.12521028  0.37518918  1
  Fe  Fe6  1  0.75230776  -0.00180821  0.25074765  1
  Fe  Fe7  1  0.75181288  -0.00142577  0.75261378  1
  Fe  Fe8  1  -0.00033076  0.75441549  0.24695704  1
  Fe  Fe9  1  0.24997792  0.24766486  0.50099057  1
  Fe  Fe10  1  0.37642451  0.62573864  0.62302042  1
  Fe  Fe11  1  0.24923568  0.24849415  0.24902356  1
  Fe  Fe12  1  0.87748287  0.62641855  0.37348322  1
  Fe  Fe13  1  0.62326002  0.12482056  0.87317055  1
  Fe  Fe14  1  0.37422299  0.62378002  0.12474909  1
  Fe  Fe15  1  0.12553236  0.62635849  0.62650015  1
  Fe  Fe16  1  0.75060820  0.25013434  0.24853747  1
  Fe  Fe17  1  0.12561246  0.37806129  0.12557353  1
  Fe  Fe18  1  0.37229356  0.87433598  0.12265454  1
  Fe  Fe19  1  0.49819785  0.75069646  0.75049420  1
  Fe  Fe20  1  0.25112970  0.00173315  0.25323887  1
  Fe  Fe21  1  0.87306408  0.12487192  0.62472981  1
  Fe  Fe22  1  0.12435175  0.37696381  0.87467734  1
  Fe  Fe23  1  0.25076082  0.50289390  0.25369673  1
  Fe  Fe24  1  0.37424134  0.37774628  0.12413521  1
  Fe  Fe25  1  0.12623418  0.37414842  0.37526073  1
  Fe  Fe26  1  0.87670452  0.62726422  0.87616115  1
  Fe  Fe27  1  0.00137268  -0.00003701  0.49956299  1
  Fe  Fe28  1  0.49880606  -0.00155882  0.24958506  1
  Fe  Fe29  1  0.24943213  0.00002308  -0.00093902  1
  Fe  Fe30  1  0.62452390  0.87359242  0.37438523  1
  Fe  Fe31  1  0.37871255  0.12172724  0.62427455  1
  Fe  Fe32  1  0.50144049  0.25193963  0.74713824  1
  Fe  Fe33  1  0.62510436  0.12400718  0.12581274  1
  Fe  Fe34  1  0.12493372  0.87536299  0.37480296  1
  Fe  Fe35  1  0.74940095  0.50233186  0.49975950  1
  Fe  Fe36  1  0.37695214  0.37611656  0.62207463  1
  Fe  Fe37  1  0.24863167  0.75005950  0.50012639  1
  Fe  Fe38  1  0.37417950  0.62619115  0.87564758  1
  Fe  Fe39  1  0.37678751  0.87282059  0.37685377  1
  Fe  Fe40  1  0.37650126  0.87557064  0.62195471  1
  Fe  Fe41  1  -0.00086336  0.49972553  0.74853105  1
  Fe  Fe42  1  0.50063096  -0.00090387  -0.00113703  1
  Fe  Fe43  1  0.49971433  0.25071638  0.00084939  1
  Fe  Fe44  1  0.12314324  0.12072974  0.12639264  1
  Fe  Fe45  1  0.74898459  0.74618506  0.00171103  1
  Fe  Fe46  1  0.24849723  0.25008092  0.00025612  1
  Fe  Fe47  1  0.49939077  0.74982844  0.24763702  1
  Fe  Fe48  1  0.75124176  0.75002746  0.74912793  1
  Fe  Fe49  1  -0.00312334  0.49955865  0.00237537  1
  Fe  Fe50  1  0.62640421  0.87487377  0.12451186  1
  Fe  Fe51  1  0.25045156  0.50172931  0.75131960  1
  Fe  Fe52  1  0.24973421  0.25047976  0.74957860  1
  Fe  Fe53  1  0.74680741  0.00085827  0.49798101  1
  Fe  Fe54  1  0.87762534  0.12100262  0.87743285  1
  Fe  Fe55  1  0.87568518  0.12102440  0.12273556  1
  Fe  Fe56  1  0.75257091  0.75080032  0.24893934  1
  Fe  Fe57  1  0.37557710  0.12526604  0.87461151  1
  Fe  Fe58  1  0.25274704  -0.00411771  0.74986983  1
  Fe  Fe59  1  0.37498747  0.37549369  0.87638510  1
  Fe  Fe60  1  0.74827092  0.74847858  0.50068394  1
  Fe  Fe61  1  0.37581722  0.12450681  0.12399303  1
  Fe  Fe62  1  0.62521364  0.37971128  0.87598770  1
  Fe  Fe63  1  0.00018760  0.50012175  0.49914898  1
  Fe  Fe64  1  0.62502953  0.37929244  0.12307531  1
  Fe  Fe65  1  0.62549551  0.87249127  0.87534021  1
  Fe  Fe66  1  0.75127996  0.25094962  -0.00060617  1
  Fe  Fe67  1  0.50194384  0.74706975  0.00093937  1
  Fe  Fe68  1  0.87460077  0.87535897  0.62301488  1
  Fe  Fe69  1  0.25121263  0.50302153  0.49619990  1
  Fe  Fe70  1  0.87565841  0.62531164  0.62468080  1
  Fe  Fe71  1  0.74402211  0.24821454  0.50176174  1
  Fe  Fe72  1  0.87279679  0.37446009  0.62465804  1
  Fe  Fe73  1  -0.00018002  0.24978139  0.74934885  1
  Fe  Fe74  1  0.12643577  0.37623615  0.62471311  1
  Fe  Fe75  1  0.00086759  0.75380300  0.75096041  1
  Fe  Fe76  1  0.00066964  0.25035722  0.50123313  1
  Fe  Fe77  1  0.12409952  0.12171570  0.87326761  1
  Fe  Fe78  1  0.87423079  0.37482796  0.37502302  1
  Fe  Fe79  1  0.62327002  0.87739159  0.62601961  1
  Fe  Fe80  1  0.49954231  0.25184348  0.24895509  1
  Fe  Fe81  1  0.74983671  0.25109918  0.75037979  1
  Fe  Fe82  1  0.24444974  0.74842031  -0.00081011  1
  Fe  Fe83  1  0.12612356  0.12187688  0.62568966  1
  Fe  Fe84  1  0.00003061  0.25068355  0.00026117  1
  Fe  Fe85  1  0.37805169  0.12738355  0.37699749  1
  Fe  Fe86  1  0.24853359  0.74742079  0.25029037  1
  Fe  Fe87  1  0.00371164  0.75525871  0.00179438  1
  Fe  Fe88  1  0.75320512  0.50171284  0.24669679  1
  Fe  Fe89  1  0.62327880  0.37574954  0.37495528  1
  Co  Co90  1  0.50011235  0.50338629  -0.00025049  1
  Co  Co91  1  0.37804267  0.63008316  0.37559380  1
  Co  Co92  1  0.50350191  0.75017386  0.50155117  1
  Co  Co93  1  0.50500689  0.24840120  0.50276866  1
  Co  Co94  1  0.13026682  0.87787455  0.12865544  1
  Co  Co95  1  0.25131803  0.74988337  0.74947330  1
  Co  Co96  1  0.87550289  0.37576048  0.87464628  1
  Co  Co97  1  0.87455730  0.37381221  0.12570960  1
  Co  Co98  1  0.62545607  0.38010456  0.62594911  1
  Co  Co99  1  0.49781309  -0.00420027  0.75468187  1
  Co  Co100  1  0.12382811  0.12534395  0.37502607  1
  Co  Co101  1  -0.00253842  -0.00220874  0.74841445  1
  Co  Co102  1  0.49627925  0.50010689  0.25181927  1
  Co  Co103  1  0.12182373  0.62739681  0.37440904  1
  Co  Co104  1  0.87122663  0.87673527  0.12058727  1
  Co  Co105  1  0.74555811  0.00078607  -0.00159559  1
  Co  Co106  1  0.37412263  0.37028798  0.37631145  1
  Co  Co107  1  0.12516264  0.87447124  0.62520083  1
  Co  Co108  1  0.12737746  0.87657105  0.87103034  1
  Co  Co109  1  0.62590730  0.62448286  0.87218692  1
  Co  Co110  1  0.37333177  0.87165309  0.87988500  1
  Co  Co111  1  0.00383966  -0.00602643  0.00058209  1
  Co  Co112  1  0.25064161  0.50077030  -0.00140759  1
  Co  Co113  1  0.25014178  -0.00088353  0.49787689  1
  Co  Co114  1  0.87821645  0.62824477  0.12547692  1
  Co  Co115  1  0.12248407  0.62387219  0.87470762  1
  Co  Co116  1  0.62403996  0.12061676  0.63030256  1
  Co  Co117  1  0.62425871  0.12525637  0.36987492  1
  Co  Co118  1  0.49874715  0.49995608  0.49618711  1
  Co  Co119  1  -0.00295186  -0.00298726  0.25084916  1
  Co  Co120  1  -0.00054358  0.49873115  0.25109084  1
  Co  Co121  1  0.75278677  0.50322894  0.00117606  1
  Co  Co122  1  0.49656019  0.50095779  0.75164857  1
  Co  Co123  1  0.50337704  0.00092345  0.49703318  1
  Co  Co124  1  0.62445938  0.62312471  0.12847395  1
  Co  Co125  1  0.87490394  0.87326030  0.37868763  1
  Co  Co126  1  0.12316855  0.62259021  0.12511011  1
  Co  Co127  1  0.87302536  0.87459980  0.87833877  1
