# generated using pymatgen
data_Fe45Co19
_symmetry_space_group_name_H-M   'P 1'
_cell_length_a   11.41585386
_cell_length_b   11.41497947
_cell_length_c   11.41580739
_cell_angle_alpha   90.00974911
_cell_angle_beta   90.00427430
_cell_angle_gamma   89.99776899
_symmetry_Int_Tables_number   1
_chemical_formula_structural   Fe45Co19
_chemical_formula_sum   'Fe90 Co38'
_cell_volume   1487.61366772
_cell_formula_units_Z   2
loop_
 _symmetry_equiv_pos_site_id
 _symmetry_equiv_pos_as_xyz
  1  'x, y, z'
loop_
 _atom_site_type_symbol
 _atom_site_label
 _atom_site_symmetry_multiplicity
 _atom_site_fract_x
 _atom_site_fract_y
 _atom_site_fract_z
 _atom_site_occupancy
  Fe  Fe0  1  0.49994425  0.25158606  0.49836094  1
  Fe  Fe1  1  0.62843061  0.87513565  0.12527478  1
  Fe  Fe2  1  0.75206391  0.49698792  0.50132321  1
  Fe  Fe3  1  0.24711704  0.50328637  -0.00108013  1
  Fe  Fe4  1  0.87516077  0.87558704  0.37255030  1
  Fe  Fe5  1  0.62450909  0.12469705  0.37496980  1
  Fe  Fe6  1  -0.00077234  -0.00052931  0.00429075  1
  Fe  Fe7  1  0.49987486  -0.00234140  0.00051587  1
  Fe  Fe8  1  0.87549506  0.62549567  0.37452760  1
  Fe  Fe9  1  0.12535668  0.87347492  0.37477841  1
  Fe  Fe10  1  0.75028386  0.00099049  0.00035818  1
  Fe  Fe11  1  0.87422792  0.62503566  0.12656153  1
  Fe  Fe12  1  0.37558806  0.12616735  0.12362315  1
  Fe  Fe13  1  0.74977190  0.25088721  0.00148879  1
  Fe  Fe14  1  0.24825067  -0.00109297  0.75378984  1
  Fe  Fe15  1  0.24910646  0.50088410  0.74901168  1
  Fe  Fe16  1  0.12386652  0.37675223  0.87409950  1
  Fe  Fe17  1  0.25279319  -0.00298296  0.49766492  1
  Fe  Fe18  1  -0.00126261  0.49810911  0.25042540  1
  Fe  Fe19  1  0.12437549  0.12488976  0.87902183  1
  Fe  Fe20  1  0.62494970  0.37477549  0.87437478  1
  Fe  Fe21  1  0.12394609  0.62490398  0.37700137  1
  Fe  Fe22  1  0.62467255  0.62855328  0.87412969  1
  Fe  Fe23  1  0.12516860  0.12506181  0.37467666  1
  Fe  Fe24  1  0.00092199  0.00123814  0.24813986  1
  Fe  Fe25  1  -0.00051325  0.50212009  0.00013643  1
  Fe  Fe26  1  0.12312775  0.87180860  0.88160251  1
  Fe  Fe27  1  0.37757326  0.62751863  0.87595169  1
  Fe  Fe28  1  0.12375498  0.37637256  0.12635503  1
  Fe  Fe29  1  0.49929905  0.00003321  0.25024793  1
  Fe  Fe30  1  0.37428885  0.37586041  0.62405472  1
  Fe  Fe31  1  0.75476739  0.75113063  0.50075644  1
  Fe  Fe32  1  0.50189793  -0.00447304  0.75016850  1
  Fe  Fe33  1  0.37466535  0.62363642  0.12411237  1
  Fe  Fe34  1  0.25043685  0.25037327  -0.00026746  1
  Fe  Fe35  1  0.87530324  0.12746494  0.12766705  1
  Fe  Fe36  1  0.24772213  0.74941103  0.75079286  1
  Fe  Fe37  1  0.62529578  0.62552798  0.37648643  1
  Fe  Fe38  1  0.74926193  0.49921342  0.25180834  1
  Fe  Fe39  1  -0.00002835  0.75170151  0.24659216  1
  Fe  Fe40  1  0.50009888  0.49850030  0.49880007  1
  Fe  Fe41  1  0.24825547  0.24959824  0.75092270  1
  Fe  Fe42  1  0.50071914  0.50103268  0.74996811  1
  Fe  Fe43  1  0.62370420  0.12547543  0.87690561  1
  Fe  Fe44  1  -0.00171051  0.49789945  0.50152624  1
  Fe  Fe45  1  0.87717180  0.87388492  0.87660128  1
  Fe  Fe46  1  0.75252184  0.00036592  0.49964394  1
  Fe  Fe47  1  0.00187298  0.25078371  0.49949480  1
  Fe  Fe48  1  0.87749475  0.62662584  0.87208190  1
  Fe  Fe49  1  0.62736205  0.62472234  0.12488580  1
  Fe  Fe50  1  0.74774137  0.25110736  0.50000640  1
  Fe  Fe51  1  0.12682541  0.12445949  0.62389938  1
  Fe  Fe52  1  0.37080571  0.87308429  0.12370638  1
  Fe  Fe53  1  0.37571516  0.87000718  0.87699936  1
  Fe  Fe54  1  0.50143914  0.74862213  0.24795531  1
  Fe  Fe55  1  0.24816993  0.25070339  0.25135012  1
  Fe  Fe56  1  0.37369496  0.62610340  0.62458464  1
  Fe  Fe57  1  0.24946871  0.00210423  0.24906631  1
  Fe  Fe58  1  0.62642596  0.62540841  0.62412477  1
  Fe  Fe59  1  -0.00031796  0.25157566  0.00179466  1
  Fe  Fe60  1  0.49648873  0.75338055  0.50177431  1
  Fe  Fe61  1  0.75214565  0.75024703  0.00120674  1
  Fe  Fe62  1  0.74881720  -0.00114539  0.75013711  1
  Fe  Fe63  1  0.87566773  0.12804371  0.87322827  1
  Fe  Fe64  1  -0.00185473  0.49681679  0.74722541  1
  Fe  Fe65  1  0.62528500  0.87388007  0.37517812  1
  Fe  Fe66  1  0.75231305  0.49873721  -0.00137703  1
  Fe  Fe67  1  0.87566586  0.12718575  0.62694514  1
  Fe  Fe68  1  0.62504782  0.37585854  0.12694018  1
  Fe  Fe69  1  0.87446316  0.37047566  0.37195804  1
  Fe  Fe70  1  0.12410046  0.87334123  0.62258565  1
  Fe  Fe71  1  0.25025480  0.49909107  0.25274637  1
  Fe  Fe72  1  0.24995222  0.25330127  0.49774212  1
  Fe  Fe73  1  0.37526017  0.37627853  0.87562342  1
  Fe  Fe74  1  0.37363857  0.12312903  0.62511207  1
  Fe  Fe75  1  -0.00165381  0.00012566  0.49867056  1
  Fe  Fe76  1  0.37613295  0.37640021  0.12574215  1
  Fe  Fe77  1  0.24829485  0.74812777  0.24953734  1
  Fe  Fe78  1  0.49593496  -0.00326476  0.49881121  1
  Fe  Fe79  1  0.62376992  0.12386584  0.62456393  1
  Fe  Fe80  1  0.75045944  0.00323549  0.25069234  1
  Fe  Fe81  1  0.50139876  0.50066097  0.00031827  1
  Fe  Fe82  1  0.50093064  0.25002549  0.25091556  1
  Fe  Fe83  1  0.00163736  0.00022816  0.75017598  1
  Fe  Fe84  1  0.12261699  0.62665806  0.62279462  1
  Fe  Fe85  1  0.37463799  0.62434484  0.37568039  1
  Fe  Fe86  1  0.37719592  0.12534183  0.87575504  1
  Fe  Fe87  1  0.50071747  0.25084746  0.74954545  1
  Fe  Fe88  1  0.75153641  0.49696714  0.74803492  1
  Fe  Fe89  1  0.75080547  0.75343492  0.74685648  1
  Co  Co90  1  0.50116614  0.50281131  0.24976253  1
  Co  Co91  1  0.24874959  0.49969187  0.49968157  1
  Co  Co92  1  0.12369758  0.37714838  0.37432612  1
  Co  Co93  1  0.00439631  0.24833588  0.75027983  1
  Co  Co94  1  0.74667993  0.24983368  0.75053581  1
  Co  Co95  1  0.00037740  0.74618877  0.00468526  1
  Co  Co96  1  0.12424338  0.62217215  0.12915687  1
  Co  Co97  1  0.87524277  0.36931107  0.62655913  1
  Co  Co98  1  0.12595260  0.37512302  0.62556957  1
  Co  Co99  1  0.12024247  0.62449140  0.87105587  1
  Co  Co100  1  0.25127929  0.75091140  0.49906574  1
  Co  Co101  1  0.37434495  0.12563075  0.37509228  1
  Co  Co102  1  0.12831893  0.87618645  0.12227308  1
  Co  Co103  1  0.87649409  0.87791629  0.62552866  1
  Co  Co104  1  0.62656218  0.87577904  0.62135109  1
  Co  Co105  1  0.37394092  0.87368017  0.37029701  1
  Co  Co106  1  0.37642178  0.37708939  0.37420254  1
  Co  Co107  1  -0.00353058  0.75067952  0.49844201  1
  Co  Co108  1  0.25296608  0.00179638  -0.00203289  1
  Co  Co109  1  0.87621998  0.37301787  0.87375248  1
  Co  Co110  1  0.74772944  0.24871719  0.24878916  1
  Co  Co111  1  0.50170272  0.74930932  0.00464417  1
  Co  Co112  1  0.62582160  0.87241713  0.87748323  1
  Co  Co113  1  0.87311328  0.87515461  0.12614035  1
  Co  Co114  1  0.87553851  0.12766598  0.37459584  1
  Co  Co115  1  0.00001020  0.75351151  0.74854539  1
  Co  Co116  1  0.62342360  0.12408250  0.12402345  1
  Co  Co117  1  0.62483303  0.37620021  0.37293258  1
  Co  Co118  1  0.74994818  0.74850013  0.25129453  1
  Co  Co119  1  0.12640663  0.12481697  0.12283522  1
  Co  Co120  1  0.24607691  0.74338742  0.00009278  1
  Co  Co121  1  0.87526362  0.37542503  0.12649616  1
  Co  Co122  1  0.50191401  0.75135102  0.74633985  1
  Co  Co123  1  0.87588947  0.62542307  0.62663689  1
  Co  Co124  1  0.00302617  0.24863948  0.24969961  1
  Co  Co125  1  0.50063940  0.25224432  0.00022075  1
  Co  Co126  1  0.37161796  0.87620362  0.62842719  1
  Co  Co127  1  0.62346629  0.37621891  0.62543660  1
