# generated using pymatgen
data_Fe45Co19
_symmetry_space_group_name_H-M   'P 1'
_cell_length_a   11.41449748
_cell_length_b   11.41451889
_cell_length_c   11.41518880
_cell_angle_alpha   89.99546198
_cell_angle_beta   89.99734457
_cell_angle_gamma   89.99739420
_symmetry_Int_Tables_number   1
_chemical_formula_structural   Fe45Co19
_chemical_formula_sum   'Fe90 Co38'
_cell_volume   1487.29632267
_cell_formula_units_Z   2
loop_
 _symmetry_equiv_pos_site_id
 _symmetry_equiv_pos_as_xyz
  1  'x, y, z'
loop_
 _atom_site_type_symbol
 _atom_site_label
 _atom_site_symmetry_multiplicity
 _atom_site_fract_x
 _atom_site_fract_y
 _atom_site_fract_z
 _atom_site_occupancy
  Fe  Fe0  1  -0.00135302  0.75129258  0.24734447  1
  Fe  Fe1  1  0.12301939  0.87274228  0.87526657  1
  Fe  Fe2  1  0.00052180  0.24871765  0.00151514  1
  Fe  Fe3  1  0.87492052  0.62383625  0.12463395  1
  Fe  Fe4  1  0.37376465  0.12283337  0.37664885  1
  Fe  Fe5  1  0.25268436  0.25206525  0.24764712  1
  Fe  Fe6  1  0.12577109  0.37429793  0.62593097  1
  Fe  Fe7  1  0.12751637  0.12382120  0.62886642  1
  Fe  Fe8  1  0.24822968  0.49879647  0.49891097  1
  Fe  Fe9  1  0.25058935  0.75261882  0.49898911  1
  Fe  Fe10  1  0.87530430  0.62515726  0.62447228  1
  Fe  Fe11  1  -0.00045904  0.50003556  0.75067500  1
  Fe  Fe12  1  0.12501104  0.87621969  0.62598754  1
  Fe  Fe13  1  0.24891677  0.74745959  -0.00004567  1
  Fe  Fe14  1  0.62404113  0.62291849  0.12656238  1
  Fe  Fe15  1  0.74315948  0.00232895  -0.00384010  1
  Fe  Fe16  1  0.62549840  0.12560428  0.62871495  1
  Fe  Fe17  1  0.00291897  0.00325854  0.49869243  1
  Fe  Fe18  1  0.74794419  0.74935649  -0.00060191  1
  Fe  Fe19  1  -0.00014618  0.74963895  0.50274693  1
  Fe  Fe20  1  0.50140241  0.49902586  0.50039435  1
  Fe  Fe21  1  0.49853231  0.75222464  0.74856811  1
  Fe  Fe22  1  0.49619814  0.25408071  0.74894638  1
  Fe  Fe23  1  0.61897991  0.37554227  0.12714501  1
  Fe  Fe24  1  0.87304239  0.12173370  0.62632465  1
  Fe  Fe25  1  0.62662783  0.87550373  0.62266848  1
  Fe  Fe26  1  0.25620680  0.49668331  0.75227497  1
  Fe  Fe27  1  0.74563485  0.24948840  -0.00029562  1
  Fe  Fe28  1  0.12716839  0.37414284  0.87521422  1
  Fe  Fe29  1  0.24864207  -0.00031389  0.25142270  1
  Fe  Fe30  1  0.62262525  0.62398385  0.87066629  1
  Fe  Fe31  1  0.25116377  0.75055699  0.24940189  1
  Fe  Fe32  1  -0.00181431  0.24940807  0.74907215  1
  Fe  Fe33  1  0.75086980  0.49952600  0.49908023  1
  Fe  Fe34  1  0.87426498  0.87913268  0.11947724  1
  Fe  Fe35  1  0.49940707  0.00134181  0.24987367  1
  Fe  Fe36  1  0.25288585  0.24918505  0.00211357  1
  Fe  Fe37  1  0.24876620  0.49747800  0.24955008  1
  Fe  Fe38  1  0.49884011  0.75048441  0.25101034  1
  Fe  Fe39  1  0.50144497  0.24830654  0.50048052  1
  Fe  Fe40  1  0.74731865  0.00015687  0.49745388  1
  Fe  Fe41  1  0.87643069  0.12950061  0.37478258  1
  Fe  Fe42  1  0.87250574  0.37396856  0.87490449  1
  Fe  Fe43  1  0.00177737  0.50095519  -0.00044646  1
  Fe  Fe44  1  0.37392394  0.12249794  0.62622021  1
  Fe  Fe45  1  0.87470871  0.37477884  0.12302823  1
  Fe  Fe46  1  0.37893801  0.87633998  0.87725065  1
  Fe  Fe47  1  0.12633519  0.62479850  0.62839954  1
  Fe  Fe48  1  0.12646506  0.12697770  0.87270286  1
  Fe  Fe49  1  0.37618809  0.62150665  0.12509364  1
  Fe  Fe50  1  0.62691007  0.37627154  0.62937574  1
  Fe  Fe51  1  0.00046868  0.49687414  0.24917499  1
  Fe  Fe52  1  0.12378571  0.62593414  0.37413474  1
  Fe  Fe53  1  0.24776995  0.24716292  0.50124083  1
  Fe  Fe54  1  0.25099088  0.50137595  -0.00041603  1
  Fe  Fe55  1  0.87423176  0.87488633  0.37801267  1
  Fe  Fe56  1  0.49985585  0.75284564  0.49790356  1
  Fe  Fe57  1  0.87484199  0.37546210  0.62408474  1
  Fe  Fe58  1  0.75068023  0.25077198  0.50202807  1
  Fe  Fe59  1  0.11960038  0.37005202  0.37648084  1
  Fe  Fe60  1  0.37435859  0.87991727  0.62219493  1
  Fe  Fe61  1  0.37416395  0.62472917  0.37571124  1
  Fe  Fe62  1  0.37718958  0.12336337  0.87319962  1
  Fe  Fe63  1  0.87559735  0.62601493  0.87512086  1
  Fe  Fe64  1  0.75137606  0.75246497  0.24993729  1
  Fe  Fe65  1  0.62557299  0.87829635  0.12661575  1
  Fe  Fe66  1  0.74603942  0.49907748  -0.00169247  1
  Fe  Fe67  1  0.50100138  0.74884835  0.00178727  1
  Fe  Fe68  1  -0.00129072  -0.00274533  0.75311320  1
  Fe  Fe69  1  0.87563376  0.62464898  0.37545477  1
  Fe  Fe70  1  0.37540510  0.87765728  0.12348426  1
  Fe  Fe71  1  0.50036568  0.24657979  0.00358938  1
  Fe  Fe72  1  0.37511703  0.62367629  0.62437528  1
  Fe  Fe73  1  0.74763094  -0.00216706  0.75469266  1
  Fe  Fe74  1  0.62429720  0.62403329  0.62707278  1
  Fe  Fe75  1  0.62622908  0.12530323  0.37224467  1
  Fe  Fe76  1  0.75199377  0.25029604  0.24720944  1
  Fe  Fe77  1  0.62401941  0.37271052  0.37304421  1
  Fe  Fe78  1  0.62667431  0.62742426  0.37557952  1
  Fe  Fe79  1  -0.00195012  0.00259116  0.24813416  1
  Fe  Fe80  1  0.25165642  0.75170664  0.75126431  1
  Fe  Fe81  1  0.24886774  0.00049958  -0.00213235  1
  Fe  Fe82  1  0.00231685  0.74740873  -0.00011318  1
  Fe  Fe83  1  0.12503508  0.87506674  0.37498139  1
  Fe  Fe84  1  0.12486719  0.87520280  0.12420097  1
  Fe  Fe85  1  0.75360003  0.75336837  0.75026248  1
  Fe  Fe86  1  0.75005504  0.49831819  0.25110431  1
  Fe  Fe87  1  0.37758663  0.37417092  0.37561198  1
  Fe  Fe88  1  0.87389686  0.12435872  0.87698590  1
  Fe  Fe89  1  0.12563412  0.12638719  0.12617008  1
  Co  Co90  1  0.37542009  0.87845233  0.37535751  1
  Co  Co91  1  0.75352669  0.24891346  0.75026599  1
  Co  Co92  1  0.62485240  0.87556595  0.37335525  1
  Co  Co93  1  0.50198172  0.50043076  -0.00473616  1
  Co  Co94  1  0.50253673  0.00181428  0.50005540  1
  Co  Co95  1  0.87533442  0.87583401  0.88081561  1
  Co  Co96  1  0.87757000  0.37192511  0.37658754  1
  Co  Co97  1  0.25030413  -0.00253581  0.75351325  1
  Co  Co98  1  0.25289412  0.25200408  0.75020902  1
  Co  Co99  1  0.62480809  0.37328491  0.87183026  1
  Co  Co100  1  0.37709574  0.62787078  0.87469819  1
  Co  Co101  1  0.37578218  0.37224125  0.88099866  1
  Co  Co102  1  0.49473205  0.49599303  0.75054510  1
  Co  Co103  1  0.62689878  0.12310826  0.12921911  1
  Co  Co104  1  0.00465323  0.00279483  -0.00073651  1
  Co  Co105  1  -0.00014324  0.24671538  0.50604083  1
  Co  Co106  1  0.50305971  0.00325831  0.00022484  1
  Co  Co107  1  0.37263293  0.12139371  0.12520959  1
  Co  Co108  1  0.87366297  0.87912174  0.62212585  1
  Co  Co109  1  0.62191606  0.87179485  0.87572539  1
  Co  Co110  1  0.75428671  -0.00005668  0.25166422  1
  Co  Co111  1  0.37949962  0.37857862  0.12550174  1
  Co  Co112  1  0.00060599  0.50097815  0.50082055  1
  Co  Co113  1  0.75015032  0.74960515  0.50056116  1
  Co  Co114  1  0.12499226  0.62423424  0.12649021  1
  Co  Co115  1  0.12412270  0.12899117  0.37126957  1
  Co  Co116  1  0.50062754  0.50263030  0.25372940  1
  Co  Co117  1  0.75224075  0.50102292  0.75094858  1
  Co  Co118  1  0.12604930  0.62461734  0.87130925  1
  Co  Co119  1  -0.00285290  0.24932412  0.24409092  1
  Co  Co120  1  -0.00309267  0.75240513  0.74954611  1
  Co  Co121  1  0.87243499  0.12314823  0.12024455  1
  Co  Co122  1  0.49668438  0.24547661  0.24930636  1
  Co  Co123  1  0.37371534  0.37353292  0.61920356  1
  Co  Co124  1  0.50216995  -0.00219000  0.74934908  1
  Co  Co125  1  0.24686747  0.00128129  0.49904214  1
  Co  Co126  1  0.62094585  0.12967260  0.87036145  1
  Co  Co127  1  0.12562387  0.37392629  0.12213528  1
