# generated using pymatgen
data_Fe45Co19
_symmetry_space_group_name_H-M   'P 1'
_cell_length_a   11.41581883
_cell_length_b   11.41668152
_cell_length_c   11.41653884
_cell_angle_alpha   89.99718566
_cell_angle_beta   90.00286662
_cell_angle_gamma   90.00678863
_symmetry_Int_Tables_number   1
_chemical_formula_structural   Fe45Co19
_chemical_formula_sum   'Fe90 Co38'
_cell_volume   1487.92625909
_cell_formula_units_Z   2
loop_
 _symmetry_equiv_pos_site_id
 _symmetry_equiv_pos_as_xyz
  1  'x, y, z'
loop_
 _atom_site_type_symbol
 _atom_site_label
 _atom_site_symmetry_multiplicity
 _atom_site_fract_x
 _atom_site_fract_y
 _atom_site_fract_z
 _atom_site_occupancy
  Fe  Fe0  1  0.37718837  0.87336926  0.62515161  1
  Fe  Fe1  1  0.49751113  0.00255799  0.24751902  1
  Fe  Fe2  1  0.75132393  0.25012926  0.25046037  1
  Fe  Fe3  1  0.87473155  0.87592698  0.62617694  1
  Fe  Fe4  1  0.00187932  0.50096421  0.50273593  1
  Fe  Fe5  1  0.24689280  0.50022809  0.50421750  1
  Fe  Fe6  1  0.49747975  0.74919124  -0.00218349  1
  Fe  Fe7  1  0.74922952  0.25028511  0.00141165  1
  Fe  Fe8  1  0.24857101  -0.00135593  0.50361379  1
  Fe  Fe9  1  0.00224217  0.00083679  0.50254858  1
  Fe  Fe10  1  0.24991968  -0.00351273  -0.00208764  1
  Fe  Fe11  1  0.87904533  0.37487218  0.12333622  1
  Fe  Fe12  1  0.74466488  0.75207932  0.49856443  1
  Fe  Fe13  1  0.12377386  0.87410766  0.87186368  1
  Fe  Fe14  1  0.50576942  0.75149542  0.49947207  1
  Fe  Fe15  1  0.62476135  0.37851193  0.37022696  1
  Fe  Fe16  1  0.49771891  0.24826010  0.00119636  1
  Fe  Fe17  1  -0.00011137  0.75043635  0.50042564  1
  Fe  Fe18  1  0.25380285  0.74928522  0.75175788  1
  Fe  Fe19  1  0.87433541  0.37177363  0.62353348  1
  Fe  Fe20  1  0.75057987  0.00120941  0.24786159  1
  Fe  Fe21  1  0.74969614  0.75059197  -0.00002876  1
  Fe  Fe22  1  0.24653560  -0.00309930  0.25153756  1
  Fe  Fe23  1  0.74803126  -0.00108089  0.49924487  1
  Fe  Fe24  1  0.75100128  0.49850544  0.00062394  1
  Fe  Fe25  1  0.37630126  0.62489702  0.37781277  1
  Fe  Fe26  1  0.62280761  0.87884837  0.87735169  1
  Fe  Fe27  1  0.25109947  0.50119384  0.74561006  1
  Fe  Fe28  1  0.36905246  0.37242011  0.12408951  1
  Fe  Fe29  1  0.87786515  0.12547924  0.12313422  1
  Fe  Fe30  1  0.62428590  0.37573084  0.12770947  1
  Fe  Fe31  1  0.36779939  0.12734646  0.12484484  1
  Fe  Fe32  1  0.87589559  0.87595375  0.87468398  1
  Fe  Fe33  1  0.37240725  0.62685931  0.12401088  1
  Fe  Fe34  1  0.62368046  0.37486565  0.87386483  1
  Fe  Fe35  1  0.62697847  0.12593887  0.62372822  1
  Fe  Fe36  1  0.75185405  0.24746936  0.75103725  1
  Fe  Fe37  1  0.12326222  0.62689308  0.87392633  1
  Fe  Fe38  1  0.00707441  0.24981321  0.00057734  1
  Fe  Fe39  1  0.87769400  0.87396079  0.12564957  1
  Fe  Fe40  1  0.49679959  0.24931774  0.24968228  1
  Fe  Fe41  1  0.87575503  0.87590246  0.37485906  1
  Fe  Fe42  1  0.24712428  0.50111552  -0.00090808  1
  Fe  Fe43  1  0.62309218  0.87761735  0.12371020  1
  Fe  Fe44  1  0.37096010  0.12548252  0.37744865  1
  Fe  Fe45  1  -0.00241813  0.24525142  0.74800072  1
  Fe  Fe46  1  0.00782679  0.24918718  0.24957144  1
  Fe  Fe47  1  0.37185068  0.12391198  0.87338410  1
  Fe  Fe48  1  0.62511122  0.12293942  0.87998764  1
  Fe  Fe49  1  0.12288407  0.87371487  0.62842202  1
  Fe  Fe50  1  0.37099726  0.37462497  0.37699521  1
  Fe  Fe51  1  0.12473904  0.63193899  0.12388196  1
  Fe  Fe52  1  0.37366543  0.37639522  0.87453437  1
  Fe  Fe53  1  0.49879800  0.50045712  0.74589288  1
  Fe  Fe54  1  0.12496924  0.37532653  0.87085031  1
  Fe  Fe55  1  0.49942487  0.74893871  0.25209615  1
  Fe  Fe56  1  0.87792925  0.37414484  0.87734443  1
  Fe  Fe57  1  0.74813064  0.49815548  0.50039023  1
  Fe  Fe58  1  0.00436292  0.24799135  0.50157677  1
  Fe  Fe59  1  0.12739094  0.12326379  0.86995132  1
  Fe  Fe60  1  0.87279231  0.62705202  0.62445113  1
  Fe  Fe61  1  0.49906444  0.74845163  0.75104256  1
  Fe  Fe62  1  0.74910086  0.74937380  0.25104521  1
  Fe  Fe63  1  0.24934387  0.75097275  0.49982949  1
  Fe  Fe64  1  0.87705300  0.12524966  0.37616060  1
  Fe  Fe65  1  0.75336862  0.00373176  0.75151434  1
  Fe  Fe66  1  0.75131072  0.49865762  0.74942011  1
  Fe  Fe67  1  -0.00175420  0.50243723  0.74815557  1
  Fe  Fe68  1  0.50298495  0.49962796  0.50283085  1
  Fe  Fe69  1  0.74933890  0.75077768  0.75109635  1
  Fe  Fe70  1  0.00184554  -0.00158490  -0.00046686  1
  Fe  Fe71  1  0.62422170  0.62195828  0.12786513  1
  Fe  Fe72  1  0.87585940  0.62464203  0.87701960  1
  Fe  Fe73  1  0.12441235  0.62669758  0.37524310  1
  Fe  Fe74  1  0.24628513  0.25031074  0.50485295  1
  Fe  Fe75  1  0.00549574  -0.00170221  0.24998382  1
  Fe  Fe76  1  0.37223290  0.87239268  0.12401720  1
  Fe  Fe77  1  0.49890425  0.49876172  0.00180878  1
  Fe  Fe78  1  0.62486143  0.12369176  0.37248925  1
  Fe  Fe79  1  0.49800669  0.00177854  0.74853850  1
  Fe  Fe80  1  0.00242095  0.50021981  0.24854255  1
  Fe  Fe81  1  0.50173670  -0.00100232  0.50077863  1
  Fe  Fe82  1  0.62410579  0.62258142  0.87442913  1
  Fe  Fe83  1  0.37531128  0.87571075  0.37541230  1
  Fe  Fe84  1  0.50228038  0.25109239  0.50051513  1
  Fe  Fe85  1  0.24931912  0.50118842  0.25073479  1
  Fe  Fe86  1  0.87771007  0.62595804  0.12392768  1
  Fe  Fe87  1  0.87416010  0.62537220  0.37509614  1
  Fe  Fe88  1  0.49757790  0.24908019  0.74836214  1
  Fe  Fe89  1  0.87872754  0.37431602  0.37529591  1
  Co  Co90  1  0.24604113  0.25029427  0.25281207  1
  Co  Co91  1  0.12226758  0.37480866  0.62824282  1
  Co  Co92  1  0.37491525  0.12481037  0.62288226  1
  Co  Co93  1  -0.00266191  0.74852731  0.74994298  1
  Co  Co94  1  0.25299579  0.25178408  0.74726784  1
  Co  Co95  1  0.24741850  0.25019111  -0.00519905  1
  Co  Co96  1  0.87628428  0.12699909  0.88182607  1
  Co  Co97  1  0.75339852  -0.00100441  0.00148663  1
  Co  Co98  1  0.12439865  0.87460629  0.37722014  1
  Co  Co99  1  0.12497384  0.62880100  0.62639228  1
  Co  Co100  1  0.25033530  0.75057638  0.25426824  1
  Co  Co101  1  0.49457601  0.00289702  0.00315306  1
  Co  Co102  1  0.37599891  0.62035557  0.87476512  1
  Co  Co103  1  0.74721312  0.25194105  0.49573438  1
  Co  Co104  1  0.25230696  0.75055556  -0.00601343  1
  Co  Co105  1  0.62421401  0.87786612  0.36970080  1
  Co  Co106  1  0.75534370  0.49924740  0.24887029  1
  Co  Co107  1  0.12839076  0.37507032  0.12487118  1
  Co  Co108  1  0.62458248  0.62107262  0.37205841  1
  Co  Co109  1  0.00300870  0.50080053  0.00009022  1
  Co  Co110  1  0.62626562  0.12484409  0.12410899  1
  Co  Co111  1  0.62553971  0.87664535  0.62978693  1
  Co  Co112  1  -0.00470981  0.00309072  0.74985817  1
  Co  Co113  1  0.12694061  0.12326842  0.62982374  1
  Co  Co114  1  0.62614930  0.62583161  0.62670168  1
  Co  Co115  1  0.12715061  0.12357290  0.37705663  1
  Co  Co116  1  0.12651689  0.87019260  0.12332574  1
  Co  Co117  1  0.37852731  0.87740280  0.87450097  1
  Co  Co118  1  0.62638916  0.37302855  0.62802620  1
  Co  Co119  1  -0.00166897  0.75163156  -0.00268233  1
  Co  Co120  1  0.87261738  0.12586399  0.61946016  1
  Co  Co121  1  0.37636988  0.62692225  0.62232688  1
  Co  Co122  1  0.00033170  0.75127493  0.25306763  1
  Co  Co123  1  0.49302281  0.49854276  0.24879944  1
  Co  Co124  1  0.37537764  0.37503905  0.62316366  1
  Co  Co125  1  0.25287926  -0.00328273  0.74780499  1
  Co  Co126  1  0.12552318  0.37664899  0.37614136  1
  Co  Co127  1  0.12867259  0.12257042  0.12348199  1
