# generated using pymatgen
data_Fe45Co19
_symmetry_space_group_name_H-M   'P 1'
_cell_length_a   11.41528185
_cell_length_b   11.41503565
_cell_length_c   11.41510102
_cell_angle_alpha   90.00552733
_cell_angle_beta   90.01326066
_cell_angle_gamma   89.99166079
_symmetry_Int_Tables_number   1
_chemical_formula_structural   Fe45Co19
_chemical_formula_sum   'Fe90 Co38'
_cell_volume   1487.45437053
_cell_formula_units_Z   2
loop_
 _symmetry_equiv_pos_site_id
 _symmetry_equiv_pos_as_xyz
  1  'x, y, z'
loop_
 _atom_site_type_symbol
 _atom_site_label
 _atom_site_symmetry_multiplicity
 _atom_site_fract_x
 _atom_site_fract_y
 _atom_site_fract_z
 _atom_site_occupancy
  Fe  Fe0  1  0.25025733  -0.00062650  0.75320528  1
  Fe  Fe1  1  0.12354230  0.87684556  0.12116249  1
  Fe  Fe2  1  0.87310154  0.12454815  0.37659850  1
  Fe  Fe3  1  -0.00031480  0.49876389  0.49890521  1
  Fe  Fe4  1  0.37647055  0.62510893  0.37495259  1
  Fe  Fe5  1  0.25015778  -0.00212010  0.25015245  1
  Fe  Fe6  1  0.00020498  0.49953989  0.74773805  1
  Fe  Fe7  1  0.62456402  0.37485270  0.62483170  1
  Fe  Fe8  1  0.49787289  0.00024922  -0.00148748  1
  Fe  Fe9  1  0.00120896  -0.00059532  0.50246774  1
  Fe  Fe10  1  0.49994776  0.74724321  0.50586379  1
  Fe  Fe11  1  0.62677456  0.87574792  0.12332848  1
  Fe  Fe12  1  -0.00315966  0.74756487  -0.00267484  1
  Fe  Fe13  1  0.50193777  0.24790856  0.74957152  1
  Fe  Fe14  1  0.49801740  0.00175629  0.50092809  1
  Fe  Fe15  1  0.12467119  0.62899088  0.62307290  1
  Fe  Fe16  1  0.25028704  0.49999325  0.74976780  1
  Fe  Fe17  1  0.75053054  0.75115872  0.50092658  1
  Fe  Fe18  1  0.50224983  0.50122625  0.24833423  1
  Fe  Fe19  1  -0.00202815  0.50203415  0.00024398  1
  Fe  Fe20  1  0.37632013  0.87561505  0.37639407  1
  Fe  Fe21  1  0.25170364  0.25235303  0.25199448  1
  Fe  Fe22  1  0.11821272  0.87967306  0.87490967  1
  Fe  Fe23  1  0.62634642  0.37186746  0.87741756  1
  Fe  Fe24  1  0.62551352  0.12309819  0.37610681  1
  Fe  Fe25  1  0.12407170  0.62685532  0.37747837  1
  Fe  Fe26  1  0.75034335  0.75387610  0.75031142  1
  Fe  Fe27  1  0.62571452  0.62640779  0.87182097  1
  Fe  Fe28  1  0.75095521  0.49993788  0.00145492  1
  Fe  Fe29  1  0.87712939  0.87625164  0.62857640  1
  Fe  Fe30  1  0.37320379  0.62783444  0.12215270  1
  Fe  Fe31  1  0.87405490  0.12316603  0.87155983  1
  Fe  Fe32  1  0.75071897  0.49575320  0.75087089  1
  Fe  Fe33  1  0.49970094  0.24872181  0.24944225  1
  Fe  Fe34  1  0.49932602  -0.00067257  0.24734689  1
  Fe  Fe35  1  0.62300050  0.87437121  0.37717112  1
  Fe  Fe36  1  0.00088238  0.24559429  0.00091832  1
  Fe  Fe37  1  0.37073249  0.12474271  0.12287785  1
  Fe  Fe38  1  0.49924044  0.24941508  0.00002587  1
  Fe  Fe39  1  0.24754478  0.75168497  0.75238233  1
  Fe  Fe40  1  0.74938427  0.50004850  0.49833123  1
  Fe  Fe41  1  0.50002231  0.75095201  0.24773630  1
  Fe  Fe42  1  0.12319182  0.37367295  0.87441748  1
  Fe  Fe43  1  0.86954734  0.12377748  0.62475639  1
  Fe  Fe44  1  0.74850413  -0.00081175  0.25171579  1
  Fe  Fe45  1  0.25615441  0.24903799  0.49893415  1
  Fe  Fe46  1  0.12453069  0.37420146  0.12395075  1
  Fe  Fe47  1  0.12406270  0.62564563  0.12412627  1
  Fe  Fe48  1  0.74900794  0.75042268  0.25094211  1
  Fe  Fe49  1  0.62882462  0.12185817  0.62574308  1
  Fe  Fe50  1  0.87373955  0.37312012  0.62359719  1
  Fe  Fe51  1  0.87428024  0.12415387  0.12801785  1
  Fe  Fe52  1  0.25295276  0.49962923  0.50094297  1
  Fe  Fe53  1  0.49776590  0.24763333  0.50123595  1
  Fe  Fe54  1  0.87561458  0.87539609  0.12338315  1
  Fe  Fe55  1  0.87463037  0.62521573  0.62784067  1
  Fe  Fe56  1  0.12889094  0.12454011  0.62449707  1
  Fe  Fe57  1  0.49944974  0.00020694  0.75304344  1
  Fe  Fe58  1  0.50064897  0.50173398  -0.00073298  1
  Fe  Fe59  1  0.24849905  0.49950247  0.25126168  1
  Fe  Fe60  1  0.62287496  0.37560509  0.37567460  1
  Fe  Fe61  1  0.00145813  0.25172260  0.25286239  1
  Fe  Fe62  1  0.37501727  0.37336610  0.87358462  1
  Fe  Fe63  1  0.62657848  0.12491181  0.12172042  1
  Fe  Fe64  1  0.25093270  0.49968700  -0.00170422  1
  Fe  Fe65  1  0.87573692  0.87601285  0.37432359  1
  Fe  Fe66  1  0.87672576  0.37354361  0.87489681  1
  Fe  Fe67  1  0.62198118  0.87382198  0.87468652  1
  Fe  Fe68  1  0.37289889  0.87547300  0.62569793  1
  Fe  Fe69  1  0.12730520  0.12488480  0.37507554  1
  Fe  Fe70  1  0.37535226  0.37584274  0.12468669  1
  Fe  Fe71  1  0.87517421  0.62260964  0.37124268  1
  Fe  Fe72  1  0.87515364  0.37718587  0.12825322  1
  Fe  Fe73  1  0.49891255  0.50312617  0.50420360  1
  Fe  Fe74  1  0.37686606  0.63036564  0.87503797  1
  Fe  Fe75  1  0.74791230  0.25184948  0.25053098  1
  Fe  Fe76  1  0.25072018  0.24959243  0.75171089  1
  Fe  Fe77  1  -0.00047209  0.24786772  0.74778993  1
  Fe  Fe78  1  0.12725421  0.37360129  0.62361630  1
  Fe  Fe79  1  0.12254746  0.62301699  0.87448260  1
  Fe  Fe80  1  0.62701322  0.62628241  0.12504429  1
  Fe  Fe81  1  0.00150372  0.00002462  0.24984864  1
  Fe  Fe82  1  0.24958262  0.75068496  0.25049159  1
  Fe  Fe83  1  0.12521351  0.87393573  0.37917576  1
  Fe  Fe84  1  0.49935273  0.50150062  0.74912986  1
  Fe  Fe85  1  0.00052505  0.75030880  0.24963996  1
  Fe  Fe86  1  0.75273229  0.74958932  -0.00251610  1
  Fe  Fe87  1  0.75151707  -0.00000588  -0.00340242  1
  Fe  Fe88  1  -0.00156897  0.25027897  0.49939550  1
  Fe  Fe89  1  0.37225503  0.87247223  0.11921604  1
  Co  Co90  1  0.37411359  0.12327924  0.62776534  1
  Co  Co91  1  0.37565325  0.37407925  0.62713643  1
  Co  Co92  1  0.62383567  0.62716480  0.37642001  1
  Co  Co93  1  0.87334321  0.62327033  0.87134746  1
  Co  Co94  1  0.24805602  0.25134923  -0.00132900  1
  Co  Co95  1  0.75403312  0.24947633  0.00059679  1
  Co  Co96  1  0.37127998  0.62641952  0.62827858  1
  Co  Co97  1  0.37793962  0.87042608  0.87667775  1
  Co  Co98  1  -0.00092532  0.00590762  0.00268480  1
  Co  Co99  1  0.87329672  0.37658556  0.37366994  1
  Co  Co100  1  0.37833921  0.37688933  0.37551518  1
  Co  Co101  1  0.00463152  0.49846231  0.25213528  1
  Co  Co102  1  0.50125623  0.75025684  0.74433399  1
  Co  Co103  1  0.00067862  0.74811858  0.75172041  1
  Co  Co104  1  0.12708774  0.37356640  0.37889701  1
  Co  Co105  1  -0.00408089  0.75085765  0.50015264  1
  Co  Co106  1  0.37493253  0.12271240  0.37277191  1
  Co  Co107  1  0.62966645  0.62398155  0.62809934  1
  Co  Co108  1  0.37481637  0.12746800  0.87592930  1
  Co  Co109  1  0.62629095  0.12640296  0.87655301  1
  Co  Co110  1  0.74742755  -0.00258169  0.75268031  1
  Co  Co111  1  0.87512029  0.62438573  0.12872562  1
  Co  Co112  1  0.12829524  0.12538290  0.12782091  1
  Co  Co113  1  0.88037380  0.87891362  0.87376207  1
  Co  Co114  1  0.00157580  0.00410564  0.74465640  1
  Co  Co115  1  0.62401153  0.87808607  0.62356281  1
  Co  Co116  1  0.74941922  0.25111729  0.74986573  1
  Co  Co117  1  0.74831847  0.25135095  0.49943072  1
  Co  Co118  1  0.50327156  0.74894706  0.00218581  1
  Co  Co119  1  0.75118762  -0.00350133  0.49883785  1
  Co  Co120  1  0.12455710  0.12458137  0.87423722  1
  Co  Co121  1  0.62426644  0.37335904  0.12267097  1
  Co  Co122  1  0.25315941  0.75063714  0.49906040  1
  Co  Co123  1  0.12552478  0.87273757  0.62411999  1
  Co  Co124  1  0.24990362  0.00036429  -0.00359325  1
  Co  Co125  1  0.24973157  -0.00003750  0.49961654  1
  Co  Co126  1  0.74523336  0.49894246  0.24953131  1
  Co  Co127  1  0.24460959  0.75070263  -0.00376606  1
