# generated using pymatgen
data_Fe45Co19
_symmetry_space_group_name_H-M   'P 1'
_cell_length_a   11.41638960
_cell_length_b   11.41464843
_cell_length_c   11.41448955
_cell_angle_alpha   89.99318009
_cell_angle_beta   89.99367016
_cell_angle_gamma   89.99679166
_symmetry_Int_Tables_number   1
_chemical_formula_structural   Fe45Co19
_chemical_formula_sum   'Fe90 Co38'
_cell_volume   1487.46860920
_cell_formula_units_Z   2
loop_
 _symmetry_equiv_pos_site_id
 _symmetry_equiv_pos_as_xyz
  1  'x, y, z'
loop_
 _atom_site_type_symbol
 _atom_site_label
 _atom_site_symmetry_multiplicity
 _atom_site_fract_x
 _atom_site_fract_y
 _atom_site_fract_z
 _atom_site_occupancy
  Fe  Fe0  1  0.12292441  0.37415607  0.12156787  1
  Fe  Fe1  1  0.62957442  0.12629701  0.87497525  1
  Fe  Fe2  1  0.37627285  0.12609913  0.62384973  1
  Fe  Fe3  1  0.50247350  0.49793504  0.49693409  1
  Fe  Fe4  1  0.49977401  0.49613582  0.25032734  1
  Fe  Fe5  1  -0.00361405  0.25231501  0.75271195  1
  Fe  Fe6  1  0.12825105  0.87474146  0.12794938  1
  Fe  Fe7  1  0.75202826  0.25080243  0.24836382  1
  Fe  Fe8  1  0.37526642  0.12540411  0.37505154  1
  Fe  Fe9  1  0.62451271  0.87333684  0.87455507  1
  Fe  Fe10  1  0.37684185  0.62493614  0.62573175  1
  Fe  Fe11  1  0.12958138  0.62586156  0.87436080  1
  Fe  Fe12  1  0.24879979  -0.00092231  0.74738462  1
  Fe  Fe13  1  0.74951745  0.74963516  -0.00019662  1
  Fe  Fe14  1  0.37182886  0.87639517  0.12735351  1
  Fe  Fe15  1  0.49712116  0.74999455  0.00029655  1
  Fe  Fe16  1  0.74752331  0.50819003  0.49955765  1
  Fe  Fe17  1  0.50182028  -0.00057491  0.49954519  1
  Fe  Fe18  1  0.87392956  0.87468654  0.12795292  1
  Fe  Fe19  1  -0.00307063  0.74812374  0.49798747  1
  Fe  Fe20  1  0.50212884  0.74927327  0.49940685  1
  Fe  Fe21  1  0.75134239  -0.00128837  0.49830666  1
  Fe  Fe22  1  0.37703964  0.37422941  0.11753331  1
  Fe  Fe23  1  0.87596496  0.12539613  0.62626192  1
  Fe  Fe24  1  0.62171860  0.62633079  0.12612362  1
  Fe  Fe25  1  0.37123730  0.62356653  0.87535085  1
  Fe  Fe26  1  0.87306098  0.37797314  0.37588364  1
  Fe  Fe27  1  0.12691717  0.37339522  0.37649045  1
  Fe  Fe28  1  0.62450143  0.12594313  0.62518146  1
  Fe  Fe29  1  0.62470839  0.37457137  0.12177592  1
  Fe  Fe30  1  0.62857824  0.37269322  0.87704098  1
  Fe  Fe31  1  0.87506059  0.37819167  0.62520514  1
  Fe  Fe32  1  -0.00366307  0.25009666  -0.00358535  1
  Fe  Fe33  1  0.49677443  0.75151699  0.25004783  1
  Fe  Fe34  1  0.50058773  0.00047014  0.00159288  1
  Fe  Fe35  1  0.74909946  0.50278327  0.74886695  1
  Fe  Fe36  1  0.87688042  0.62481779  0.12518534  1
  Fe  Fe37  1  0.12381084  0.12335286  0.87431766  1
  Fe  Fe38  1  0.87643585  0.37809249  0.12159528  1
  Fe  Fe39  1  0.87545172  0.87448009  0.87428293  1
  Fe  Fe40  1  0.62322306  0.62716087  0.87320268  1
  Fe  Fe41  1  0.12765554  0.37775347  0.87680665  1
  Fe  Fe42  1  0.12414138  0.12835286  0.37665059  1
  Fe  Fe43  1  0.00252683  0.75093432  -0.00057505  1
  Fe  Fe44  1  0.00175101  0.50049101  0.75019569  1
  Fe  Fe45  1  0.00147393  0.50045963  0.24900139  1
  Fe  Fe46  1  0.12479316  0.87303141  0.37337853  1
  Fe  Fe47  1  0.12430604  0.12557263  0.12605148  1
  Fe  Fe48  1  0.24853641  0.49859732  0.50262466  1
  Fe  Fe49  1  0.25103471  0.49921229  0.24669481  1
  Fe  Fe50  1  0.75121110  0.24989558  0.50108307  1
  Fe  Fe51  1  -0.00104244  -0.00039061  0.25267427  1
  Fe  Fe52  1  0.37544991  0.62312595  0.37393772  1
  Fe  Fe53  1  0.62611958  0.87016479  0.62694745  1
  Fe  Fe54  1  0.87533003  0.12342778  0.12525579  1
  Fe  Fe55  1  -0.00264970  0.25110151  0.25241898  1
  Fe  Fe56  1  0.62622432  0.12723632  0.37440965  1
  Fe  Fe57  1  0.24952341  0.00264492  0.00229442  1
  Fe  Fe58  1  0.62731259  0.87321893  0.37410795  1
  Fe  Fe59  1  0.37618938  0.87474314  0.62441867  1
  Fe  Fe60  1  0.12465024  0.62653288  0.62707385  1
  Fe  Fe61  1  0.12318465  0.12876498  0.62375285  1
  Fe  Fe62  1  0.50060351  -0.00132752  0.25004704  1
  Fe  Fe63  1  0.37146239  0.87593544  0.87471084  1
  Fe  Fe64  1  0.12440583  0.87277059  0.62521148  1
  Fe  Fe65  1  0.74887430  -0.00090059  0.00242130  1
  Fe  Fe66  1  0.50107148  0.25076192  0.75155221  1
  Fe  Fe67  1  0.75002135  -0.00156700  0.74907871  1
  Fe  Fe68  1  0.12448560  0.62473055  0.37333938  1
  Fe  Fe69  1  0.50033829  0.00003018  0.75067675  1
  Fe  Fe70  1  0.24947376  0.00029127  0.49883875  1
  Fe  Fe71  1  0.25178518  0.25043625  0.24758576  1
  Fe  Fe72  1  0.49799440  0.49771957  0.75341499  1
  Fe  Fe73  1  0.25122509  0.74949585  0.49847750  1
  Fe  Fe74  1  0.37403225  0.12676994  0.87651509  1
  Fe  Fe75  1  0.62449072  0.12572801  0.12539685  1
  Fe  Fe76  1  0.00159530  0.49924725  0.50066425  1
  Fe  Fe77  1  -0.00005289  -0.00248416  0.74975998  1
  Fe  Fe78  1  0.74888728  0.50229366  0.00084099  1
  Fe  Fe79  1  0.49914691  0.25317558  0.25210075  1
  Fe  Fe80  1  0.25035268  0.25249811  0.75053071  1
  Fe  Fe81  1  0.00005965  -0.00154479  -0.00045695  1
  Fe  Fe82  1  0.87622581  0.62476455  0.87418940  1
  Fe  Fe83  1  0.74888554  0.50150957  0.24962110  1
  Fe  Fe84  1  0.62454747  0.37542782  0.62383754  1
  Fe  Fe85  1  0.87319925  0.86899513  0.62469671  1
  Fe  Fe86  1  0.12646143  0.62685874  0.12507123  1
  Fe  Fe87  1  0.37540236  0.37391042  0.62347114  1
  Fe  Fe88  1  0.75147469  0.74803926  0.25223732  1
  Fe  Fe89  1  -0.00235759  0.00018315  0.49842862  1
  Co  Co90  1  0.00213810  0.75053863  0.75295408  1
  Co  Co91  1  0.24724211  0.24817104  0.00087634  1
  Co  Co92  1  0.62963273  0.37488410  0.37580890  1
  Co  Co93  1  0.24908232  0.00228024  0.25302493  1
  Co  Co94  1  0.50220740  0.50178830  -0.00289001  1
  Co  Co95  1  0.12378046  0.37172811  0.62492136  1
  Co  Co96  1  0.25087796  0.75105070  0.74751051  1
  Co  Co97  1  0.62020320  0.62573647  0.62897756  1
  Co  Co98  1  0.87775303  0.62580187  0.62672851  1
  Co  Co99  1  0.74868904  0.00029018  0.24984824  1
  Co  Co100  1  0.12828471  0.87624030  0.87545989  1
  Co  Co101  1  0.62095420  0.62512969  0.37003386  1
  Co  Co102  1  0.75149247  0.25107359  0.74777466  1
  Co  Co103  1  0.37097096  0.37671542  0.37624936  1
  Co  Co104  1  0.37793046  0.62325095  0.12618427  1
  Co  Co105  1  0.50236413  0.24732251  -0.00247695  1
  Co  Co106  1  0.87380470  0.87328306  0.37368564  1
  Co  Co107  1  0.25160976  0.24981567  0.50071439  1
  Co  Co108  1  0.00040880  0.74967180  0.24839704  1
  Co  Co109  1  0.37646644  0.12554173  0.12598620  1
  Co  Co110  1  0.74860735  0.74362924  0.49847969  1
  Co  Co111  1  0.37294457  0.37408589  0.87973965  1
  Co  Co112  1  0.25106219  0.74964025  0.00225391  1
  Co  Co113  1  0.75361221  0.24978514  0.00209134  1
  Co  Co114  1  0.00129866  0.50288668  -0.00083159  1
  Co  Co115  1  0.37522562  0.87520244  0.37582091  1
  Co  Co116  1  0.87234989  0.37945150  0.87570730  1
  Co  Co117  1  0.49662655  0.75085414  0.75215246  1
  Co  Co118  1  0.25090827  0.49815342  0.74694622  1
  Co  Co119  1  0.87837451  0.62304956  0.37312645  1
  Co  Co120  1  0.87280454  0.12173969  0.87420102  1
  Co  Co121  1  0.62496139  0.87193772  0.12591939  1
  Co  Co122  1  0.24966938  0.50105680  0.00343854  1
  Co  Co123  1  -0.00383252  0.25186086  0.49886839  1
  Co  Co124  1  0.50002699  0.25131292  0.49783061  1
  Co  Co125  1  0.75038595  0.74745587  0.75058564  1
  Co  Co126  1  0.25161536  0.74771534  0.25165571  1
  Co  Co127  1  0.87343643  0.12465305  0.37445579  1
