# generated using pymatgen
data_Fe45Co19
_symmetry_space_group_name_H-M   'P 1'
_cell_length_a   11.41328289
_cell_length_b   11.41489273
_cell_length_c   11.41425220
_cell_angle_alpha   90.00978152
_cell_angle_beta   90.01278157
_cell_angle_gamma   89.99570080
_symmetry_Int_Tables_number   1
_chemical_formula_structural   Fe45Co19
_chemical_formula_sum   'Fe90 Co38'
_cell_volume   1487.06469107
_cell_formula_units_Z   2
loop_
 _symmetry_equiv_pos_site_id
 _symmetry_equiv_pos_as_xyz
  1  'x, y, z'
loop_
 _atom_site_type_symbol
 _atom_site_label
 _atom_site_symmetry_multiplicity
 _atom_site_fract_x
 _atom_site_fract_y
 _atom_site_fract_z
 _atom_site_occupancy
  Fe  Fe0  1  0.12372801  0.62211988  0.87188680  1
  Fe  Fe1  1  0.62523961  0.12490069  0.37715477  1
  Fe  Fe2  1  0.12385911  0.37767549  0.62671981  1
  Fe  Fe3  1  0.37643804  0.62544718  0.12410994  1
  Fe  Fe4  1  0.12437705  0.62634939  0.12583307  1
  Fe  Fe5  1  0.74709105  -0.00021545  0.50436297  1
  Fe  Fe6  1  0.62462937  0.62417096  0.37875372  1
  Fe  Fe7  1  0.37797115  0.12842070  0.62429671  1
  Fe  Fe8  1  0.87359084  0.87604467  0.37657454  1
  Fe  Fe9  1  0.25112936  0.49993913  0.00087724  1
  Fe  Fe10  1  0.87825554  0.37389068  0.62511935  1
  Fe  Fe11  1  0.87413135  0.12422411  0.37699636  1
  Fe  Fe12  1  0.74806206  0.00106955  0.24825381  1
  Fe  Fe13  1  0.25150639  0.25217254  0.75163907  1
  Fe  Fe14  1  0.37791113  0.37976393  0.87497972  1
  Fe  Fe15  1  0.86926506  0.12483485  0.12001033  1
  Fe  Fe16  1  0.62689037  0.87269914  0.37873400  1
  Fe  Fe17  1  0.87344227  0.87596750  0.12259486  1
  Fe  Fe18  1  0.25390005  0.50065915  0.74795031  1
  Fe  Fe19  1  0.25050478  0.74759350  0.75205913  1
  Fe  Fe20  1  0.62742349  0.12836905  0.87335031  1
  Fe  Fe21  1  0.37455976  0.12387094  0.87522138  1
  Fe  Fe22  1  0.24959490  -0.00018956  0.24921301  1
  Fe  Fe23  1  0.74917298  0.49862237  0.74661516  1
  Fe  Fe24  1  0.50281434  0.00055835  -0.00112475  1
  Fe  Fe25  1  0.62279992  0.87471538  0.86960056  1
  Fe  Fe26  1  0.12269398  0.87981659  0.87291916  1
  Fe  Fe27  1  0.75027246  0.49896740  0.50225493  1
  Fe  Fe28  1  -0.00029139  0.75073751  0.25074182  1
  Fe  Fe29  1  0.00187582  0.25096137  0.49802216  1
  Fe  Fe30  1  -0.00122617  0.49965903  0.24992752  1
  Fe  Fe31  1  0.62273278  0.37687425  0.87173019  1
  Fe  Fe32  1  0.25049822  -0.00124175  0.00074215  1
  Fe  Fe33  1  0.12421658  0.37662788  0.37490770  1
  Fe  Fe34  1  0.49827138  0.50141896  0.50555553  1
  Fe  Fe35  1  0.49901182  0.74958392  0.25219181  1
  Fe  Fe36  1  0.00190494  0.00037206  0.50190505  1
  Fe  Fe37  1  0.87618502  0.88090937  0.87372919  1
  Fe  Fe38  1  0.50260847  0.50028379  0.24708295  1
  Fe  Fe39  1  0.00079277  0.74766924  0.50050499  1
  Fe  Fe40  1  0.37395582  0.87550455  0.37647024  1
  Fe  Fe41  1  0.74799972  0.25149998  0.49924682  1
  Fe  Fe42  1  0.12662251  0.12610889  0.62511559  1
  Fe  Fe43  1  0.37396518  0.12237896  0.37696535  1
  Fe  Fe44  1  0.50185071  -0.00015517  0.24960423  1
  Fe  Fe45  1  0.50059672  0.25309782  0.00003091  1
  Fe  Fe46  1  0.00039182  0.24755970  -0.00429186  1
  Fe  Fe47  1  0.25035456  0.74941726  -0.00274618  1
  Fe  Fe48  1  -0.00106734  0.50013363  -0.00235447  1
  Fe  Fe49  1  0.37635855  0.37837287  0.37619038  1
  Fe  Fe50  1  0.74728105  0.00243018  0.74670086  1
  Fe  Fe51  1  0.12717250  0.87571339  0.37552577  1
  Fe  Fe52  1  0.25079571  0.25219636  -0.00179566  1
  Fe  Fe53  1  0.50007769  0.74844591  -0.00248903  1
  Fe  Fe54  1  0.87246816  0.37409040  0.12631230  1
  Fe  Fe55  1  0.87488782  0.87400121  0.62571876  1
  Fe  Fe56  1  0.62033303  0.36960333  0.62587460  1
  Fe  Fe57  1  0.25239294  -0.00030407  0.74728051  1
  Fe  Fe58  1  0.50074945  0.25060132  0.25329124  1
  Fe  Fe59  1  0.12654712  0.12647770  0.12335236  1
  Fe  Fe60  1  0.24921792  0.50331389  0.50132490  1
  Fe  Fe61  1  0.74931263  0.75052580  -0.00344869  1
  Fe  Fe62  1  0.74800676  0.49951244  0.00216185  1
  Fe  Fe63  1  0.50182288  -0.00130752  0.50465286  1
  Fe  Fe64  1  0.87881375  0.62369728  0.62721038  1
  Fe  Fe65  1  0.87226424  0.37582059  0.37328294  1
  Fe  Fe66  1  0.25050991  0.25022552  0.25211185  1
  Fe  Fe67  1  0.87335508  0.62608395  0.12284553  1
  Fe  Fe68  1  0.00024771  0.24813443  0.75447328  1
  Fe  Fe69  1  0.12474570  0.87269325  0.62625020  1
  Fe  Fe70  1  -0.00084019  0.24764136  0.25075934  1
  Fe  Fe71  1  0.87407228  0.12762553  0.62501873  1
  Fe  Fe72  1  0.37733254  0.12618883  0.12479853  1
  Fe  Fe73  1  0.24990314  0.50163086  0.24963619  1
  Fe  Fe74  1  0.25044240  0.25088260  0.49834786  1
  Fe  Fe75  1  0.74989063  0.74730933  0.25168629  1
  Fe  Fe76  1  -0.00129676  0.75001722  -0.00474707  1
  Fe  Fe77  1  0.62483569  0.87264732  0.12517515  1
  Fe  Fe78  1  0.37942671  0.87102134  0.62728647  1
  Fe  Fe79  1  0.87279857  0.37501524  0.87502663  1
  Fe  Fe80  1  0.62244116  0.62065946  0.87382607  1
  Fe  Fe81  1  0.00025123  0.00176044  0.24908957  1
  Fe  Fe82  1  0.37577705  0.87382437  0.12454517  1
  Fe  Fe83  1  0.25071656  0.74597196  0.49818785  1
  Fe  Fe84  1  0.75096133  0.74810032  0.74958421  1
  Fe  Fe85  1  0.12481000  0.37416378  0.12365690  1
  Fe  Fe86  1  0.62807971  0.37234722  0.12917656  1
  Fe  Fe87  1  0.87549335  0.62341990  0.37638489  1
  Fe  Fe88  1  0.37791345  0.87517537  0.87243636  1
  Fe  Fe89  1  0.12526361  0.87327103  0.12460074  1
  Co  Co90  1  0.50150100  0.00324547  0.74838248  1
  Co  Co91  1  0.37517449  0.37194859  0.62331525  1
  Co  Co92  1  0.62534568  0.62885864  0.12351305  1
  Co  Co93  1  0.74810821  0.25403086  -0.00169173  1
  Co  Co94  1  0.74950280  0.24734341  0.25271353  1
  Co  Co95  1  0.49642495  0.25022859  0.75336935  1
  Co  Co96  1  0.37371323  0.62981590  0.62597922  1
  Co  Co97  1  0.50098459  0.74403693  0.75082809  1
  Co  Co98  1  0.12863178  0.12164721  0.87361545  1
  Co  Co99  1  0.12229139  0.62346141  0.62867542  1
  Co  Co100  1  0.62280392  0.13106016  0.62563649  1
  Co  Co101  1  -0.00047679  0.00358565  0.74664077  1
  Co  Co102  1  0.25158525  -0.00113913  0.50442064  1
  Co  Co103  1  -0.00242461  0.49723833  0.75308355  1
  Co  Co104  1  0.49839769  0.50132238  0.74352045  1
  Co  Co105  1  0.49868087  0.74973107  0.49911694  1
  Co  Co106  1  0.12622930  0.12297368  0.37667244  1
  Co  Co107  1  0.62643645  0.62833847  0.62369124  1
  Co  Co108  1  0.37399482  0.37456342  0.12663565  1
  Co  Co109  1  0.12353459  0.62505673  0.37318454  1
  Co  Co110  1  0.37868468  0.62183518  0.37453067  1
  Co  Co111  1  0.49952675  0.25033520  0.49578663  1
  Co  Co112  1  0.12672122  0.37749869  0.87463491  1
  Co  Co113  1  -0.00169685  0.75024256  0.75287580  1
  Co  Co114  1  0.37837641  0.62124028  0.87682910  1
  Co  Co115  1  0.25266648  0.74889076  0.25129988  1
  Co  Co116  1  0.62523152  0.37862695  0.37595373  1
  Co  Co117  1  0.87163184  0.62218167  0.87379418  1
  Co  Co118  1  0.00111931  0.00243632  0.00059133  1
  Co  Co119  1  0.87046001  0.12261519  0.87622458  1
  Co  Co120  1  0.75154761  0.25202273  0.74895000  1
  Co  Co121  1  0.62380921  0.87041804  0.62639865  1
  Co  Co122  1  0.74396205  -0.00311834  -0.00100420  1
  Co  Co123  1  0.74920626  0.50375372  0.24947164  1
  Co  Co124  1  0.50249502  0.49729466  0.00518806  1
  Co  Co125  1  0.62476977  0.12741345  0.12366472  1
  Co  Co126  1  0.75286534  0.74819408  0.50139793  1
  Co  Co127  1  0.00004633  0.49990999  0.49876800  1
