# generated using pymatgen
data_Fe45Co19
_symmetry_space_group_name_H-M   'P 1'
_cell_length_a   11.41316006
_cell_length_b   11.41413421
_cell_length_c   11.41482909
_cell_angle_alpha   90.00176659
_cell_angle_beta   90.00506374
_cell_angle_gamma   90.00916882
_symmetry_Int_Tables_number   1
_chemical_formula_structural   Fe45Co19
_chemical_formula_sum   'Fe90 Co38'
_cell_volume   1487.02506340
_cell_formula_units_Z   2
loop_
 _symmetry_equiv_pos_site_id
 _symmetry_equiv_pos_as_xyz
  1  'x, y, z'
loop_
 _atom_site_type_symbol
 _atom_site_label
 _atom_site_symmetry_multiplicity
 _atom_site_fract_x
 _atom_site_fract_y
 _atom_site_fract_z
 _atom_site_occupancy
  Fe  Fe0  1  0.62263172  0.12495225  0.87600828  1
  Fe  Fe1  1  0.25128031  0.50056614  0.50037008  1
  Fe  Fe2  1  0.24881643  0.00051636  0.24929882  1
  Fe  Fe3  1  0.87334208  0.62496954  0.62599884  1
  Fe  Fe4  1  0.37641762  0.87485395  0.12714323  1
  Fe  Fe5  1  0.50409554  -0.00607783  0.74692815  1
  Fe  Fe6  1  0.12325191  0.87484279  0.37390371  1
  Fe  Fe7  1  0.37608836  0.62744089  0.37317058  1
  Fe  Fe8  1  0.37921501  0.12385340  0.37420612  1
  Fe  Fe9  1  0.50224946  -0.00022874  0.00152206  1
  Fe  Fe10  1  0.62576867  0.37270787  0.12585987  1
  Fe  Fe11  1  0.37513895  0.87635677  0.87463000  1
  Fe  Fe12  1  0.74757488  0.75338201  0.25253760  1
  Fe  Fe13  1  0.37831623  0.12617948  0.12551678  1
  Fe  Fe14  1  0.87646999  0.12494838  0.87397465  1
  Fe  Fe15  1  0.74839852  0.50308461  0.49876715  1
  Fe  Fe16  1  0.25159765  0.75118593  0.49834517  1
  Fe  Fe17  1  0.12550788  0.87542504  0.12412486  1
  Fe  Fe18  1  0.25133689  0.50056650  0.74866582  1
  Fe  Fe19  1  0.37803098  0.37370493  0.37481258  1
  Fe  Fe20  1  0.25012220  0.24668659  -0.00036886  1
  Fe  Fe21  1  0.25158248  0.00068028  0.49904664  1
  Fe  Fe22  1  0.12811262  0.87554916  0.62635135  1
  Fe  Fe23  1  0.25031628  0.50018305  0.24996157  1
  Fe  Fe24  1  0.49997782  0.75416300  0.50496033  1
  Fe  Fe25  1  0.74819331  0.50215061  0.75248593  1
  Fe  Fe26  1  0.12575202  0.62561544  0.62445001  1
  Fe  Fe27  1  0.00115220  -0.00019328  0.74943560  1
  Fe  Fe28  1  0.12382565  0.37188420  0.87402734  1
  Fe  Fe29  1  0.74912085  0.25081094  -0.00284991  1
  Fe  Fe30  1  -0.00321054  0.75135829  0.75010127  1
  Fe  Fe31  1  -0.00055431  0.75073719  0.24780608  1
  Fe  Fe32  1  0.86917330  0.87700460  0.62636488  1
  Fe  Fe33  1  0.50045727  0.50153916  0.50230046  1
  Fe  Fe34  1  0.24921870  0.49976294  0.00040677  1
  Fe  Fe35  1  0.25309852  0.74970217  0.75071034  1
  Fe  Fe36  1  0.00316328  0.00233677  -0.00138096  1
  Fe  Fe37  1  0.12300327  0.62712596  0.87473832  1
  Fe  Fe38  1  -0.00171957  0.49929532  0.00125073  1
  Fe  Fe39  1  0.37582548  0.12171048  0.62605295  1
  Fe  Fe40  1  0.00073412  0.49875499  0.74778880  1
  Fe  Fe41  1  -0.00104932  0.49842212  0.24999141  1
  Fe  Fe42  1  0.37507803  0.37525583  0.62364311  1
  Fe  Fe43  1  0.50061725  0.24881088  0.49989525  1
  Fe  Fe44  1  0.87471754  0.12620943  0.12623811  1
  Fe  Fe45  1  0.62277814  0.62691432  0.87302344  1
  Fe  Fe46  1  0.24679597  0.00291860  -0.00197160  1
  Fe  Fe47  1  -0.00373188  0.25067870  0.74469037  1
  Fe  Fe48  1  0.12529277  0.12516681  0.62430537  1
  Fe  Fe49  1  0.62641014  0.37613322  0.62532056  1
  Fe  Fe50  1  0.87505940  0.12276717  0.37743174  1
  Fe  Fe51  1  0.74788314  0.00150817  -0.00001261  1
  Fe  Fe52  1  0.87548767  0.62598837  0.37378041  1
  Fe  Fe53  1  0.87421778  0.87737791  0.87499849  1
  Fe  Fe54  1  0.37955647  0.87496771  0.37204869  1
  Fe  Fe55  1  0.87195442  0.87756574  0.12604863  1
  Fe  Fe56  1  0.12416650  0.62667257  0.37455017  1
  Fe  Fe57  1  0.50362040  0.49908977  0.00063739  1
  Fe  Fe58  1  0.87009276  0.62267805  0.12577862  1
  Fe  Fe59  1  -0.00318401  0.75317265  0.50149581  1
  Fe  Fe60  1  0.74647865  0.24773606  0.25448097  1
  Fe  Fe61  1  0.37790455  0.37336341  0.12519686  1
  Fe  Fe62  1  0.62361469  0.62748387  0.37467759  1
  Fe  Fe63  1  0.12652908  0.62591372  0.12567054  1
  Fe  Fe64  1  0.50220788  0.50199809  0.24818208  1
  Fe  Fe65  1  -0.00030400  0.49875627  0.50132744  1
  Fe  Fe66  1  -0.00221459  0.74978333  0.00012552  1
  Fe  Fe67  1  0.12575209  0.37240441  0.37684044  1
  Fe  Fe68  1  0.25123799  0.24933505  0.74890609  1
  Fe  Fe69  1  0.75026045  -0.00434786  0.49563299  1
  Fe  Fe70  1  0.12285738  0.37045566  0.12599798  1
  Fe  Fe71  1  0.25155584  0.74989106  0.00109117  1
  Fe  Fe72  1  0.62665009  0.12086938  0.62222211  1
  Fe  Fe73  1  0.12339779  0.12569571  0.37670454  1
  Fe  Fe74  1  -0.00277131  0.25153458  0.50337175  1
  Fe  Fe75  1  0.50840679  0.00171564  0.24832518  1
  Fe  Fe76  1  0.50143023  0.25090593  0.74928171  1
  Fe  Fe77  1  0.74966331  0.25061630  0.50053278  1
  Fe  Fe78  1  0.87244469  0.37394826  0.12634604  1
  Fe  Fe79  1  0.75054760  0.74899540  -0.00318414  1
  Fe  Fe80  1  0.37715962  0.37515197  0.87540942  1
  Fe  Fe81  1  0.87421942  0.37619378  0.87358386  1
  Fe  Fe82  1  -0.00122786  0.00124468  0.25044153  1
  Fe  Fe83  1  0.50054448  0.74930790  0.00342973  1
  Fe  Fe84  1  0.25089803  0.24852824  0.25043643  1
  Fe  Fe85  1  0.37746027  0.12313333  0.87334265  1
  Fe  Fe86  1  0.37848741  0.62395780  0.87388478  1
  Fe  Fe87  1  0.87270393  0.37628274  0.37632118  1
  Fe  Fe88  1  0.75041123  0.24688883  0.74812288  1
  Fe  Fe89  1  0.62417577  0.62920818  0.62851767  1
  Co  Co90  1  0.49927053  -0.00284189  0.50314810  1
  Co  Co91  1  0.74663080  0.00166339  0.25109551  1
  Co  Co92  1  0.62453902  0.12288580  0.38016650  1
  Co  Co93  1  0.87260897  0.11918648  0.62249524  1
  Co  Co94  1  0.12823131  0.37411656  0.62326508  1
  Co  Co95  1  0.74767033  0.49910503  0.25297888  1
  Co  Co96  1  0.75169434  0.74925331  0.49784242  1
  Co  Co97  1  0.63187614  0.87399741  0.62398568  1
  Co  Co98  1  0.37574987  0.62577892  0.62532421  1
  Co  Co99  1  0.87626141  0.62230385  0.87504731  1
  Co  Co100  1  0.50365893  0.24803275  0.25195735  1
  Co  Co101  1  0.62113453  0.87385098  0.37593027  1
  Co  Co102  1  0.00011985  -0.00355551  0.50148308  1
  Co  Co103  1  0.12279134  0.12868486  0.87155124  1
  Co  Co104  1  -0.00196935  0.24989768  -0.00058388  1
  Co  Co105  1  0.63026399  0.62517302  0.12453954  1
  Co  Co106  1  0.50230007  0.74797848  0.24571787  1
  Co  Co107  1  0.49945856  0.49797748  0.74891105  1
  Co  Co108  1  0.24819346  0.00054152  0.75235510  1
  Co  Co109  1  0.49986455  0.25103508  -0.00207086  1
  Co  Co110  1  0.62580471  0.37360020  0.87172971  1
  Co  Co111  1  0.37079651  0.87694642  0.62585084  1
  Co  Co112  1  0.25051355  0.75101089  0.25015198  1
  Co  Co113  1  0.62467652  0.87386474  0.87767269  1
  Co  Co114  1  0.62304755  0.37651644  0.37704597  1
  Co  Co115  1  0.74762522  0.49848630  -0.00282661  1
  Co  Co116  1  -0.00268535  0.24967836  0.25379655  1
  Co  Co117  1  0.12498332  0.87209033  0.87515415  1
  Co  Co118  1  0.87574338  0.87540797  0.37249669  1
  Co  Co119  1  0.74705040  0.00131444  0.75407021  1
  Co  Co120  1  0.86972262  0.37923670  0.62507724  1
  Co  Co121  1  0.62564279  0.12845239  0.12209603  1
  Co  Co122  1  0.49903000  0.75626169  0.74727457  1
  Co  Co123  1  0.37374284  0.62414531  0.12515205  1
  Co  Co124  1  0.75105367  0.75060145  0.75394649  1
  Co  Co125  1  0.62750002  0.87421405  0.12349123  1
  Co  Co126  1  0.25371459  0.24695976  0.49946752  1
  Co  Co127  1  0.12257030  0.12680954  0.12667586  1
