# generated using pymatgen
data_Fe45Co19
_symmetry_space_group_name_H-M   'P 1'
_cell_length_a   11.41426930
_cell_length_b   11.41483588
_cell_length_c   11.41415091
_cell_angle_alpha   90.00735153
_cell_angle_beta   90.00767069
_cell_angle_gamma   90.00931417
_symmetry_Int_Tables_number   1
_chemical_formula_structural   Fe45Co19
_chemical_formula_sum   'Fe90 Co38'
_cell_volume   1487.17262799
_cell_formula_units_Z   2
loop_
 _symmetry_equiv_pos_site_id
 _symmetry_equiv_pos_as_xyz
  1  'x, y, z'
loop_
 _atom_site_type_symbol
 _atom_site_label
 _atom_site_symmetry_multiplicity
 _atom_site_fract_x
 _atom_site_fract_y
 _atom_site_fract_z
 _atom_site_occupancy
  Fe  Fe0  1  -0.00416857  0.74966453  0.00379140  1
  Fe  Fe1  1  0.50290656  0.50096980  0.49851181  1
  Fe  Fe2  1  0.24996555  0.00193007  0.24943115  1
  Fe  Fe3  1  0.12322110  0.62426461  0.62296862  1
  Fe  Fe4  1  0.87485878  0.37605166  0.87591677  1
  Fe  Fe5  1  0.50173299  0.49676955  0.00056810  1
  Fe  Fe6  1  0.74845735  0.49893040  0.74926391  1
  Fe  Fe7  1  0.74893888  0.24777179  0.75079512  1
  Fe  Fe8  1  0.25290664  0.25054626  -0.00109528  1
  Fe  Fe9  1  0.37664228  0.37505063  0.62345123  1
  Fe  Fe10  1  0.50154002  0.25029557  0.49809773  1
  Fe  Fe11  1  0.24967934  0.00272878  0.49782435  1
  Fe  Fe12  1  0.12284584  0.12933868  0.62195273  1
  Fe  Fe13  1  -0.00017853  0.75094450  0.75064478  1
  Fe  Fe14  1  0.24751978  0.49723088  0.25235212  1
  Fe  Fe15  1  0.37415296  0.62495570  0.62447557  1
  Fe  Fe16  1  0.12262336  0.12906344  0.37531436  1
  Fe  Fe17  1  0.62970738  0.87381496  0.12414791  1
  Fe  Fe18  1  0.63059632  0.37172511  0.12143179  1
  Fe  Fe19  1  0.49963127  0.75156630  0.00125640  1
  Fe  Fe20  1  0.12314991  0.13035336  0.12669345  1
  Fe  Fe21  1  0.37648285  0.12584473  0.62305315  1
  Fe  Fe22  1  0.12570018  0.87459488  0.62373577  1
  Fe  Fe23  1  0.37520068  0.62307057  0.87596048  1
  Fe  Fe24  1  0.24808755  0.49850114  0.74979448  1
  Fe  Fe25  1  0.12312116  0.37223369  0.62040665  1
  Fe  Fe26  1  0.62909666  0.87633251  0.87823540  1
  Fe  Fe27  1  0.75126510  0.74518701  0.24686268  1
  Fe  Fe28  1  0.49870528  0.74886191  0.49868382  1
  Fe  Fe29  1  0.87671176  0.62114544  0.87538448  1
  Fe  Fe30  1  0.50048947  0.75282646  0.75074719  1
  Fe  Fe31  1  0.87656736  0.62466657  0.62694376  1
  Fe  Fe32  1  0.74728672  0.00288318  0.74842559  1
  Fe  Fe33  1  0.63117989  0.37620115  0.37838043  1
  Fe  Fe34  1  0.62596259  0.12441594  0.37334172  1
  Fe  Fe35  1  0.62473428  0.62646971  0.62557854  1
  Fe  Fe36  1  0.25077365  0.74952696  0.24976802  1
  Fe  Fe37  1  0.87380652  0.87482111  0.37095853  1
  Fe  Fe38  1  0.25237873  0.25167262  0.25501545  1
  Fe  Fe39  1  0.00096710  0.00028419  0.74923474  1
  Fe  Fe40  1  0.50628450  0.50009269  0.25061962  1
  Fe  Fe41  1  0.25209431  0.49966803  0.49692940  1
  Fe  Fe42  1  0.37689386  0.62245539  0.12683037  1
  Fe  Fe43  1  0.50203254  -0.00171304  0.24859383  1
  Fe  Fe44  1  0.75147954  0.00855788  0.00423636  1
  Fe  Fe45  1  0.50078435  0.25089392  0.75009390  1
  Fe  Fe46  1  0.75024982  0.75034101  0.75145572  1
  Fe  Fe47  1  0.12173219  0.62352323  0.87558930  1
  Fe  Fe48  1  0.75282347  0.74659809  0.49949048  1
  Fe  Fe49  1  0.12411706  0.87339806  0.37359551  1
  Fe  Fe50  1  0.87597480  0.12675672  0.62500507  1
  Fe  Fe51  1  0.62566000  0.37027977  0.87813914  1
  Fe  Fe52  1  0.24864681  0.00196588  0.75089836  1
  Fe  Fe53  1  0.62838314  0.87234350  0.37490133  1
  Fe  Fe54  1  0.50140647  0.00155111  0.00400792  1
  Fe  Fe55  1  0.37310146  0.87742283  0.87793502  1
  Fe  Fe56  1  0.87356261  0.87773693  0.87721062  1
  Fe  Fe57  1  0.50125346  0.74898618  0.24901646  1
  Fe  Fe58  1  0.12200186  0.62159596  0.12700780  1
  Fe  Fe59  1  0.37289038  0.87432339  0.62320257  1
  Fe  Fe60  1  0.24878963  0.49809536  0.00016047  1
  Fe  Fe61  1  -0.00134978  0.75056264  0.49779696  1
  Fe  Fe62  1  0.50071324  0.25210943  0.25099375  1
  Fe  Fe63  1  0.37594282  0.12573031  0.12705631  1
  Fe  Fe64  1  -0.00140465  0.00111599  0.49847818  1
  Fe  Fe65  1  -0.00566844  0.25276443  0.00215675  1
  Fe  Fe66  1  0.12241476  0.37481815  0.87509968  1
  Fe  Fe67  1  0.12181715  0.12693630  0.87589516  1
  Fe  Fe68  1  0.87637299  0.61641890  0.12742275  1
  Fe  Fe69  1  0.12513230  0.87526153  0.12459973  1
  Fe  Fe70  1  0.12144363  0.62495617  0.37322695  1
  Fe  Fe71  1  0.50308555  -0.00193234  0.74819610  1
  Fe  Fe72  1  0.50179687  0.49854822  0.75057305  1
  Fe  Fe73  1  0.25067666  0.74935738  0.00232899  1
  Fe  Fe74  1  0.25008924  0.25100358  0.74994224  1
  Fe  Fe75  1  0.37426976  0.37565103  0.12639539  1
  Fe  Fe76  1  0.87367899  0.87558729  0.62528323  1
  Fe  Fe77  1  0.37754365  0.12433451  0.87645859  1
  Fe  Fe78  1  0.62523235  0.62612668  0.87739986  1
  Fe  Fe79  1  -0.00075704  -0.00093646  0.24987570  1
  Fe  Fe80  1  0.50272708  -0.00064268  0.49970930  1
  Fe  Fe81  1  0.24899897  0.74930714  0.75004825  1
  Fe  Fe82  1  0.37374491  0.87490031  0.37429688  1
  Fe  Fe83  1  -0.00116248  0.00210561  0.00293288  1
  Fe  Fe84  1  0.74982318  0.00237733  0.49900423  1
  Fe  Fe85  1  -0.00409844  0.25913334  0.25377957  1
  Fe  Fe86  1  0.75281043  0.24797405  0.24983135  1
  Fe  Fe87  1  0.12438434  0.87525206  0.87797000  1
  Fe  Fe88  1  0.87191901  0.37288359  0.62265806  1
  Fe  Fe89  1  -0.00449385  0.49724759  0.49645745  1
  Co  Co90  1  0.37566019  0.62351181  0.37207954  1
  Co  Co91  1  0.75043055  0.50458124  0.50271787  1
  Co  Co92  1  0.62192523  0.12638708  0.87615744  1
  Co  Co93  1  -0.00075013  0.25177326  0.74925399  1
  Co  Co94  1  0.87544720  0.12361174  0.37221663  1
  Co  Co95  1  0.86916975  0.38002622  0.12561384  1
  Co  Co96  1  0.87721860  0.12371800  0.87183964  1
  Co  Co97  1  0.37847467  0.12380097  0.37398386  1
  Co  Co98  1  0.75548829  0.24446155  -0.00003595  1
  Co  Co99  1  -0.00588511  0.25152797  0.49524276  1
  Co  Co100  1  0.00155056  0.49651564  0.00235065  1
  Co  Co101  1  0.25438955  0.24935393  0.49770974  1
  Co  Co102  1  0.74990913  0.24512045  0.49944446  1
  Co  Co103  1  0.87697317  0.62183195  0.36973866  1
  Co  Co104  1  0.62397604  0.12901091  0.12624062  1
  Co  Co105  1  0.24836303  0.00350914  0.00214246  1
  Co  Co106  1  0.12680880  0.37278674  0.37976196  1
  Co  Co107  1  -0.00229009  0.75067835  0.24637429  1
  Co  Co108  1  0.49746300  0.25123702  0.00258435  1
  Co  Co109  1  0.62622098  0.37417226  0.62332004  1
  Co  Co110  1  0.62713456  0.87252032  0.62288075  1
  Co  Co111  1  0.62380590  0.12656444  0.62475738  1
  Co  Co112  1  0.86521486  0.37937819  0.37524488  1
  Co  Co113  1  0.74399033  0.50327311  0.24997622  1
  Co  Co114  1  0.37810993  0.37723081  0.37440689  1
  Co  Co115  1  0.37572579  0.37618311  0.87433198  1
  Co  Co116  1  0.62363921  0.62549332  0.12067818  1
  Co  Co117  1  0.12712093  0.37153235  0.12412402  1
  Co  Co118  1  0.87910737  0.12631745  0.13089248  1
  Co  Co119  1  0.62631783  0.62679877  0.37706544  1
  Co  Co120  1  0.74847372  0.00226095  0.24895553  1
  Co  Co121  1  0.75509842  0.74625331  0.00199922  1
  Co  Co122  1  0.87189288  0.87820723  0.12603604  1
  Co  Co123  1  0.24877993  0.74871882  0.49744581  1
  Co  Co124  1  0.74772565  0.50030850  -0.00206102  1
  Co  Co125  1  -0.00011366  0.49743463  0.74721949  1
  Co  Co126  1  0.37372066  0.87599724  0.12569195  1
  Co  Co127  1  0.00262014  0.49057991  0.25252647  1
