# generated using pymatgen
data_Fe45Co19
_symmetry_space_group_name_H-M   'P 1'
_cell_length_a   11.41458722
_cell_length_b   11.41477005
_cell_length_c   11.41653843
_cell_angle_alpha   89.99240640
_cell_angle_beta   90.00627281
_cell_angle_gamma   90.00214930
_symmetry_Int_Tables_number   1
_chemical_formula_structural   Fe45Co19
_chemical_formula_sum   'Fe90 Co38'
_cell_volume   1487.51657741
_cell_formula_units_Z   2
loop_
 _symmetry_equiv_pos_site_id
 _symmetry_equiv_pos_as_xyz
  1  'x, y, z'
loop_
 _atom_site_type_symbol
 _atom_site_label
 _atom_site_symmetry_multiplicity
 _atom_site_fract_x
 _atom_site_fract_y
 _atom_site_fract_z
 _atom_site_occupancy
  Fe  Fe0  1  0.24980464  0.00005234  0.25094980  1
  Fe  Fe1  1  0.62267073  0.37291655  0.12412374  1
  Fe  Fe2  1  0.50102014  0.00304226  0.74889498  1
  Fe  Fe3  1  0.75054754  0.49939192  0.24915060  1
  Fe  Fe4  1  0.24841365  0.25201965  0.25311028  1
  Fe  Fe5  1  0.75085996  0.49895158  0.50032492  1
  Fe  Fe6  1  0.37277603  0.87288613  0.87124391  1
  Fe  Fe7  1  0.37386893  0.12588714  0.87381234  1
  Fe  Fe8  1  0.00194568  0.74950637  -0.00100365  1
  Fe  Fe9  1  0.75215222  0.25020921  0.50212307  1
  Fe  Fe10  1  0.24746496  0.00310551  0.74651864  1
  Fe  Fe11  1  0.87622776  0.87371784  0.62734944  1
  Fe  Fe12  1  0.87740580  0.12640719  0.62647059  1
  Fe  Fe13  1  0.62665742  0.62459457  0.62480051  1
  Fe  Fe14  1  0.12311894  0.12366663  0.87603786  1
  Fe  Fe15  1  0.50218497  0.24632311  0.75148285  1
  Fe  Fe16  1  0.62447147  0.37434667  0.37575363  1
  Fe  Fe17  1  0.75460000  0.49692143  -0.00167559  1
  Fe  Fe18  1  0.49786307  0.49767717  0.25084166  1
  Fe  Fe19  1  0.24837104  0.25171376  0.49987026  1
  Fe  Fe20  1  0.12357955  0.87585021  0.12596275  1
  Fe  Fe21  1  0.37399730  0.87423525  0.62654557  1
  Fe  Fe22  1  -0.00117231  0.00138419  0.24808425  1
  Fe  Fe23  1  0.87695649  0.37309396  0.37203935  1
  Fe  Fe24  1  0.37437456  0.62527171  0.12553858  1
  Fe  Fe25  1  0.63027766  0.87519837  0.37318467  1
  Fe  Fe26  1  0.37390326  0.62488745  0.37694688  1
  Fe  Fe27  1  0.62367024  0.62462519  0.12474020  1
  Fe  Fe28  1  0.49960665  0.24984362  0.50116476  1
  Fe  Fe29  1  0.49825900  0.49878363  0.50152592  1
  Fe  Fe30  1  0.24628026  0.50309173  0.74792228  1
  Fe  Fe31  1  0.74991215  0.24852651  0.24929161  1
  Fe  Fe32  1  0.25072066  0.49616093  0.25284419  1
  Fe  Fe33  1  0.87745134  0.12651979  0.12287654  1
  Fe  Fe34  1  0.24693807  0.75376213  0.49990340  1
  Fe  Fe35  1  0.50039845  0.00003117  0.50074428  1
  Fe  Fe36  1  0.37467927  0.12532350  0.37634431  1
  Fe  Fe37  1  0.12258372  0.37477737  0.12441460  1
  Fe  Fe38  1  0.12643187  0.87569310  0.87374062  1
  Fe  Fe39  1  0.87158928  0.87610537  0.37256431  1
  Fe  Fe40  1  -0.00122396  0.49717976  0.50112751  1
  Fe  Fe41  1  0.87526749  0.12506286  0.37544274  1
  Fe  Fe42  1  0.37142742  0.62767289  0.87369750  1
  Fe  Fe43  1  0.75244706  -0.00157420  0.00141189  1
  Fe  Fe44  1  0.24774105  -0.00077292  0.50089518  1
  Fe  Fe45  1  0.00576289  0.74487824  0.75082537  1
  Fe  Fe46  1  -0.00038306  0.74924889  0.25105007  1
  Fe  Fe47  1  0.00025810  0.75241389  0.49899305  1
  Fe  Fe48  1  0.75265578  0.50036838  0.75244452  1
  Fe  Fe49  1  0.49765719  0.75073257  -0.00118918  1
  Fe  Fe50  1  0.25287977  0.49670568  -0.00001434  1
  Fe  Fe51  1  0.62509527  0.87401949  0.12762191  1
  Fe  Fe52  1  0.37575568  0.87499670  0.12737316  1
  Fe  Fe53  1  0.87597647  0.37387203  0.63024952  1
  Fe  Fe54  1  0.87728214  0.87461893  0.87380025  1
  Fe  Fe55  1  0.62577782  0.62534712  0.87647790  1
  Fe  Fe56  1  0.62658154  0.87588821  0.62517159  1
  Fe  Fe57  1  0.87438228  0.62438601  0.37613575  1
  Fe  Fe58  1  0.62623398  0.62578414  0.37461668  1
  Fe  Fe59  1  0.87478282  0.62534458  0.12359989  1
  Fe  Fe60  1  0.12199300  0.12551140  0.37692193  1
  Fe  Fe61  1  -0.00067072  -0.00139758  0.50155894  1
  Fe  Fe62  1  0.49802790  0.00023272  -0.00101134  1
  Fe  Fe63  1  0.50168431  0.75141410  0.49948425  1
  Fe  Fe64  1  0.37545731  0.12951590  0.12465107  1
  Fe  Fe65  1  0.74865489  0.74886033  0.75000867  1
  Fe  Fe66  1  0.62503895  0.87641579  0.87421129  1
  Fe  Fe67  1  0.62267070  0.12750042  0.12114462  1
  Fe  Fe68  1  0.37371087  0.37212065  0.62869138  1
  Fe  Fe69  1  0.87703567  0.12573552  0.87467355  1
  Fe  Fe70  1  0.49967016  0.50285343  0.75014953  1
  Fe  Fe71  1  0.12523046  0.12615028  0.12301408  1
  Fe  Fe72  1  0.12327914  0.37442145  0.62495029  1
  Fe  Fe73  1  0.87515213  0.62577724  0.62505841  1
  Fe  Fe74  1  0.75292783  0.25254786  -0.00278664  1
  Fe  Fe75  1  0.25034171  0.75173131  0.25174816  1
  Fe  Fe76  1  0.75095659  0.75132711  0.00107541  1
  Fe  Fe77  1  0.49611109  0.49666637  -0.00190990  1
  Fe  Fe78  1  0.62817129  0.12393891  0.37750153  1
  Fe  Fe79  1  0.62637589  0.37383494  0.62706333  1
  Fe  Fe80  1  0.12682434  0.62419862  0.12309974  1
  Fe  Fe81  1  0.74965739  0.00311682  0.74899342  1
  Fe  Fe82  1  0.00039068  0.49866835  0.24878225  1
  Fe  Fe83  1  0.25047743  0.25330946  -0.00382442  1
  Fe  Fe84  1  0.50059444  0.00163448  0.25144141  1
  Fe  Fe85  1  0.12568279  0.62224169  0.37821757  1
  Fe  Fe86  1  0.11979194  0.37920180  0.87425997  1
  Fe  Fe87  1  0.62509426  0.37389372  0.87375192  1
  Fe  Fe88  1  0.25054995  -0.00130519  0.00075793  1
  Fe  Fe89  1  0.37320032  0.62742726  0.62480734  1
  Co  Co90  1  0.00087758  -0.00065687  -0.00030765  1
  Co  Co91  1  0.87633378  0.37336439  0.12689392  1
  Co  Co92  1  0.00052150  0.25057757  -0.00046346  1
  Co  Co93  1  0.75291007  0.00009931  0.50380261  1
  Co  Co94  1  0.12296877  0.87715112  0.37296088  1
  Co  Co95  1  0.00331518  0.24763431  0.75047589  1
  Co  Co96  1  -0.00367491  0.50026352  0.00136363  1
  Co  Co97  1  0.87475895  0.62639723  0.87523439  1
  Co  Co98  1  0.50179434  0.74952033  0.75011536  1
  Co  Co99  1  0.87968991  0.37404423  0.87068249  1
  Co  Co100  1  0.62575743  0.12579574  0.62293069  1
  Co  Co101  1  0.00160013  0.50530736  0.74903051  1
  Co  Co102  1  0.37405550  0.37549514  0.86759287  1
  Co  Co103  1  0.37670507  0.37357951  0.37564644  1
  Co  Co104  1  0.75139326  0.74801615  0.24858450  1
  Co  Co105  1  0.49610504  0.25270370  -0.00520036  1
  Co  Co106  1  0.12361454  0.87665845  0.62690556  1
  Co  Co107  1  0.12455830  0.62387572  0.61748758  1
  Co  Co108  1  0.25183608  0.49561645  0.50060117  1
  Co  Co109  1  0.75028824  0.74949196  0.50062034  1
  Co  Co110  1  0.75083000  0.00267946  0.24548185  1
  Co  Co111  1  0.37578255  0.37090336  0.12733810  1
  Co  Co112  1  0.25072826  0.75319031  0.00160582  1
  Co  Co113  1  0.74951607  0.24726524  0.75101726  1
  Co  Co114  1  0.37316819  0.12662362  0.62470274  1
  Co  Co115  1  0.62596815  0.12424938  0.87871229  1
  Co  Co116  1  0.00159400  0.24872993  0.24912648  1
  Co  Co117  1  0.50119048  0.24844535  0.25280169  1
  Co  Co118  1  0.37455969  0.87656064  0.37609617  1
  Co  Co119  1  0.12350730  0.12557521  0.62144878  1
  Co  Co120  1  0.00110357  0.00192530  0.74964853  1
  Co  Co121  1  0.12746243  0.62224769  0.88087154  1
  Co  Co122  1  0.49924046  0.74995915  0.25167945  1
  Co  Co123  1  -0.00188034  0.25140832  0.50112097  1
  Co  Co124  1  0.24426353  0.74697123  0.74765768  1
  Co  Co125  1  0.87799489  0.87394672  0.12504513  1
  Co  Co126  1  0.12178328  0.37533944  0.37617055  1
  Co  Co127  1  0.24447586  0.24882375  0.75174204  1
