# generated using pymatgen
data_Fe45Co19
_symmetry_space_group_name_H-M   'P 1'
_cell_length_a   11.41621435
_cell_length_b   11.41522938
_cell_length_c   11.41470778
_cell_angle_alpha   90.01289496
_cell_angle_beta   89.99373281
_cell_angle_gamma   89.99862050
_symmetry_Int_Tables_number   1
_chemical_formula_structural   Fe45Co19
_chemical_formula_sum   'Fe90 Co38'
_cell_volume   1487.54989437
_cell_formula_units_Z   2
loop_
 _symmetry_equiv_pos_site_id
 _symmetry_equiv_pos_as_xyz
  1  'x, y, z'
loop_
 _atom_site_type_symbol
 _atom_site_label
 _atom_site_symmetry_multiplicity
 _atom_site_fract_x
 _atom_site_fract_y
 _atom_site_fract_z
 _atom_site_occupancy
  Fe  Fe0  1  0.50040068  0.49837248  0.24803908  1
  Fe  Fe1  1  0.62299519  0.87475871  0.37464206  1
  Fe  Fe2  1  0.37283646  0.62407052  0.12679659  1
  Fe  Fe3  1  0.37289812  0.37439385  0.37224415  1
  Fe  Fe4  1  0.49914655  0.50036081  0.74942543  1
  Fe  Fe5  1  0.37680675  0.12727029  0.87390951  1
  Fe  Fe6  1  0.87482000  0.62226823  0.12771082  1
  Fe  Fe7  1  0.74983163  0.24966260  0.25317769  1
  Fe  Fe8  1  0.75050538  -0.00059897  -0.00130454  1
  Fe  Fe9  1  0.62339770  0.12535732  0.87829351  1
  Fe  Fe10  1  0.12806279  0.87643029  0.12411461  1
  Fe  Fe11  1  0.74769261  0.24889455  0.75044079  1
  Fe  Fe12  1  0.62823998  0.87724210  0.62268009  1
  Fe  Fe13  1  0.37286946  0.12613659  0.12627516  1
  Fe  Fe14  1  -0.00087827  0.50064204  0.50147253  1
  Fe  Fe15  1  0.50127734  0.00187713  0.74779179  1
  Fe  Fe16  1  0.12489869  0.37368209  0.37313623  1
  Fe  Fe17  1  0.62445761  0.87500027  0.87635852  1
  Fe  Fe18  1  0.87618866  0.37476530  0.87471307  1
  Fe  Fe19  1  0.87300422  0.87412062  0.12474011  1
  Fe  Fe20  1  0.87149608  0.87755256  0.62615763  1
  Fe  Fe21  1  0.87630913  0.62574482  0.87526072  1
  Fe  Fe22  1  0.75016244  0.74597538  0.25238169  1
  Fe  Fe23  1  0.00119386  0.74979952  0.00191601  1
  Fe  Fe24  1  0.49893327  0.25458638  0.00487104  1
  Fe  Fe25  1  0.49948427  0.74926156  0.50019667  1
  Fe  Fe26  1  0.00193516  0.74994611  0.74777640  1
  Fe  Fe27  1  0.24786750  0.25134841  0.75259187  1
  Fe  Fe28  1  0.75080021  0.74735777  0.49604287  1
  Fe  Fe29  1  0.37498359  0.87542172  0.87662674  1
  Fe  Fe30  1  -0.00238855  0.24966076  0.50129283  1
  Fe  Fe31  1  0.37347021  0.87584201  0.62309563  1
  Fe  Fe32  1  0.25120081  0.00257918  0.49697453  1
  Fe  Fe33  1  0.12445616  0.87672610  0.87636329  1
  Fe  Fe34  1  -0.00065991  -0.00011175  0.00105183  1
  Fe  Fe35  1  0.24954486  0.74896787  0.49785675  1
  Fe  Fe36  1  0.11809504  0.62809503  0.37596423  1
  Fe  Fe37  1  0.37503426  0.37196727  0.62657632  1
  Fe  Fe38  1  0.88031114  0.87111076  0.37306387  1
  Fe  Fe39  1  0.49920965  0.24733538  0.50015593  1
  Fe  Fe40  1  0.25402684  0.49687384  -0.00296182  1
  Fe  Fe41  1  0.62662164  0.37538133  0.37672577  1
  Fe  Fe42  1  0.75003130  0.50067898  0.75129617  1
  Fe  Fe43  1  0.12387513  0.61982260  0.87188928  1
  Fe  Fe44  1  0.12002454  0.12550106  0.37242050  1
  Fe  Fe45  1  0.74985306  0.25103913  0.00030818  1
  Fe  Fe46  1  0.25016441  0.24797148  0.49855350  1
  Fe  Fe47  1  0.62740683  0.37549224  0.62184598  1
  Fe  Fe48  1  0.12607614  0.62245222  0.12536789  1
  Fe  Fe49  1  0.75113850  0.00105499  0.25379104  1
  Fe  Fe50  1  0.74900925  0.74914318  -0.00121054  1
  Fe  Fe51  1  0.87559773  0.12594544  0.12774120  1
  Fe  Fe52  1  0.49771350  0.00261242  0.50000994  1
  Fe  Fe53  1  0.12432209  0.12498852  0.62554618  1
  Fe  Fe54  1  0.37770758  0.62471423  0.87608030  1
  Fe  Fe55  1  -0.00096440  0.49827848  0.00144024  1
  Fe  Fe56  1  0.00057059  0.25039316  0.74921830  1
  Fe  Fe57  1  0.50137901  0.75078897  0.00287677  1
  Fe  Fe58  1  0.87164400  0.37695125  0.12751209  1
  Fe  Fe59  1  0.74861086  0.75074065  0.75246524  1
  Fe  Fe60  1  0.12895609  0.37562053  0.12697713  1
  Fe  Fe61  1  0.62680382  0.12512307  0.12672436  1
  Fe  Fe62  1  0.50044671  0.75078483  0.74906699  1
  Fe  Fe63  1  0.24925508  0.74852251  0.74963311  1
  Fe  Fe64  1  0.62254672  0.37750969  0.87749620  1
  Fe  Fe65  1  0.63142880  0.12313471  0.62043499  1
  Fe  Fe66  1  0.87631531  0.12543483  0.87393427  1
  Fe  Fe67  1  0.12444665  0.12483253  0.12638519  1
  Fe  Fe68  1  0.50048946  0.25179166  0.24871647  1
  Fe  Fe69  1  -0.00282594  0.00029909  0.50009317  1
  Fe  Fe70  1  0.00197483  0.25141528  0.00095830  1
  Fe  Fe71  1  0.24904988  0.75047966  0.25368015  1
  Fe  Fe72  1  0.37342611  0.62496362  0.62362295  1
  Fe  Fe73  1  0.62685287  0.62098138  0.12317824  1
  Fe  Fe74  1  0.25038555  0.00132781  0.75136750  1
  Fe  Fe75  1  -0.00099324  -0.00030258  0.75015703  1
  Fe  Fe76  1  0.87436867  0.62514978  0.62416744  1
  Fe  Fe77  1  0.87161175  0.37433998  0.62367350  1
  Fe  Fe78  1  0.62583777  0.62484843  0.62435907  1
  Fe  Fe79  1  0.49958206  0.75068590  0.24810411  1
  Fe  Fe80  1  0.49849737  -0.00202170  0.24818021  1
  Fe  Fe81  1  0.25069076  -0.00120685  0.25277822  1
  Fe  Fe82  1  0.12587350  0.37874115  0.62774743  1
  Fe  Fe83  1  0.12661518  0.87539524  0.62283478  1
  Fe  Fe84  1  0.24920795  0.25094980  -0.00284549  1
  Fe  Fe85  1  0.25022509  0.50153843  0.49758335  1
  Fe  Fe86  1  0.87436363  0.37754943  0.37463300  1
  Fe  Fe87  1  0.49881166  -0.00237197  0.00423486  1
  Fe  Fe88  1  0.24932397  0.74944259  -0.00156873  1
  Fe  Fe89  1  0.49938318  0.50034839  0.49955419  1
  Co  Co90  1  -0.00148860  0.75099165  0.50576455  1
  Co  Co91  1  0.50637197  0.24760218  0.74670533  1
  Co  Co92  1  0.37291977  0.12770141  0.62699576  1
  Co  Co93  1  0.75392412  -0.00045212  0.49226596  1
  Co  Co94  1  0.37747537  0.87428573  0.37611243  1
  Co  Co95  1  0.25118559  0.00272949  -0.00082751  1
  Co  Co96  1  0.37785494  0.62495218  0.37398595  1
  Co  Co97  1  0.62305480  0.62327243  0.87654492  1
  Co  Co98  1  0.24823962  0.24685909  0.25167655  1
  Co  Co99  1  0.62922998  0.87483741  0.12651179  1
  Co  Co100  1  0.87665970  0.87349040  0.87576490  1
  Co  Co101  1  0.36873760  0.37543958  0.12993537  1
  Co  Co102  1  0.74810860  0.00081006  0.75446937  1
  Co  Co103  1  -0.00036812  0.25368066  0.24798742  1
  Co  Co104  1  0.37031875  0.87271415  0.12471411  1
  Co  Co105  1  -0.00012686  -0.00254988  0.24764056  1
  Co  Co106  1  0.37660252  0.12632113  0.37240273  1
  Co  Co107  1  0.12268647  0.37946638  0.87278234  1
  Co  Co108  1  0.37957489  0.37135318  0.87168673  1
  Co  Co109  1  0.62102210  0.62474346  0.37526936  1
  Co  Co110  1  0.12272406  0.12421079  0.87489099  1
  Co  Co111  1  0.75221099  0.24757920  0.49629156  1
  Co  Co112  1  0.12155101  0.87406526  0.37647216  1
  Co  Co113  1  0.24729254  0.50364852  0.25461228  1
  Co  Co114  1  0.74841275  0.50226836  0.25446988  1
  Co  Co115  1  0.87223739  0.12400763  0.62637842  1
  Co  Co116  1  0.62984512  0.37642483  0.12500266  1
  Co  Co117  1  0.62239798  0.12469462  0.37448311  1
  Co  Co118  1  0.88016972  0.12716342  0.37268852  1
  Co  Co119  1  0.25533701  0.49942975  0.75037060  1
  Co  Co120  1  0.88145193  0.62488541  0.37305583  1
  Co  Co121  1  0.75048080  0.50456911  0.49773741  1
  Co  Co122  1  -0.00437343  0.50057312  0.74768578  1
  Co  Co123  1  0.00249535  0.49789555  0.24908046  1
  Co  Co124  1  0.00216255  0.75119376  0.24388622  1
  Co  Co125  1  0.75197665  0.49999104  -0.00229182  1
  Co  Co126  1  0.12629427  0.62206467  0.62522797  1
  Co  Co127  1  0.49669948  0.49708131  0.00391705  1
