# generated using pymatgen
data_Fe45Co19
_symmetry_space_group_name_H-M   'P 1'
_cell_length_a   11.41423373
_cell_length_b   11.41512989
_cell_length_c   11.41535296
_cell_angle_alpha   90.00488055
_cell_angle_beta   89.99523039
_cell_angle_gamma   90.01412344
_symmetry_Int_Tables_number   1
_chemical_formula_structural   Fe45Co19
_chemical_formula_sum   'Fe90 Co38'
_cell_volume   1487.36290905
_cell_formula_units_Z   2
loop_
 _symmetry_equiv_pos_site_id
 _symmetry_equiv_pos_as_xyz
  1  'x, y, z'
loop_
 _atom_site_type_symbol
 _atom_site_label
 _atom_site_symmetry_multiplicity
 _atom_site_fract_x
 _atom_site_fract_y
 _atom_site_fract_z
 _atom_site_occupancy
  Fe  Fe0  1  0.24996178  -0.00093956  0.25250949  1
  Fe  Fe1  1  0.62441201  0.12559941  0.12249828  1
  Fe  Fe2  1  -0.00091289  0.24688559  -0.00074872  1
  Fe  Fe3  1  0.87172161  0.12530310  0.62433136  1
  Fe  Fe4  1  0.50355083  0.75089285  0.24957635  1
  Fe  Fe5  1  0.75034826  0.49624784  0.49773012  1
  Fe  Fe6  1  0.37602043  0.12317340  0.12392134  1
  Fe  Fe7  1  -0.00017140  0.24722462  0.25141041  1
  Fe  Fe8  1  0.00021655  0.24793387  0.74914717  1
  Fe  Fe9  1  0.25056485  0.50231642  0.49715017  1
  Fe  Fe10  1  0.37484883  0.62114614  0.62576065  1
  Fe  Fe11  1  0.50003594  0.74755284  0.74963684  1
  Fe  Fe12  1  0.24922279  0.75089016  0.00145790  1
  Fe  Fe13  1  0.50132896  0.75011618  0.00034867  1
  Fe  Fe14  1  0.62568142  0.62202277  0.62675532  1
  Fe  Fe15  1  0.37579748  0.87534434  0.87479892  1
  Fe  Fe16  1  0.75102530  0.75278728  0.74591510  1
  Fe  Fe17  1  0.74919076  0.25087000  0.25164914  1
  Fe  Fe18  1  0.37324665  0.37135585  0.86979185  1
  Fe  Fe19  1  0.25269327  0.25160266  0.50120149  1
  Fe  Fe20  1  0.12199336  0.87789541  0.12583137  1
  Fe  Fe21  1  0.50488350  -0.00030839  0.25074177  1
  Fe  Fe22  1  0.24991150  0.74888209  0.49987538  1
  Fe  Fe23  1  0.37580730  0.12421442  0.37627171  1
  Fe  Fe24  1  0.12458765  0.62709905  0.87425866  1
  Fe  Fe25  1  0.12320462  0.87533449  0.62506733  1
  Fe  Fe26  1  -0.00080333  0.74877565  0.49972351  1
  Fe  Fe27  1  0.62970657  0.62705269  0.37395656  1
  Fe  Fe28  1  0.50344672  0.74777691  0.50088184  1
  Fe  Fe29  1  0.25100472  0.75081678  0.25027027  1
  Fe  Fe30  1  -0.00051855  0.24951348  0.50033035  1
  Fe  Fe31  1  0.87383208  0.62574553  0.87431097  1
  Fe  Fe32  1  0.87485412  0.37359823  0.62479645  1
  Fe  Fe33  1  0.75289188  0.24948299  -0.00160271  1
  Fe  Fe34  1  0.62688893  0.62597958  0.87445809  1
  Fe  Fe35  1  0.49747972  0.24806655  -0.00223007  1
  Fe  Fe36  1  0.62324774  0.37453287  0.12614513  1
  Fe  Fe37  1  0.37678671  0.87565063  0.62490481  1
  Fe  Fe38  1  0.87487844  0.87943165  0.12654055  1
  Fe  Fe39  1  0.25051510  -0.00079358  -0.00185531  1
  Fe  Fe40  1  -0.00434843  0.74962517  0.25155731  1
  Fe  Fe41  1  0.12402131  0.37570614  0.12691940  1
  Fe  Fe42  1  0.87631935  0.87565255  0.87321870  1
  Fe  Fe43  1  0.12658628  0.37726490  0.62463527  1
  Fe  Fe44  1  -0.00552671  0.50327413  0.25310113  1
  Fe  Fe45  1  0.37634623  0.62459701  0.12581731  1
  Fe  Fe46  1  -0.00068625  0.50074073  -0.00081303  1
  Fe  Fe47  1  0.86698184  0.87438894  0.37648240  1
  Fe  Fe48  1  0.62436624  0.37239928  0.87336098  1
  Fe  Fe49  1  -0.00125908  0.75112946  0.00003141  1
  Fe  Fe50  1  0.87443505  0.62556301  0.62411124  1
  Fe  Fe51  1  0.62663221  0.12704047  0.87216839  1
  Fe  Fe52  1  0.50324671  0.00115624  0.50202527  1
  Fe  Fe53  1  0.50005524  0.49976140  -0.00228651  1
  Fe  Fe54  1  0.12389932  0.12236686  0.12581739  1
  Fe  Fe55  1  0.25201342  0.24949409  0.25008958  1
  Fe  Fe56  1  -0.00087667  0.50213549  0.49790854  1
  Fe  Fe57  1  0.00109712  0.50212645  0.74939035  1
  Fe  Fe58  1  0.00118319  0.00048633  0.75185927  1
  Fe  Fe59  1  0.49924485  0.00374963  0.75082898  1
  Fe  Fe60  1  0.62709175  0.62302514  0.12519558  1
  Fe  Fe61  1  0.12593779  0.87421362  0.37577902  1
  Fe  Fe62  1  0.74944349  0.00005264  -0.00081529  1
  Fe  Fe63  1  0.87030728  0.12430121  0.37716803  1
  Fe  Fe64  1  0.75056257  0.49818397  0.00005630  1
  Fe  Fe65  1  0.37824179  0.87444526  0.37665790  1
  Fe  Fe66  1  0.75081547  0.75176219  0.00185409  1
  Fe  Fe67  1  0.24883305  0.75069036  0.74848628  1
  Fe  Fe68  1  0.25019176  0.49858187  -0.00100869  1
  Fe  Fe69  1  0.12665736  0.12210039  0.62242036  1
  Fe  Fe70  1  0.87645579  0.37352631  0.87352522  1
  Fe  Fe71  1  0.62388369  0.87476030  0.87412712  1
  Fe  Fe72  1  0.12384233  0.62429411  0.12730239  1
  Fe  Fe73  1  0.87581615  0.12190415  0.12673892  1
  Fe  Fe74  1  0.74906093  0.49710488  0.74990014  1
  Fe  Fe75  1  -0.00151939  -0.00056657  0.49703205  1
  Fe  Fe76  1  0.37876355  0.87734502  0.12405090  1
  Fe  Fe77  1  0.37205519  0.12363553  0.62639481  1
  Fe  Fe78  1  0.37771358  0.37479640  0.12665251  1
  Fe  Fe79  1  0.25280115  0.50150444  0.25277051  1
  Fe  Fe80  1  0.62613464  0.12596793  0.38021297  1
  Fe  Fe81  1  0.12379461  0.37522444  0.37443444  1
  Fe  Fe82  1  0.87565824  0.37458589  0.12612137  1
  Fe  Fe83  1  0.38067913  0.37436375  0.37639327  1
  Fe  Fe84  1  0.12597732  0.37242243  0.87421334  1
  Fe  Fe85  1  0.12699074  0.12511603  0.37637599  1
  Fe  Fe86  1  0.62057627  0.37312482  0.37606253  1
  Fe  Fe87  1  0.74941975  -0.00301808  0.74590105  1
  Fe  Fe88  1  0.12896965  0.12601670  0.87519775  1
  Fe  Fe89  1  0.37486490  0.62451402  0.87413465  1
  Co  Co90  1  0.12523067  0.87367858  0.87438070  1
  Co  Co91  1  0.74990832  0.25376138  0.74892627  1
  Co  Co92  1  -0.00091990  -0.00061795  0.25651177  1
  Co  Co93  1  0.74725111  -0.00418589  0.50541870  1
  Co  Co94  1  0.37646872  0.62843293  0.37449649  1
  Co  Co95  1  0.12449245  0.62591266  0.37321723  1
  Co  Co96  1  0.24966714  -0.00243859  0.75005990  1
  Co  Co97  1  0.12511483  0.62510877  0.62395220  1
  Co  Co98  1  0.62775742  0.87362593  0.37671378  1
  Co  Co99  1  0.50074571  0.00213798  -0.00376120  1
  Co  Co100  1  0.49738042  0.24807227  0.50635589  1
  Co  Co101  1  0.87995331  0.87580051  0.62478183  1
  Co  Co102  1  0.49980000  0.24931087  0.74507212  1
  Co  Co103  1  0.37171040  0.12817575  0.87306937  1
  Co  Co104  1  0.25006745  0.25087276  0.00391241  1
  Co  Co105  1  0.50110976  0.50268684  0.25112441  1
  Co  Co106  1  0.50230043  0.49915992  0.75191818  1
  Co  Co107  1  0.63028195  0.12795551  0.62538614  1
  Co  Co108  1  0.74549915  0.00125843  0.24962895  1
  Co  Co109  1  0.75111735  0.49662368  0.25211634  1
  Co  Co110  1  0.75019478  0.25402199  0.49959616  1
  Co  Co111  1  0.87159049  0.12428716  0.87172465  1
  Co  Co112  1  0.50133729  0.50363459  0.49899770  1
  Co  Co113  1  0.86873895  0.62943702  0.37834663  1
  Co  Co114  1  0.87369826  0.62339160  0.12365292  1
  Co  Co115  1  0.25069260  -0.00239100  0.49923733  1
  Co  Co116  1  0.50026486  0.24626409  0.24978152  1
  Co  Co117  1  -0.00023089  0.00115063  -0.00384108  1
  Co  Co118  1  0.61855368  0.87545113  0.62744066  1
  Co  Co119  1  0.62401554  0.87638251  0.12235286  1
  Co  Co120  1  0.24866862  0.24992746  0.74436955  1
  Co  Co121  1  0.37518582  0.38107054  0.62602521  1
  Co  Co122  1  0.62311583  0.37499553  0.62223559  1
  Co  Co123  1  0.87807421  0.37223027  0.37509264  1
  Co  Co124  1  0.24761029  0.50134519  0.75164623  1
  Co  Co125  1  0.74987098  0.75113876  0.24502722  1
  Co  Co126  1  0.74672454  0.75380948  0.50807767  1
  Co  Co127  1  -0.00017651  0.74881050  0.74987767  1
