# generated using pymatgen
data_Fe45Co19
_symmetry_space_group_name_H-M   'P 1'
_cell_length_a   11.41502863
_cell_length_b   11.41403610
_cell_length_c   11.41546827
_cell_angle_alpha   90.00562351
_cell_angle_beta   89.99586890
_cell_angle_gamma   90.00577040
_symmetry_Int_Tables_number   1
_chemical_formula_structural   Fe45Co19
_chemical_formula_sum   'Fe90 Co38'
_cell_volume   1487.33902404
_cell_formula_units_Z   2
loop_
 _symmetry_equiv_pos_site_id
 _symmetry_equiv_pos_as_xyz
  1  'x, y, z'
loop_
 _atom_site_type_symbol
 _atom_site_label
 _atom_site_symmetry_multiplicity
 _atom_site_fract_x
 _atom_site_fract_y
 _atom_site_fract_z
 _atom_site_occupancy
  Fe  Fe0  1  0.62535241  0.62422268  0.37331425  1
  Fe  Fe1  1  0.25194373  0.75183935  0.25465616  1
  Fe  Fe2  1  0.50012587  0.00302417  0.24934369  1
  Fe  Fe3  1  0.50125920  0.50034547  0.50106697  1
  Fe  Fe4  1  0.50016304  -0.00032090  0.00089504  1
  Fe  Fe5  1  0.87337700  0.62637341  0.62330624  1
  Fe  Fe6  1  0.74807809  0.75047085  0.49775495  1
  Fe  Fe7  1  0.74982681  0.49853568  0.49904035  1
  Fe  Fe8  1  0.37275348  0.87527342  0.12662274  1
  Fe  Fe9  1  0.74695467  0.00333789  0.25085462  1
  Fe  Fe10  1  0.75019411  0.00069985  0.49903100  1
  Fe  Fe11  1  0.87511131  0.62530844  0.87681899  1
  Fe  Fe12  1  0.74814256  -0.00017277  0.75146374  1
  Fe  Fe13  1  0.25333325  -0.00259796  0.74720137  1
  Fe  Fe14  1  0.50183472  0.24615789  0.74786649  1
  Fe  Fe15  1  0.12590510  0.12117402  0.87246784  1
  Fe  Fe16  1  0.12574972  0.37717253  0.87391292  1
  Fe  Fe17  1  0.12251779  0.62366781  0.37410019  1
  Fe  Fe18  1  0.62389480  0.37199494  0.12733885  1
  Fe  Fe19  1  0.87324478  0.37545775  0.87385393  1
  Fe  Fe20  1  0.87474907  0.37441491  0.37429548  1
  Fe  Fe21  1  0.12790077  0.12446122  0.62456368  1
  Fe  Fe22  1  0.49805488  0.00265588  0.50455333  1
  Fe  Fe23  1  0.00146167  0.24913052  0.75071834  1
  Fe  Fe24  1  0.25267475  0.49709899  0.25201524  1
  Fe  Fe25  1  0.12637890  0.87839748  0.37533897  1
  Fe  Fe26  1  0.24928095  0.50029228  0.49909264  1
  Fe  Fe27  1  0.00100010  0.49878151  0.00100519  1
  Fe  Fe28  1  0.74707956  0.49913553  -0.00157692  1
  Fe  Fe29  1  0.37596577  0.12475761  0.37755757  1
  Fe  Fe30  1  0.12676758  0.12379382  0.37659210  1
  Fe  Fe31  1  0.50108582  0.50015667  0.00004190  1
  Fe  Fe32  1  0.37275549  0.62463238  0.12414410  1
  Fe  Fe33  1  0.74822514  0.24797959  0.75086579  1
  Fe  Fe34  1  0.87526338  0.87587935  0.37492818  1
  Fe  Fe35  1  0.62159508  0.87613185  0.37511730  1
  Fe  Fe36  1  -0.00015381  0.25000334  0.50046328  1
  Fe  Fe37  1  -0.00283044  0.75040498  0.24816555  1
  Fe  Fe38  1  0.62605085  0.62756775  0.12291835  1
  Fe  Fe39  1  -0.00278853  0.49990808  0.24820222  1
  Fe  Fe40  1  0.62035458  0.87211197  0.87456307  1
  Fe  Fe41  1  0.87537274  0.12489283  0.37593780  1
  Fe  Fe42  1  0.87364987  0.12388259  0.12395070  1
  Fe  Fe43  1  0.50262345  0.50350584  0.75047148  1
  Fe  Fe44  1  0.37775958  0.62701971  0.87521101  1
  Fe  Fe45  1  0.49888736  0.75002139  0.25012141  1
  Fe  Fe46  1  0.00130201  0.75362836  0.00087386  1
  Fe  Fe47  1  0.74814141  0.24944986  -0.00050027  1
  Fe  Fe48  1  0.24830130  -0.00200593  0.00045999  1
  Fe  Fe49  1  0.37426042  0.12552182  0.12371685  1
  Fe  Fe50  1  0.12844062  0.37595230  0.12512865  1
  Fe  Fe51  1  0.75233291  0.50037490  0.24901703  1
  Fe  Fe52  1  0.12660598  0.62848412  0.62726813  1
  Fe  Fe53  1  0.87348113  0.37540592  0.62722050  1
  Fe  Fe54  1  0.87555522  0.12370485  0.87550954  1
  Fe  Fe55  1  -0.00125281  -0.00125375  0.74583785  1
  Fe  Fe56  1  0.12575039  0.37510512  0.62633994  1
  Fe  Fe57  1  0.37682334  0.37438657  0.87437719  1
  Fe  Fe58  1  0.25093525  0.25245723  0.49963172  1
  Fe  Fe59  1  0.00016154  0.49969619  0.50095324  1
  Fe  Fe60  1  0.25409833  0.25305600  0.25166894  1
  Fe  Fe61  1  0.12680109  0.62518796  0.12452228  1
  Fe  Fe62  1  0.62287900  0.36924371  0.37438717  1
  Fe  Fe63  1  0.62574181  0.87404823  0.12469233  1
  Fe  Fe64  1  0.12640802  0.87273906  0.62559150  1
  Fe  Fe65  1  0.00115565  0.25042231  -0.00067034  1
  Fe  Fe66  1  0.24943902  0.25101494  -0.00277762  1
  Fe  Fe67  1  0.49797860  0.49882260  0.24906371  1
  Fe  Fe68  1  0.25067867  0.50288072  0.75189175  1
  Fe  Fe69  1  0.37521565  0.86774166  0.62169286  1
  Fe  Fe70  1  0.37544595  0.12378240  0.87224380  1
  Fe  Fe71  1  0.37701306  0.62533243  0.37849812  1
  Fe  Fe72  1  0.37435802  0.37585841  0.62628267  1
  Fe  Fe73  1  -0.00056916  0.75228987  0.50037812  1
  Fe  Fe74  1  0.62454962  0.87501371  0.62560189  1
  Fe  Fe75  1  0.74822898  -0.00148612  -0.00093399  1
  Fe  Fe76  1  0.00279562  -0.00214877  0.00267168  1
  Fe  Fe77  1  0.37775280  0.87413083  0.87350746  1
  Fe  Fe78  1  0.24770726  0.75135246  -0.00344867  1
  Fe  Fe79  1  0.75266881  0.74897142  0.24921718  1
  Fe  Fe80  1  0.74952682  0.74875503  0.75194282  1
  Fe  Fe81  1  0.00155546  -0.00018518  0.24861665  1
  Fe  Fe82  1  0.62574258  0.62495910  0.62516727  1
  Fe  Fe83  1  0.87324219  0.12431234  0.62450735  1
  Fe  Fe84  1  -0.00087884  0.25158938  0.24882209  1
  Fe  Fe85  1  0.12786995  0.12534658  0.12664889  1
  Fe  Fe86  1  0.87713927  0.87544594  0.87380054  1
  Fe  Fe87  1  0.50158004  0.24925517  -0.00032252  1
  Fe  Fe88  1  -0.00098919  0.50185356  0.74951135  1
  Fe  Fe89  1  0.62659562  0.37394258  0.62605610  1
  Co  Co90  1  0.24803047  0.74920264  0.49561548  1
  Co  Co91  1  0.37880896  0.87600693  0.37726984  1
  Co  Co92  1  0.37367438  0.62608552  0.62238574  1
  Co  Co93  1  0.75210980  0.25066308  0.50053008  1
  Co  Co94  1  0.62278672  0.12245120  0.87460528  1
  Co  Co95  1  0.75191492  0.75285928  -0.00083650  1
  Co  Co96  1  0.49827164  0.00010407  0.74595672  1
  Co  Co97  1  0.50381322  0.74730366  0.49900210  1
  Co  Co98  1  0.37548182  0.37496267  0.12195638  1
  Co  Co99  1  0.12811341  0.87392376  0.12844980  1
  Co  Co100  1  0.87344400  0.87754320  0.12659078  1
  Co  Co101  1  0.12228438  0.62550447  0.87465646  1
  Co  Co102  1  0.37080118  0.12872090  0.62729067  1
  Co  Co103  1  0.62212297  0.12823870  0.37933755  1
  Co  Co104  1  0.49764686  0.24788888  0.24863229  1
  Co  Co105  1  0.62323871  0.62944688  0.87838156  1
  Co  Co106  1  0.12343480  0.87761780  0.87055423  1
  Co  Co107  1  0.24814312  0.25147645  0.75256497  1
  Co  Co108  1  0.62490573  0.12490303  0.12293434  1
  Co  Co109  1  0.25270167  -0.00146475  0.50181420  1
  Co  Co110  1  0.37924114  0.37516974  0.37840385  1
  Co  Co111  1  0.87146692  0.87400402  0.62462798  1
  Co  Co112  1  0.50061119  0.74738907  0.74725389  1
  Co  Co113  1  0.62432493  0.37351082  0.87250886  1
  Co  Co114  1  -0.00041497  -0.00058833  0.50236787  1
  Co  Co115  1  0.49713859  0.75067136  0.00373225  1
  Co  Co116  1  0.25152175  0.74914510  0.75344607  1
  Co  Co117  1  0.49864513  0.24879284  0.50541930  1
  Co  Co118  1  0.87541195  0.62484987  0.37752924  1
  Co  Co119  1  -0.00205448  0.74999655  0.74935710  1
  Co  Co120  1  0.87310921  0.37412269  0.12375160  1
  Co  Co121  1  0.74837391  0.50331956  0.75183708  1
  Co  Co122  1  0.74988822  0.24694014  0.25004438  1
  Co  Co123  1  0.25116222  0.50074804  -0.00327966  1
  Co  Co124  1  0.62812895  0.12390505  0.62399187  1
  Co  Co125  1  0.25225470  0.00044945  0.25121351  1
  Co  Co126  1  0.12328596  0.37573249  0.37429820  1
  Co  Co127  1  0.87467955  0.62498475  0.12097099  1
