# generated using pymatgen
data_Fe45Co19
_symmetry_space_group_name_H-M   'P 1'
_cell_length_a   11.41537355
_cell_length_b   11.41532381
_cell_length_c   11.41546057
_cell_angle_alpha   89.99980106
_cell_angle_beta   89.99789916
_cell_angle_gamma   90.00097714
_symmetry_Int_Tables_number   1
_chemical_formula_structural   Fe45Co19
_chemical_formula_sum   'Fe90 Co38'
_cell_volume   1487.55078285
_cell_formula_units_Z   2
loop_
 _symmetry_equiv_pos_site_id
 _symmetry_equiv_pos_as_xyz
  1  'x, y, z'
loop_
 _atom_site_type_symbol
 _atom_site_label
 _atom_site_symmetry_multiplicity
 _atom_site_fract_x
 _atom_site_fract_y
 _atom_site_fract_z
 _atom_site_occupancy
  Fe  Fe0  1  0.37623556  0.12560808  0.62366890  1
  Fe  Fe1  1  0.24652560  0.49678114  0.24966252  1
  Fe  Fe2  1  0.37611809  0.37868015  0.62208172  1
  Fe  Fe3  1  0.62674537  0.37739403  0.37465825  1
  Fe  Fe4  1  0.87323133  0.12873771  0.12655142  1
  Fe  Fe5  1  0.37633897  0.37381114  0.12519003  1
  Fe  Fe6  1  0.37725837  0.87479877  0.87516862  1
  Fe  Fe7  1  0.25509668  -0.00165331  0.00267741  1
  Fe  Fe8  1  0.37484305  0.62548602  0.12591430  1
  Fe  Fe9  1  0.87595304  0.87407543  0.87417386  1
  Fe  Fe10  1  0.87667101  0.36863721  0.37236003  1
  Fe  Fe11  1  0.50204321  0.50143261  0.75174722  1
  Fe  Fe12  1  0.12387282  0.87659663  0.37352294  1
  Fe  Fe13  1  0.11995976  0.62467221  0.62474361  1
  Fe  Fe14  1  -0.00235017  0.49764492  0.49807623  1
  Fe  Fe15  1  0.50214564  0.74812467  -0.00088343  1
  Fe  Fe16  1  0.24934413  0.50110204  0.74718501  1
  Fe  Fe17  1  -0.00208052  0.00307453  -0.00105513  1
  Fe  Fe18  1  0.62960715  0.11934101  0.37374899  1
  Fe  Fe19  1  0.62580644  0.37790775  0.62416459  1
  Fe  Fe20  1  0.87571272  0.12967819  0.62477674  1
  Fe  Fe21  1  0.25520666  -0.00297162  0.24797311  1
  Fe  Fe22  1  0.37594103  0.87288859  0.62221060  1
  Fe  Fe23  1  -0.00192837  0.75250562  0.49936304  1
  Fe  Fe24  1  0.50282171  0.25134492  0.49760983  1
  Fe  Fe25  1  0.49973066  0.50120234  0.25208808  1
  Fe  Fe26  1  0.74985795  0.25085799  0.74829986  1
  Fe  Fe27  1  0.75182987  0.74867526  0.74762631  1
  Fe  Fe28  1  0.87898633  0.87357589  0.12622274  1
  Fe  Fe29  1  0.49916379  -0.00107503  0.49761097  1
  Fe  Fe30  1  0.12717203  0.12350349  0.12424699  1
  Fe  Fe31  1  0.74846971  0.75181379  0.00227497  1
  Fe  Fe32  1  0.62453254  0.37651507  0.12469475  1
  Fe  Fe33  1  0.50125381  0.50051232  -0.00231804  1
  Fe  Fe34  1  0.74691587  0.24981314  0.00196849  1
  Fe  Fe35  1  0.62184351  0.12147799  0.12827840  1
  Fe  Fe36  1  0.00123716  0.24685970  -0.00288578  1
  Fe  Fe37  1  0.25157829  -0.00106876  0.74894158  1
  Fe  Fe38  1  0.24917352  -0.00085462  0.50129958  1
  Fe  Fe39  1  0.62542959  0.12349808  0.87387569  1
  Fe  Fe40  1  0.12265897  0.62250718  0.37273425  1
  Fe  Fe41  1  0.75452517  0.49731612  0.24755299  1
  Fe  Fe42  1  -0.00156908  0.00450415  0.75361885  1
  Fe  Fe43  1  0.12363583  0.87678487  0.87587022  1
  Fe  Fe44  1  0.75238167  0.50054459  0.00218077  1
  Fe  Fe45  1  0.12042397  0.87609659  0.62729859  1
  Fe  Fe46  1  0.87088479  0.12795086  0.37336981  1
  Fe  Fe47  1  0.61929625  0.87820185  0.12836912  1
  Fe  Fe48  1  0.00285808  0.74756759  0.00334120  1
  Fe  Fe49  1  -0.00287785  0.49986858  0.75151207  1
  Fe  Fe50  1  0.75301571  0.49880005  0.49983231  1
  Fe  Fe51  1  0.37256095  0.12636150  0.37540502  1
  Fe  Fe52  1  0.87565894  0.62792001  0.37127631  1
  Fe  Fe53  1  0.12449660  0.62359621  0.87679776  1
  Fe  Fe54  1  0.37345020  0.37727979  0.37820528  1
  Fe  Fe55  1  0.50126322  0.74752597  0.74902926  1
  Fe  Fe56  1  0.37557448  0.12443573  0.87384725  1
  Fe  Fe57  1  0.62453548  0.87680768  0.87361798  1
  Fe  Fe58  1  0.24986986  0.25103878  0.75008748  1
  Fe  Fe59  1  0.50291953  0.74566650  0.49667483  1
  Fe  Fe60  1  0.12587579  0.12470283  0.37482706  1
  Fe  Fe61  1  0.24705796  0.25208780  0.50022775  1
  Fe  Fe62  1  0.62447959  0.12443613  0.62351750  1
  Fe  Fe63  1  0.12379668  0.37610304  0.87657170  1
  Fe  Fe64  1  0.49998120  0.25227388  0.75112146  1
  Fe  Fe65  1  0.75238800  0.75187270  0.50052155  1
  Fe  Fe66  1  0.74925580  0.75400138  0.24982566  1
  Fe  Fe67  1  0.37456135  0.62459752  0.87443771  1
  Fe  Fe68  1  0.62671620  0.62402213  0.12705024  1
  Fe  Fe69  1  0.25094158  0.25119163  -0.00037788  1
  Fe  Fe70  1  0.87405605  0.37245237  0.87610377  1
  Fe  Fe71  1  0.75109543  -0.00000733  0.74765213  1
  Fe  Fe72  1  0.12035517  0.37297773  0.62422899  1
  Fe  Fe73  1  0.25079702  0.49933882  0.00141436  1
  Fe  Fe74  1  -0.00384722  0.00082006  0.49906266  1
  Fe  Fe75  1  0.87457977  0.62755747  0.87685815  1
  Fe  Fe76  1  -0.00241350  0.00158827  0.25052529  1
  Fe  Fe77  1  0.24699082  0.74762992  0.50241126  1
  Fe  Fe78  1  0.24879158  0.74913197  0.74868533  1
  Fe  Fe79  1  0.50154018  0.25012800  0.25260024  1
  Fe  Fe80  1  0.74952540  -0.00134325  0.00204303  1
  Fe  Fe81  1  0.24794185  0.75098341  0.00315642  1
  Fe  Fe82  1  0.50084409  0.74993599  0.25544713  1
  Fe  Fe83  1  0.12315662  0.12636239  0.62624912  1
  Fe  Fe84  1  0.37124231  0.62340980  0.37724144  1
  Fe  Fe85  1  0.62533088  0.87509472  0.62285051  1
  Fe  Fe86  1  0.75224352  0.50188811  0.74964954  1
  Fe  Fe87  1  0.24674653  0.75195355  0.24709436  1
  Fe  Fe88  1  0.24658846  0.25309184  0.24938572  1
  Fe  Fe89  1  0.50060243  0.25070273  -0.00227735  1
  Co  Co90  1  0.62857653  0.37560987  0.87472694  1
  Co  Co91  1  0.62756236  0.62372801  0.62340224  1
  Co  Co92  1  0.74749729  0.25092214  0.49967715  1
  Co  Co93  1  0.49406433  -0.00067100  0.25460729  1
  Co  Co94  1  0.00049517  0.24848229  0.75463167  1
  Co  Co95  1  0.00071493  0.74742741  0.75190370  1
  Co  Co96  1  0.86887874  0.12642775  0.87555195  1
  Co  Co97  1  0.24546667  0.50038696  0.50224308  1
  Co  Co98  1  0.49900128  0.00168085  -0.00026431  1
  Co  Co99  1  0.87752915  0.36896587  0.12361998  1
  Co  Co100  1  0.37628815  0.12925851  0.12654686  1
  Co  Co101  1  0.12510670  0.62029535  0.12592520  1
  Co  Co102  1  0.12115977  0.37548416  0.12114899  1
  Co  Co103  1  -0.00502565  0.50245689  0.00208680  1
  Co  Co104  1  0.75509286  -0.00119888  0.50331783  1
  Co  Co105  1  0.87630679  0.37232198  0.62552823  1
  Co  Co106  1  0.62769525  0.62541543  0.87538714  1
  Co  Co107  1  0.00040306  0.24817030  0.49777776  1
  Co  Co108  1  0.37380507  0.37677255  0.87422969  1
  Co  Co109  1  0.87851922  0.87468478  0.62885146  1
  Co  Co110  1  0.00429882  0.24863382  0.24963206  1
  Co  Co111  1  -0.00286280  0.49818176  0.24812430  1
  Co  Co112  1  0.12279226  0.37557459  0.37597878  1
  Co  Co113  1  0.50295430  0.50259779  0.49742367  1
  Co  Co114  1  0.12222485  0.87996755  0.12506807  1
  Co  Co115  1  0.87539043  0.87422701  0.37260827  1
  Co  Co116  1  0.74549178  0.25109977  0.24856856  1
  Co  Co117  1  0.00363375  0.74978678  0.24776642  1
  Co  Co118  1  0.75340101  -0.00243779  0.24625397  1
  Co  Co119  1  0.87367321  0.62885063  0.12750703  1
  Co  Co120  1  0.49959518  -0.00072525  0.74834020  1
  Co  Co121  1  0.37156869  0.87151234  0.37845657  1
  Co  Co122  1  0.13020205  0.12329484  0.87613660  1
  Co  Co123  1  0.63118439  0.62350147  0.37329071  1
  Co  Co124  1  0.62848068  0.87935885  0.37591281  1
  Co  Co125  1  0.87675462  0.62494352  0.62306865  1
  Co  Co126  1  0.37709067  0.62327999  0.62366423  1
  Co  Co127  1  0.37991015  0.87096584  0.12505825  1
