# generated using pymatgen
data_Fe45Co19
_symmetry_space_group_name_H-M   'P 1'
_cell_length_a   11.41558493
_cell_length_b   11.41485936
_cell_length_c   11.41401829
_cell_angle_alpha   90.00844549
_cell_angle_beta   89.99727091
_cell_angle_gamma   90.00725944
_symmetry_Int_Tables_number   1
_chemical_formula_structural   Fe45Co19
_chemical_formula_sum   'Fe90 Co38'
_cell_volume   1487.32983636
_cell_formula_units_Z   2
loop_
 _symmetry_equiv_pos_site_id
 _symmetry_equiv_pos_as_xyz
  1  'x, y, z'
loop_
 _atom_site_type_symbol
 _atom_site_label
 _atom_site_symmetry_multiplicity
 _atom_site_fract_x
 _atom_site_fract_y
 _atom_site_fract_z
 _atom_site_occupancy
  Fe  Fe0  1  0.87760969  0.12391658  0.12204248  1
  Fe  Fe1  1  0.12461563  0.62156247  0.37343155  1
  Fe  Fe2  1  0.87537610  0.87928465  0.37280157  1
  Fe  Fe3  1  0.87309034  0.62492439  0.87691046  1
  Fe  Fe4  1  0.37176194  0.87279504  0.62713114  1
  Fe  Fe5  1  0.37588426  0.37568858  0.37431177  1
  Fe  Fe6  1  0.00073629  0.74942007  0.25102563  1
  Fe  Fe7  1  0.25026541  0.74929591  0.24995850  1
  Fe  Fe8  1  0.12736338  0.62177572  0.87707783  1
  Fe  Fe9  1  0.24884241  0.75040636  0.49765772  1
  Fe  Fe10  1  0.87360554  0.62711546  0.62550670  1
  Fe  Fe11  1  0.87515709  0.62471308  0.12452400  1
  Fe  Fe12  1  0.50207556  0.24969637  0.25137887  1
  Fe  Fe13  1  0.37597812  0.62447715  0.37646611  1
  Fe  Fe14  1  0.87579625  0.87602625  0.62879691  1
  Fe  Fe15  1  0.62471643  0.37950349  0.87159496  1
  Fe  Fe16  1  0.62247378  0.37488416  0.62868681  1
  Fe  Fe17  1  0.37427465  0.12878553  0.12405936  1
  Fe  Fe18  1  0.50001724  -0.00125504  0.50312794  1
  Fe  Fe19  1  0.12780898  0.87652906  0.87715263  1
  Fe  Fe20  1  0.00123876  0.24803838  0.24840819  1
  Fe  Fe21  1  0.49910358  0.25109411  -0.00472121  1
  Fe  Fe22  1  0.62241450  0.11965571  0.87275726  1
  Fe  Fe23  1  0.87280630  0.37285821  0.12519201  1
  Fe  Fe24  1  0.75002262  0.49849453  0.50190952  1
  Fe  Fe25  1  0.50095812  0.75430397  0.49924188  1
  Fe  Fe26  1  0.75048205  0.49889269  0.00007788  1
  Fe  Fe27  1  0.12634717  0.37702624  0.37246718  1
  Fe  Fe28  1  0.62526157  0.12112425  0.37477319  1
  Fe  Fe29  1  0.74587228  0.49797366  0.24917286  1
  Fe  Fe30  1  0.37381312  0.12164389  0.87368049  1
  Fe  Fe31  1  0.50076677  0.24860836  0.50137574  1
  Fe  Fe32  1  0.37311701  0.87540668  0.87398514  1
  Fe  Fe33  1  0.37547827  0.62624103  0.12319354  1
  Fe  Fe34  1  0.74859107  0.74956499  0.75486440  1
  Fe  Fe35  1  0.24940543  0.74686707  0.75236398  1
  Fe  Fe36  1  0.74986943  -0.00542076  -0.00197163  1
  Fe  Fe37  1  -0.00052796  0.49435678  -0.00067272  1
  Fe  Fe38  1  0.00042577  0.25147551  0.49903030  1
  Fe  Fe39  1  0.50132183  0.75018008  -0.00339051  1
  Fe  Fe40  1  0.62336147  0.12335657  0.12340136  1
  Fe  Fe41  1  0.12691622  0.12582345  0.88259471  1
  Fe  Fe42  1  0.62494982  0.88039942  0.37064711  1
  Fe  Fe43  1  0.12566911  0.87706746  0.37428436  1
  Fe  Fe44  1  0.12563812  0.37380710  0.62791772  1
  Fe  Fe45  1  0.49930704  0.75157556  0.25212646  1
  Fe  Fe46  1  0.74912729  0.75191508  0.24777861  1
  Fe  Fe47  1  0.87621517  0.12419861  0.62524446  1
  Fe  Fe48  1  0.37546552  0.37956453  0.86815648  1
  Fe  Fe49  1  0.00107962  0.25054134  0.75496141  1
  Fe  Fe50  1  0.49957374  0.50003266  -0.00109030  1
  Fe  Fe51  1  -0.00106045  0.75030782  0.49885208  1
  Fe  Fe52  1  0.50190322  0.49947336  0.24919445  1
  Fe  Fe53  1  0.00435987  0.00089864  0.75080071  1
  Fe  Fe54  1  0.25190389  0.49917509  0.50368231  1
  Fe  Fe55  1  0.87409504  0.12304941  0.37508598  1
  Fe  Fe56  1  0.87741972  0.12370030  0.87764736  1
  Fe  Fe57  1  0.12512198  0.12427892  0.37566939  1
  Fe  Fe58  1  0.62486310  0.62481302  0.37719325  1
  Fe  Fe59  1  0.75016641  0.75403341  0.49880499  1
  Fe  Fe60  1  0.87827481  0.87635653  0.12488016  1
  Fe  Fe61  1  0.74788482  0.24959765  -0.00246826  1
  Fe  Fe62  1  0.37612133  0.37263886  0.12701157  1
  Fe  Fe63  1  0.87387618  0.62270327  0.37294972  1
  Fe  Fe64  1  0.49800074  -0.00181813  0.00058556  1
  Fe  Fe65  1  -0.00124738  0.49877715  0.75225756  1
  Fe  Fe66  1  0.12434750  0.62592388  0.62432988  1
  Fe  Fe67  1  0.37486784  0.12161931  0.37511103  1
  Fe  Fe68  1  0.00042704  0.75127372  -0.00126579  1
  Fe  Fe69  1  0.24954177  0.24803798  0.75181374  1
  Fe  Fe70  1  0.74623441  0.24947396  0.24951793  1
  Fe  Fe71  1  0.37539936  0.12636110  0.62759707  1
  Fe  Fe72  1  0.74764630  0.24854579  0.50185764  1
  Fe  Fe73  1  0.00181614  0.74932785  0.75227671  1
  Fe  Fe74  1  0.24770746  0.00152839  0.24466474  1
  Fe  Fe75  1  0.25148693  0.49809377  0.00115696  1
  Fe  Fe76  1  0.00147265  -0.00107312  0.50280381  1
  Fe  Fe77  1  0.12876273  0.37044315  0.12526642  1
  Fe  Fe78  1  0.62544104  0.62736767  0.12170097  1
  Fe  Fe79  1  0.87517533  0.37305688  0.62831674  1
  Fe  Fe80  1  0.25061432  0.25074867  0.50016843  1
  Fe  Fe81  1  0.62690955  0.87765860  0.63009480  1
  Fe  Fe82  1  -0.00176936  0.49973094  0.50039405  1
  Fe  Fe83  1  0.74823380  0.24654691  0.75071753  1
  Fe  Fe84  1  0.87394287  0.37464849  0.37281650  1
  Fe  Fe85  1  0.50076903  0.74440409  0.75197885  1
  Fe  Fe86  1  0.49846026  0.50058934  0.50562320  1
  Fe  Fe87  1  0.12508929  0.62464949  0.12431740  1
  Fe  Fe88  1  0.37509271  0.87266406  0.12480076  1
  Fe  Fe89  1  0.24778235  0.00013713  0.50555514  1
  Co  Co90  1  0.37316795  0.63141301  0.62181558  1
  Co  Co91  1  0.37546275  0.37073127  0.62912949  1
  Co  Co92  1  0.00066120  0.49756729  0.24741748  1
  Co  Co93  1  -0.00149865  0.25590375  -0.00141130  1
  Co  Co94  1  0.62232432  0.87667274  0.87316500  1
  Co  Co95  1  0.62374332  0.12230176  0.62736555  1
  Co  Co96  1  0.12364060  0.87248882  0.12435376  1
  Co  Co97  1  0.49630061  -0.00131213  0.74835456  1
  Co  Co98  1  0.00209953  -0.00260219  0.00011439  1
  Co  Co99  1  0.25227520  0.50114058  0.24804141  1
  Co  Co100  1  0.50110103  0.24800673  0.75266909  1
  Co  Co101  1  0.24711885  0.00188666  0.74857833  1
  Co  Co102  1  0.25180008  0.50389839  0.74616218  1
  Co  Co103  1  0.37207295  0.87886837  0.37489489  1
  Co  Co104  1  0.75094488  0.00094559  0.24596928  1
  Co  Co105  1  0.24957942  0.75022757  0.00036708  1
  Co  Co106  1  0.49868154  0.50836389  0.74612442  1
  Co  Co107  1  0.12520501  0.87115709  0.62600432  1
  Co  Co108  1  0.12321595  0.12978798  0.62502748  1
  Co  Co109  1  0.62218358  0.87485480  0.12470440  1
  Co  Co110  1  0.00373861  0.00328300  0.24794679  1
  Co  Co111  1  0.25195318  -0.00141326  0.00382178  1
  Co  Co112  1  0.25630859  0.25316680  -0.00420826  1
  Co  Co113  1  0.75073454  0.50239057  0.74850355  1
  Co  Co114  1  0.87812748  0.87529199  0.87270784  1
  Co  Co115  1  0.12574809  0.13064049  0.11830103  1
  Co  Co116  1  0.75077795  0.75514242  -0.00087700  1
  Co  Co117  1  0.62366792  0.37326470  0.12138589  1
  Co  Co118  1  0.37264519  0.62388294  0.87769091  1
  Co  Co119  1  0.62322496  0.37512346  0.37792506  1
  Co  Co120  1  0.49685394  0.00076577  0.24687253  1
  Co  Co121  1  0.75241885  0.00185008  0.75257618  1
  Co  Co122  1  0.62782992  0.62769766  0.62230201  1
  Co  Co123  1  0.62769191  0.62286268  0.87838795  1
  Co  Co124  1  0.87004853  0.37418054  0.87382867  1
  Co  Co125  1  0.12904572  0.37575150  0.87357451  1
  Co  Co126  1  0.74973377  -0.00033535  0.50252677  1
  Co  Co127  1  0.25071626  0.24819629  0.25272221  1
