# generated using pymatgen
data_Fe45Co19
_symmetry_space_group_name_H-M   'P 1'
_cell_length_a   11.41578450
_cell_length_b   11.41454086
_cell_length_c   11.41511007
_cell_angle_alpha   90.00249694
_cell_angle_beta   89.99949529
_cell_angle_gamma   90.00318967
_symmetry_Int_Tables_number   1
_chemical_formula_structural   Fe45Co19
_chemical_formula_sum   'Fe90 Co38'
_cell_volume   1487.45662830
_cell_formula_units_Z   2
loop_
 _symmetry_equiv_pos_site_id
 _symmetry_equiv_pos_as_xyz
  1  'x, y, z'
loop_
 _atom_site_type_symbol
 _atom_site_label
 _atom_site_symmetry_multiplicity
 _atom_site_fract_x
 _atom_site_fract_y
 _atom_site_fract_z
 _atom_site_occupancy
  Fe  Fe0  1  0.25032640  -0.00132354  0.50202364  1
  Fe  Fe1  1  -0.00121267  0.50061729  0.74791445  1
  Fe  Fe2  1  0.12550546  0.87417971  0.62900177  1
  Fe  Fe3  1  0.50053714  -0.00173024  0.00061377  1
  Fe  Fe4  1  0.37200261  0.37644602  0.86970144  1
  Fe  Fe5  1  0.62614529  0.62425240  0.37600431  1
  Fe  Fe6  1  0.37516332  0.37445096  0.37569690  1
  Fe  Fe7  1  0.25018257  0.75241045  0.24793045  1
  Fe  Fe8  1  0.49938858  0.25099006  -0.00194620  1
  Fe  Fe9  1  0.50039584  0.75157013  -0.00093658  1
  Fe  Fe10  1  0.37861892  0.12874098  0.62569266  1
  Fe  Fe11  1  0.74959643  0.75451477  0.25378979  1
  Fe  Fe12  1  0.75260103  0.00481081  0.75158749  1
  Fe  Fe13  1  0.37680433  0.62501292  0.62545314  1
  Fe  Fe14  1  0.75185491  0.00009634  0.00155516  1
  Fe  Fe15  1  0.37239392  0.12301672  0.37425528  1
  Fe  Fe16  1  0.62703231  0.62577914  0.12407579  1
  Fe  Fe17  1  0.87479237  0.37530792  0.37408949  1
  Fe  Fe18  1  0.87741706  0.12187160  0.37796677  1
  Fe  Fe19  1  0.49752616  -0.00174177  0.50063827  1
  Fe  Fe20  1  0.87310621  0.87349792  0.62571600  1
  Fe  Fe21  1  -0.00242575  0.50141899  0.24774859  1
  Fe  Fe22  1  0.25069914  0.75203507  0.50145424  1
  Fe  Fe23  1  0.74801384  0.24931619  0.49782154  1
  Fe  Fe24  1  0.62816615  0.87758463  0.87470046  1
  Fe  Fe25  1  0.12389259  0.12462871  0.87450333  1
  Fe  Fe26  1  0.00123622  0.25266439  -0.00212400  1
  Fe  Fe27  1  0.37364342  0.12439107  0.12525035  1
  Fe  Fe28  1  0.87444533  0.62432942  0.37632092  1
  Fe  Fe29  1  0.00248507  0.24814489  0.25117465  1
  Fe  Fe30  1  0.62805422  0.62244607  0.87496053  1
  Fe  Fe31  1  0.87760610  0.87379632  0.12862055  1
  Fe  Fe32  1  -0.00375239  0.00290815  0.74968098  1
  Fe  Fe33  1  0.00126130  -0.00326921  -0.00105799  1
  Fe  Fe34  1  0.74922763  0.24928361  -0.00103227  1
  Fe  Fe35  1  0.37418591  0.12437877  0.87599859  1
  Fe  Fe36  1  0.12572728  0.62327146  0.37649956  1
  Fe  Fe37  1  0.24973895  0.25138701  -0.00054814  1
  Fe  Fe38  1  0.25062347  0.74610196  0.75154204  1
  Fe  Fe39  1  0.12562096  0.87652939  0.37410073  1
  Fe  Fe40  1  -0.00486590  0.49927921  0.00263887  1
  Fe  Fe41  1  0.49928232  0.49902558  0.24931190  1
  Fe  Fe42  1  0.50134151  0.25102989  0.25234635  1
  Fe  Fe43  1  0.25083163  0.00225686  0.74864446  1
  Fe  Fe44  1  0.49977215  -0.00397395  0.24843272  1
  Fe  Fe45  1  0.12509911  0.62376370  0.87559059  1
  Fe  Fe46  1  0.12359895  0.62634416  0.12396192  1
  Fe  Fe47  1  0.25000426  0.25250785  0.50386958  1
  Fe  Fe48  1  0.12131550  0.62447896  0.62322513  1
  Fe  Fe49  1  0.37423416  0.62603952  0.37547663  1
  Fe  Fe50  1  0.75290592  0.50014252  0.24598768  1
  Fe  Fe51  1  0.50063988  0.75127155  0.75179877  1
  Fe  Fe52  1  -0.00211373  0.75211481  0.49792070  1
  Fe  Fe53  1  0.49917392  0.75317071  0.49900887  1
  Fe  Fe54  1  0.87599271  0.37212867  0.62640757  1
  Fe  Fe55  1  0.62639967  0.37442608  0.12625970  1
  Fe  Fe56  1  0.49981043  0.00018510  0.75119846  1
  Fe  Fe57  1  0.74972322  0.24677901  0.25180115  1
  Fe  Fe58  1  0.62476708  0.12389006  0.12436169  1
  Fe  Fe59  1  0.62698030  0.87440588  0.62497506  1
  Fe  Fe60  1  0.50003876  0.49828165  0.49953669  1
  Fe  Fe61  1  0.62406012  0.12632146  0.62547989  1
  Fe  Fe62  1  0.87759281  0.12674249  0.12334224  1
  Fe  Fe63  1  0.62743208  0.62858932  0.62444858  1
  Fe  Fe64  1  0.50059374  0.75314318  0.25024188  1
  Fe  Fe65  1  0.62298360  0.37026286  0.62522934  1
  Fe  Fe66  1  0.62409363  0.12096409  0.37478809  1
  Fe  Fe67  1  0.00497284  0.00414518  0.25009299  1
  Fe  Fe68  1  0.87222803  0.37420920  0.87244562  1
  Fe  Fe69  1  0.50095206  0.50032026  0.74967240  1
  Fe  Fe70  1  0.37179312  0.87344908  0.87501936  1
  Fe  Fe71  1  0.12617613  0.37575887  0.86994077  1
  Fe  Fe72  1  0.87158832  0.62298301  0.87319965  1
  Fe  Fe73  1  0.12190274  0.12594320  0.62439153  1
  Fe  Fe74  1  0.75088065  0.75107261  -0.00194364  1
  Fe  Fe75  1  0.24995802  0.49730413  0.50455343  1
  Fe  Fe76  1  0.49924439  0.49820341  0.00057713  1
  Fe  Fe77  1  0.12382987  0.37681942  0.37619530  1
  Fe  Fe78  1  0.24597032  -0.00447434  0.00327895  1
  Fe  Fe79  1  0.62862429  0.37522060  0.87316737  1
  Fe  Fe80  1  0.25158859  0.50088995  0.00012205  1
  Fe  Fe81  1  0.00097303  0.25097623  0.50041418  1
  Fe  Fe82  1  0.75163890  0.50076365  0.50364903  1
  Fe  Fe83  1  0.12455455  0.37577610  0.12518422  1
  Fe  Fe84  1  -0.00201385  0.75050963  0.75233717  1
  Fe  Fe85  1  0.75140701  -0.00252000  0.49804888  1
  Fe  Fe86  1  0.00043951  0.75195032  -0.00249123  1
  Fe  Fe87  1  0.25097487  0.49954941  0.24874287  1
  Fe  Fe88  1  0.37500762  0.62701673  0.12258542  1
  Fe  Fe89  1  0.24733084  0.24818377  0.24918336  1
  Co  Co90  1  0.24879923  0.24777688  0.74774510  1
  Co  Co91  1  0.62305041  0.87690906  0.37736532  1
  Co  Co92  1  0.75227126  0.75151959  0.49647144  1
  Co  Co93  1  0.00213400  -0.00391679  0.50294804  1
  Co  Co94  1  0.75080395  0.00028416  0.24939251  1
  Co  Co95  1  0.12447071  0.12748190  0.12029890  1
  Co  Co96  1  -0.00243280  0.50030553  0.49999276  1
  Co  Co97  1  0.87603956  0.62902775  0.62576577  1
  Co  Co98  1  0.62774061  0.37911967  0.37406090  1
  Co  Co99  1  0.87404858  0.63140168  0.12428006  1
  Co  Co100  1  0.62789683  0.87470110  0.12387885  1
  Co  Co101  1  0.12076080  0.87148510  0.12798097  1
  Co  Co102  1  0.87446787  0.12545689  0.61966889  1
  Co  Co103  1  0.37402662  0.87498059  0.12345882  1
  Co  Co104  1  0.24674573  0.75106931  -0.00089491  1
  Co  Co105  1  0.24554866  0.00101960  0.24779608  1
  Co  Co106  1  0.12615137  0.12513071  0.38120979  1
  Co  Co107  1  0.50098221  0.24813155  0.75504739  1
  Co  Co108  1  0.75112430  0.24531714  0.75029159  1
  Co  Co109  1  0.87492721  0.36953064  0.12613429  1
  Co  Co110  1  0.12104962  0.37488784  0.62742037  1
  Co  Co111  1  0.87369199  0.87644467  0.87373837  1
  Co  Co112  1  0.12628432  0.87609501  0.86981399  1
  Co  Co113  1  0.00077157  0.74613486  0.25429760  1
  Co  Co114  1  0.37319177  0.87638158  0.37423230  1
  Co  Co115  1  0.62541639  0.12310932  0.87660380  1
  Co  Co116  1  0.74934934  0.74977174  0.75185152  1
  Co  Co117  1  0.87901004  0.87937961  0.37242763  1
  Co  Co118  1  0.37469828  0.37310724  0.12594739  1
  Co  Co119  1  0.50162073  0.24966921  0.49467036  1
  Co  Co120  1  0.24874249  0.50354366  0.74605214  1
  Co  Co121  1  0.87659500  0.12608671  0.87996131  1
  Co  Co122  1  0.75280310  0.49909030  0.00341066  1
  Co  Co123  1  0.37420750  0.87386958  0.62757341  1
  Co  Co124  1  0.37936445  0.37320151  0.62723250  1
  Co  Co125  1  -0.00193405  0.24615196  0.75044881  1
  Co  Co126  1  0.37574650  0.62462411  0.87554829  1
  Co  Co127  1  0.74949653  0.49997988  0.74478722  1
