# generated using pymatgen
data_Fe45Co19
_symmetry_space_group_name_H-M   'P 1'
_cell_length_a   11.41549135
_cell_length_b   11.41649806
_cell_length_c   11.41520690
_cell_angle_alpha   90.00737822
_cell_angle_beta   90.00192361
_cell_angle_gamma   89.99353895
_symmetry_Int_Tables_number   1
_chemical_formula_structural   Fe45Co19
_chemical_formula_sum   'Fe90 Co38'
_cell_volume   1487.68607279
_cell_formula_units_Z   2
loop_
 _symmetry_equiv_pos_site_id
 _symmetry_equiv_pos_as_xyz
  1  'x, y, z'
loop_
 _atom_site_type_symbol
 _atom_site_label
 _atom_site_symmetry_multiplicity
 _atom_site_fract_x
 _atom_site_fract_y
 _atom_site_fract_z
 _atom_site_occupancy
  Fe  Fe0  1  0.12762200  0.37192905  0.62576876  1
  Fe  Fe1  1  0.12466178  0.87245478  0.12388355  1
  Fe  Fe2  1  0.37680894  0.87578365  0.12459720  1
  Fe  Fe3  1  0.74966412  -0.00252426  -0.00228222  1
  Fe  Fe4  1  0.62499307  0.37042842  0.62263199  1
  Fe  Fe5  1  0.74877820  -0.00320537  0.25433779  1
  Fe  Fe6  1  0.75358943  0.75278376  0.74760352  1
  Fe  Fe7  1  0.62448253  0.62583387  0.62394605  1
  Fe  Fe8  1  -0.00197384  0.74901406  0.25090281  1
  Fe  Fe9  1  0.50215815  0.25099029  0.25157320  1
  Fe  Fe10  1  0.87172308  0.87266942  0.12507321  1
  Fe  Fe11  1  0.87635378  0.87364363  0.38236582  1
  Fe  Fe12  1  0.25034989  0.24995124  -0.00259603  1
  Fe  Fe13  1  0.12350410  0.87240459  0.37872302  1
  Fe  Fe14  1  0.87394602  0.12265117  0.87335427  1
  Fe  Fe15  1  0.25355680  0.75002930  -0.00426991  1
  Fe  Fe16  1  0.12248086  0.37662415  0.37314125  1
  Fe  Fe17  1  0.37232832  0.13213071  0.62363099  1
  Fe  Fe18  1  0.12367559  0.12551338  0.37526783  1
  Fe  Fe19  1  0.62362674  0.87496530  0.87127492  1
  Fe  Fe20  1  0.74626010  0.49579611  0.75185691  1
  Fe  Fe21  1  0.87567806  0.37654440  0.37393532  1
  Fe  Fe22  1  0.50060308  0.75035427  0.25144223  1
  Fe  Fe23  1  0.62515170  0.12737141  0.38197078  1
  Fe  Fe24  1  0.87580001  0.37742433  0.87580478  1
  Fe  Fe25  1  0.62689497  0.12629169  0.87185619  1
  Fe  Fe26  1  0.62600823  0.87268049  0.12408083  1
  Fe  Fe27  1  0.25068757  0.74953014  0.25043196  1
  Fe  Fe28  1  0.24835384  0.25071790  0.25152435  1
  Fe  Fe29  1  0.12211685  0.87474677  0.87195538  1
  Fe  Fe30  1  -0.00226580  0.74704281  0.74376486  1
  Fe  Fe31  1  0.24866160  -0.00133753  0.25012422  1
  Fe  Fe32  1  0.50110183  0.24899122  0.00065840  1
  Fe  Fe33  1  -0.00216614  0.24770445  0.24685892  1
  Fe  Fe34  1  0.62226849  0.87383380  0.38398565  1
  Fe  Fe35  1  0.87406110  0.37661973  0.62552642  1
  Fe  Fe36  1  -0.00046100  0.25096120  0.50052888  1
  Fe  Fe37  1  0.37517766  0.87491381  0.62537380  1
  Fe  Fe38  1  0.37614999  0.12610701  0.37617537  1
  Fe  Fe39  1  0.00113167  0.50171726  0.50309306  1
  Fe  Fe40  1  -0.00052798  -0.00050790  0.24799563  1
  Fe  Fe41  1  0.37874980  0.37818855  0.87437459  1
  Fe  Fe42  1  0.62684799  0.62538851  0.87388941  1
  Fe  Fe43  1  0.50172790  0.25164535  0.74988242  1
  Fe  Fe44  1  0.50365283  0.50126840  -0.00058319  1
  Fe  Fe45  1  0.24974757  0.49802956  0.75286449  1
  Fe  Fe46  1  0.62770560  0.12389651  0.12590861  1
  Fe  Fe47  1  0.24707047  0.00310562  0.74934356  1
  Fe  Fe48  1  0.62967542  0.37664784  0.12524901  1
  Fe  Fe49  1  0.25215181  0.74834083  0.75128002  1
  Fe  Fe50  1  0.25038669  0.74800595  0.50151576  1
  Fe  Fe51  1  0.00005041  0.24896382  0.75002969  1
  Fe  Fe52  1  0.37585289  0.37616533  0.12622545  1
  Fe  Fe53  1  -0.00675147  0.74693867  -0.00321426  1
  Fe  Fe54  1  0.87259286  0.12694041  0.62440192  1
  Fe  Fe55  1  0.00201748  0.00198266  0.74547472  1
  Fe  Fe56  1  0.24834216  0.50097489  0.24749467  1
  Fe  Fe57  1  0.75095970  0.25036525  -0.00208284  1
  Fe  Fe58  1  0.12180882  0.37560865  0.87751316  1
  Fe  Fe59  1  0.50270758  0.00250606  0.74422964  1
  Fe  Fe60  1  0.50394860  0.50008747  0.25146683  1
  Fe  Fe61  1  0.37663425  0.87533015  0.37784067  1
  Fe  Fe62  1  0.25136031  0.49578296  0.50012542  1
  Fe  Fe63  1  -0.00105173  0.00141663  0.00253008  1
  Fe  Fe64  1  0.37665571  0.61912597  0.62599238  1
  Fe  Fe65  1  -0.00381921  0.50299034  0.24525258  1
  Fe  Fe66  1  0.87429300  0.62618297  0.37765648  1
  Fe  Fe67  1  0.12432869  0.62445950  0.37683091  1
  Fe  Fe68  1  0.00185061  0.50097393  0.74808780  1
  Fe  Fe69  1  0.24909939  0.00157796  0.50182056  1
  Fe  Fe70  1  0.37576999  0.62429579  0.12341510  1
  Fe  Fe71  1  0.74810922  0.49857927  0.49873327  1
  Fe  Fe72  1  0.49711902  0.74868740  0.75055684  1
  Fe  Fe73  1  0.00245615  0.00121782  0.50405830  1
  Fe  Fe74  1  0.62549058  0.62633627  0.37764742  1
  Fe  Fe75  1  0.12481345  0.62602004  0.12165021  1
  Fe  Fe76  1  0.87410170  0.12317802  0.37663644  1
  Fe  Fe77  1  0.12402886  0.62379728  0.87509727  1
  Fe  Fe78  1  -0.00243595  0.24658469  0.00279922  1
  Fe  Fe79  1  0.74752439  -0.00103115  0.74346685  1
  Fe  Fe80  1  0.75128439  0.25029488  0.25204161  1
  Fe  Fe81  1  0.49900260  0.75039499  -0.00327393  1
  Fe  Fe82  1  0.37655674  0.12404999  0.87361810  1
  Fe  Fe83  1  0.12296266  0.37571015  0.12297982  1
  Fe  Fe84  1  0.50167521  0.00037377  -0.00105249  1
  Fe  Fe85  1  0.50195757  -0.00039167  0.25239363  1
  Fe  Fe86  1  0.37503440  0.12450418  0.12649090  1
  Fe  Fe87  1  0.63220464  0.62819310  0.12486873  1
  Fe  Fe88  1  0.37599918  0.62159870  0.37558613  1
  Fe  Fe89  1  0.24900082  0.00025397  -0.00155947  1
  Co  Co90  1  0.12736044  0.12522987  0.12566994  1
  Co  Co91  1  0.49585972  0.25573384  0.49839065  1
  Co  Co92  1  0.62718145  0.37308478  0.37491478  1
  Co  Co93  1  0.12961292  0.62262323  0.62583777  1
  Co  Co94  1  0.25008798  0.49898890  -0.00091193  1
  Co  Co95  1  0.87071477  0.61959014  0.62634908  1
  Co  Co96  1  0.00034177  0.74463206  0.50596655  1
  Co  Co97  1  0.62393273  0.37332234  0.87750254  1
  Co  Co98  1  0.12663032  0.13084136  0.62347629  1
  Co  Co99  1  0.75201309  0.25268719  0.75150986  1
  Co  Co100  1  0.37379477  0.37465188  0.62928812  1
  Co  Co101  1  0.74921410  0.75402348  0.25583763  1
  Co  Co102  1  0.37519204  0.37776335  0.37036800  1
  Co  Co103  1  0.75214073  0.50121025  -0.00247586  1
  Co  Co104  1  0.75137994  0.50061075  0.25270015  1
  Co  Co105  1  0.86760723  0.62859270  0.12711796  1
  Co  Co106  1  0.50139688  0.49573219  0.49976645  1
  Co  Co107  1  0.49953129  0.00343816  0.50544397  1
  Co  Co108  1  0.75306053  0.75169744  -0.00679744  1
  Co  Co109  1  0.87709956  0.87571823  0.62169236  1
  Co  Co110  1  0.37639381  0.87946044  0.87215292  1
  Co  Co111  1  0.49593059  0.74708930  0.50109618  1
  Co  Co112  1  0.12199138  0.12401183  0.87571742  1
  Co  Co113  1  0.12620281  0.87289879  0.62517220  1
  Co  Co114  1  0.50483297  0.49829753  0.74881118  1
  Co  Co115  1  0.24979289  0.25398503  0.49566264  1
  Co  Co116  1  0.24873535  0.25047401  0.75568782  1
  Co  Co117  1  0.86938793  0.12265644  0.12618965  1
  Co  Co118  1  0.62689840  0.13351821  0.62205444  1
  Co  Co119  1  0.62161555  0.87017360  0.62278135  1
  Co  Co120  1  0.87322562  0.62093297  0.86802505  1
  Co  Co121  1  0.74760191  -0.00022711  0.50475470  1
  Co  Co122  1  0.87199034  0.37498066  0.12491821  1
  Co  Co123  1  0.87770345  0.87848640  0.87026111  1
  Co  Co124  1  0.75214485  0.74948793  0.50341770  1
  Co  Co125  1  0.75479939  0.25243761  0.49925302  1
  Co  Co126  1  -0.00489248  0.50431434  0.00282765  1
  Co  Co127  1  0.37722587  0.61973718  0.87414343  1
