# generated using pymatgen
data_Fe45Co19
_symmetry_space_group_name_H-M   'P 1'
_cell_length_a   11.41423522
_cell_length_b   11.41477419
_cell_length_c   11.41586440
_cell_angle_alpha   89.99418718
_cell_angle_beta   89.99449107
_cell_angle_gamma   89.99088605
_symmetry_Int_Tables_number   1
_chemical_formula_structural   Fe45Co19
_chemical_formula_sum   'Fe90 Co38'
_cell_volume   1487.38341540
_cell_formula_units_Z   2
loop_
 _symmetry_equiv_pos_site_id
 _symmetry_equiv_pos_as_xyz
  1  'x, y, z'
loop_
 _atom_site_type_symbol
 _atom_site_label
 _atom_site_symmetry_multiplicity
 _atom_site_fract_x
 _atom_site_fract_y
 _atom_site_fract_z
 _atom_site_occupancy
  Fe  Fe0  1  0.87401783  0.12643534  0.62731997  1
  Fe  Fe1  1  0.61871888  0.62658185  0.11856364  1
  Fe  Fe2  1  0.12764610  0.37661459  0.62644374  1
  Fe  Fe3  1  0.62576723  0.87554864  0.37518571  1
  Fe  Fe4  1  0.00042015  0.75143649  0.74846547  1
  Fe  Fe5  1  0.25111957  0.50120352  -0.00025579  1
  Fe  Fe6  1  0.87378020  0.87439677  0.12790384  1
  Fe  Fe7  1  0.74989648  0.74902468  0.50026746  1
  Fe  Fe8  1  0.24672852  0.24747923  0.25038137  1
  Fe  Fe9  1  0.62409149  0.12488590  0.12416487  1
  Fe  Fe10  1  0.50526555  0.75002794  0.74732983  1
  Fe  Fe11  1  0.74920837  0.50359465  0.75022263  1
  Fe  Fe12  1  0.12697713  0.37769026  0.87335128  1
  Fe  Fe13  1  0.87241030  0.87609309  0.62493646  1
  Fe  Fe14  1  0.87276082  0.87437442  0.87312622  1
  Fe  Fe15  1  0.63019981  0.87209165  0.87407271  1
  Fe  Fe16  1  0.87706194  0.12587081  0.37192665  1
  Fe  Fe17  1  0.87552586  0.62360988  0.62280442  1
  Fe  Fe18  1  0.00162601  0.24986191  0.00006476  1
  Fe  Fe19  1  0.62323141  0.37475916  0.12583656  1
  Fe  Fe20  1  0.74960795  0.24885849  0.49843180  1
  Fe  Fe21  1  0.87773072  0.62503461  0.12597218  1
  Fe  Fe22  1  0.12395029  0.62552773  0.87575436  1
  Fe  Fe23  1  0.74959278  0.50188749  -0.00034792  1
  Fe  Fe24  1  0.75112304  0.24906367  0.75144811  1
  Fe  Fe25  1  0.50027828  0.00079168  0.24971237  1
  Fe  Fe26  1  -0.00019797  0.49994794  0.74963028  1
  Fe  Fe27  1  0.87622220  0.37474713  0.87505312  1
  Fe  Fe28  1  0.37626833  0.37592982  0.12649161  1
  Fe  Fe29  1  0.49900081  0.25028580  0.50259622  1
  Fe  Fe30  1  -0.00270879  0.75236375  0.49827408  1
  Fe  Fe31  1  0.12528014  0.62447639  0.37735624  1
  Fe  Fe32  1  0.74922154  0.00315560  0.50024975  1
  Fe  Fe33  1  0.87499309  0.37371569  0.37268124  1
  Fe  Fe34  1  0.74858346  0.74678471  0.25105029  1
  Fe  Fe35  1  0.37361187  0.12120166  0.87353594  1
  Fe  Fe36  1  0.62393044  0.37440868  0.37234604  1
  Fe  Fe37  1  0.87517703  0.62632526  0.87620427  1
  Fe  Fe38  1  0.37656615  0.87562404  0.37517796  1
  Fe  Fe39  1  0.50037400  -0.00083226  0.50436835  1
  Fe  Fe40  1  0.49878139  0.24868570  0.74847788  1
  Fe  Fe41  1  0.87554146  0.37462887  0.12653894  1
  Fe  Fe42  1  0.74929468  0.00266059  0.25098294  1
  Fe  Fe43  1  0.75049391  0.49865123  0.50007928  1
  Fe  Fe44  1  0.25000452  0.24869419  0.00045787  1
  Fe  Fe45  1  0.62628109  0.37455958  0.62608813  1
  Fe  Fe46  1  -0.00026218  0.49705227  0.49950085  1
  Fe  Fe47  1  0.37237897  0.37523464  0.87142273  1
  Fe  Fe48  1  0.74772671  0.50231587  0.24924896  1
  Fe  Fe49  1  0.12423412  0.12105039  0.37512423  1
  Fe  Fe50  1  0.37476244  0.37627093  0.37324704  1
  Fe  Fe51  1  0.12555721  0.11948088  0.87910508  1
  Fe  Fe52  1  0.49820629  0.74652663  0.25183536  1
  Fe  Fe53  1  0.24860874  0.24617939  0.74936185  1
  Fe  Fe54  1  0.12459605  0.62752911  0.12459342  1
  Fe  Fe55  1  0.25206057  0.50387962  0.24997659  1
  Fe  Fe56  1  0.00236269  0.24998550  0.74971844  1
  Fe  Fe57  1  0.75210278  0.00127925  -0.00095222  1
  Fe  Fe58  1  0.00171496  0.49932572  0.25223301  1
  Fe  Fe59  1  0.62532919  0.87362174  0.12509648  1
  Fe  Fe60  1  0.37416922  0.87460103  0.12735938  1
  Fe  Fe61  1  -0.00072707  0.75240016  0.25415573  1
  Fe  Fe62  1  0.25053277  0.25001007  0.50019585  1
  Fe  Fe63  1  0.49976201  -0.00268103  -0.00100598  1
  Fe  Fe64  1  0.12344560  0.62554259  0.62279141  1
  Fe  Fe65  1  0.37740371  0.62660119  0.87686664  1
  Fe  Fe66  1  0.00005031  0.75345412  0.00025256  1
  Fe  Fe67  1  0.25044128  0.75368126  -0.00056887  1
  Fe  Fe68  1  0.50088684  0.24799285  0.25013070  1
  Fe  Fe69  1  0.50046451  0.50142786  0.74941905  1
  Fe  Fe70  1  0.49843009  0.25006308  -0.00146629  1
  Fe  Fe71  1  0.37565154  0.12336938  0.37632821  1
  Fe  Fe72  1  0.24698533  0.75076658  0.74739908  1
  Fe  Fe73  1  0.50340755  -0.00028692  0.74616055  1
  Fe  Fe74  1  0.25101899  0.75392146  0.50114816  1
  Fe  Fe75  1  0.12519951  0.37584498  0.12506809  1
  Fe  Fe76  1  0.62547288  0.12480109  0.87414661  1
  Fe  Fe77  1  0.75090248  0.24842051  -0.00025865  1
  Fe  Fe78  1  0.37335469  0.12302602  0.12431415  1
  Fe  Fe79  1  0.25114374  0.74909033  0.25208130  1
  Fe  Fe80  1  0.00053352  -0.00086735  0.74983272  1
  Fe  Fe81  1  0.12670117  0.12028087  0.62152418  1
  Fe  Fe82  1  0.12415225  0.87885405  0.37701656  1
  Fe  Fe83  1  0.62505160  0.37508671  0.87519254  1
  Fe  Fe84  1  0.37848522  0.62707048  0.62181386  1
  Fe  Fe85  1  0.00114003  0.25152260  0.49992162  1
  Fe  Fe86  1  0.87891317  0.12613347  0.12700281  1
  Fe  Fe87  1  0.37334107  0.87645257  0.86981995  1
  Fe  Fe88  1  0.62085412  0.62384324  0.37959257  1
  Fe  Fe89  1  0.25250839  0.49906189  0.50219399  1
  Co  Co90  1  0.50091192  0.75523102  0.50126212  1
  Co  Co91  1  0.00443703  0.25133949  0.25103670  1
  Co  Co92  1  0.62342077  0.62312226  0.62049193  1
  Co  Co93  1  0.75019474  0.00148265  0.75071668  1
  Co  Co94  1  0.87731999  0.12567764  0.87353462  1
  Co  Co95  1  0.12759471  0.37735525  0.37621021  1
  Co  Co96  1  0.00064472  0.49976392  -0.00071106  1
  Co  Co97  1  -0.00467725  0.00044307  0.49961347  1
  Co  Co98  1  0.37558017  0.62503419  0.38078196  1
  Co  Co99  1  0.12426626  0.12155210  0.12420132  1
  Co  Co100  1  0.75249922  0.74921302  0.00204879  1
  Co  Co101  1  -0.00256967  -0.00326380  0.00072679  1
  Co  Co102  1  0.74833913  0.24783594  0.24981980  1
  Co  Co103  1  0.49808576  0.49425100  0.50138899  1
  Co  Co104  1  0.62217539  0.12433410  0.37561345  1
  Co  Co105  1  0.49885096  0.50424063  0.25028812  1
  Co  Co106  1  0.24995477  0.00029876  0.25089987  1
  Co  Co107  1  0.62997662  0.87512344  0.62468113  1
  Co  Co108  1  0.49796824  0.49605695  -0.00255845  1
  Co  Co109  1  0.37209032  0.37327071  0.62852184  1
  Co  Co110  1  0.87042153  0.87605880  0.37482752  1
  Co  Co111  1  0.62353582  0.62797834  0.87907396  1
  Co  Co112  1  0.87536942  0.62352965  0.37546665  1
  Co  Co113  1  0.74937591  0.74497571  0.74703799  1
  Co  Co114  1  0.37630978  0.62707769  0.12074917  1
  Co  Co115  1  0.25355173  -0.00299699  0.50033363  1
  Co  Co116  1  0.49719699  0.75736051  -0.00221289  1
  Co  Co117  1  0.62657221  0.12731674  0.62631041  1
  Co  Co118  1  0.12275068  0.87695636  0.62216398  1
  Co  Co119  1  0.25112375  0.50602326  0.74849770  1
  Co  Co120  1  0.87427872  0.37366947  0.62605276  1
  Co  Co121  1  0.12566943  0.87503029  0.12661957  1
  Co  Co122  1  0.37347955  0.12390593  0.62588807  1
  Co  Co123  1  0.12534630  0.87629358  0.87481426  1
  Co  Co124  1  -0.00006141  -0.00267607  0.25043726  1
  Co  Co125  1  0.25184136  -0.00374479  0.00135418  1
  Co  Co126  1  0.37515609  0.87473446  0.62827166  1
  Co  Co127  1  0.24650729  -0.00183116  0.74708245  1
