# generated using pymatgen
data_Fe45Co19
_symmetry_space_group_name_H-M   'P 1'
_cell_length_a   11.41606027
_cell_length_b   11.41338479
_cell_length_c   11.41415882
_cell_angle_alpha   90.00262245
_cell_angle_beta   90.00836172
_cell_angle_gamma   89.99280580
_symmetry_Int_Tables_number   1
_chemical_formula_structural   Fe45Co19
_chemical_formula_sum   'Fe90 Co38'
_cell_volume   1487.21793692
_cell_formula_units_Z   2
loop_
 _symmetry_equiv_pos_site_id
 _symmetry_equiv_pos_as_xyz
  1  'x, y, z'
loop_
 _atom_site_type_symbol
 _atom_site_label
 _atom_site_symmetry_multiplicity
 _atom_site_fract_x
 _atom_site_fract_y
 _atom_site_fract_z
 _atom_site_occupancy
  Fe  Fe0  1  0.12809048  0.12456627  0.62458993  1
  Fe  Fe1  1  0.74876060  -0.00108374  0.24955051  1
  Fe  Fe2  1  0.62516755  0.37582806  0.62731385  1
  Fe  Fe3  1  0.87440982  0.12449814  0.12376247  1
  Fe  Fe4  1  0.62233846  0.12437941  0.62712502  1
  Fe  Fe5  1  0.25282129  0.25058546  0.75399331  1
  Fe  Fe6  1  0.50152798  0.49978760  0.49908878  1
  Fe  Fe7  1  0.75061822  0.00148624  0.75169583  1
  Fe  Fe8  1  0.37306025  0.62481203  0.62482925  1
  Fe  Fe9  1  0.00027089  0.24625117  0.25146817  1
  Fe  Fe10  1  0.62708339  0.37830958  0.12771564  1
  Fe  Fe11  1  0.00056074  0.00143213  0.00054501  1
  Fe  Fe12  1  0.25144299  0.75207891  0.25031555  1
  Fe  Fe13  1  0.37360737  0.37579432  0.12511861  1
  Fe  Fe14  1  0.12297471  0.37494224  0.87584456  1
  Fe  Fe15  1  0.50045992  0.50319443  0.00438884  1
  Fe  Fe16  1  0.37541443  0.37599727  0.62666557  1
  Fe  Fe17  1  0.50012717  0.24887581  0.24715162  1
  Fe  Fe18  1  0.50085197  0.74811298  0.49929207  1
  Fe  Fe19  1  0.87224047  0.62675675  0.62268669  1
  Fe  Fe20  1  0.25220711  0.24972622  0.49763864  1
  Fe  Fe21  1  0.37659448  0.87438714  0.87802794  1
  Fe  Fe22  1  0.87332558  0.62818515  0.37546657  1
  Fe  Fe23  1  0.25142169  0.00025591  0.75290054  1
  Fe  Fe24  1  0.37388119  0.62423713  0.87622363  1
  Fe  Fe25  1  0.25767191  0.00016485  0.49645608  1
  Fe  Fe26  1  0.62783848  0.87102587  0.12105438  1
  Fe  Fe27  1  0.75085569  0.75063811  0.75044016  1
  Fe  Fe28  1  0.37412832  0.62428148  0.37153047  1
  Fe  Fe29  1  0.12372988  0.37491477  0.12717164  1
  Fe  Fe30  1  0.12650214  0.62515764  0.12713973  1
  Fe  Fe31  1  0.62336635  0.87360823  0.87545011  1
  Fe  Fe32  1  0.49777648  0.25042402  0.75263860  1
  Fe  Fe33  1  0.87715236  0.87717149  0.87451469  1
  Fe  Fe34  1  0.37731670  0.37518100  0.37288961  1
  Fe  Fe35  1  0.12520577  0.62640222  0.37355294  1
  Fe  Fe36  1  -0.00211606  0.75043931  0.00273937  1
  Fe  Fe37  1  0.87740660  0.37086387  0.37774369  1
  Fe  Fe38  1  0.74921363  0.24977117  0.25135590  1
  Fe  Fe39  1  0.75074599  0.24928056  0.75232991  1
  Fe  Fe40  1  0.12379287  0.62646846  0.87419157  1
  Fe  Fe41  1  0.62358812  0.87541434  0.62575330  1
  Fe  Fe42  1  0.25108600  0.24881553  0.25017271  1
  Fe  Fe43  1  -0.00192425  0.49975107  0.25093608  1
  Fe  Fe44  1  0.12420566  0.12560602  0.87636217  1
  Fe  Fe45  1  0.87457063  0.87602736  0.37687892  1
  Fe  Fe46  1  -0.00094932  0.50073776  0.00238116  1
  Fe  Fe47  1  0.86937554  0.62760679  0.12770805  1
  Fe  Fe48  1  0.24961391  0.49946475  0.75057573  1
  Fe  Fe49  1  0.12658962  0.12396732  0.12451525  1
  Fe  Fe50  1  -0.00287235  0.75327821  0.24950563  1
  Fe  Fe51  1  0.12869011  0.87518865  0.62317597  1
  Fe  Fe52  1  0.74896850  0.49726091  0.49782486  1
  Fe  Fe53  1  0.62736852  0.62362933  0.62649700  1
  Fe  Fe54  1  0.50116589  0.74689440  0.24437969  1
  Fe  Fe55  1  0.62519510  0.62493000  0.87591165  1
  Fe  Fe56  1  0.12532739  0.87555038  0.37524000  1
  Fe  Fe57  1  -0.00072552  0.00073222  0.50026366  1
  Fe  Fe58  1  0.37632216  0.87707396  0.12338028  1
  Fe  Fe59  1  0.62412193  0.37693742  0.87404493  1
  Fe  Fe60  1  0.12722838  0.62740017  0.62402251  1
  Fe  Fe61  1  0.12460608  0.37241144  0.62314165  1
  Fe  Fe62  1  -0.00130251  0.24936329  0.74923203  1
  Fe  Fe63  1  0.24986523  0.75101869  0.00052253  1
  Fe  Fe64  1  0.87551823  0.37257445  0.87710383  1
  Fe  Fe65  1  0.87663904  0.62497689  0.87371434  1
  Fe  Fe66  1  0.74801938  -0.00001147  0.50067303  1
  Fe  Fe67  1  0.62367195  0.12559194  0.12207190  1
  Fe  Fe68  1  0.62764256  0.62262494  0.36904918  1
  Fe  Fe69  1  0.61981592  0.87763018  0.37499883  1
  Fe  Fe70  1  -0.00010951  0.75281000  0.74537443  1
  Fe  Fe71  1  0.49856809  0.74784587  0.75043245  1
  Fe  Fe72  1  0.12541757  0.12438542  0.37551226  1
  Fe  Fe73  1  0.49919293  0.24845876  0.50148894  1
  Fe  Fe74  1  0.75105190  0.50007147  -0.00023970  1
  Fe  Fe75  1  0.37470727  0.87318114  0.62425688  1
  Fe  Fe76  1  0.00038528  0.49945392  0.50022080  1
  Fe  Fe77  1  0.87570784  0.12366237  0.62603347  1
  Fe  Fe78  1  0.12345486  0.87401203  0.87482837  1
  Fe  Fe79  1  0.12358539  0.87704111  0.12636232  1
  Fe  Fe80  1  0.25464811  0.00139826  0.25040351  1
  Fe  Fe81  1  0.37732217  0.12561882  0.88356758  1
  Fe  Fe82  1  0.49780170  0.00184608  0.75057794  1
  Fe  Fe83  1  0.74918199  0.24859403  0.49978427  1
  Fe  Fe84  1  0.74878046  0.00241358  -0.00323007  1
  Fe  Fe85  1  0.62140047  0.12348922  0.37536491  1
  Fe  Fe86  1  0.87493791  0.37175807  0.12397053  1
  Fe  Fe87  1  0.24847896  0.49875624  0.49691110  1
  Fe  Fe88  1  -0.00200735  0.49834260  0.74720784  1
  Fe  Fe89  1  0.24791653  0.49851051  0.00042920  1
  Co  Co90  1  0.63333169  0.62488706  0.12690671  1
  Co  Co91  1  0.37537201  0.12493672  0.12031234  1
  Co  Co92  1  0.50370805  -0.00153799  0.00133485  1
  Co  Co93  1  0.12197139  0.37288219  0.37523625  1
  Co  Co94  1  0.75394046  0.49486038  0.25316003  1
  Co  Co95  1  0.38141755  0.87427452  0.37200239  1
  Co  Co96  1  0.74979308  0.75582160  0.25267263  1
  Co  Co97  1  0.75188531  0.49957043  0.75075712  1
  Co  Co98  1  0.36959678  0.62318735  0.12570166  1
  Co  Co99  1  -0.00142218  0.00043393  0.25128214  1
  Co  Co100  1  0.87361902  0.37354732  0.62300669  1
  Co  Co101  1  0.25241464  0.75058415  0.49651351  1
  Co  Co102  1  0.37689680  0.37815457  0.87685827  1
  Co  Co103  1  0.62205882  0.37312611  0.37408542  1
  Co  Co104  1  0.50112421  0.00081882  0.24418294  1
  Co  Co105  1  0.87218927  0.12362320  0.37439487  1
  Co  Co106  1  0.25036688  0.75067273  0.75119699  1
  Co  Co107  1  0.87708357  0.12581663  0.87645962  1
  Co  Co108  1  0.75269502  0.74982369  -0.00408658  1
  Co  Co109  1  0.24802235  0.49724286  0.25211607  1
  Co  Co110  1  0.38052734  0.12505816  0.37228947  1
  Co  Co111  1  0.24887073  0.25283578  0.00040849  1
  Co  Co112  1  0.87359975  0.87779795  0.12251602  1
  Co  Co113  1  -0.00044271  0.24560586  0.50072653  1
  Co  Co114  1  0.62170822  0.12590866  0.87441748  1
  Co  Co115  1  0.49965582  0.50197435  0.24723592  1
  Co  Co116  1  0.24769499  -0.00154839  -0.00033449  1
  Co  Co117  1  0.74536984  0.75141283  0.49820693  1
  Co  Co118  1  0.74645570  0.24969605  -0.00043421  1
  Co  Co119  1  0.00175955  -0.00045135  0.74804307  1
  Co  Co120  1  0.00121660  0.75153780  0.50058005  1
  Co  Co121  1  0.49953669  0.74623518  0.00282609  1
  Co  Co122  1  0.87216176  0.87527822  0.62296841  1
  Co  Co123  1  0.00227338  0.24902189  0.00155693  1
  Co  Co124  1  0.49675507  0.00096818  0.50334077  1
  Co  Co125  1  0.37343552  0.12641816  0.62689633  1
  Co  Co126  1  0.50234758  0.25430235  0.00153712  1
  Co  Co127  1  0.49931907  0.50193600  0.74923382  1
