# generated using pymatgen
data_Fe45Co19
_symmetry_space_group_name_H-M   'P 1'
_cell_length_a   11.41518886
_cell_length_b   11.41490878
_cell_length_c   11.41387674
_cell_angle_alpha   89.99825250
_cell_angle_beta   90.00261923
_cell_angle_gamma   90.00894578
_symmetry_Int_Tables_number   1
_chemical_formula_structural   Fe45Co19
_chemical_formula_sum   'Fe90 Co38'
_cell_volume   1487.26623512
_cell_formula_units_Z   2
loop_
 _symmetry_equiv_pos_site_id
 _symmetry_equiv_pos_as_xyz
  1  'x, y, z'
loop_
 _atom_site_type_symbol
 _atom_site_label
 _atom_site_symmetry_multiplicity
 _atom_site_fract_x
 _atom_site_fract_y
 _atom_site_fract_z
 _atom_site_occupancy
  Fe  Fe0  1  0.62226075  0.62280489  0.12680452  1
  Fe  Fe1  1  0.00064118  0.50150012  0.25097685  1
  Fe  Fe2  1  0.24879073  0.24845526  0.50185281  1
  Fe  Fe3  1  0.12573187  0.62566321  0.12466165  1
  Fe  Fe4  1  0.25174157  -0.00049593  0.25137864  1
  Fe  Fe5  1  0.87397381  0.12590969  0.37502400  1
  Fe  Fe6  1  0.12508321  0.12148146  0.62753958  1
  Fe  Fe7  1  0.37720882  0.62599371  0.12438653  1
  Fe  Fe8  1  -0.00187974  0.50094995  0.50215292  1
  Fe  Fe9  1  0.87283118  0.62645162  0.37673428  1
  Fe  Fe10  1  0.74806317  0.00049871  0.50192975  1
  Fe  Fe11  1  0.50113003  0.25057137  0.50258039  1
  Fe  Fe12  1  0.37293518  0.37380639  0.12161173  1
  Fe  Fe13  1  0.12153051  0.12283015  0.12457788  1
  Fe  Fe14  1  0.50217694  0.75039299  -0.00204782  1
  Fe  Fe15  1  0.37652790  0.62638339  0.87283724  1
  Fe  Fe16  1  0.74733573  0.74930913  0.24900931  1
  Fe  Fe17  1  0.62316704  0.87336898  0.37557421  1
  Fe  Fe18  1  0.12515783  0.37626537  0.12380146  1
  Fe  Fe19  1  0.62506331  0.37927182  0.37585968  1
  Fe  Fe20  1  0.12618566  0.62630789  0.87214398  1
  Fe  Fe21  1  0.75037645  0.49940994  -0.00021582  1
  Fe  Fe22  1  0.49846703  0.00342854  0.75036108  1
  Fe  Fe23  1  0.00075496  0.50180692  -0.00264651  1
  Fe  Fe24  1  0.87165807  0.62799240  0.87273467  1
  Fe  Fe25  1  -0.00422057  -0.00474705  0.74941291  1
  Fe  Fe26  1  0.62592736  0.37789996  0.62628912  1
  Fe  Fe27  1  0.25134610  0.74901854  0.50269694  1
  Fe  Fe28  1  0.25135725  0.75012995  0.25145586  1
  Fe  Fe29  1  0.75038374  0.24741619  0.75123765  1
  Fe  Fe30  1  0.62555797  0.87524775  0.12354269  1
  Fe  Fe31  1  0.50148960  0.00192791  -0.00183015  1
  Fe  Fe32  1  0.75002970  0.49846043  0.24877843  1
  Fe  Fe33  1  0.37158373  0.37104940  0.87742802  1
  Fe  Fe34  1  0.00072348  0.24903249  -0.00243147  1
  Fe  Fe35  1  0.25507676  -0.00114063  0.74933548  1
  Fe  Fe36  1  0.87219079  0.87269970  0.37790085  1
  Fe  Fe37  1  -0.00015162  0.25005264  0.74997078  1
  Fe  Fe38  1  0.87611282  0.37502786  0.37519944  1
  Fe  Fe39  1  0.87324228  0.12527439  0.62533204  1
  Fe  Fe40  1  0.00049370  0.25008167  0.50170457  1
  Fe  Fe41  1  0.74366947  0.74586967  0.50322321  1
  Fe  Fe42  1  0.49867721  0.49819340  -0.00180111  1
  Fe  Fe43  1  0.86779699  0.87376794  0.87477038  1
  Fe  Fe44  1  0.62623447  0.37312301  0.87632649  1
  Fe  Fe45  1  0.24947910  0.00373731  -0.00263032  1
  Fe  Fe46  1  0.25462508  0.75384246  0.74824525  1
  Fe  Fe47  1  0.75145626  0.25302205  0.24670883  1
  Fe  Fe48  1  0.62589599  0.12728677  0.37488094  1
  Fe  Fe49  1  0.25359273  0.49949936  0.74905848  1
  Fe  Fe50  1  0.50098742  -0.00000689  0.25057558  1
  Fe  Fe51  1  0.25018537  0.24753161  0.74997096  1
  Fe  Fe52  1  0.62490955  0.62358772  0.87187329  1
  Fe  Fe53  1  0.25176785  0.50158631  0.25060448  1
  Fe  Fe54  1  0.37695510  0.12588005  0.37647684  1
  Fe  Fe55  1  0.62728155  0.87729871  0.87382189  1
  Fe  Fe56  1  0.37483647  0.37377992  0.37692025  1
  Fe  Fe57  1  0.12759500  0.37533608  0.87543286  1
  Fe  Fe58  1  0.87351487  0.87399418  0.12303535  1
  Fe  Fe59  1  0.12351986  0.12396914  0.37497598  1
  Fe  Fe60  1  0.61995310  0.61848727  0.63082744  1
  Fe  Fe61  1  0.24799615  0.24843131  0.24937233  1
  Fe  Fe62  1  0.12483854  0.87373351  0.37698421  1
  Fe  Fe63  1  -0.00107634  0.50013168  0.74981612  1
  Fe  Fe64  1  -0.00161028  -0.00165593  0.25104265  1
  Fe  Fe65  1  0.62181286  0.87851828  0.62601213  1
  Fe  Fe66  1  0.49935859  0.24939874  0.74921680  1
  Fe  Fe67  1  0.87608964  0.12477488  0.12259145  1
  Fe  Fe68  1  0.12455797  0.37641089  0.37561589  1
  Fe  Fe69  1  -0.00140929  -0.00232177  0.50214836  1
  Fe  Fe70  1  0.87427463  0.37481081  0.87453747  1
  Fe  Fe71  1  0.25141976  -0.00083387  0.50158662  1
  Fe  Fe72  1  0.74999198  0.25231856  0.50171656  1
  Fe  Fe73  1  0.50094358  0.25305519  0.24810230  1
  Fe  Fe74  1  0.38134542  0.62664019  0.37471733  1
  Fe  Fe75  1  -0.00004909  0.75129087  -0.00305501  1
  Fe  Fe76  1  0.87512299  0.62570952  0.12354662  1
  Fe  Fe77  1  0.38020403  0.87388508  0.37873043  1
  Fe  Fe78  1  0.12686341  0.87596934  0.87392081  1
  Fe  Fe79  1  0.12573364  0.87458920  0.12419301  1
  Fe  Fe80  1  0.62579391  0.12830526  0.12196287  1
  Fe  Fe81  1  0.74900990  0.00030305  0.24911241  1
  Fe  Fe82  1  0.25399759  0.50267473  0.50268920  1
  Fe  Fe83  1  0.37508724  0.87535120  0.12224888  1
  Fe  Fe84  1  0.87508075  0.62765198  0.62762761  1
  Fe  Fe85  1  0.37635418  0.12566426  0.12330478  1
  Fe  Fe86  1  0.25075946  0.74914794  -0.00199079  1
  Fe  Fe87  1  0.12393400  0.62807853  0.62676350  1
  Fe  Fe88  1  0.00090178  0.74966294  0.25241374  1
  Fe  Fe89  1  0.12561091  0.37634686  0.62519129  1
  Co  Co90  1  0.75076722  0.50162151  0.50209417  1
  Co  Co91  1  0.62527174  0.12617763  0.62505317  1
  Co  Co92  1  0.37642241  0.87606830  0.87757008  1
  Co  Co93  1  0.00081167  0.74954787  0.49965711  1
  Co  Co94  1  0.50024101  0.25120256  0.00009775  1
  Co  Co95  1  0.37440188  0.37288053  0.62476206  1
  Co  Co96  1  0.00052636  0.24930335  0.25019784  1
  Co  Co97  1  0.24555746  0.24516776  -0.00033225  1
  Co  Co98  1  0.87795255  0.37643521  0.12373223  1
  Co  Co99  1  0.74664582  0.74813111  0.00071532  1
  Co  Co100  1  0.12293095  0.12166715  0.87088961  1
  Co  Co101  1  0.49593932  0.49390417  0.75378262  1
  Co  Co102  1  0.62536150  0.12601419  0.87655306  1
  Co  Co103  1  0.25065161  0.50267250  -0.00130947  1
  Co  Co104  1  0.50242884  0.00430945  0.49857681  1
  Co  Co105  1  0.37931307  0.62612392  0.63000444  1
  Co  Co106  1  0.62513671  0.37596294  0.12218266  1
  Co  Co107  1  -0.00127073  -0.00378332  -0.00294973  1
  Co  Co108  1  0.37665474  0.12728403  0.87573777  1
  Co  Co109  1  0.50036493  0.75335161  0.24784617  1
  Co  Co110  1  0.74506371  0.75005047  0.74643911  1
  Co  Co111  1  0.50487109  0.74522646  0.50322728  1
  Co  Co112  1  0.75013557  0.00201073  0.74772341  1
  Co  Co113  1  0.49799209  0.49993528  0.50104070  1
  Co  Co114  1  0.49769711  0.49587572  0.24938052  1
  Co  Co115  1  0.75212811  0.49876833  0.75102549  1
  Co  Co116  1  0.12609367  0.62377849  0.37698357  1
  Co  Co117  1  0.37539249  0.12507649  0.62357853  1
  Co  Co118  1  0.87377209  0.37421478  0.62669391  1
  Co  Co119  1  0.62241072  0.62201205  0.37105738  1
  Co  Co120  1  -0.00148178  0.75376054  0.75252628  1
  Co  Co121  1  0.87231259  0.87120012  0.62301287  1
  Co  Co122  1  0.38033103  0.87554874  0.62141295  1
  Co  Co123  1  0.50114642  0.75330784  0.75159342  1
  Co  Co124  1  0.12557084  0.87341897  0.62557838  1
  Co  Co125  1  0.87435822  0.12322067  0.87478074  1
  Co  Co126  1  0.74909862  0.00207276  0.00024659  1
  Co  Co127  1  0.75307069  0.25086066  -0.00022534  1
