# generated using pymatgen
data_Fe45Co19
_symmetry_space_group_name_H-M   'P 1'
_cell_length_a   11.41570439
_cell_length_b   11.41509557
_cell_length_c   11.41444472
_cell_angle_alpha   89.99377124
_cell_angle_beta   90.00276541
_cell_angle_gamma   90.00155481
_symmetry_Int_Tables_number   1
_chemical_formula_structural   Fe45Co19
_chemical_formula_sum   'Fe90 Co38'
_cell_volume   1487.43176562
_cell_formula_units_Z   2
loop_
 _symmetry_equiv_pos_site_id
 _symmetry_equiv_pos_as_xyz
  1  'x, y, z'
loop_
 _atom_site_type_symbol
 _atom_site_label
 _atom_site_symmetry_multiplicity
 _atom_site_fract_x
 _atom_site_fract_y
 _atom_site_fract_z
 _atom_site_occupancy
  Fe  Fe0  1  0.24978980  0.00046619  0.75138265  1
  Fe  Fe1  1  0.49792917  0.74862408  0.24726062  1
  Fe  Fe2  1  0.12548490  0.87329479  0.62402724  1
  Fe  Fe3  1  0.87614869  0.37539563  0.37493982  1
  Fe  Fe4  1  0.49862643  0.00147430  -0.00104654  1
  Fe  Fe5  1  0.62149799  0.62137860  0.12464763  1
  Fe  Fe6  1  0.12529432  0.87415774  0.12422252  1
  Fe  Fe7  1  0.62549650  0.37353872  0.37351231  1
  Fe  Fe8  1  0.25012261  0.50301685  0.75230088  1
  Fe  Fe9  1  0.50129010  0.49802255  0.49895517  1
  Fe  Fe10  1  0.00030217  0.00052373  0.25323435  1
  Fe  Fe11  1  0.87417972  0.87553414  0.62411677  1
  Fe  Fe12  1  0.37738160  0.87608360  0.62562281  1
  Fe  Fe13  1  0.75332653  0.49879283  0.74968206  1
  Fe  Fe14  1  0.50044961  0.74893389  0.75024605  1
  Fe  Fe15  1  0.00047942  -0.00228070  -0.00191157  1
  Fe  Fe16  1  -0.00143183  0.74934829  0.74969919  1
  Fe  Fe17  1  0.62374628  0.12467849  0.62206500  1
  Fe  Fe18  1  0.00020896  0.74832863  0.25002124  1
  Fe  Fe19  1  -0.00007325  0.25196657  -0.00003452  1
  Fe  Fe20  1  0.50117401  0.00260615  0.49462392  1
  Fe  Fe21  1  0.24796793  0.25181551  0.24751184  1
  Fe  Fe22  1  0.25005987  -0.00108112  0.49896035  1
  Fe  Fe23  1  0.62422618  0.62387095  0.87555134  1
  Fe  Fe24  1  0.87969106  0.62085113  0.12319301  1
  Fe  Fe25  1  0.25124757  0.74582997  0.24591903  1
  Fe  Fe26  1  0.75034797  0.74853104  0.74877028  1
  Fe  Fe27  1  0.49847532  0.24920353  0.25141971  1
  Fe  Fe28  1  0.75085001  0.25066403  0.74749475  1
  Fe  Fe29  1  0.87577674  0.12438082  0.62304126  1
  Fe  Fe30  1  0.74891618  0.49862544  0.50011374  1
  Fe  Fe31  1  0.87537213  0.62452264  0.37543914  1
  Fe  Fe32  1  0.49882308  0.25067597  0.74895154  1
  Fe  Fe33  1  0.62462567  0.12756793  0.87654518  1
  Fe  Fe34  1  0.12467711  0.62635115  0.62249468  1
  Fe  Fe35  1  0.25099710  0.74899736  0.74915703  1
  Fe  Fe36  1  0.00310415  0.25136366  0.50266898  1
  Fe  Fe37  1  -0.00268999  0.50109143  0.75107955  1
  Fe  Fe38  1  0.87399256  0.87731012  0.12774452  1
  Fe  Fe39  1  0.12590687  0.12623482  0.87543553  1
  Fe  Fe40  1  0.12628416  0.12742738  0.37592806  1
  Fe  Fe41  1  0.00088142  -0.00097306  0.75187533  1
  Fe  Fe42  1  -0.00154884  -0.00152323  0.49698987  1
  Fe  Fe43  1  0.12485006  0.12578917  0.12347564  1
  Fe  Fe44  1  0.00257832  0.50006280  0.49839892  1
  Fe  Fe45  1  0.74874778  0.00139372  0.74884463  1
  Fe  Fe46  1  0.87308354  0.87353260  0.87473300  1
  Fe  Fe47  1  0.75024706  0.75127856  0.49926971  1
  Fe  Fe48  1  0.37853503  0.62495388  0.87968730  1
  Fe  Fe49  1  0.75136456  0.49803472  -0.00110165  1
  Fe  Fe50  1  0.37331327  0.12513962  0.12401348  1
  Fe  Fe51  1  0.24710606  0.50058965  0.49805991  1
  Fe  Fe52  1  0.75006334  0.74924266  0.00207647  1
  Fe  Fe53  1  0.37203061  0.37469288  0.37452919  1
  Fe  Fe54  1  0.62361113  0.87660601  0.62261447  1
  Fe  Fe55  1  0.74958690  0.25092818  0.50146545  1
  Fe  Fe56  1  0.62544294  0.37327292  0.87447123  1
  Fe  Fe57  1  0.12169051  0.62844567  0.87976422  1
  Fe  Fe58  1  0.87412010  0.12764452  0.87558741  1
  Fe  Fe59  1  0.24999756  0.00001587  -0.00191747  1
  Fe  Fe60  1  0.62442870  0.62477819  0.37292642  1
  Fe  Fe61  1  0.62473818  0.87472784  0.87570556  1
  Fe  Fe62  1  0.37664628  0.12350915  0.62458956  1
  Fe  Fe63  1  0.37494471  0.37345151  0.87706045  1
  Fe  Fe64  1  0.87531287  0.12351659  0.12568309  1
  Fe  Fe65  1  0.12612018  0.86949939  0.37616681  1
  Fe  Fe66  1  0.37505018  0.37719010  0.62511552  1
  Fe  Fe67  1  0.75277096  0.24965283  0.24877178  1
  Fe  Fe68  1  0.62636755  0.12532717  0.12595423  1
  Fe  Fe69  1  0.12531816  0.37419144  0.87368518  1
  Fe  Fe70  1  0.00052933  0.25049322  0.25043988  1
  Fe  Fe71  1  0.49860419  0.74864785  0.49877945  1
  Fe  Fe72  1  0.25256792  0.75066372  0.00374232  1
  Fe  Fe73  1  0.62409205  0.87715569  0.12742953  1
  Fe  Fe74  1  0.24845189  0.24983947  0.50390147  1
  Fe  Fe75  1  0.00115974  0.25084687  0.74696016  1
  Fe  Fe76  1  0.37492420  0.87425057  0.37271942  1
  Fe  Fe77  1  0.49982425  0.00338710  0.25300703  1
  Fe  Fe78  1  0.24934842  0.24827584  0.74792214  1
  Fe  Fe79  1  0.37640591  0.87483580  0.87460081  1
  Fe  Fe80  1  0.24672037  0.49922310  0.00279959  1
  Fe  Fe81  1  0.75084201  0.00121235  0.00037854  1
  Fe  Fe82  1  0.37472674  0.37799096  0.12530098  1
  Fe  Fe83  1  0.24823813  0.00040029  0.25082986  1
  Fe  Fe84  1  0.37315959  0.62237600  0.37214781  1
  Fe  Fe85  1  0.62482289  0.37603874  0.12695981  1
  Fe  Fe86  1  0.75030251  0.74809860  0.24860299  1
  Fe  Fe87  1  0.62461220  0.62201348  0.62631451  1
  Fe  Fe88  1  0.37651542  0.62279124  0.62483990  1
  Fe  Fe89  1  0.87772538  0.37841246  0.12611669  1
  Co  Co90  1  0.87612947  0.37576156  0.62373716  1
  Co  Co91  1  0.12068001  0.62506010  0.12121070  1
  Co  Co92  1  0.62428571  0.87267933  0.37225251  1
  Co  Co93  1  0.00568349  0.50111459  0.25450958  1
  Co  Co94  1  0.12654063  0.87211088  0.87536561  1
  Co  Co95  1  0.87380708  0.62373964  0.62321467  1
  Co  Co96  1  0.50191398  0.00112702  0.75159019  1
  Co  Co97  1  0.50010016  0.49806426  0.25254812  1
  Co  Co98  1  0.37567061  0.87850312  0.12624140  1
  Co  Co99  1  0.24414329  0.50159293  0.24862869  1
  Co  Co100  1  0.12446436  0.12112258  0.62473176  1
  Co  Co101  1  0.25449475  0.74990374  0.50167707  1
  Co  Co102  1  0.50034041  0.75155002  0.00202610  1
  Co  Co103  1  0.37752791  0.61917394  0.12397712  1
  Co  Co104  1  -0.00011528  0.49609028  -0.00359763  1
  Co  Co105  1  0.87327533  0.87272540  0.37214069  1
  Co  Co106  1  0.12677463  0.37173907  0.37525369  1
  Co  Co107  1  0.87511892  0.12804105  0.37606588  1
  Co  Co108  1  0.75064135  -0.00127267  0.49664215  1
  Co  Co109  1  0.12202304  0.37549806  0.12492885  1
  Co  Co110  1  0.24900497  0.25148188  0.00127425  1
  Co  Co111  1  0.87444776  0.37205439  0.87378012  1
  Co  Co112  1  0.75034094  0.00159758  0.25364134  1
  Co  Co113  1  0.62383860  0.37622492  0.62636766  1
  Co  Co114  1  0.87519804  0.62673912  0.87730438  1
  Co  Co115  1  -0.00305091  0.75469608  0.00126943  1
  Co  Co116  1  0.49915881  0.25095407  0.49894076  1
  Co  Co117  1  0.37498792  0.12715034  0.87522707  1
  Co  Co118  1  0.50230641  0.49649452  -0.00086070  1
  Co  Co119  1  0.49836186  0.49922447  0.75180708  1
  Co  Co120  1  0.50000805  0.25037713  0.00230701  1
  Co  Co121  1  0.12646559  0.62995323  0.37747759  1
  Co  Co122  1  0.75114243  0.50086862  0.25064304  1
  Co  Co123  1  0.37065062  0.12759391  0.37480407  1
  Co  Co124  1  -0.00296714  0.75064005  0.50027085  1
  Co  Co125  1  0.62834282  0.12852170  0.37453414  1
  Co  Co126  1  0.12640555  0.37975089  0.62763012  1
  Co  Co127  1  0.75081011  0.25130869  0.00316177  1
