# generated using pymatgen
data_Fe45Co19
_symmetry_space_group_name_H-M   'P 1'
_cell_length_a   11.41334613
_cell_length_b   11.41422295
_cell_length_c   11.41449539
_cell_angle_alpha   90.00388952
_cell_angle_beta   90.00609284
_cell_angle_gamma   89.99494008
_symmetry_Int_Tables_number   1
_chemical_formula_structural   Fe45Co19
_chemical_formula_sum   'Fe90 Co38'
_cell_volume   1487.01740346
_cell_formula_units_Z   2
loop_
 _symmetry_equiv_pos_site_id
 _symmetry_equiv_pos_as_xyz
  1  'x, y, z'
loop_
 _atom_site_type_symbol
 _atom_site_label
 _atom_site_symmetry_multiplicity
 _atom_site_fract_x
 _atom_site_fract_y
 _atom_site_fract_z
 _atom_site_occupancy
  Fe  Fe0  1  0.37508588  0.37452560  0.87532168  1
  Fe  Fe1  1  0.50057699  0.00622365  0.24618522  1
  Fe  Fe2  1  0.75145118  0.75299345  0.49738850  1
  Fe  Fe3  1  0.00047649  0.50315237  0.74839397  1
  Fe  Fe4  1  0.62216998  0.87644407  0.87502777  1
  Fe  Fe5  1  0.12881811  0.87208666  0.12537171  1
  Fe  Fe6  1  0.12721145  0.12665927  0.62354691  1
  Fe  Fe7  1  0.37201612  0.37253655  0.62768747  1
  Fe  Fe8  1  0.75039901  0.25191143  -0.00267308  1
  Fe  Fe9  1  0.50013742  0.74833039  0.74943761  1
  Fe  Fe10  1  0.25190598  -0.00237517  0.00165971  1
  Fe  Fe11  1  0.37032829  0.62739282  0.12657093  1
  Fe  Fe12  1  0.25127937  0.24937979  0.25007736  1
  Fe  Fe13  1  0.75011426  0.49983249  0.24678111  1
  Fe  Fe14  1  0.12525905  0.62404614  0.87705845  1
  Fe  Fe15  1  0.24896835  0.74808293  0.75023459  1
  Fe  Fe16  1  0.00014238  -0.00049986  0.74958151  1
  Fe  Fe17  1  0.50075556  0.24733225  0.00243850  1
  Fe  Fe18  1  0.87330524  0.37889561  0.87241690  1
  Fe  Fe19  1  0.50032391  0.49731846  0.50152373  1
  Fe  Fe20  1  0.37541123  0.12764960  0.62065141  1
  Fe  Fe21  1  0.87390501  0.12556735  0.62665304  1
  Fe  Fe22  1  0.49659960  0.50030551  0.24657526  1
  Fe  Fe23  1  0.62538977  0.62523391  0.62324554  1
  Fe  Fe24  1  0.62324039  0.37389322  0.37218927  1
  Fe  Fe25  1  0.25068812  0.00126075  0.24961042  1
  Fe  Fe26  1  0.12346662  0.87670444  0.37526064  1
  Fe  Fe27  1  0.74869256  0.24969400  0.24959659  1
  Fe  Fe28  1  0.62413178  0.62389590  0.37462449  1
  Fe  Fe29  1  0.87466684  0.87466509  0.87351308  1
  Fe  Fe30  1  0.87627135  0.12755423  0.12074666  1
  Fe  Fe31  1  0.12749932  0.37681647  0.87268838  1
  Fe  Fe32  1  0.12430612  0.37519463  0.37310929  1
  Fe  Fe33  1  0.12699043  0.37428635  0.62762275  1
  Fe  Fe34  1  0.12639417  0.87697321  0.87520138  1
  Fe  Fe35  1  -0.00114396  0.49917580  0.00214130  1
  Fe  Fe36  1  0.87314333  0.87368111  0.12569015  1
  Fe  Fe37  1  0.00100007  0.74839391  0.74999699  1
  Fe  Fe38  1  -0.00181814  -0.00121439  0.50092550  1
  Fe  Fe39  1  0.74997924  0.74761202  0.75168618  1
  Fe  Fe40  1  0.50051316  0.00230343  0.74864244  1
  Fe  Fe41  1  0.12549035  0.37444715  0.12515336  1
  Fe  Fe42  1  0.87296109  0.62439872  0.37376481  1
  Fe  Fe43  1  0.62337749  0.37602504  0.87476054  1
  Fe  Fe44  1  0.75109898  0.49693666  0.50128843  1
  Fe  Fe45  1  0.37667608  0.87561503  0.87458568  1
  Fe  Fe46  1  0.87362336  0.62534975  0.12377507  1
  Fe  Fe47  1  0.12480303  0.12499288  0.37667248  1
  Fe  Fe48  1  0.37646714  0.12429797  0.87739658  1
  Fe  Fe49  1  0.25220461  0.75150019  0.49771232  1
  Fe  Fe50  1  -0.00129551  0.49804689  0.50039043  1
  Fe  Fe51  1  0.12758883  0.62379000  0.37289534  1
  Fe  Fe52  1  0.74771454  0.74812408  0.00071382  1
  Fe  Fe53  1  0.75102382  0.25280981  0.50004048  1
  Fe  Fe54  1  0.62257299  0.37581654  0.12305306  1
  Fe  Fe55  1  -0.00131353  0.25287561  0.49985704  1
  Fe  Fe56  1  0.87470821  0.12571349  0.37526376  1
  Fe  Fe57  1  0.12339634  0.12595444  0.12058018  1
  Fe  Fe58  1  0.62450803  0.87697817  0.37275817  1
  Fe  Fe59  1  0.62740921  0.37287525  0.63047451  1
  Fe  Fe60  1  0.62507486  0.62160309  0.87759796  1
  Fe  Fe61  1  0.37848757  0.12669380  0.37852103  1
  Fe  Fe62  1  0.37704418  0.37295044  0.37332969  1
  Fe  Fe63  1  0.62585899  0.12713844  0.62573843  1
  Fe  Fe64  1  0.62620997  0.87485551  0.62725848  1
  Fe  Fe65  1  0.75030800  0.00138795  0.25005272  1
  Fe  Fe66  1  0.25109713  0.00272484  0.74849115  1
  Fe  Fe67  1  0.87736829  0.12255672  0.87715924  1
  Fe  Fe68  1  0.37441819  0.62436648  0.87455021  1
  Fe  Fe69  1  0.24718207  0.24930970  -0.00229002  1
  Fe  Fe70  1  0.49872790  0.74804480  0.25040325  1
  Fe  Fe71  1  -0.00169104  0.75070021  0.49963966  1
  Fe  Fe72  1  0.75064835  -0.00207604  0.49987978  1
  Fe  Fe73  1  -0.00063430  0.00019456  0.24709102  1
  Fe  Fe74  1  0.87441500  0.62515901  0.62539726  1
  Fe  Fe75  1  0.49856046  0.74877222  0.00144489  1
  Fe  Fe76  1  0.74762914  -0.00034816  -0.00154748  1
  Fe  Fe77  1  -0.00113874  0.24999313  0.24937665  1
  Fe  Fe78  1  0.49872554  0.75204975  0.49967804  1
  Fe  Fe79  1  0.37393716  0.62508130  0.62420149  1
  Fe  Fe80  1  0.49930660  0.49976513  0.75007598  1
  Fe  Fe81  1  0.00001375  0.74964544  0.24976042  1
  Fe  Fe82  1  -0.00068922  0.49963337  0.24789710  1
  Fe  Fe83  1  0.37712930  0.87899153  0.37468549  1
  Fe  Fe84  1  0.00181125  0.24838981  0.75326433  1
  Fe  Fe85  1  0.00141989  0.75043958  0.00023279  1
  Fe  Fe86  1  0.62282654  0.87488065  0.12554917  1
  Fe  Fe87  1  0.25015516  0.49843666  0.49926770  1
  Fe  Fe88  1  0.12677289  0.87468461  0.62413643  1
  Fe  Fe89  1  0.25097213  0.50051169  0.00186255  1
  Co  Co90  1  0.24943268  0.24588835  0.75268413  1
  Co  Co91  1  0.62280465  0.12583284  0.87540531  1
  Co  Co92  1  0.87520893  0.62471602  0.87657888  1
  Co  Co93  1  0.74877684  0.00126152  0.75221758  1
  Co  Co94  1  0.25082419  0.50211897  0.75022279  1
  Co  Co95  1  -0.00025013  -0.00524380  0.00254909  1
  Co  Co96  1  0.37438756  0.37205184  0.12295520  1
  Co  Co97  1  0.50060505  0.00116205  0.00228278  1
  Co  Co98  1  0.25049347  -0.00048519  0.49908264  1
  Co  Co99  1  0.37425354  0.87429312  0.62696123  1
  Co  Co100  1  0.62835477  0.12577737  0.12270629  1
  Co  Co101  1  0.75193981  0.24798570  0.75411317  1
  Co  Co102  1  0.87443076  0.37486338  0.37269000  1
  Co  Co103  1  0.87520659  0.37253571  0.12509355  1
  Co  Co104  1  0.50055343  0.24695690  0.24718495  1
  Co  Co105  1  0.37613978  0.87426415  0.12591330  1
  Co  Co106  1  0.74875950  0.74997973  0.25033126  1
  Co  Co107  1  0.62393327  0.62449575  0.12581855  1
  Co  Co108  1  0.24899237  0.25214644  0.49784999  1
  Co  Co109  1  0.87439004  0.87408183  0.62831383  1
  Co  Co110  1  0.49781648  0.24887282  0.75005069  1
  Co  Co111  1  0.25078475  0.75043369  -0.00241283  1
  Co  Co112  1  0.87620776  0.87629101  0.37274859  1
  Co  Co113  1  0.37574516  0.62246666  0.37611701  1
  Co  Co114  1  0.25127084  0.75223468  0.25457552  1
  Co  Co115  1  0.87579856  0.37504846  0.62964059  1
  Co  Co116  1  0.75038599  0.49955428  0.00169269  1
  Co  Co117  1  0.12358260  0.12030961  0.87899373  1
  Co  Co118  1  0.50254537  -0.00154139  0.50291052  1
  Co  Co119  1  0.25188802  0.49743046  0.24942973  1
  Co  Co120  1  0.50275089  0.25373262  0.50144829  1
  Co  Co121  1  0.12794176  0.62572342  0.12609504  1
  Co  Co122  1  0.62465122  0.12602683  0.37759551  1
  Co  Co123  1  0.49704067  0.50258467  0.00146522  1
  Co  Co124  1  0.37205847  0.12654296  0.12275913  1
  Co  Co125  1  0.74829695  0.50304480  0.74989567  1
  Co  Co126  1  0.00065974  0.25434201  -0.00440138  1
  Co  Co127  1  0.12632360  0.62522045  0.62219901  1
