# generated using pymatgen
data_Fe45Co19
_symmetry_space_group_name_H-M   'P 1'
_cell_length_a   11.41603693
_cell_length_b   11.41580870
_cell_length_c   11.41683514
_cell_angle_alpha   90.01392240
_cell_angle_beta   90.01055734
_cell_angle_gamma   89.99674245
_symmetry_Int_Tables_number   1
_chemical_formula_structural   Fe45Co19
_chemical_formula_sum   'Fe90 Co38'
_cell_volume   1487.87948681
_cell_formula_units_Z   2
loop_
 _symmetry_equiv_pos_site_id
 _symmetry_equiv_pos_as_xyz
  1  'x, y, z'
loop_
 _atom_site_type_symbol
 _atom_site_label
 _atom_site_symmetry_multiplicity
 _atom_site_fract_x
 _atom_site_fract_y
 _atom_site_fract_z
 _atom_site_occupancy
  Fe  Fe0  1  0.87389797  0.12315760  0.62653064  1
  Fe  Fe1  1  0.62559311  0.12647830  0.87500749  1
  Fe  Fe2  1  0.12667349  0.62681000  0.87398490  1
  Fe  Fe3  1  0.24967024  0.49792152  0.74812587  1
  Fe  Fe4  1  0.75184889  0.49906717  0.00050619  1
  Fe  Fe5  1  0.24941770  0.25018364  0.00019843  1
  Fe  Fe6  1  0.00102812  0.24840467  0.25051112  1
  Fe  Fe7  1  0.75186674  0.74991075  0.50236342  1
  Fe  Fe8  1  0.75050619  0.25034208  0.24964788  1
  Fe  Fe9  1  0.25119322  -0.00008714  0.50011101  1
  Fe  Fe10  1  0.49961121  0.74939842  0.74907866  1
  Fe  Fe11  1  0.49873132  0.49834634  -0.00223671  1
  Fe  Fe12  1  0.12572956  0.87759956  0.62809328  1
  Fe  Fe13  1  0.62300205  0.87319607  0.12753918  1
  Fe  Fe14  1  0.12846706  0.11982490  0.87438143  1
  Fe  Fe15  1  0.49829960  -0.00156228  0.74887509  1
  Fe  Fe16  1  0.49950897  0.25021450  0.49868913  1
  Fe  Fe17  1  0.87202941  0.62823302  0.87302520  1
  Fe  Fe18  1  0.37518554  0.12488371  0.12371198  1
  Fe  Fe19  1  0.12282582  0.62763298  0.12594215  1
  Fe  Fe20  1  0.00105786  0.49916001  0.50086618  1
  Fe  Fe21  1  0.12393771  0.12340395  0.12363693  1
  Fe  Fe22  1  0.75108297  0.25128094  0.50119627  1
  Fe  Fe23  1  0.74981548  0.49993996  0.24868476  1
  Fe  Fe24  1  0.49907601  0.49793957  0.75212650  1
  Fe  Fe25  1  0.24980038  0.75603500  0.00150425  1
  Fe  Fe26  1  0.25073576  0.00041598  0.24843199  1
  Fe  Fe27  1  0.74749266  0.74662260  0.24916997  1
  Fe  Fe28  1  0.62597738  0.12731408  0.12281027  1
  Fe  Fe29  1  0.50003673  -0.00076101  0.00107785  1
  Fe  Fe30  1  0.49880313  0.75010948  0.00129561  1
  Fe  Fe31  1  0.00099959  -0.00296677  -0.00223912  1
  Fe  Fe32  1  0.37409535  0.62503225  0.62408864  1
  Fe  Fe33  1  0.62562172  0.12720807  0.62648778  1
  Fe  Fe34  1  -0.00036747  0.75289554  0.50015947  1
  Fe  Fe35  1  0.24779689  0.24962448  0.25166628  1
  Fe  Fe36  1  0.49858657  0.25336032  0.75440479  1
  Fe  Fe37  1  0.00142784  0.24984173  0.49955105  1
  Fe  Fe38  1  0.12433816  0.12286858  0.62498278  1
  Fe  Fe39  1  0.37527107  0.62667699  0.12515445  1
  Fe  Fe40  1  0.25008584  0.75216607  0.25030834  1
  Fe  Fe41  1  0.62526153  0.37741714  0.37677031  1
  Fe  Fe42  1  0.37430457  0.37540137  0.37538453  1
  Fe  Fe43  1  0.87265920  0.12211559  0.87428416  1
  Fe  Fe44  1  0.50179834  0.50359479  0.25142764  1
  Fe  Fe45  1  0.62799522  0.62609741  0.87679127  1
  Fe  Fe46  1  0.37311690  0.62399470  0.37589679  1
  Fe  Fe47  1  0.37986560  0.87738072  0.37360883  1
  Fe  Fe48  1  0.87569144  0.87677803  0.37270944  1
  Fe  Fe49  1  0.37322770  0.12269605  0.87747990  1
  Fe  Fe50  1  0.12420256  0.62352509  0.37455619  1
  Fe  Fe51  1  0.62432677  0.87554472  0.62466240  1
  Fe  Fe52  1  0.11918710  0.37531254  0.12246621  1
  Fe  Fe53  1  0.37594690  0.12588190  0.62358679  1
  Fe  Fe54  1  0.87478813  0.62458498  0.37659850  1
  Fe  Fe55  1  0.74979834  -0.00348147  -0.00041456  1
  Fe  Fe56  1  0.62428307  0.37422323  0.12244895  1
  Fe  Fe57  1  0.87484062  0.12685745  0.12240214  1
  Fe  Fe58  1  -0.00104974  0.75131711  0.75032444  1
  Fe  Fe59  1  0.24832472  0.75281123  0.49839278  1
  Fe  Fe60  1  0.24734665  0.49881845  0.24820201  1
  Fe  Fe61  1  0.50028315  0.74794099  0.49828934  1
  Fe  Fe62  1  0.87714095  0.87375099  0.12649759  1
  Fe  Fe63  1  0.62695068  0.62102892  0.62202533  1
  Fe  Fe64  1  0.62760020  0.87179325  0.87424452  1
  Fe  Fe65  1  0.24893410  0.49714357  0.50295834  1
  Fe  Fe66  1  0.25061567  0.25090190  0.74945680  1
  Fe  Fe67  1  0.87341421  0.87762978  0.62927138  1
  Fe  Fe68  1  0.87662618  0.37582172  0.87487394  1
  Fe  Fe69  1  0.12027102  0.87931294  0.37135136  1
  Fe  Fe70  1  0.74907540  0.00016227  0.50087781  1
  Fe  Fe71  1  0.24820815  0.25087600  0.49858756  1
  Fe  Fe72  1  0.37307380  0.62574169  0.87535338  1
  Fe  Fe73  1  0.62504751  0.12395750  0.37584519  1
  Fe  Fe74  1  0.75017675  0.00175675  0.24877843  1
  Fe  Fe75  1  0.75102521  0.25193098  -0.00197262  1
  Fe  Fe76  1  0.62362609  0.87544398  0.37348647  1
  Fe  Fe77  1  0.37616716  0.37419711  0.12382779  1
  Fe  Fe78  1  0.25344883  0.75393522  0.74939541  1
  Fe  Fe79  1  0.87687253  0.37541091  0.37307041  1
  Fe  Fe80  1  0.00071200  0.24771355  0.75208921  1
  Fe  Fe81  1  0.24820228  0.50071601  0.00115884  1
  Fe  Fe82  1  0.87652168  0.12314293  0.37656195  1
  Fe  Fe83  1  0.12393045  0.62591381  0.62574432  1
  Fe  Fe84  1  0.50018494  0.24805563  0.25020842  1
  Fe  Fe85  1  0.62543957  0.37634524  0.62544651  1
  Fe  Fe86  1  0.12430707  0.37574995  0.87532031  1
  Fe  Fe87  1  0.00061341  0.75260747  -0.00251933  1
  Fe  Fe88  1  0.87671243  0.37692479  0.62877660  1
  Fe  Fe89  1  0.87655552  0.62511129  0.12508753  1
  Co  Co90  1  0.50153946  0.00178596  0.50146678  1
  Co  Co91  1  0.75129415  0.25078534  0.75091014  1
  Co  Co92  1  0.37023384  0.37554070  0.87679095  1
  Co  Co93  1  0.49710851  0.50057140  0.49980894  1
  Co  Co94  1  -0.00018163  0.50440957  -0.00209043  1
  Co  Co95  1  0.37612813  0.37362280  0.62452124  1
  Co  Co96  1  0.37555481  0.87570039  0.87628472  1
  Co  Co97  1  0.62880493  0.62361430  0.37984472  1
  Co  Co98  1  0.75110275  0.75142458  0.00368006  1
  Co  Co99  1  -0.00037291  0.74729344  0.25239185  1
  Co  Co100  1  0.37887356  0.87426678  0.12791986  1
  Co  Co101  1  -0.00271155  0.00433212  0.24696873  1
  Co  Co102  1  0.12299000  0.12208863  0.37618209  1
  Co  Co103  1  -0.00089891  0.00057247  0.75188202  1
  Co  Co104  1  0.50152330  0.00463849  0.24846669  1
  Co  Co105  1  0.12243960  0.37362739  0.62673539  1
  Co  Co106  1  0.87753152  0.62367853  0.62471949  1
  Co  Co107  1  0.12758653  0.87692273  0.87123047  1
  Co  Co108  1  0.37475497  0.12458129  0.37548014  1
  Co  Co109  1  0.25568277  -0.00145735  0.74704334  1
  Co  Co110  1  0.12441268  0.37599270  0.37480044  1
  Co  Co111  1  0.62756098  0.37458219  0.87637231  1
  Co  Co112  1  0.87109214  0.87357132  0.87194744  1
  Co  Co113  1  0.00070302  0.24680348  -0.00392481  1
  Co  Co114  1  0.87785995  0.37317667  0.12383941  1
  Co  Co115  1  0.37650616  0.87327084  0.62129656  1
  Co  Co116  1  -0.00011315  0.50050329  0.24927962  1
  Co  Co117  1  0.74967978  0.50075681  0.75097069  1
  Co  Co118  1  0.24915301  -0.00479292  0.00363716  1
  Co  Co119  1  0.50185829  0.74418643  0.25176743  1
  Co  Co120  1  0.75439591  0.49746676  0.50066996  1
  Co  Co121  1  0.00139679  0.50224634  0.75264344  1
  Co  Co122  1  -0.00091668  -0.00206571  0.50254073  1
  Co  Co123  1  0.12118576  0.87422742  0.12843872  1
  Co  Co124  1  0.74639469  0.00066638  0.75045652  1
  Co  Co125  1  0.49839280  0.25012843  -0.00212005  1
  Co  Co126  1  0.74859051  0.74760202  0.74531788  1
  Co  Co127  1  0.62445315  0.62366615  0.12070642  1
