# generated using pymatgen
data_Fe45Co19
_symmetry_space_group_name_H-M   'P 1'
_cell_length_a   11.41622774
_cell_length_b   11.41631049
_cell_length_c   11.41496250
_cell_angle_alpha   90.00643151
_cell_angle_beta   89.99872069
_cell_angle_gamma   90.00474161
_symmetry_Int_Tables_number   1
_chemical_formula_structural   Fe45Co19
_chemical_formula_sum   'Fe90 Co38'
_cell_volume   1487.72575155
_cell_formula_units_Z   2
loop_
 _symmetry_equiv_pos_site_id
 _symmetry_equiv_pos_as_xyz
  1  'x, y, z'
loop_
 _atom_site_type_symbol
 _atom_site_label
 _atom_site_symmetry_multiplicity
 _atom_site_fract_x
 _atom_site_fract_y
 _atom_site_fract_z
 _atom_site_occupancy
  Fe  Fe0  1  -0.00002381  0.75064292  0.49942185  1
  Fe  Fe1  1  0.00012154  0.74996504  0.00204525  1
  Fe  Fe2  1  0.50168995  0.25259286  0.50600471  1
  Fe  Fe3  1  0.00221277  0.24740222  0.25126845  1
  Fe  Fe4  1  0.49969551  0.25314419  0.24309660  1
  Fe  Fe5  1  0.62178095  0.12518280  0.12351430  1
  Fe  Fe6  1  0.37615753  0.87526370  0.62665767  1
  Fe  Fe7  1  0.12639276  0.12204001  0.62157714  1
  Fe  Fe8  1  0.12620511  0.12361982  0.12455738  1
  Fe  Fe9  1  0.49669483  0.49672907  0.50011248  1
  Fe  Fe10  1  0.74707888  0.74984282  0.49871762  1
  Fe  Fe11  1  -0.00228443  0.50275734  0.25364726  1
  Fe  Fe12  1  0.49870706  0.49807742  0.74828303  1
  Fe  Fe13  1  -0.00007759  0.49889953  0.00039979  1
  Fe  Fe14  1  0.00043723  0.24845210  0.49741515  1
  Fe  Fe15  1  0.50068102  0.00121790  0.49823691  1
  Fe  Fe16  1  0.87648934  0.12805362  0.87617734  1
  Fe  Fe17  1  0.87606090  0.87392475  0.87473422  1
  Fe  Fe18  1  0.62495946  0.87526395  0.12456584  1
  Fe  Fe19  1  0.12744924  0.62167595  0.62020098  1
  Fe  Fe20  1  0.75237170  0.50219235  0.25179291  1
  Fe  Fe21  1  0.25273874  0.00071978  0.75127543  1
  Fe  Fe22  1  0.25163084  0.24955215  0.00201649  1
  Fe  Fe23  1  0.74731265  -0.00023585  -0.00226792  1
  Fe  Fe24  1  0.74457289  0.00192171  0.25384176  1
  Fe  Fe25  1  0.87265796  0.87638528  0.62493624  1
  Fe  Fe26  1  0.12672345  0.87550306  0.12476731  1
  Fe  Fe27  1  0.12461174  0.62682977  0.87522826  1
  Fe  Fe28  1  0.50000123  0.74992722  0.24613369  1
  Fe  Fe29  1  0.12442416  0.37268182  0.87592392  1
  Fe  Fe30  1  0.75075129  0.49948155  -0.00111129  1
  Fe  Fe31  1  0.87544016  0.62637615  0.87677106  1
  Fe  Fe32  1  0.50048304  0.75008865  0.50225702  1
  Fe  Fe33  1  0.37647568  0.12665793  0.62838698  1
  Fe  Fe34  1  0.74660743  0.74771206  0.75165619  1
  Fe  Fe35  1  0.00056371  0.00064008  0.74869963  1
  Fe  Fe36  1  0.87293672  0.12398160  0.62394266  1
  Fe  Fe37  1  0.37946916  0.12997463  0.87411218  1
  Fe  Fe38  1  0.37812339  0.62742835  0.87715341  1
  Fe  Fe39  1  0.74875071  0.24944869  0.24986129  1
  Fe  Fe40  1  0.37744884  0.87010538  0.87743660  1
  Fe  Fe41  1  0.25070838  0.50114858  -0.00182569  1
  Fe  Fe42  1  0.37516015  0.37129787  0.87312130  1
  Fe  Fe43  1  -0.00110161  -0.00009828  0.00172168  1
  Fe  Fe44  1  0.12704216  0.37692998  0.12686889  1
  Fe  Fe45  1  0.62803131  0.62435957  0.12381016  1
  Fe  Fe46  1  0.62310904  0.37419351  0.37367062  1
  Fe  Fe47  1  0.25331563  0.50032591  0.25781903  1
  Fe  Fe48  1  0.74841576  0.00164513  0.75282703  1
  Fe  Fe49  1  0.24954861  0.24910524  0.25074277  1
  Fe  Fe50  1  0.75058987  0.50015699  0.49693528  1
  Fe  Fe51  1  -0.00068584  0.49824546  0.74927886  1
  Fe  Fe52  1  0.00140754  0.25020746  0.74947078  1
  Fe  Fe53  1  0.37754087  0.12556086  0.37123846  1
  Fe  Fe54  1  0.87360777  0.12391513  0.12539090  1
  Fe  Fe55  1  0.62435484  0.62189494  0.62554752  1
  Fe  Fe56  1  0.12846905  0.37730990  0.62149192  1
  Fe  Fe57  1  0.62403841  0.87816139  0.62644943  1
  Fe  Fe58  1  0.25051836  0.74912107  0.74979340  1
  Fe  Fe59  1  0.87332739  0.37384019  0.62456747  1
  Fe  Fe60  1  0.87206110  0.87494838  0.37410947  1
  Fe  Fe61  1  0.62541018  0.37402107  0.87315606  1
  Fe  Fe62  1  0.74581301  0.24857668  0.50097885  1
  Fe  Fe63  1  0.62276067  0.62561459  0.37449387  1
  Fe  Fe64  1  0.62025871  0.12881926  0.87370536  1
  Fe  Fe65  1  0.61983826  0.87204131  0.87491212  1
  Fe  Fe66  1  0.12420122  0.12441461  0.87716865  1
  Fe  Fe67  1  0.87531033  0.37300450  0.37471647  1
  Fe  Fe68  1  0.25452705  -0.00016305  0.00128839  1
  Fe  Fe69  1  0.25199623  0.75020355  0.24943403  1
  Fe  Fe70  1  0.00197993  0.75016957  0.74759004  1
  Fe  Fe71  1  0.49813604  0.49914685  0.24784094  1
  Fe  Fe72  1  0.00086543  0.00231548  0.25321360  1
  Fe  Fe73  1  0.87482150  0.62564207  0.62325320  1
  Fe  Fe74  1  0.12599786  0.87534365  0.87578460  1
  Fe  Fe75  1  0.75184537  0.49995153  0.75201868  1
  Fe  Fe76  1  0.87548276  0.37460664  0.12478300  1
  Fe  Fe77  1  0.37703487  0.87660562  0.37237686  1
  Fe  Fe78  1  0.74603841  0.00237864  0.49535633  1
  Fe  Fe79  1  0.87160625  0.87524373  0.12623561  1
  Fe  Fe80  1  -0.00133240  0.74793328  0.25097479  1
  Fe  Fe81  1  0.12739785  0.62379016  0.12683654  1
  Fe  Fe82  1  0.49976171  0.49672762  0.00316677  1
  Fe  Fe83  1  0.12727515  0.87903878  0.37663239  1
  Fe  Fe84  1  0.37305399  0.62274936  0.62339135  1
  Fe  Fe85  1  0.25194065  0.74990466  0.49787774  1
  Fe  Fe86  1  0.25003832  0.49969032  0.75168587  1
  Fe  Fe87  1  0.74940193  0.25122388  0.00077021  1
  Fe  Fe88  1  0.12696086  0.87849128  0.62269495  1
  Fe  Fe89  1  0.25177514  0.25119319  0.49789315  1
  Co  Co90  1  0.74963329  0.74804105  0.25041187  1
  Co  Co91  1  0.12527595  0.62521203  0.37713745  1
  Co  Co92  1  0.62256826  0.87152557  0.37459956  1
  Co  Co93  1  0.37895339  0.62819633  0.37472993  1
  Co  Co94  1  -0.00343669  -0.00029823  0.49754403  1
  Co  Co95  1  0.87398736  0.62771010  0.37768203  1
  Co  Co96  1  0.24657260  0.24862163  0.74998648  1
  Co  Co97  1  0.25470927  0.49792883  0.49304650  1
  Co  Co98  1  0.49948219  0.25482920  0.00461194  1
  Co  Co99  1  0.50353289  0.25468609  0.74444546  1
  Co  Co100  1  0.50114314  0.74742825  0.00549487  1
  Co  Co101  1  0.62873258  0.37656431  0.12671277  1
  Co  Co102  1  0.62414023  0.12031349  0.62748689  1
  Co  Co103  1  0.36954115  0.37540874  0.62725049  1
  Co  Co104  1  0.49866508  0.00032713  -0.00115240  1
  Co  Co105  1  0.25664361  0.00117091  0.50005058  1
  Co  Co106  1  0.25067580  -0.00001459  0.24798399  1
  Co  Co107  1  0.12335088  0.37549758  0.37554749  1
  Co  Co108  1  0.74850335  0.24907745  0.74882711  1
  Co  Co109  1  0.87520113  0.37180854  0.87598308  1
  Co  Co110  1  0.12865265  0.12156849  0.37799238  1
  Co  Co111  1  0.87264549  0.12611882  0.37429913  1
  Co  Co112  1  0.50286485  -0.00088866  0.24983449  1
  Co  Co113  1  0.37944897  0.37060769  0.37333672  1
  Co  Co114  1  0.87351598  0.62585810  0.12229302  1
  Co  Co115  1  0.37249190  0.62267066  0.12460041  1
  Co  Co116  1  -0.00241358  0.49939275  0.49848137  1
  Co  Co117  1  0.00110886  0.25061344  0.00366786  1
  Co  Co118  1  0.37740211  0.12330847  0.12700572  1
  Co  Co119  1  0.49768925  -0.00104963  0.75197840  1
  Co  Co120  1  0.74832273  0.75090656  -0.00179221  1
  Co  Co121  1  0.24976203  0.74930722  0.00215323  1
  Co  Co122  1  0.61946861  0.13054662  0.37344085  1
  Co  Co123  1  0.62164293  0.62290028  0.87569388  1
  Co  Co124  1  0.37689692  0.87648020  0.12435763  1
  Co  Co125  1  0.62871100  0.37939213  0.62557502  1
  Co  Co126  1  0.36913608  0.37757385  0.12546289  1
  Co  Co127  1  0.50059797  0.74759012  0.74653158  1
