# generated using pymatgen
data_Fe45Co19
_symmetry_space_group_name_H-M   'P 1'
_cell_length_a   11.41394414
_cell_length_b   11.41542493
_cell_length_c   11.41420114
_cell_angle_alpha   89.99975626
_cell_angle_beta   89.99107876
_cell_angle_gamma   89.99125467
_symmetry_Int_Tables_number   1
_chemical_formula_structural   Fe45Co19
_chemical_formula_sum   'Fe90 Co38'
_cell_volume   1487.21355914
_cell_formula_units_Z   2
loop_
 _symmetry_equiv_pos_site_id
 _symmetry_equiv_pos_as_xyz
  1  'x, y, z'
loop_
 _atom_site_type_symbol
 _atom_site_label
 _atom_site_symmetry_multiplicity
 _atom_site_fract_x
 _atom_site_fract_y
 _atom_site_fract_z
 _atom_site_occupancy
  Fe  Fe0  1  0.49641271  -0.00123706  0.25045867  1
  Fe  Fe1  1  -0.00186517  -0.00034950  0.49974026  1
  Fe  Fe2  1  0.62350244  0.12446279  0.87431268  1
  Fe  Fe3  1  0.49772541  0.24906065  -0.00091994  1
  Fe  Fe4  1  0.00017581  0.74915897  0.24905691  1
  Fe  Fe5  1  0.87464276  0.62494244  0.37218608  1
  Fe  Fe6  1  0.62463570  0.87553298  0.62490266  1
  Fe  Fe7  1  0.75067832  0.49952226  0.74902140  1
  Fe  Fe8  1  0.62519262  0.37414947  0.12503942  1
  Fe  Fe9  1  0.00411052  0.49781677  0.24373788  1
  Fe  Fe10  1  0.62594245  0.62580654  0.62334870  1
  Fe  Fe11  1  0.37393533  0.37271389  0.12461543  1
  Fe  Fe12  1  -0.00126691  0.49981091  0.50116707  1
  Fe  Fe13  1  0.37256872  0.37718486  0.37421765  1
  Fe  Fe14  1  0.62518888  0.37641392  0.37459448  1
  Fe  Fe15  1  -0.00125167  0.74973629  0.75193412  1
  Fe  Fe16  1  0.62432071  0.37482225  0.87725028  1
  Fe  Fe17  1  0.62629992  0.62706834  0.87690497  1
  Fe  Fe18  1  0.12453099  0.12706650  0.87751417  1
  Fe  Fe19  1  0.87499635  0.62645538  0.62357483  1
  Fe  Fe20  1  0.50020357  0.50310598  0.00102276  1
  Fe  Fe21  1  0.37881152  0.12376335  0.62711608  1
  Fe  Fe22  1  0.12479498  0.87556550  0.87612763  1
  Fe  Fe23  1  0.37578447  0.37403025  0.62565455  1
  Fe  Fe24  1  0.50085942  0.24868892  0.49821903  1
  Fe  Fe25  1  0.49827538  0.75248844  0.75555769  1
  Fe  Fe26  1  0.37680058  0.87616001  0.62482261  1
  Fe  Fe27  1  0.24917260  0.74952825  0.49874442  1
  Fe  Fe28  1  0.75198964  0.24738301  0.00352170  1
  Fe  Fe29  1  0.87436988  0.12350045  0.87581390  1
  Fe  Fe30  1  0.12782199  0.62183413  0.37339115  1
  Fe  Fe31  1  0.75244290  -0.00119233  0.49980097  1
  Fe  Fe32  1  0.87738257  0.12372227  0.36798646  1
  Fe  Fe33  1  0.24687873  0.25086178  0.25312587  1
  Fe  Fe34  1  0.75318675  0.75206890  0.49740024  1
  Fe  Fe35  1  0.49857459  0.50135463  0.49902823  1
  Fe  Fe36  1  -0.00017252  0.74798020  -0.00028151  1
  Fe  Fe37  1  0.75378981  -0.00296720  0.24426339  1
  Fe  Fe38  1  0.49862739  0.50037972  0.24873590  1
  Fe  Fe39  1  0.24819819  0.24959166  0.49856342  1
  Fe  Fe40  1  0.25032290  0.49905830  0.75066214  1
  Fe  Fe41  1  0.50201735  -0.00577056  -0.00258337  1
  Fe  Fe42  1  0.25091006  0.75014671  -0.00139889  1
  Fe  Fe43  1  0.62540022  0.62801332  0.12571087  1
  Fe  Fe44  1  0.62412563  0.12263734  0.12528831  1
  Fe  Fe45  1  0.24985818  0.75060312  0.75156284  1
  Fe  Fe46  1  0.50050239  0.24880619  0.25071930  1
  Fe  Fe47  1  0.12412498  0.12610344  0.62491686  1
  Fe  Fe48  1  0.74968549  -0.00122640  0.75056612  1
  Fe  Fe49  1  -0.00087846  0.25095589  0.75209364  1
  Fe  Fe50  1  0.12433587  0.37395077  0.62496854  1
  Fe  Fe51  1  0.37371587  0.12341286  0.37524605  1
  Fe  Fe52  1  0.62657894  0.37530399  0.62251390  1
  Fe  Fe53  1  0.37285873  0.12337469  0.12225398  1
  Fe  Fe54  1  0.37200926  0.62823413  0.12535589  1
  Fe  Fe55  1  0.62539469  0.87607781  0.37263554  1
  Fe  Fe56  1  -0.00182937  0.49993152  0.75022743  1
  Fe  Fe57  1  0.49920196  0.75178963  0.49709813  1
  Fe  Fe58  1  0.24776666  -0.00160080  0.24752566  1
  Fe  Fe59  1  0.37138272  0.62386944  0.37210203  1
  Fe  Fe60  1  0.74981241  0.25098227  0.74988378  1
  Fe  Fe61  1  0.12177906  0.87411686  0.62454471  1
  Fe  Fe62  1  0.12528321  0.87194642  0.12351626  1
  Fe  Fe63  1  0.62623748  0.62503622  0.37403698  1
  Fe  Fe64  1  0.75269283  0.75078779  0.74943190  1
  Fe  Fe65  1  0.25068504  -0.00011543  0.50050930  1
  Fe  Fe66  1  -0.00078261  0.00268805  0.00385864  1
  Fe  Fe67  1  0.37604435  0.62658453  0.62629101  1
  Fe  Fe68  1  0.00108742  0.49802009  0.00449781  1
  Fe  Fe69  1  0.24837445  0.49784264  0.00191101  1
  Fe  Fe70  1  0.87564871  0.12561623  0.62581426  1
  Fe  Fe71  1  0.62590997  0.12252841  0.37291666  1
  Fe  Fe72  1  0.12345052  0.62603968  0.62503849  1
  Fe  Fe73  1  0.75188921  0.24921255  0.49733036  1
  Fe  Fe74  1  0.87400454  0.37651343  0.87778256  1
  Fe  Fe75  1  0.12593248  0.62276241  0.87567227  1
  Fe  Fe76  1  0.87370535  0.37595431  0.37140995  1
  Fe  Fe77  1  0.49757023  0.75280966  0.24889353  1
  Fe  Fe78  1  0.25323292  0.25000196  0.75594118  1
  Fe  Fe79  1  0.12287406  0.13196711  0.12491838  1
  Fe  Fe80  1  0.00015477  -0.00019626  0.75085947  1
  Fe  Fe81  1  0.00107545  0.24989173  0.49534694  1
  Fe  Fe82  1  0.87386403  0.87649561  0.87796839  1
  Fe  Fe83  1  0.24960550  0.00050310  0.75198252  1
  Fe  Fe84  1  0.74949828  0.50046796  0.24669268  1
  Fe  Fe85  1  0.87294958  0.62355177  0.87935097  1
  Fe  Fe86  1  0.50126042  0.50068005  0.75131963  1
  Fe  Fe87  1  0.12368585  0.87628739  0.37572149  1
  Fe  Fe88  1  0.62278619  0.12438124  0.62594217  1
  Fe  Fe89  1  0.74900606  0.75218415  0.00500315  1
  Co  Co90  1  0.50034557  0.00053418  0.49827101  1
  Co  Co91  1  0.12802557  0.38121211  0.37776113  1
  Co  Co92  1  0.87587799  0.37266376  0.62418324  1
  Co  Co93  1  0.87398454  0.37149654  0.12713316  1
  Co  Co94  1  0.25320505  0.25015174  -0.00502539  1
  Co  Co95  1  0.87716422  0.87495528  0.62571379  1
  Co  Co96  1  0.37803595  0.37861349  0.87696643  1
  Co  Co97  1  0.74835472  0.49944383  0.00294959  1
  Co  Co98  1  0.75193779  0.50091251  0.49923902  1
  Co  Co99  1  0.24448851  0.00145553  0.00215953  1
  Co  Co100  1  0.37403622  0.87631640  0.37511724  1
  Co  Co101  1  0.49942702  0.75118428  -0.00073605  1
  Co  Co102  1  0.00014971  0.74865534  0.49736853  1
  Co  Co103  1  0.87764768  0.87286767  0.12351151  1
  Co  Co104  1  0.24768650  0.49752569  0.24350793  1
  Co  Co105  1  0.50175012  -0.00381466  0.75368527  1
  Co  Co106  1  0.87710562  0.87582894  0.37172235  1
  Co  Co107  1  0.12337250  0.37555856  0.87583239  1
  Co  Co108  1  0.00331676  -0.00240354  0.24508942  1
  Co  Co109  1  -0.00440953  0.25044984  -0.00199273  1
  Co  Co110  1  0.12636241  0.36693595  0.12109576  1
  Co  Co111  1  0.63009014  0.87201062  0.87582945  1
  Co  Co112  1  0.62330327  0.87539389  0.12720031  1
  Co  Co113  1  0.24912861  0.75331378  0.25170528  1
  Co  Co114  1  0.37357524  0.62397849  0.87645365  1
  Co  Co115  1  0.49961422  0.25127538  0.75118664  1
  Co  Co116  1  0.87415757  0.62526060  0.12422518  1
  Co  Co117  1  0.75111134  0.75082910  0.24875516  1
  Co  Co118  1  0.00516583  0.25488639  0.25503139  1
  Co  Co119  1  0.74564585  0.24944880  0.24876880  1
  Co  Co120  1  0.37713366  0.11998644  0.87701327  1
  Co  Co121  1  0.37072887  0.87752122  0.87826542  1
  Co  Co122  1  0.25177015  0.50241814  0.50395028  1
  Co  Co123  1  0.12764204  0.62860944  0.12444682  1
  Co  Co124  1  0.37330774  0.87550146  0.12228547  1
  Co  Co125  1  0.87929439  0.12938826  0.13052533  1
  Co  Co126  1  0.12416540  0.12033718  0.37475749  1
  Co  Co127  1  0.75123058  0.00209751  0.00292332  1
