# generated using pymatgen
data_Fe45Co19
_symmetry_space_group_name_H-M   'P 1'
_cell_length_a   11.41547856
_cell_length_b   11.41523312
_cell_length_c   11.41488591
_cell_angle_alpha   89.98959645
_cell_angle_beta   89.99694925
_cell_angle_gamma   89.99992008
_symmetry_Int_Tables_number   1
_chemical_formula_structural   Fe45Co19
_chemical_formula_sum   'Fe90 Co38'
_cell_volume   1487.47773966
_cell_formula_units_Z   2
loop_
 _symmetry_equiv_pos_site_id
 _symmetry_equiv_pos_as_xyz
  1  'x, y, z'
loop_
 _atom_site_type_symbol
 _atom_site_label
 _atom_site_symmetry_multiplicity
 _atom_site_fract_x
 _atom_site_fract_y
 _atom_site_fract_z
 _atom_site_occupancy
  Fe  Fe0  1  0.74740304  0.00095770  0.24954949  1
  Fe  Fe1  1  0.25191947  0.50127397  -0.00041286  1
  Fe  Fe2  1  0.00114087  -0.00043222  0.00292054  1
  Fe  Fe3  1  0.25199699  0.24820122  0.00049265  1
  Fe  Fe4  1  0.49873906  0.00038418  0.50059998  1
  Fe  Fe5  1  0.12559926  0.87230591  0.87724509  1
  Fe  Fe6  1  0.87367695  0.87532789  0.12562673  1
  Fe  Fe7  1  0.49672279  0.24971553  -0.00168677  1
  Fe  Fe8  1  0.25218059  0.75242150  0.49918448  1
  Fe  Fe9  1  -0.00048216  -0.00084015  0.49954864  1
  Fe  Fe10  1  0.00247059  -0.00144841  0.75127340  1
  Fe  Fe11  1  0.24728528  0.50157826  0.75086429  1
  Fe  Fe12  1  0.87499295  0.62508037  0.37500014  1
  Fe  Fe13  1  0.62231022  0.62305364  0.87701340  1
  Fe  Fe14  1  0.24973834  -0.00042197  0.00274962  1
  Fe  Fe15  1  0.38325924  0.62329667  0.12464800  1
  Fe  Fe16  1  0.25595990  0.74975034  0.00023794  1
  Fe  Fe17  1  0.12483216  0.12386315  0.62336814  1
  Fe  Fe18  1  0.62479915  0.12696792  0.12346047  1
  Fe  Fe19  1  -0.00005724  0.75026576  0.24908607  1
  Fe  Fe20  1  0.25010996  0.50141951  0.25073694  1
  Fe  Fe21  1  0.74808067  0.00244127  -0.00043415  1
  Fe  Fe22  1  0.24888118  0.24721485  0.75053900  1
  Fe  Fe23  1  0.00257113  0.49768755  -0.00192592  1
  Fe  Fe24  1  0.62371221  0.87393259  0.37628413  1
  Fe  Fe25  1  0.74998599  0.00126671  0.50029574  1
  Fe  Fe26  1  -0.00124825  0.74947215  -0.00033598  1
  Fe  Fe27  1  0.87569108  0.62360995  0.87446791  1
  Fe  Fe28  1  0.37664939  0.62491239  0.37597525  1
  Fe  Fe29  1  0.62351636  0.87757331  0.87492139  1
  Fe  Fe30  1  0.87632487  0.37587878  0.12482342  1
  Fe  Fe31  1  0.12628489  0.87731186  0.37137272  1
  Fe  Fe32  1  0.37632159  0.12250994  0.12678491  1
  Fe  Fe33  1  0.00291868  0.49886078  0.75245600  1
  Fe  Fe34  1  0.00377798  0.50049065  0.25194841  1
  Fe  Fe35  1  0.87758200  0.12477668  0.62573511  1
  Fe  Fe36  1  0.75076272  0.49820197  0.50206697  1
  Fe  Fe37  1  0.62352468  0.37720706  0.12238367  1
  Fe  Fe38  1  0.49699668  0.24966640  0.74909847  1
  Fe  Fe39  1  0.37126702  0.37465606  0.87343498  1
  Fe  Fe40  1  0.37450914  0.87778542  0.62880999  1
  Fe  Fe41  1  0.12397849  0.62861588  0.62536567  1
  Fe  Fe42  1  0.12599696  0.87456011  0.62570033  1
  Fe  Fe43  1  0.74678542  0.50061026  0.24912962  1
  Fe  Fe44  1  0.75412223  0.24970488  0.75071162  1
  Fe  Fe45  1  0.12546938  0.37285160  0.62381082  1
  Fe  Fe46  1  0.49843476  0.49560415  0.50268311  1
  Fe  Fe47  1  0.25328947  0.75064567  0.24705747  1
  Fe  Fe48  1  0.75241556  0.74968771  0.50275032  1
  Fe  Fe49  1  0.49839204  0.49654891  0.74889360  1
  Fe  Fe50  1  0.87588770  0.12470822  0.37335675  1
  Fe  Fe51  1  0.00356620  0.24778282  0.25099137  1
  Fe  Fe52  1  0.37573414  0.87986150  0.37012511  1
  Fe  Fe53  1  -0.00037960  0.25164572  0.75407102  1
  Fe  Fe54  1  0.24756456  0.50084971  0.49906983  1
  Fe  Fe55  1  0.37452509  0.62508354  0.62575851  1
  Fe  Fe56  1  0.62163834  0.62550609  0.37700684  1
  Fe  Fe57  1  0.61981087  0.87464013  0.12345235  1
  Fe  Fe58  1  0.12585650  0.62690012  0.12401731  1
  Fe  Fe59  1  0.87349465  0.87623851  0.37257199  1
  Fe  Fe60  1  0.74725454  0.74692874  0.00103324  1
  Fe  Fe61  1  0.62264581  0.62546593  0.62365578  1
  Fe  Fe62  1  0.49936308  0.75055121  0.75103981  1
  Fe  Fe63  1  0.37357103  0.37327150  0.37520497  1
  Fe  Fe64  1  0.62386138  0.12792203  0.62516716  1
  Fe  Fe65  1  0.49925277  0.25088487  0.24979901  1
  Fe  Fe66  1  0.25010743  0.75003847  0.75293483  1
  Fe  Fe67  1  0.87690727  0.37419124  0.37516159  1
  Fe  Fe68  1  0.62356885  0.37280745  0.37779753  1
  Fe  Fe69  1  0.24839422  0.24561431  0.25210694  1
  Fe  Fe70  1  0.37346408  0.12264699  0.62587316  1
  Fe  Fe71  1  0.75393610  0.25044652  -0.00198632  1
  Fe  Fe72  1  0.87626999  0.12568254  0.12449173  1
  Fe  Fe73  1  0.24949354  0.24659792  0.49757735  1
  Fe  Fe74  1  0.74588667  0.74728291  0.24749646  1
  Fe  Fe75  1  0.87385162  0.87660134  0.87474259  1
  Fe  Fe76  1  0.37702914  0.88047073  0.87434212  1
  Fe  Fe77  1  0.62274005  0.12803680  0.37703909  1
  Fe  Fe78  1  0.87477629  0.62297074  0.12504264  1
  Fe  Fe79  1  0.75227508  0.74930951  0.74857019  1
  Fe  Fe80  1  0.12755700  0.37298880  0.12463853  1
  Fe  Fe81  1  0.74979095  0.25162286  0.24911370  1
  Fe  Fe82  1  0.75282242  0.25148723  0.50223680  1
  Fe  Fe83  1  0.62685396  0.37359885  0.87468108  1
  Fe  Fe84  1  0.75109467  0.49980612  0.74780974  1
  Fe  Fe85  1  -0.00154061  0.75166441  0.50028797  1
  Fe  Fe86  1  0.12467041  0.12559550  0.87882809  1
  Fe  Fe87  1  0.00308733  0.49931609  0.49811742  1
  Fe  Fe88  1  0.62466635  0.87508105  0.62474399  1
  Fe  Fe89  1  0.74886087  0.00237504  0.75023017  1
  Co  Co90  1  0.12404008  0.12778926  0.12190897  1
  Co  Co91  1  0.87647275  0.12159013  0.87598585  1
  Co  Co92  1  0.12543929  0.62797834  0.87645714  1
  Co  Co93  1  0.12758072  0.37349539  0.37416362  1
  Co  Co94  1  0.87825635  0.62292461  0.62493616  1
  Co  Co95  1  0.24569989  0.00061272  0.75167239  1
  Co  Co96  1  0.37317409  0.12228474  0.87372495  1
  Co  Co97  1  0.49591363  0.25107033  0.50324479  1
  Co  Co98  1  0.24640802  0.00123518  0.24509578  1
  Co  Co99  1  -0.00195373  0.25274211  -0.00197500  1
  Co  Co100  1  0.37988398  0.87864512  0.12571045  1
  Co  Co101  1  0.50204183  0.00300298  0.74916387  1
  Co  Co102  1  0.49682755  0.49500096  -0.00308911  1
  Co  Co103  1  0.50051188  0.74979463  0.25088159  1
  Co  Co104  1  0.12556199  0.87097530  0.12452777  1
  Co  Co105  1  0.37631921  0.12275190  0.37324962  1
  Co  Co106  1  0.50462850  0.00231713  0.25027300  1
  Co  Co107  1  0.50115739  0.00428547  -0.00140773  1
  Co  Co108  1  0.12630415  0.62973138  0.37424449  1
  Co  Co109  1  0.62509956  0.12849426  0.87452339  1
  Co  Co110  1  0.25192327  -0.00106547  0.50050792  1
  Co  Co111  1  0.49618586  0.75261607  0.50086352  1
  Co  Co112  1  0.87366234  0.87764671  0.62650176  1
  Co  Co113  1  0.87815001  0.37550863  0.62472725  1
  Co  Co114  1  0.50060299  0.49636788  0.25261145  1
  Co  Co115  1  0.87283264  0.37811957  0.87546409  1
  Co  Co116  1  0.49824828  0.75090573  -0.00367298  1
  Co  Co117  1  0.37226536  0.37404345  0.12707825  1
  Co  Co118  1  0.13012657  0.37313646  0.87701563  1
  Co  Co119  1  0.12514558  0.11905816  0.37649408  1
  Co  Co120  1  -0.00170531  0.75181187  0.75046241  1
  Co  Co121  1  0.61763628  0.62211185  0.12288695  1
  Co  Co122  1  0.37641064  0.62264809  0.87282350  1
  Co  Co123  1  0.00093475  0.00068321  0.24659254  1
  Co  Co124  1  0.62675254  0.37279436  0.62675064  1
  Co  Co125  1  0.74928014  0.50145969  0.00198776  1
  Co  Co126  1  0.36891111  0.37493700  0.62525918  1
  Co  Co127  1  0.00146730  0.24901442  0.49784468  1
