# generated using pymatgen
data_Fe45Co19
_symmetry_space_group_name_H-M   'P 1'
_cell_length_a   11.41492086
_cell_length_b   11.41443391
_cell_length_c   11.41556294
_cell_angle_alpha   90.00395670
_cell_angle_beta   89.99699937
_cell_angle_gamma   90.00154046
_symmetry_Int_Tables_number   1
_chemical_formula_structural   Fe45Co19
_chemical_formula_sum   'Fe90 Co38'
_cell_volume   1487.38916692
_cell_formula_units_Z   2
loop_
 _symmetry_equiv_pos_site_id
 _symmetry_equiv_pos_as_xyz
  1  'x, y, z'
loop_
 _atom_site_type_symbol
 _atom_site_label
 _atom_site_symmetry_multiplicity
 _atom_site_fract_x
 _atom_site_fract_y
 _atom_site_fract_z
 _atom_site_occupancy
  Fe  Fe0  1  0.12568139  0.12375182  0.87554334  1
  Fe  Fe1  1  0.87617717  0.87564096  0.62331932  1
  Fe  Fe2  1  0.75051912  0.49926335  0.00129078  1
  Fe  Fe3  1  0.12163344  0.37313928  0.12696346  1
  Fe  Fe4  1  0.37412210  0.12662346  0.37582698  1
  Fe  Fe5  1  0.12603574  0.12481300  0.37507179  1
  Fe  Fe6  1  0.62372664  0.62878427  0.37572956  1
  Fe  Fe7  1  0.49874629  0.75067381  0.00045816  1
  Fe  Fe8  1  0.87335542  0.12408392  0.62300106  1
  Fe  Fe9  1  0.74608119  0.25082740  0.50190681  1
  Fe  Fe10  1  0.12442473  0.37345443  0.37280947  1
  Fe  Fe11  1  0.00095338  -0.00093818  0.25143438  1
  Fe  Fe12  1  0.12638671  0.62806949  0.12770147  1
  Fe  Fe13  1  0.74915330  -0.00263008  0.25031363  1
  Fe  Fe14  1  0.62462296  0.87588309  0.87466454  1
  Fe  Fe15  1  0.37311034  0.62658702  0.62114597  1
  Fe  Fe16  1  0.62310086  0.62717356  0.12707837  1
  Fe  Fe17  1  0.87548207  0.37391882  0.87443293  1
  Fe  Fe18  1  0.75101049  0.50034573  0.74871851  1
  Fe  Fe19  1  0.62148248  0.37153735  0.37302540  1
  Fe  Fe20  1  0.00076073  0.49874560  0.49910905  1
  Fe  Fe21  1  0.37537242  0.87561237  0.87485280  1
  Fe  Fe22  1  0.75146811  0.75016694  0.74878925  1
  Fe  Fe23  1  0.37705252  0.37490659  0.12730466  1
  Fe  Fe24  1  0.74870394  0.49964349  0.49865117  1
  Fe  Fe25  1  0.12532722  0.37575609  0.87410999  1
  Fe  Fe26  1  0.62473291  0.37337490  0.87336980  1
  Fe  Fe27  1  0.24622669  -0.00187447  0.49838105  1
  Fe  Fe28  1  0.25033390  0.50013000  0.74853185  1
  Fe  Fe29  1  0.49924012  0.74976047  0.74803426  1
  Fe  Fe30  1  0.87825069  0.12611719  0.12514961  1
  Fe  Fe31  1  0.75175744  -0.00227937  0.00107351  1
  Fe  Fe32  1  0.62527180  0.62679550  0.62255350  1
  Fe  Fe33  1  0.87617148  0.62629879  0.62283051  1
  Fe  Fe34  1  0.49922360  0.50212253  0.00086538  1
  Fe  Fe35  1  0.37497486  0.37250567  0.87354148  1
  Fe  Fe36  1  0.24921369  0.75269137  0.00085444  1
  Fe  Fe37  1  0.75195642  0.25051588  0.00099724  1
  Fe  Fe38  1  0.12225979  0.87512593  0.87554617  1
  Fe  Fe39  1  0.37368665  0.37151728  0.62517827  1
  Fe  Fe40  1  0.50019452  0.24715009  0.00078992  1
  Fe  Fe41  1  0.49506962  0.75079502  0.25323446  1
  Fe  Fe42  1  0.25300333  0.49971304  0.24998940  1
  Fe  Fe43  1  0.37095514  0.12666837  0.62362989  1
  Fe  Fe44  1  0.87557354  0.37386878  0.62423169  1
  Fe  Fe45  1  0.24894988  0.75150285  0.74808755  1
  Fe  Fe46  1  0.87373796  0.12333704  0.37677088  1
  Fe  Fe47  1  0.49885468  0.50151974  0.74938128  1
  Fe  Fe48  1  0.00059950  0.00063888  0.74752450  1
  Fe  Fe49  1  0.62319937  0.37514685  0.12779492  1
  Fe  Fe50  1  -0.00071193  0.50165239  0.74923324  1
  Fe  Fe51  1  0.74887684  0.00033800  0.75067567  1
  Fe  Fe52  1  0.25096302  0.50005608  0.00145296  1
  Fe  Fe53  1  0.37235419  0.12227819  0.12511033  1
  Fe  Fe54  1  0.37464570  0.87516551  0.62184660  1
  Fe  Fe55  1  0.50388973  0.24603060  0.74707762  1
  Fe  Fe56  1  0.25255502  0.75363020  0.25452143  1
  Fe  Fe57  1  0.87493630  0.62499385  0.12564146  1
  Fe  Fe58  1  0.62583300  0.62598654  0.87480736  1
  Fe  Fe59  1  -0.00198591  0.50055398  0.25089441  1
  Fe  Fe60  1  0.87598538  0.37265556  0.37509104  1
  Fe  Fe61  1  0.00345314  0.24822706  0.50129763  1
  Fe  Fe62  1  -0.00124781  0.50198889  0.00071786  1
  Fe  Fe63  1  0.75095799  0.24952774  0.24895987  1
  Fe  Fe64  1  0.50084266  0.00245658  0.74996721  1
  Fe  Fe65  1  0.50161359  0.00085959  0.25248261  1
  Fe  Fe66  1  0.87963278  0.87356620  0.12582044  1
  Fe  Fe67  1  0.87813566  0.87325330  0.87576077  1
  Fe  Fe68  1  0.12456841  0.12287443  0.12468900  1
  Fe  Fe69  1  0.87504529  0.12614844  0.87512395  1
  Fe  Fe70  1  0.37310796  0.62589613  0.87604766  1
  Fe  Fe71  1  0.50448430  0.00070933  0.49955115  1
  Fe  Fe72  1  0.37316853  0.87794997  0.12581604  1
  Fe  Fe73  1  0.62627369  0.12284266  0.12427271  1
  Fe  Fe74  1  0.75171065  0.75256301  0.25135451  1
  Fe  Fe75  1  0.74685142  -0.00488426  0.49766136  1
  Fe  Fe76  1  0.00274374  0.24868733  0.74743923  1
  Fe  Fe77  1  0.12479253  0.62661850  0.62329825  1
  Fe  Fe78  1  0.75059582  0.75132282  0.00072329  1
  Fe  Fe79  1  0.24963445  0.49712019  0.49968090  1
  Fe  Fe80  1  0.37714327  0.37141733  0.37296421  1
  Fe  Fe81  1  0.24957621  0.24875662  0.00026834  1
  Fe  Fe82  1  0.25068337  -0.00018748  0.75145458  1
  Fe  Fe83  1  0.75006493  0.49900019  0.25136861  1
  Fe  Fe84  1  0.12637759  0.62632965  0.37499602  1
  Fe  Fe85  1  0.00140546  0.75464801  0.49865101  1
  Fe  Fe86  1  0.50021323  0.49910256  0.49904994  1
  Fe  Fe87  1  0.87535071  0.62762742  0.37633732  1
  Fe  Fe88  1  0.12445192  0.62621804  0.87402164  1
  Fe  Fe89  1  0.49922158  0.00054702  -0.00169388  1
  Co  Co90  1  0.12547511  0.87597960  0.62544285  1
  Co  Co91  1  -0.00075872  0.75047358  0.74884567  1
  Co  Co92  1  -0.00027536  0.75011955  0.25154429  1
  Co  Co93  1  0.00066459  0.74819165  0.00078229  1
  Co  Co94  1  0.62740755  0.12596149  0.37436619  1
  Co  Co95  1  0.24714272  0.25172728  0.49876137  1
  Co  Co96  1  0.87419089  0.62536004  0.87550336  1
  Co  Co97  1  0.62869304  0.12179653  0.62403656  1
  Co  Co98  1  0.37585438  0.87986404  0.37831707  1
  Co  Co99  1  0.12487538  0.37652512  0.62563538  1
  Co  Co100  1  0.12516320  0.87554895  0.12637473  1
  Co  Co101  1  0.87650225  0.87698324  0.37478696  1
  Co  Co102  1  0.62430171  0.87429133  0.62615625  1
  Co  Co103  1  0.37362078  0.62618001  0.12497578  1
  Co  Co104  1  0.49957690  0.24455320  0.24839256  1
  Co  Co105  1  0.12393688  0.87587111  0.37321666  1
  Co  Co106  1  -0.00026956  0.24712819  0.25268629  1
  Co  Co107  1  0.62393453  0.87213953  0.37403565  1
  Co  Co108  1  0.49833761  0.75096939  0.49953667  1
  Co  Co109  1  0.62482922  0.37731051  0.62572982  1
  Co  Co110  1  0.24903007  -0.00001074  0.25188110  1
  Co  Co111  1  0.24686849  0.24940560  0.75006663  1
  Co  Co112  1  0.87788919  0.37465790  0.12666471  1
  Co  Co113  1  0.24894434  0.75243904  0.49802773  1
  Co  Co114  1  0.24974322  -0.00047182  -0.00236598  1
  Co  Co115  1  0.74853982  0.24950712  0.74842181  1
  Co  Co116  1  0.24997035  0.24876250  0.24870339  1
  Co  Co117  1  0.37436936  0.12689521  0.87372613  1
  Co  Co118  1  0.12813895  0.12258655  0.62480754  1
  Co  Co119  1  0.62229976  0.87477583  0.12634470  1
  Co  Co120  1  0.75136916  0.75304647  0.50025699  1
  Co  Co121  1  0.00182911  0.00031456  0.50029595  1
  Co  Co122  1  0.62722283  0.12400131  0.87684501  1
  Co  Co123  1  0.50180194  0.24780871  0.50252301  1
  Co  Co124  1  0.37329214  0.62333936  0.37832493  1
  Co  Co125  1  0.49914780  0.50319097  0.25121988  1
  Co  Co126  1  0.00089400  0.24954650  -0.00138937  1
  Co  Co127  1  -0.00067638  -0.00027346  0.00049063  1
