# generated using pymatgen
data_Fe45Co19
_symmetry_space_group_name_H-M   'P 1'
_cell_length_a   11.41400602
_cell_length_b   11.41511320
_cell_length_c   11.41485153
_cell_angle_alpha   90.00535997
_cell_angle_beta   89.99872523
_cell_angle_gamma   90.00618632
_symmetry_Int_Tables_number   1
_chemical_formula_structural   Fe45Co19
_chemical_formula_sum   'Fe90 Co38'
_cell_volume   1487.26576998
_cell_formula_units_Z   2
loop_
 _symmetry_equiv_pos_site_id
 _symmetry_equiv_pos_as_xyz
  1  'x, y, z'
loop_
 _atom_site_type_symbol
 _atom_site_label
 _atom_site_symmetry_multiplicity
 _atom_site_fract_x
 _atom_site_fract_y
 _atom_site_fract_z
 _atom_site_occupancy
  Fe  Fe0  1  0.24977937  0.24983472  0.24819718  1
  Fe  Fe1  1  0.74786257  0.24701974  0.74626757  1
  Fe  Fe2  1  0.24955620  0.00207251  0.49944320  1
  Fe  Fe3  1  0.87362914  0.87506247  0.37349401  1
  Fe  Fe4  1  0.86977685  0.62296990  0.62451742  1
  Fe  Fe5  1  0.87438560  0.62748751  0.87375783  1
  Fe  Fe6  1  0.62822583  0.38095344  0.62355127  1
  Fe  Fe7  1  0.37473281  0.12643507  0.37533874  1
  Fe  Fe8  1  0.37591230  0.37533655  0.62792910  1
  Fe  Fe9  1  0.37464975  0.87442755  0.37428557  1
  Fe  Fe10  1  0.12430648  0.12438844  0.87601220  1
  Fe  Fe11  1  0.00060463  -0.00116520  0.25191956  1
  Fe  Fe12  1  0.12471841  0.37441564  0.62523683  1
  Fe  Fe13  1  0.37552375  0.12331090  0.12503178  1
  Fe  Fe14  1  0.50099134  0.25235079  0.50053109  1
  Fe  Fe15  1  0.87514740  0.87339296  0.86987257  1
  Fe  Fe16  1  0.50423847  0.24754364  0.74926542  1
  Fe  Fe17  1  0.37709862  0.12502148  0.62499520  1
  Fe  Fe18  1  0.24861952  0.74795752  0.00045638  1
  Fe  Fe19  1  0.12682509  0.37425493  0.37552033  1
  Fe  Fe20  1  0.87209964  0.12552864  0.87129171  1
  Fe  Fe21  1  0.12355627  0.87409418  0.12460684  1
  Fe  Fe22  1  0.62234387  0.37583961  0.12906927  1
  Fe  Fe23  1  0.75252366  -0.00140691  0.50256715  1
  Fe  Fe24  1  0.62624627  0.12184629  0.12307404  1
  Fe  Fe25  1  0.11935668  0.62280566  0.12342191  1
  Fe  Fe26  1  0.37804783  0.12338685  0.87445029  1
  Fe  Fe27  1  0.37834917  0.37386983  0.37056069  1
  Fe  Fe28  1  0.50064970  0.24960241  0.00097885  1
  Fe  Fe29  1  -0.00275690  0.49953516  0.49885044  1
  Fe  Fe30  1  0.74995424  0.25029090  0.00186327  1
  Fe  Fe31  1  0.37756198  0.62345812  0.62386277  1
  Fe  Fe32  1  0.50303994  -0.00214856  0.25020206  1
  Fe  Fe33  1  0.12416522  0.12644997  0.62282682  1
  Fe  Fe34  1  -0.00002912  0.25074151  0.24980195  1
  Fe  Fe35  1  0.12497559  0.37747025  0.87632529  1
  Fe  Fe36  1  0.12458363  0.62439393  0.37536671  1
  Fe  Fe37  1  0.25313667  0.49762394  0.50025810  1
  Fe  Fe38  1  0.24937164  0.74754299  0.24763208  1
  Fe  Fe39  1  0.50589606  0.50407141  0.75184124  1
  Fe  Fe40  1  0.87763939  0.62501800  0.12768427  1
  Fe  Fe41  1  0.24950815  0.50206359  0.75160663  1
  Fe  Fe42  1  0.62650930  0.37429107  0.87517399  1
  Fe  Fe43  1  -0.00164885  0.25050791  0.50059350  1
  Fe  Fe44  1  0.74664928  0.50154550  0.25305127  1
  Fe  Fe45  1  0.37576533  0.87710213  0.62512871  1
  Fe  Fe46  1  0.87528919  0.62663564  0.37325977  1
  Fe  Fe47  1  0.87391398  0.37717305  0.12730820  1
  Fe  Fe48  1  0.62593135  0.12412907  0.37854669  1
  Fe  Fe49  1  0.74590619  0.74928525  0.74687363  1
  Fe  Fe50  1  0.25057774  0.74787653  0.75058904  1
  Fe  Fe51  1  -0.00122329  0.50155598  0.75057197  1
  Fe  Fe52  1  0.25061492  -0.00154002  0.00013908  1
  Fe  Fe53  1  -0.00276117  -0.00279576  -0.00073369  1
  Fe  Fe54  1  0.87346974  0.37415511  0.37323861  1
  Fe  Fe55  1  -0.00307365  0.75086439  0.50123495  1
  Fe  Fe56  1  0.12302380  0.12494423  0.12444962  1
  Fe  Fe57  1  0.62349504  0.62597038  0.12204594  1
  Fe  Fe58  1  0.50184204  0.75202337  0.25069620  1
  Fe  Fe59  1  0.24890638  0.24884659  0.75072936  1
  Fe  Fe60  1  0.12501919  0.87386956  0.37700141  1
  Fe  Fe61  1  0.74823303  0.24767660  0.25024661  1
  Fe  Fe62  1  0.75335383  0.75209206  0.00203539  1
  Fe  Fe63  1  0.62327024  0.87559705  0.62031067  1
  Fe  Fe64  1  0.24832550  0.00040580  0.25060245  1
  Fe  Fe65  1  -0.00141334  0.00112422  0.74695314  1
  Fe  Fe66  1  0.50219939  0.74870255  0.74743266  1
  Fe  Fe67  1  0.75006028  0.25263965  0.50124379  1
  Fe  Fe68  1  0.37585128  0.37657955  0.87500459  1
  Fe  Fe69  1  0.62388162  0.62641165  0.38258285  1
  Fe  Fe70  1  0.25226580  0.25137757  0.00069992  1
  Fe  Fe71  1  0.62420434  0.87617720  0.87617536  1
  Fe  Fe72  1  0.25218704  0.74962304  0.50089440  1
  Fe  Fe73  1  0.12582875  0.62473616  0.62388590  1
  Fe  Fe74  1  0.25076306  0.00101805  0.74965433  1
  Fe  Fe75  1  0.12422535  0.87356359  0.62500768  1
  Fe  Fe76  1  0.74968387  0.50032139  -0.00121373  1
  Fe  Fe77  1  0.87500525  0.12302914  0.12633085  1
  Fe  Fe78  1  0.37572233  0.62518987  0.37559410  1
  Fe  Fe79  1  0.12282558  0.37717298  0.12268228  1
  Fe  Fe80  1  0.25192331  0.50070123  0.24612657  1
  Fe  Fe81  1  0.37621833  0.87642487  0.87452064  1
  Fe  Fe82  1  0.37681976  0.62415399  0.87835096  1
  Fe  Fe83  1  0.74743209  0.75227254  0.25074589  1
  Fe  Fe84  1  0.75153105  -0.00175973  -0.00072848  1
  Fe  Fe85  1  0.87525629  0.12385792  0.37554118  1
  Fe  Fe86  1  0.49939497  0.75397634  0.00222456  1
  Fe  Fe87  1  0.12299172  0.87207404  0.87220625  1
  Fe  Fe88  1  -0.00255519  0.25083733  -0.00138946  1
  Fe  Fe89  1  0.87296931  0.37359991  0.87120182  1
  Co  Co90  1  -0.00518729  0.49961102  -0.00311620  1
  Co  Co91  1  0.12398100  0.62467943  0.87629810  1
  Co  Co92  1  0.50288022  0.24380751  0.24989774  1
  Co  Co93  1  0.49753620  -0.00052367  0.49788887  1
  Co  Co94  1  0.62488296  0.62933976  0.87986679  1
  Co  Co95  1  0.25248742  0.50070946  0.00296134  1
  Co  Co96  1  0.87482674  0.12613274  0.62545416  1
  Co  Co97  1  0.62638702  0.12434320  0.87726180  1
  Co  Co98  1  0.37374733  0.87440809  0.12659072  1
  Co  Co99  1  0.49944711  -0.00027501  0.00115617  1
  Co  Co100  1  0.50206877  0.49718387  -0.00087334  1
  Co  Co101  1  0.62615782  0.87515073  0.37873822  1
  Co  Co102  1  0.12409567  0.12703990  0.37540500  1
  Co  Co103  1  0.00153841  0.24909356  0.75060295  1
  Co  Co104  1  -0.00050471  -0.00153691  0.50019240  1
  Co  Co105  1  0.75306984  0.75215281  0.50034564  1
  Co  Co106  1  0.74725271  0.50401946  0.75376940  1
  Co  Co107  1  -0.00211833  0.75136455  0.00040452  1
  Co  Co108  1  0.62332748  0.37394416  0.37254369  1
  Co  Co109  1  0.62481353  0.12296785  0.62101553  1
  Co  Co110  1  0.87462860  0.87503552  0.62773166  1
  Co  Co111  1  0.25269077  0.25082886  0.50035740  1
  Co  Co112  1  0.87405366  0.37604745  0.62813540  1
  Co  Co113  1  0.50198881  0.50521748  0.25190361  1
  Co  Co114  1  0.74586955  -0.00066957  0.74808994  1
  Co  Co115  1  0.50337507  0.00054520  0.74987597  1
  Co  Co116  1  0.87404899  0.87546026  0.12906551  1
  Co  Co117  1  0.49826760  0.49721904  0.49882915  1
  Co  Co118  1  0.00066826  0.75241412  0.25118568  1
  Co  Co119  1  0.75266344  0.49726621  0.49494761  1
  Co  Co120  1  -0.00032084  0.74654277  0.74666523  1
  Co  Co121  1  0.49697038  0.75136192  0.50083438  1
  Co  Co122  1  0.62665856  0.87595127  0.12365714  1
  Co  Co123  1  0.62666487  0.62292748  0.61869312  1
  Co  Co124  1  -0.00003772  0.49796527  0.25294184  1
  Co  Co125  1  0.38044656  0.37498969  0.12812487  1
  Co  Co126  1  0.37965319  0.62605908  0.12310618  1
  Co  Co127  1  0.74755535  0.00006055  0.25086471  1
