# generated using pymatgen
data_Fe45Co19
_symmetry_space_group_name_H-M   'P 1'
_cell_length_a   11.41518272
_cell_length_b   11.41532371
_cell_length_c   11.41488519
_cell_angle_alpha   89.99445315
_cell_angle_beta   90.00026502
_cell_angle_gamma   89.99526167
_symmetry_Int_Tables_number   1
_chemical_formula_structural   Fe45Co19
_chemical_formula_sum   'Fe90 Co38'
_cell_volume   1487.45091472
_cell_formula_units_Z   2
loop_
 _symmetry_equiv_pos_site_id
 _symmetry_equiv_pos_as_xyz
  1  'x, y, z'
loop_
 _atom_site_type_symbol
 _atom_site_label
 _atom_site_symmetry_multiplicity
 _atom_site_fract_x
 _atom_site_fract_y
 _atom_site_fract_z
 _atom_site_occupancy
  Fe  Fe0  1  0.87746701  0.37394882  0.62081507  1
  Fe  Fe1  1  0.24804164  0.25064102  0.49807569  1
  Fe  Fe2  1  0.62391608  0.87420651  0.12919542  1
  Fe  Fe3  1  0.49749191  0.24757347  0.25001812  1
  Fe  Fe4  1  0.50399277  -0.00024279  -0.00293323  1
  Fe  Fe5  1  0.37605827  0.87716396  0.62667312  1
  Fe  Fe6  1  0.24738590  0.50005743  0.24898049  1
  Fe  Fe7  1  0.12329590  0.37272931  0.12707679  1
  Fe  Fe8  1  0.37492574  0.12299489  0.12371769  1
  Fe  Fe9  1  0.12389835  0.62840143  0.62557545  1
  Fe  Fe10  1  0.87970076  0.88055995  0.87567476  1
  Fe  Fe11  1  0.12484612  0.37700560  0.87434402  1
  Fe  Fe12  1  0.25034551  0.74774066  0.75303577  1
  Fe  Fe13  1  -0.00156481  0.24676594  0.25398525  1
  Fe  Fe14  1  0.50020104  0.00022767  0.49977771  1
  Fe  Fe15  1  0.37400178  0.12498421  0.87512336  1
  Fe  Fe16  1  0.74940318  0.25122430  0.50076791  1
  Fe  Fe17  1  0.37584133  0.37585364  0.62248933  1
  Fe  Fe18  1  0.62401806  0.12690712  0.62781806  1
  Fe  Fe19  1  0.87444765  0.12031318  0.12199121  1
  Fe  Fe20  1  0.12492344  0.12615022  0.62562652  1
  Fe  Fe21  1  0.24659974  0.74669820  -0.00220872  1
  Fe  Fe22  1  0.49952640  0.24953449  0.49883495  1
  Fe  Fe23  1  0.75254029  0.49982148  0.25223243  1
  Fe  Fe24  1  0.24529427  0.49885511  0.50074255  1
  Fe  Fe25  1  0.87830255  0.87692793  0.62556213  1
  Fe  Fe26  1  0.37536597  0.12374862  0.62566119  1
  Fe  Fe27  1  0.00224036  0.74836556  -0.00260742  1
  Fe  Fe28  1  0.12505752  0.62740925  0.37512591  1
  Fe  Fe29  1  0.12253328  0.87353976  0.12767857  1
  Fe  Fe30  1  0.25163062  0.25186085  0.74966041  1
  Fe  Fe31  1  0.62251189  0.87439664  0.62771239  1
  Fe  Fe32  1  0.50145420  0.49943438  -0.00059020  1
  Fe  Fe33  1  0.37474049  0.87550945  0.87563203  1
  Fe  Fe34  1  0.12183564  0.37203281  0.62516071  1
  Fe  Fe35  1  0.87386362  0.62631081  0.61815817  1
  Fe  Fe36  1  0.50106672  0.50327057  0.25270780  1
  Fe  Fe37  1  -0.00091288  0.50242043  0.25289466  1
  Fe  Fe38  1  0.24959704  0.75306314  0.49934511  1
  Fe  Fe39  1  0.75437032  0.75117101  0.74990215  1
  Fe  Fe40  1  0.49958866  0.75019683  0.49815522  1
  Fe  Fe41  1  0.37259821  0.37818923  0.87654455  1
  Fe  Fe42  1  0.37406534  0.87814669  0.37325846  1
  Fe  Fe43  1  0.74773333  -0.00204806  0.49928673  1
  Fe  Fe44  1  0.62663175  0.62717839  0.87442387  1
  Fe  Fe45  1  0.87555875  0.62276615  0.87692096  1
  Fe  Fe46  1  0.50027431  0.74887413  -0.00083657  1
  Fe  Fe47  1  0.75203841  0.49873158  0.74895029  1
  Fe  Fe48  1  0.00291564  -0.00077482  0.49756289  1
  Fe  Fe49  1  0.87703753  0.87935456  0.12328451  1
  Fe  Fe50  1  0.62523865  0.37250062  0.12662163  1
  Fe  Fe51  1  0.24455492  -0.00117714  0.00001674  1
  Fe  Fe52  1  0.74954037  0.49781189  0.00082788  1
  Fe  Fe53  1  0.37363094  0.37614240  0.37439125  1
  Fe  Fe54  1  0.49929322  0.49937594  0.75098330  1
  Fe  Fe55  1  0.63028010  0.62873542  0.37475882  1
  Fe  Fe56  1  0.74835987  -0.00031000  0.75162702  1
  Fe  Fe57  1  0.49729170  0.74816238  0.75096835  1
  Fe  Fe58  1  0.62752921  0.37090763  0.87463968  1
  Fe  Fe59  1  0.87364170  0.87555521  0.37474185  1
  Fe  Fe60  1  0.25031877  0.25121679  0.00185228  1
  Fe  Fe61  1  -0.00102092  0.50199538  0.74721721  1
  Fe  Fe62  1  0.37115897  0.12158106  0.37468927  1
  Fe  Fe63  1  0.12415656  0.12628521  0.12697730  1
  Fe  Fe64  1  0.12208187  0.87331837  0.62799522  1
  Fe  Fe65  1  0.62712728  0.12569721  0.37384039  1
  Fe  Fe66  1  -0.00488880  0.24643907  0.75372015  1
  Fe  Fe67  1  0.50358735  0.50053786  0.49670972  1
  Fe  Fe68  1  0.87535289  0.12340106  0.62241028  1
  Fe  Fe69  1  0.62480616  0.37312534  0.62659519  1
  Fe  Fe70  1  0.37490444  0.62452158  0.12407057  1
  Fe  Fe71  1  0.62707016  0.62665936  0.12599439  1
  Fe  Fe72  1  -0.00382094  0.75001791  0.25310893  1
  Fe  Fe73  1  0.00349001  0.50146116  0.00202351  1
  Fe  Fe74  1  0.75124688  0.75348001  -0.00000760  1
  Fe  Fe75  1  0.62756327  0.13029728  0.87407584  1
  Fe  Fe76  1  0.87703267  0.37541183  0.12449628  1
  Fe  Fe77  1  0.87514747  0.62505295  0.12418292  1
  Fe  Fe78  1  0.25253347  0.75030359  0.25046823  1
  Fe  Fe79  1  0.37529871  0.37644629  0.12645994  1
  Fe  Fe80  1  0.62469059  0.87386628  0.37063597  1
  Fe  Fe81  1  0.87777016  0.37489058  0.37927899  1
  Fe  Fe82  1  0.62719556  0.62626195  0.62451288  1
  Fe  Fe83  1  0.24752107  -0.00016403  0.75063151  1
  Fe  Fe84  1  -0.00323297  0.24769559  -0.00359507  1
  Fe  Fe85  1  0.37689588  0.87534635  0.12448731  1
  Fe  Fe86  1  0.12820871  0.12159274  0.37276259  1
  Fe  Fe87  1  0.37495825  0.62372663  0.62313479  1
  Fe  Fe88  1  0.75355389  0.24962188  0.25006945  1
  Fe  Fe89  1  0.62718101  0.12682172  0.12400572  1
  Co  Co90  1  0.49619296  0.25178068  0.75033278  1
  Co  Co91  1  0.12723441  0.87610542  0.37210539  1
  Co  Co92  1  -0.00132348  0.00075954  0.25221445  1
  Co  Co93  1  0.25104599  0.24954649  0.24943521  1
  Co  Co94  1  0.74406508  -0.00356686  -0.00086288  1
  Co  Co95  1  0.00306945  0.24587308  0.49713311  1
  Co  Co96  1  0.12497673  0.62096759  0.87245522  1
  Co  Co97  1  0.75091089  0.00020301  0.24962814  1
  Co  Co98  1  0.12345808  0.62815090  0.12896528  1
  Co  Co99  1  0.24965053  0.49959858  0.74563518  1
  Co  Co100  1  0.62493393  0.37172881  0.37178791  1
  Co  Co101  1  0.24658791  0.50122746  0.00484826  1
  Co  Co102  1  0.87186725  0.11840384  0.87769839  1
  Co  Co103  1  0.75658326  0.25076745  0.74955722  1
  Co  Co104  1  0.12260296  0.87375129  0.87231743  1
  Co  Co105  1  0.24955263  -0.00140091  0.24484046  1
  Co  Co106  1  0.37391061  0.62229785  0.87613371  1
  Co  Co107  1  0.24773161  -0.00184270  0.50357163  1
  Co  Co108  1  0.74966446  0.75513912  0.50187863  1
  Co  Co109  1  0.50005434  0.00259519  0.24951733  1
  Co  Co110  1  0.87684319  0.37910599  0.87629589  1
  Co  Co111  1  0.50060568  0.00153587  0.75301934  1
  Co  Co112  1  0.49784336  0.25111171  0.00042918  1
  Co  Co113  1  0.75451279  0.75093519  0.24732060  1
  Co  Co114  1  0.87233493  0.12418305  0.37880497  1
  Co  Co115  1  -0.00345151  0.74707720  0.75146775  1
  Co  Co116  1  0.00020369  0.75259474  0.49755583  1
  Co  Co117  1  0.37158091  0.62342797  0.37765031  1
  Co  Co118  1  0.12369600  0.37457525  0.37302994  1
  Co  Co119  1  0.12767305  0.12814728  0.87429714  1
  Co  Co120  1  0.00362179  0.50237188  0.49997616  1
  Co  Co121  1  0.87221353  0.62528617  0.37967003  1
  Co  Co122  1  0.75536657  0.25183137  0.00045309  1
  Co  Co123  1  0.74767761  0.49632474  0.49917765  1
  Co  Co124  1  0.62402787  0.87059740  0.87161403  1
  Co  Co125  1  0.00267074  0.00448233  0.75011241  1
  Co  Co126  1  0.49691118  0.74717822  0.25127102  1
  Co  Co127  1  0.00695232  0.00234275  -0.00070314  1
