# generated using pymatgen
data_Fe45Co19
_symmetry_space_group_name_H-M   'P 1'
_cell_length_a   11.41599896
_cell_length_b   11.41586275
_cell_length_c   11.41547211
_cell_angle_alpha   89.99959690
_cell_angle_beta   90.00724549
_cell_angle_gamma   90.00101672
_symmetry_Int_Tables_number   1
_chemical_formula_structural   Fe45Co19
_chemical_formula_sum   'Fe90 Co38'
_cell_volume   1487.70400824
_cell_formula_units_Z   2
loop_
 _symmetry_equiv_pos_site_id
 _symmetry_equiv_pos_as_xyz
  1  'x, y, z'
loop_
 _atom_site_type_symbol
 _atom_site_label
 _atom_site_symmetry_multiplicity
 _atom_site_fract_x
 _atom_site_fract_y
 _atom_site_fract_z
 _atom_site_occupancy
  Fe  Fe0  1  0.12275171  0.12321465  0.87407782  1
  Fe  Fe1  1  0.12332934  0.62578769  0.62781673  1
  Fe  Fe2  1  0.49957345  0.49934729  0.49945701  1
  Fe  Fe3  1  0.12544615  0.87968416  0.63020017  1
  Fe  Fe4  1  0.24654639  0.24947193  0.24953336  1
  Fe  Fe5  1  0.75165405  0.50023365  0.24921770  1
  Fe  Fe6  1  0.75163912  0.74900646  0.00179639  1
  Fe  Fe7  1  0.12350063  0.87670880  0.87132604  1
  Fe  Fe8  1  0.12578037  0.87975275  0.12923049  1
  Fe  Fe9  1  0.37445326  0.87751065  0.62692058  1
  Fe  Fe10  1  0.49964665  0.75164725  0.75161566  1
  Fe  Fe11  1  0.49972412  -0.00340338  0.25119248  1
  Fe  Fe12  1  0.24990112  0.00046445  0.00024083  1
  Fe  Fe13  1  0.37483626  0.12359606  0.37730628  1
  Fe  Fe14  1  0.75167921  0.49944950  -0.00027103  1
  Fe  Fe15  1  0.62528912  0.37638328  0.37505071  1
  Fe  Fe16  1  0.12133075  0.62725597  0.87191854  1
  Fe  Fe17  1  0.75280874  0.00178518  0.74853440  1
  Fe  Fe18  1  0.37464882  0.37315704  0.87631303  1
  Fe  Fe19  1  0.12725507  0.37377756  0.62450391  1
  Fe  Fe20  1  0.62695160  0.37221232  0.12471061  1
  Fe  Fe21  1  0.12616698  0.12064193  0.37446523  1
  Fe  Fe22  1  0.37332672  0.37364130  0.62140350  1
  Fe  Fe23  1  0.37749371  0.12171978  0.62121922  1
  Fe  Fe24  1  0.00244766  0.49883097  0.50051077  1
  Fe  Fe25  1  0.87443631  0.37332779  0.62388820  1
  Fe  Fe26  1  0.00041893  -0.00100253  0.50082121  1
  Fe  Fe27  1  0.00281800  0.49592107  0.24966929  1
  Fe  Fe28  1  0.74777190  0.00040605  0.49961237  1
  Fe  Fe29  1  0.49755953  0.49965327  0.25004859  1
  Fe  Fe30  1  0.37588929  0.62916731  0.12512526  1
  Fe  Fe31  1  0.37917272  0.12438914  0.87661225  1
  Fe  Fe32  1  0.12549385  0.62391246  0.12648116  1
  Fe  Fe33  1  0.00321422  0.25096156  0.24924904  1
  Fe  Fe34  1  0.24752110  0.75166038  0.00072729  1
  Fe  Fe35  1  0.50045856  0.49940731  0.00064338  1
  Fe  Fe36  1  0.75034279  0.50031079  0.49978366  1
  Fe  Fe37  1  0.87777813  0.62421386  0.37492097  1
  Fe  Fe38  1  0.62377797  0.12799385  0.87414642  1
  Fe  Fe39  1  0.12606981  0.37306516  0.87499486  1
  Fe  Fe40  1  0.37448575  0.87548867  0.87542910  1
  Fe  Fe41  1  0.87709349  0.62435318  0.62601442  1
  Fe  Fe42  1  0.62192948  0.12571676  0.62548683  1
  Fe  Fe43  1  0.74964734  0.00063242  0.00276598  1
  Fe  Fe44  1  0.87496309  0.37356128  0.87420410  1
  Fe  Fe45  1  0.87391489  0.12474169  0.37504787  1
  Fe  Fe46  1  0.87726874  0.62515062  0.12372532  1
  Fe  Fe47  1  0.62513431  0.87121305  0.12913914  1
  Fe  Fe48  1  0.50045400  0.75366061  0.49684897  1
  Fe  Fe49  1  0.49895427  0.25154467  0.25151301  1
  Fe  Fe50  1  0.37590228  0.62677138  0.62437337  1
  Fe  Fe51  1  -0.00101779  -0.00040166  0.00230063  1
  Fe  Fe52  1  0.87412303  0.12573329  0.12746710  1
  Fe  Fe53  1  0.75396273  0.74955917  0.74927743  1
  Fe  Fe54  1  0.75176367  0.74912645  0.49856979  1
  Fe  Fe55  1  -0.00090483  0.24979403  0.00271483  1
  Fe  Fe56  1  0.37589664  0.62680553  0.87567356  1
  Fe  Fe57  1  0.87492909  0.12524241  0.87484659  1
  Fe  Fe58  1  0.62557972  0.87482069  0.62497507  1
  Fe  Fe59  1  0.74727777  0.25027218  0.49979860  1
  Fe  Fe60  1  0.00093133  0.75332983  0.50069868  1
  Fe  Fe61  1  0.62409781  0.62554940  0.62445621  1
  Fe  Fe62  1  0.24998454  0.50118394  0.74932343  1
  Fe  Fe63  1  0.25139263  0.24506877  0.74837121  1
  Fe  Fe64  1  0.36931696  0.37501088  0.37795146  1
  Fe  Fe65  1  0.24916444  0.24696031  0.00076839  1
  Fe  Fe66  1  0.00381181  0.24853189  0.49975537  1
  Fe  Fe67  1  0.62492020  0.62691727  0.37350856  1
  Fe  Fe68  1  0.24672162  0.75276992  0.50120306  1
  Fe  Fe69  1  0.62672213  0.87485924  0.87412526  1
  Fe  Fe70  1  0.87653333  0.87323674  0.87692907  1
  Fe  Fe71  1  0.62256376  0.62792186  0.12679810  1
  Fe  Fe72  1  0.12635861  0.62501142  0.37412453  1
  Fe  Fe73  1  0.37097193  0.62540520  0.37499497  1
  Fe  Fe74  1  0.87327207  0.87699322  0.37305661  1
  Fe  Fe75  1  -0.00087392  0.24715287  0.74702898  1
  Fe  Fe76  1  0.24923165  0.50176926  -0.00017789  1
  Fe  Fe77  1  0.49972636  0.49779185  0.74962236  1
  Fe  Fe78  1  0.75131914  0.49949428  0.75046291  1
  Fe  Fe79  1  0.87600043  0.37381302  0.37455257  1
  Fe  Fe80  1  -0.00049863  0.75260717  0.24934155  1
  Fe  Fe81  1  0.37068362  0.87637295  0.37435743  1
  Fe  Fe82  1  0.62353838  0.12437533  0.37416916  1
  Fe  Fe83  1  0.37494794  0.12345947  0.12550766  1
  Fe  Fe84  1  0.37220326  0.37424323  0.12373695  1
  Fe  Fe85  1  -0.00035322  0.49905477  -0.00151454  1
  Fe  Fe86  1  0.62442587  0.37036692  0.87486667  1
  Fe  Fe87  1  0.62546591  0.12804278  0.12626095  1
  Fe  Fe88  1  0.62516367  0.62568086  0.87502250  1
  Fe  Fe89  1  0.50231996  -0.00173080  0.00149733  1
  Co  Co90  1  0.00324579  0.75222267  0.00299075  1
  Co  Co91  1  0.24782510  0.50367487  0.50214127  1
  Co  Co92  1  0.24994570  0.49950002  0.24829834  1
  Co  Co93  1  0.74994109  0.25023739  0.25226531  1
  Co  Co94  1  -0.00559813  0.00075202  0.74914838  1
  Co  Co95  1  0.87800295  0.62735675  0.87565623  1
  Co  Co96  1  0.37458377  0.87434814  0.12385759  1
  Co  Co97  1  0.87519512  0.37373649  0.12640398  1
  Co  Co98  1  -0.00259300  0.00214599  0.24997447  1
  Co  Co99  1  0.12624433  0.37489341  0.12131630  1
  Co  Co100  1  0.75093687  0.24827042  0.74849538  1
  Co  Co101  1  0.49695918  0.75201811  0.25426460  1
  Co  Co102  1  -0.00319194  0.75310289  0.74787712  1
  Co  Co103  1  0.75228601  0.24895482  0.00019136  1
  Co  Co104  1  0.49935123  0.24976512  0.00196333  1
  Co  Co105  1  0.24882979  0.75125120  0.24927652  1
  Co  Co106  1  0.24711116  0.24450760  0.50040333  1
  Co  Co107  1  0.87286253  0.87647225  0.62196025  1
  Co  Co108  1  0.25178626  0.00154221  0.25009371  1
  Co  Co109  1  0.50170105  -0.00403612  0.49719577  1
  Co  Co110  1  0.00008997  0.49783257  0.75002372  1
  Co  Co111  1  0.87474903  0.87565521  0.12579279  1
  Co  Co112  1  0.63016152  0.87305456  0.37229789  1
  Co  Co113  1  0.12509411  0.12291441  0.12417709  1
  Co  Co114  1  0.12436385  0.87740544  0.37140300  1
  Co  Co115  1  0.25269978  0.00415557  0.75209849  1
  Co  Co116  1  0.24782410  -0.00181086  0.50013922  1
  Co  Co117  1  0.74926600  0.00148492  0.24829812  1
  Co  Co118  1  0.12863376  0.37662698  0.37707509  1
  Co  Co119  1  0.87478946  0.12559141  0.62106178  1
  Co  Co120  1  0.50092978  0.25154592  0.49866265  1
  Co  Co121  1  0.49748487  0.25049690  0.74785410  1
  Co  Co122  1  0.75455143  0.74754062  0.25025589  1
  Co  Co123  1  0.62551231  0.37534322  0.62513736  1
  Co  Co124  1  0.12402330  0.12013563  0.62670777  1
  Co  Co125  1  0.50072655  -0.00065235  0.75145395  1
  Co  Co126  1  0.50074049  0.75200691  -0.00250977  1
  Co  Co127  1  0.25060944  0.74966173  0.75031126  1
