# generated using pymatgen
data_Fe45Co19
_symmetry_space_group_name_H-M   'P 1'
_cell_length_a   11.41408599
_cell_length_b   11.41539047
_cell_length_c   11.41509705
_cell_angle_alpha   89.99676853
_cell_angle_beta   89.99789224
_cell_angle_gamma   89.99777853
_symmetry_Int_Tables_number   1
_chemical_formula_structural   Fe45Co19
_chemical_formula_sum   'Fe90 Co38'
_cell_volume   1487.34431606
_cell_formula_units_Z   2
loop_
 _symmetry_equiv_pos_site_id
 _symmetry_equiv_pos_as_xyz
  1  'x, y, z'
loop_
 _atom_site_type_symbol
 _atom_site_label
 _atom_site_symmetry_multiplicity
 _atom_site_fract_x
 _atom_site_fract_y
 _atom_site_fract_z
 _atom_site_occupancy
  Fe  Fe0  1  0.49861691  0.24865580  0.25085714  1
  Fe  Fe1  1  0.37811852  0.87526541  0.12606236  1
  Fe  Fe2  1  0.74873498  0.75203351  -0.00152979  1
  Fe  Fe3  1  0.12817639  0.62385783  0.37628562  1
  Fe  Fe4  1  0.62739362  0.12630928  0.37424161  1
  Fe  Fe5  1  0.75121422  0.00201097  0.74820895  1
  Fe  Fe6  1  0.12965485  0.87192048  0.87197828  1
  Fe  Fe7  1  0.12527334  0.62717656  0.12532607  1
  Fe  Fe8  1  0.00128894  0.00190096  0.25251948  1
  Fe  Fe9  1  0.87611578  0.87402641  0.12628412  1
  Fe  Fe10  1  0.00187723  0.74992203  -0.00283080  1
  Fe  Fe11  1  0.12521370  0.87341864  0.62630630  1
  Fe  Fe12  1  -0.00535468  0.24584122  0.75332896  1
  Fe  Fe13  1  0.62542961  0.12607614  0.87501697  1
  Fe  Fe14  1  0.74996195  0.49955555  0.00116502  1
  Fe  Fe15  1  0.74972573  0.49926486  0.24879210  1
  Fe  Fe16  1  0.50080178  0.50037423  -0.00096070  1
  Fe  Fe17  1  0.87745564  0.37318954  0.12529852  1
  Fe  Fe18  1  0.24784414  0.50042453  0.00034653  1
  Fe  Fe19  1  -0.00174172  0.75036886  0.49937469  1
  Fe  Fe20  1  0.49850419  0.24958207  0.00006451  1
  Fe  Fe21  1  0.37497102  0.62073735  0.62420743  1
  Fe  Fe22  1  0.49738545  0.24890055  0.49836271  1
  Fe  Fe23  1  -0.00139944  0.00048350  0.49895704  1
  Fe  Fe24  1  0.12494416  0.87495827  0.37534773  1
  Fe  Fe25  1  0.62660490  0.12589884  0.62442814  1
  Fe  Fe26  1  0.12531502  0.37275506  0.12836506  1
  Fe  Fe27  1  0.62233179  0.37316663  0.62667413  1
  Fe  Fe28  1  0.62391728  0.87571543  0.87197677  1
  Fe  Fe29  1  -0.00018849  0.24806487  0.25514986  1
  Fe  Fe30  1  0.25460600  0.75126246  0.25319452  1
  Fe  Fe31  1  0.24779525  0.49818049  0.74841072  1
  Fe  Fe32  1  0.87037913  0.62380637  0.37841560  1
  Fe  Fe33  1  0.49898459  0.74871558  0.74783064  1
  Fe  Fe34  1  0.74930913  0.49963314  0.74810523  1
  Fe  Fe35  1  0.62290401  0.62960069  0.12525321  1
  Fe  Fe36  1  0.12718780  0.12585139  0.12658069  1
  Fe  Fe37  1  0.24985246  0.25249130  0.49969885  1
  Fe  Fe38  1  0.87655580  0.37361534  0.62666338  1
  Fe  Fe39  1  0.74723592  -0.00269169  0.25025170  1
  Fe  Fe40  1  0.62609532  0.12668569  0.12513473  1
  Fe  Fe41  1  0.50063582  0.50373827  0.25221037  1
  Fe  Fe42  1  0.37280595  0.62554167  0.87473899  1
  Fe  Fe43  1  0.87399884  0.87327562  0.62601436  1
  Fe  Fe44  1  0.49767001  0.00422049  0.74815590  1
  Fe  Fe45  1  0.12344346  0.37336264  0.87355422  1
  Fe  Fe46  1  0.25404568  0.24905797  0.74731113  1
  Fe  Fe47  1  0.24859375  -0.00062518  0.50053331  1
  Fe  Fe48  1  0.00031155  0.00044417  0.74909556  1
  Fe  Fe49  1  0.37378611  0.12215253  0.12559167  1
  Fe  Fe50  1  0.24564601  0.49579971  0.50390467  1
  Fe  Fe51  1  0.37667526  0.62657233  0.12339139  1
  Fe  Fe52  1  -0.00060299  0.74826087  0.25346650  1
  Fe  Fe53  1  0.00228940  0.50004757  -0.00056724  1
  Fe  Fe54  1  0.75229402  0.25229546  0.50015765  1
  Fe  Fe55  1  0.25112692  0.24993221  0.00071731  1
  Fe  Fe56  1  0.75288109  0.25124481  -0.00196623  1
  Fe  Fe57  1  0.62796049  0.62833629  0.62170442  1
  Fe  Fe58  1  0.50291162  0.50132828  0.49896987  1
  Fe  Fe59  1  0.74883888  0.75193233  0.25332240  1
  Fe  Fe60  1  0.87536428  0.62505702  0.87465690  1
  Fe  Fe61  1  0.37917114  0.87891178  0.62213058  1
  Fe  Fe62  1  0.37487985  0.37626636  0.12701916  1
  Fe  Fe63  1  0.61673563  0.87314350  0.37609179  1
  Fe  Fe64  1  0.74882737  -0.00370901  0.49932309  1
  Fe  Fe65  1  0.12474112  0.62799913  0.62615203  1
  Fe  Fe66  1  0.37284840  0.12017508  0.37427634  1
  Fe  Fe67  1  0.87191145  0.62857119  0.62317757  1
  Fe  Fe68  1  0.87447817  0.12486088  0.12547459  1
  Fe  Fe69  1  0.62491124  0.37396380  0.87263734  1
  Fe  Fe70  1  0.37687702  0.37609160  0.87288093  1
  Fe  Fe71  1  0.62410983  0.62629227  0.87517983  1
  Fe  Fe72  1  0.62668344  0.37526780  0.37370758  1
  Fe  Fe73  1  0.87489491  0.62751102  0.12480010  1
  Fe  Fe74  1  0.37190151  0.37933858  0.37401331  1
  Fe  Fe75  1  -0.00007720  0.50068320  0.25238133  1
  Fe  Fe76  1  0.00075991  0.50232282  0.74931099  1
  Fe  Fe77  1  0.49674303  0.24705461  0.74844827  1
  Fe  Fe78  1  0.50117494  -0.00066257  0.00095449  1
  Fe  Fe79  1  0.12826655  0.12432789  0.87494198  1
  Fe  Fe80  1  0.12475220  0.87290889  0.12633621  1
  Fe  Fe81  1  0.87516962  0.87576533  0.87417467  1
  Fe  Fe82  1  0.12442132  0.12689702  0.62400133  1
  Fe  Fe83  1  0.37222948  0.87633971  0.87447351  1
  Fe  Fe84  1  -0.00059563  0.25041678  0.49515893  1
  Fe  Fe85  1  0.62342904  0.37416402  0.12517667  1
  Fe  Fe86  1  0.74840102  -0.00214854  0.00207173  1
  Fe  Fe87  1  0.25407417  0.75146942  0.49979978  1
  Fe  Fe88  1  0.00298090  0.00015702  -0.00030542  1
  Fe  Fe89  1  0.00058675  0.49780643  0.49993429  1
  Co  Co90  1  0.25023053  0.00150547  0.74711966  1
  Co  Co91  1  0.12770284  0.37718135  0.37164227  1
  Co  Co92  1  0.49988191  0.75203107  -0.00361299  1
  Co  Co93  1  0.50257572  0.50288819  0.74943598  1
  Co  Co94  1  0.37865753  0.37747641  0.62448514  1
  Co  Co95  1  0.37083496  0.61969057  0.37846352  1
  Co  Co96  1  0.24947994  0.50307568  0.24601775  1
  Co  Co97  1  0.87747741  0.87607455  0.37350405  1
  Co  Co98  1  0.37982638  0.88007205  0.37804251  1
  Co  Co99  1  0.24811999  -0.00134201  0.00175190  1
  Co  Co100  1  0.74878945  0.75685284  0.49839832  1
  Co  Co101  1  0.87354168  0.37665467  0.37420729  1
  Co  Co102  1  0.37297020  0.12397441  0.62075299  1
  Co  Co103  1  0.74904472  0.75030020  0.75097724  1
  Co  Co104  1  0.25024334  0.75079748  0.00240970  1
  Co  Co105  1  0.87494356  0.12396915  0.62110681  1
  Co  Co106  1  0.74947719  0.49518778  0.50345475  1
  Co  Co107  1  0.87528990  0.37812519  0.87438366  1
  Co  Co108  1  0.49761085  0.74555659  0.50011002  1
  Co  Co109  1  0.74998432  0.25154995  0.24958699  1
  Co  Co110  1  0.62230875  0.87001060  0.12659930  1
  Co  Co111  1  0.12785277  0.12325297  0.37667549  1
  Co  Co112  1  0.37388562  0.12335928  0.87768310  1
  Co  Co113  1  0.62995685  0.62484694  0.37734884  1
  Co  Co114  1  0.50314497  0.00557935  0.50105748  1
  Co  Co115  1  0.87116850  0.12331711  0.37510463  1
  Co  Co116  1  0.62165465  0.87554929  0.62612017  1
  Co  Co117  1  0.50283013  0.00259983  0.24823323  1
  Co  Co118  1  0.49590771  0.74582707  0.25606052  1
  Co  Co119  1  0.87370107  0.12106461  0.87833860  1
  Co  Co120  1  0.75258166  0.24877356  0.75033828  1
  Co  Co121  1  0.25389557  0.75049267  0.74472655  1
  Co  Co122  1  0.12089655  0.36985280  0.62810989  1
  Co  Co123  1  0.24905419  -0.00377481  0.25035142  1
  Co  Co124  1  0.12794643  0.62743751  0.87282730  1
  Co  Co125  1  0.25222578  0.24819086  0.25161767  1
  Co  Co126  1  0.00003078  0.24860411  -0.00135519  1
  Co  Co127  1  -0.00077993  0.75022747  0.75009497  1
