# generated using pymatgen
data_Fe45Co19
_symmetry_space_group_name_H-M   'P 1'
_cell_length_a   11.41553321
_cell_length_b   11.41479431
_cell_length_c   11.41624980
_cell_angle_alpha   90.00701111
_cell_angle_beta   90.00126793
_cell_angle_gamma   90.00396045
_symmetry_Int_Tables_number   1
_chemical_formula_structural   Fe45Co19
_chemical_formula_sum   'Fe90 Co38'
_cell_volume   1487.60541499
_cell_formula_units_Z   2
loop_
 _symmetry_equiv_pos_site_id
 _symmetry_equiv_pos_as_xyz
  1  'x, y, z'
loop_
 _atom_site_type_symbol
 _atom_site_label
 _atom_site_symmetry_multiplicity
 _atom_site_fract_x
 _atom_site_fract_y
 _atom_site_fract_z
 _atom_site_occupancy
  Fe  Fe0  1  0.37508641  0.87633803  0.87340330  1
  Fe  Fe1  1  0.87506518  0.87609665  0.12365021  1
  Fe  Fe2  1  0.37680020  0.87561826  0.12376505  1
  Fe  Fe3  1  0.62106756  0.62078662  0.12198546  1
  Fe  Fe4  1  0.74946781  -0.00297072  0.74885130  1
  Fe  Fe5  1  0.62658382  0.62815226  0.37617858  1
  Fe  Fe6  1  0.75021374  0.74799626  -0.00115594  1
  Fe  Fe7  1  0.62477717  0.62741041  0.62991505  1
  Fe  Fe8  1  0.50233160  0.25050307  0.50193592  1
  Fe  Fe9  1  0.00003043  0.00225584  0.49775959  1
  Fe  Fe10  1  0.37248736  0.62347342  0.87599156  1
  Fe  Fe11  1  0.37637141  0.12307766  0.37744317  1
  Fe  Fe12  1  -0.00081721  0.25131337  0.74860405  1
  Fe  Fe13  1  0.62871744  0.12555344  0.87451958  1
  Fe  Fe14  1  0.12228818  0.37563689  0.12375040  1
  Fe  Fe15  1  0.37151758  0.37350952  0.87583982  1
  Fe  Fe16  1  0.87380796  0.37786393  0.37748113  1
  Fe  Fe17  1  0.50064134  0.24840822  0.74980066  1
  Fe  Fe18  1  0.24957811  0.74785458  0.00213396  1
  Fe  Fe19  1  0.12743683  0.12809919  0.87537300  1
  Fe  Fe20  1  0.74888270  -0.00282776  0.24995626  1
  Fe  Fe21  1  0.74906790  0.50120820  0.75110342  1
  Fe  Fe22  1  -0.00487449  0.24899152  0.25292369  1
  Fe  Fe23  1  0.24908550  0.00011784  0.74755396  1
  Fe  Fe24  1  0.12309729  0.62332476  0.12741157  1
  Fe  Fe25  1  0.50355291  0.25254000  0.24819250  1
  Fe  Fe26  1  0.74501656  -0.00386748  0.50307889  1
  Fe  Fe27  1  0.12407527  0.37400825  0.62120938  1
  Fe  Fe28  1  0.50263223  -0.00095015  -0.00276346  1
  Fe  Fe29  1  0.62706535  0.37638206  0.87750521  1
  Fe  Fe30  1  0.12379207  0.37494074  0.37661655  1
  Fe  Fe31  1  0.25097063  0.50022457  0.24965981  1
  Fe  Fe32  1  0.25174747  0.25121883  0.24954167  1
  Fe  Fe33  1  0.37681358  0.12330870  0.12555069  1
  Fe  Fe34  1  0.50099204  0.50129987  0.75275082  1
  Fe  Fe35  1  0.87358843  0.87346038  0.37741958  1
  Fe  Fe36  1  -0.00436255  0.24688131  -0.00077908  1
  Fe  Fe37  1  0.62682741  0.12650328  0.37651664  1
  Fe  Fe38  1  0.24964159  0.74996853  0.50133326  1
  Fe  Fe39  1  0.87772569  0.62346844  0.87032807  1
  Fe  Fe40  1  0.74819193  0.75032322  0.24644685  1
  Fe  Fe41  1  -0.00069855  0.74788910  -0.00085650  1
  Fe  Fe42  1  0.37763670  0.37929389  0.12337759  1
  Fe  Fe43  1  -0.00315362  0.00325769  -0.00120083  1
  Fe  Fe44  1  0.74638817  0.49854044  0.25004990  1
  Fe  Fe45  1  0.37487946  0.12208130  0.62203069  1
  Fe  Fe46  1  0.12135831  0.87126860  0.62238746  1
  Fe  Fe47  1  -0.00232636  0.74735731  0.25372334  1
  Fe  Fe48  1  0.12466710  0.87469390  0.87602881  1
  Fe  Fe49  1  0.37834530  0.37582732  0.37509758  1
  Fe  Fe50  1  0.37220698  0.12663250  0.87570728  1
  Fe  Fe51  1  0.50036490  0.75295700  0.50309746  1
  Fe  Fe52  1  0.87629552  0.87527646  0.87416227  1
  Fe  Fe53  1  0.49957140  0.74814230  -0.00150545  1
  Fe  Fe54  1  0.25217067  0.75063889  0.24801335  1
  Fe  Fe55  1  0.37568583  0.62482330  0.37467399  1
  Fe  Fe56  1  0.12320285  0.87181165  0.37614265  1
  Fe  Fe57  1  0.12664337  0.12902449  0.37681801  1
  Fe  Fe58  1  0.24927480  0.50068077  0.49982050  1
  Fe  Fe59  1  0.50153389  0.25127396  0.00049670  1
  Fe  Fe60  1  0.62878883  0.12359237  0.12204349  1
  Fe  Fe61  1  0.50382492  0.49998190  0.49970875  1
  Fe  Fe62  1  -0.00299256  0.00213256  0.25276560  1
  Fe  Fe63  1  0.50453199  -0.00256067  0.25209772  1
  Fe  Fe64  1  0.00184177  0.00116067  0.75011728  1
  Fe  Fe65  1  0.37394701  0.62342622  0.62478002  1
  Fe  Fe66  1  0.37594182  0.87723677  0.37764929  1
  Fe  Fe67  1  0.75074108  0.25186083  0.74861707  1
  Fe  Fe68  1  0.87578514  0.37892684  0.62387067  1
  Fe  Fe69  1  0.12606607  0.12899926  0.62128197  1
  Fe  Fe70  1  0.25152602  0.75162132  0.74812236  1
  Fe  Fe71  1  0.50067202  0.75057247  0.24959293  1
  Fe  Fe72  1  0.12748969  0.37216591  0.87785729  1
  Fe  Fe73  1  0.75351731  0.75078806  0.50775086  1
  Fe  Fe74  1  0.24917052  -0.00052055  0.25127854  1
  Fe  Fe75  1  0.12289769  0.62475607  0.87143920  1
  Fe  Fe76  1  0.24764570  0.49787932  0.74930372  1
  Fe  Fe77  1  0.00065787  0.50813633  0.49734205  1
  Fe  Fe78  1  0.87674707  0.62197491  0.12648331  1
  Fe  Fe79  1  0.74742295  0.50200009  0.50227243  1
  Fe  Fe80  1  0.87411083  0.37667196  0.12261806  1
  Fe  Fe81  1  0.87413709  0.12370844  0.62485135  1
  Fe  Fe82  1  0.87472964  0.37619719  0.87595166  1
  Fe  Fe83  1  0.12226152  0.87562402  0.12509921  1
  Fe  Fe84  1  0.12325316  0.12533568  0.12590203  1
  Fe  Fe85  1  0.74953456  0.25189426  0.50252068  1
  Fe  Fe86  1  0.24957171  0.00081468  0.00153187  1
  Fe  Fe87  1  0.62355445  0.87051162  0.87020370  1
  Fe  Fe88  1  0.74998736  0.25199464  0.24922676  1
  Fe  Fe89  1  0.37740410  0.37572318  0.62600694  1
  Co  Co90  1  0.87116742  0.12280526  0.12537087  1
  Co  Co91  1  0.62623255  0.37779423  0.12024861  1
  Co  Co92  1  0.25046958  0.25013532  0.74569849  1
  Co  Co93  1  0.37839806  0.62256700  0.12586060  1
  Co  Co94  1  0.25141311  0.24927404  0.00520837  1
  Co  Co95  1  0.62671574  0.12610856  0.62591709  1
  Co  Co96  1  0.86814307  0.62491255  0.37303333  1
  Co  Co97  1  0.49909171  0.49973615  -0.00556511  1
  Co  Co98  1  0.49377207  0.74648678  0.74992830  1
  Co  Co99  1  0.62398577  0.37606458  0.62802433  1
  Co  Co100  1  0.62770285  0.87034426  0.37551580  1
  Co  Co101  1  -0.00236257  0.75269070  0.74917448  1
  Co  Co102  1  0.50639607  -0.00258298  0.50010984  1
  Co  Co103  1  0.87806276  0.62084550  0.63053212  1
  Co  Co104  1  -0.00151493  0.49959845  0.25320259  1
  Co  Co105  1  -0.00002112  0.50087849  -0.00146099  1
  Co  Co106  1  0.37679905  0.87838334  0.62523954  1
  Co  Co107  1  0.50378830  0.49965463  0.25380241  1
  Co  Co108  1  0.12414608  0.62673277  0.62893789  1
  Co  Co109  1  0.87258701  0.12473154  0.87068118  1
  Co  Co110  1  0.86919389  0.12389392  0.37764603  1
  Co  Co111  1  0.24789405  0.50179995  0.00087259  1
  Co  Co112  1  0.12896386  0.62608457  0.37176994  1
  Co  Co113  1  0.62623144  0.62786568  0.87217280  1
  Co  Co114  1  0.75025640  -0.00335110  -0.00372317  1
  Co  Co115  1  0.49937109  0.00396300  0.75065227  1
  Co  Co116  1  -0.00456334  0.24948906  0.49914297  1
  Co  Co117  1  -0.00361419  0.74257101  0.49786825  1
  Co  Co118  1  0.75548893  0.75114670  0.74735075  1
  Co  Co119  1  0.75204694  0.24934446  -0.00094568  1
  Co  Co120  1  0.75231594  0.50450423  -0.00165035  1
  Co  Co121  1  0.24682335  -0.00160669  0.49963220  1
  Co  Co122  1  0.25443078  0.25257397  0.49925370  1
  Co  Co123  1  0.62042249  0.87170676  0.63259201  1
  Co  Co124  1  0.62443103  0.87496163  0.12173456  1
  Co  Co125  1  0.00329010  0.49476499  0.75071848  1
  Co  Co126  1  0.62588804  0.37321815  0.37698492  1
  Co  Co127  1  0.88036016  0.87832936  0.62333424  1
