# generated using pymatgen
data_Fe45Co19
_symmetry_space_group_name_H-M   'P 1'
_cell_length_a   11.41543715
_cell_length_b   11.41633875
_cell_length_c   11.41587164
_cell_angle_alpha   90.00763008
_cell_angle_beta   89.99474296
_cell_angle_gamma   90.00817508
_symmetry_Int_Tables_number   1
_chemical_formula_structural   Fe45Co19
_chemical_formula_sum   'Fe90 Co38'
_cell_volume   1487.74486779
_cell_formula_units_Z   2
loop_
 _symmetry_equiv_pos_site_id
 _symmetry_equiv_pos_as_xyz
  1  'x, y, z'
loop_
 _atom_site_type_symbol
 _atom_site_label
 _atom_site_symmetry_multiplicity
 _atom_site_fract_x
 _atom_site_fract_y
 _atom_site_fract_z
 _atom_site_occupancy
  Fe  Fe0  1  -0.00353441  0.50117503  0.25038453  1
  Fe  Fe1  1  0.75095821  0.00116527  0.24995170  1
  Fe  Fe2  1  0.87242946  0.12394237  0.62414428  1
  Fe  Fe3  1  0.87505398  0.62749938  0.37671338  1
  Fe  Fe4  1  0.12390899  0.62462582  0.62350176  1
  Fe  Fe5  1  0.12491598  0.62464323  0.37644363  1
  Fe  Fe6  1  0.24860130  0.00077906  0.00000535  1
  Fe  Fe7  1  0.37638898  0.87239213  0.12281667  1
  Fe  Fe8  1  0.75032068  0.25372413  0.75459790  1
  Fe  Fe9  1  0.37558376  0.12639138  0.12371589  1
  Fe  Fe10  1  0.74851440  0.74993740  -0.00083427  1
  Fe  Fe11  1  0.74769197  -0.00078294  -0.00147294  1
  Fe  Fe12  1  -0.00345753  0.24744281  0.25046788  1
  Fe  Fe13  1  0.74868986  0.75092195  0.75075519  1
  Fe  Fe14  1  0.12387432  0.12230162  0.12683092  1
  Fe  Fe15  1  0.24918135  0.24926313  0.49995023  1
  Fe  Fe16  1  0.62731298  0.12727825  0.12412975  1
  Fe  Fe17  1  0.75483554  0.24782781  0.24909486  1
  Fe  Fe18  1  0.74401706  -0.00100511  0.49670164  1
  Fe  Fe19  1  0.12693612  0.37761731  0.12619216  1
  Fe  Fe20  1  0.87549132  0.37322871  0.62349343  1
  Fe  Fe21  1  0.37441464  0.37504494  0.62225424  1
  Fe  Fe22  1  0.74483336  0.75191703  0.49966628  1
  Fe  Fe23  1  -0.00036854  0.00001035  0.75211976  1
  Fe  Fe24  1  0.87478347  0.87482051  0.37479393  1
  Fe  Fe25  1  0.25410562  0.49662281  0.25509991  1
  Fe  Fe26  1  0.38137059  0.87758925  0.62223019  1
  Fe  Fe27  1  0.25159909  0.49964011  0.74963917  1
  Fe  Fe28  1  0.25083428  0.25079311  0.24992016  1
  Fe  Fe29  1  0.25260980  -0.00014507  0.49851488  1
  Fe  Fe30  1  0.25252238  -0.00116514  0.25008095  1
  Fe  Fe31  1  0.12346656  0.37757303  0.87479014  1
  Fe  Fe32  1  0.12484701  0.87624792  0.62657802  1
  Fe  Fe33  1  0.62379437  0.12158888  0.62925789  1
  Fe  Fe34  1  0.00024497  0.74855851  0.24610060  1
  Fe  Fe35  1  0.87503287  0.62846239  0.62272819  1
  Fe  Fe36  1  0.25045127  0.75022099  0.74866392  1
  Fe  Fe37  1  0.62617976  0.62176880  0.62736727  1
  Fe  Fe38  1  0.25278156  0.00088414  0.75131026  1
  Fe  Fe39  1  0.75238092  0.49968144  0.49960794  1
  Fe  Fe40  1  0.87267681  0.87550275  0.62470001  1
  Fe  Fe41  1  0.50087731  0.75015649  0.74979895  1
  Fe  Fe42  1  0.25033695  0.75240707  0.24955392  1
  Fe  Fe43  1  0.49680544  0.50114303  0.25142190  1
  Fe  Fe44  1  0.12153010  0.37555940  0.37774810  1
  Fe  Fe45  1  0.74758062  -0.00321864  0.75477602  1
  Fe  Fe46  1  0.87741708  0.87396391  0.12231967  1
  Fe  Fe47  1  0.37704615  0.12730938  0.37561463  1
  Fe  Fe48  1  0.87371770  0.37533983  0.12290882  1
  Fe  Fe49  1  -0.00079556  0.75242212  0.75125241  1
  Fe  Fe50  1  0.62503622  0.37986465  0.62891784  1
  Fe  Fe51  1  0.50002970  0.49902896  0.00188550  1
  Fe  Fe52  1  0.74873910  0.49584554  -0.00322949  1
  Fe  Fe53  1  0.49883981  0.25238211  0.24751908  1
  Fe  Fe54  1  0.75294666  0.49996651  0.25201548  1
  Fe  Fe55  1  0.00106792  0.24939488  0.00070946  1
  Fe  Fe56  1  0.50052500  0.00080649  0.24991584  1
  Fe  Fe57  1  0.37560476  0.37557761  0.87650580  1
  Fe  Fe58  1  0.12605217  0.12416394  0.62526274  1
  Fe  Fe59  1  0.37430736  0.62565741  0.62147726  1
  Fe  Fe60  1  0.87332540  0.12641789  0.87790035  1
  Fe  Fe61  1  0.62699777  0.62256835  0.12621873  1
  Fe  Fe62  1  0.12278794  0.12379051  0.37441766  1
  Fe  Fe63  1  0.49857266  0.50231450  0.49730802  1
  Fe  Fe64  1  0.37141867  0.62393216  0.12519913  1
  Fe  Fe65  1  0.50198246  -0.00018261  -0.00215681  1
  Fe  Fe66  1  0.62283050  0.87302335  0.12522280  1
  Fe  Fe67  1  0.62553162  0.37507523  0.37285920  1
  Fe  Fe68  1  0.74872215  0.75002000  0.24966773  1
  Fe  Fe69  1  -0.00019089  0.24865434  0.75006895  1
  Fe  Fe70  1  0.37422952  0.62559339  0.87621934  1
  Fe  Fe71  1  0.37516005  0.87196198  0.87757799  1
  Fe  Fe72  1  -0.00315093  0.50059056  0.74748475  1
  Fe  Fe73  1  0.38208774  0.87125857  0.37658512  1
  Fe  Fe74  1  0.00246958  -0.00213738  -0.00208074  1
  Fe  Fe75  1  0.37593213  0.12707572  0.87584376  1
  Fe  Fe76  1  0.87693762  0.62629228  0.87723160  1
  Fe  Fe77  1  -0.00050144  -0.00067741  0.50005751  1
  Fe  Fe78  1  0.12305444  0.87546770  0.37307170  1
  Fe  Fe79  1  0.00271128  0.50469116  0.00301532  1
  Fe  Fe80  1  0.25020079  0.25013629  0.74996239  1
  Fe  Fe81  1  0.49933691  0.25006236  0.74948735  1
  Fe  Fe82  1  0.62429018  0.62208715  0.87249269  1
  Fe  Fe83  1  0.24332276  0.74704048  0.00099072  1
  Fe  Fe84  1  0.50483883  0.25398160  0.00064295  1
  Fe  Fe85  1  0.74842895  0.24954563  0.49965605  1
  Fe  Fe86  1  0.24869030  0.75142360  0.50023781  1
  Fe  Fe87  1  0.12393674  0.37638590  0.62234845  1
  Fe  Fe88  1  0.24822849  0.25071351  0.00112123  1
  Fe  Fe89  1  0.50260630  0.24789096  0.50174511  1
  Co  Co90  1  0.62520575  0.12856124  0.37083780  1
  Co  Co91  1  0.12362119  0.62401846  0.86988627  1
  Co  Co92  1  0.87119683  0.62486160  0.12312204  1
  Co  Co93  1  0.25104078  0.50040966  0.49885370  1
  Co  Co94  1  0.87472802  0.12388963  0.11941300  1
  Co  Co95  1  0.49392822  0.50220614  0.74896535  1
  Co  Co96  1  0.62670216  0.62357861  0.37324359  1
  Co  Co97  1  0.12413403  0.87782833  0.12582939  1
  Co  Co98  1  0.62113920  0.87247559  0.37142891  1
  Co  Co99  1  -0.00078531  0.24818300  0.50075318  1
  Co  Co100  1  0.12670821  0.87368575  0.87343796  1
  Co  Co101  1  0.49889992  -0.00143303  0.75577830  1
  Co  Co102  1  0.87986597  0.37596198  0.87731882  1
  Co  Co103  1  0.12576643  0.12525488  0.87422353  1
  Co  Co104  1  -0.00314434  0.50083973  0.50064255  1
  Co  Co105  1  0.62194285  0.37962946  0.86869296  1
  Co  Co106  1  0.75705198  0.49977304  0.75074920  1
  Co  Co107  1  0.50065077  0.74495938  0.24648193  1
  Co  Co108  1  0.50370603  0.00372270  0.49640291  1
  Co  Co109  1  0.37728635  0.37096962  0.37826868  1
  Co  Co110  1  0.87564509  0.87308392  0.87749060  1
  Co  Co111  1  0.37340589  0.62999832  0.37621438  1
  Co  Co112  1  -0.00319681  0.00089553  0.25069701  1
  Co  Co113  1  0.50178652  0.74600965  0.00139743  1
  Co  Co114  1  0.62328202  0.87149869  0.87582432  1
  Co  Co115  1  0.62189195  0.87800856  0.62645564  1
  Co  Co116  1  0.62751168  0.37652290  0.13033423  1
  Co  Co117  1  0.00100162  0.75244219  0.49985892  1
  Co  Co118  1  0.13003146  0.62095820  0.13103545  1
  Co  Co119  1  0.00530585  0.74706609  0.00285457  1
  Co  Co120  1  0.37298270  0.37566029  0.12317433  1
  Co  Co121  1  0.62531264  0.12687646  0.87428814  1
  Co  Co122  1  0.87466369  0.37346295  0.37625870  1
  Co  Co123  1  0.74676327  0.25525831  -0.00261993  1
  Co  Co124  1  0.87445566  0.12328513  0.37898331  1
  Co  Co125  1  0.24934729  0.50113150  -0.00309970  1
  Co  Co126  1  0.37601773  0.12327881  0.62483791  1
  Co  Co127  1  0.50541861  0.74643279  0.50190615  1
