# generated using pymatgen
data_Fe45Co19
_symmetry_space_group_name_H-M   'P 1'
_cell_length_a   11.41482522
_cell_length_b   11.41545849
_cell_length_c   11.41500675
_cell_angle_alpha   89.99327801
_cell_angle_beta   90.01132154
_cell_angle_gamma   90.00702957
_symmetry_Int_Tables_number   1
_chemical_formula_structural   Fe45Co19
_chemical_formula_sum   'Fe90 Co38'
_cell_volume   1487.43769515
_cell_formula_units_Z   2
loop_
 _symmetry_equiv_pos_site_id
 _symmetry_equiv_pos_as_xyz
  1  'x, y, z'
loop_
 _atom_site_type_symbol
 _atom_site_label
 _atom_site_symmetry_multiplicity
 _atom_site_fract_x
 _atom_site_fract_y
 _atom_site_fract_z
 _atom_site_occupancy
  Fe  Fe0  1  0.87529565  0.62396444  0.62543875  1
  Fe  Fe1  1  0.37602447  0.62322305  0.87538544  1
  Fe  Fe2  1  0.62709198  0.37274393  0.37449597  1
  Fe  Fe3  1  0.49952954  0.75022845  0.75087133  1
  Fe  Fe4  1  0.37356790  0.12614545  0.37567699  1
  Fe  Fe5  1  0.25062996  0.50112517  0.74984984  1
  Fe  Fe6  1  0.49864134  0.00030113  0.74846821  1
  Fe  Fe7  1  0.25275842  0.24720457  0.75392894  1
  Fe  Fe8  1  0.62467872  0.87439114  0.12874073  1
  Fe  Fe9  1  0.25091287  0.74884990  0.49881080  1
  Fe  Fe10  1  0.00063712  0.49700153  0.49996444  1
  Fe  Fe11  1  0.00023480  0.49808108  0.75141140  1
  Fe  Fe12  1  0.74792908  0.74713422  0.74926564  1
  Fe  Fe13  1  -0.00209768  0.00080900  0.74805865  1
  Fe  Fe14  1  0.37470865  0.87798088  0.37340252  1
  Fe  Fe15  1  0.00202918  0.74917926  -0.00090865  1
  Fe  Fe16  1  0.62515898  0.87693137  0.62320206  1
  Fe  Fe17  1  0.74830693  0.74681066  0.00305454  1
  Fe  Fe18  1  0.87932715  0.12476472  0.38000254  1
  Fe  Fe19  1  0.49984916  0.75142473  0.00074394  1
  Fe  Fe20  1  0.62387767  0.12649236  0.12499741  1
  Fe  Fe21  1  0.37409724  0.87459522  0.62494598  1
  Fe  Fe22  1  0.00461125  0.00103791  0.25015435  1
  Fe  Fe23  1  0.62220371  0.12417464  0.37918218  1
  Fe  Fe24  1  0.25228348  0.49623189  0.24784474  1
  Fe  Fe25  1  0.75019454  0.24794380  0.50262381  1
  Fe  Fe26  1  0.12716192  0.87573332  0.37348165  1
  Fe  Fe27  1  0.12420741  0.62391522  0.12542430  1
  Fe  Fe28  1  0.00113079  0.00156021  -0.00028016  1
  Fe  Fe29  1  0.00086729  0.75001385  0.24962262  1
  Fe  Fe30  1  0.12630016  0.87389628  0.62674069  1
  Fe  Fe31  1  0.87287189  0.87545547  0.87530800  1
  Fe  Fe32  1  0.75020303  0.24923691  0.00017450  1
  Fe  Fe33  1  0.62608181  0.37559354  0.87385228  1
  Fe  Fe34  1  0.75022111  0.50066268  0.49974290  1
  Fe  Fe35  1  0.62532250  0.87596563  0.87485916  1
  Fe  Fe36  1  0.37370844  0.88023606  0.12466187  1
  Fe  Fe37  1  0.24857853  0.25361349  0.49972962  1
  Fe  Fe38  1  0.00049810  0.74991202  0.75115897  1
  Fe  Fe39  1  0.75258947  0.00342361  0.74614921  1
  Fe  Fe40  1  0.37938644  0.62351243  0.12901447  1
  Fe  Fe41  1  0.87206006  0.37512260  0.87490819  1
  Fe  Fe42  1  0.87469931  0.87633552  0.37552510  1
  Fe  Fe43  1  0.50008432  0.49871759  0.00156581  1
  Fe  Fe44  1  0.87662157  0.12622211  0.12573622  1
  Fe  Fe45  1  0.62258828  0.62332412  0.62341602  1
  Fe  Fe46  1  0.49692272  0.24976323  -0.00340602  1
  Fe  Fe47  1  0.87514466  0.62543283  0.37376308  1
  Fe  Fe48  1  0.49811063  0.75065951  0.49772306  1
  Fe  Fe49  1  0.24689074  0.00538809  -0.00020214  1
  Fe  Fe50  1  0.13072568  0.37460279  0.87916753  1
  Fe  Fe51  1  0.74943333  0.00363624  0.25134462  1
  Fe  Fe52  1  0.12703157  0.87752880  0.87405973  1
  Fe  Fe53  1  0.00182568  0.24869379  -0.00123554  1
  Fe  Fe54  1  0.87346818  0.37343635  0.37524988  1
  Fe  Fe55  1  0.62459380  0.12413222  0.87370773  1
  Fe  Fe56  1  0.12682679  0.37512971  0.62506336  1
  Fe  Fe57  1  0.49822636  0.25062033  0.75133434  1
  Fe  Fe58  1  0.74922299  0.00185423  0.00153768  1
  Fe  Fe59  1  0.50067966  0.25052402  0.25220254  1
  Fe  Fe60  1  0.00062396  0.50037554  -0.00051385  1
  Fe  Fe61  1  0.62411507  0.87629912  0.37363804  1
  Fe  Fe62  1  0.75210691  0.24787132  0.74651470  1
  Fe  Fe63  1  0.25136798  0.75136232  0.24828791  1
  Fe  Fe64  1  0.24916150  -0.00004078  0.50066555  1
  Fe  Fe65  1  0.00054917  0.75124611  0.49980409  1
  Fe  Fe66  1  0.24613465  0.25056877  0.24745885  1
  Fe  Fe67  1  0.00338409  0.25108991  0.25248858  1
  Fe  Fe68  1  0.12565504  0.62442405  0.62398011  1
  Fe  Fe69  1  0.24974594  0.74769458  0.00023496  1
  Fe  Fe70  1  0.12821178  0.62227585  0.37524027  1
  Fe  Fe71  1  0.74978985  0.75054915  0.49875304  1
  Fe  Fe72  1  -0.00037772  0.49799282  0.24985763  1
  Fe  Fe73  1  0.87317699  0.62387599  0.87473683  1
  Fe  Fe74  1  0.37598052  0.12494001  0.12550747  1
  Fe  Fe75  1  0.62423096  0.37284275  0.12707158  1
  Fe  Fe76  1  0.12257031  0.12586242  0.62312794  1
  Fe  Fe77  1  0.37501100  0.62405152  0.62282356  1
  Fe  Fe78  1  0.62477331  0.37524617  0.62466214  1
  Fe  Fe79  1  -0.00244987  0.25103840  0.75020130  1
  Fe  Fe80  1  0.87598009  0.87477265  0.12628217  1
  Fe  Fe81  1  0.37745680  0.12696668  0.62266520  1
  Fe  Fe82  1  0.25056805  0.74879010  0.75191416  1
  Fe  Fe83  1  0.74977177  0.50134614  0.24778425  1
  Fe  Fe84  1  0.37374913  0.87943109  0.87584079  1
  Fe  Fe85  1  0.87512687  0.37290289  0.12612815  1
  Fe  Fe86  1  0.49488840  0.49600247  0.49583566  1
  Fe  Fe87  1  0.62149961  0.62648744  0.37021924  1
  Fe  Fe88  1  0.74788062  0.50226470  0.00275488  1
  Fe  Fe89  1  0.49938711  0.49866408  0.75051570  1
  Co  Co90  1  0.00249150  0.25620820  0.49849215  1
  Co  Co91  1  0.12573778  0.87512791  0.12362734  1
  Co  Co92  1  0.75047454  0.24628506  0.25184385  1
  Co  Co93  1  0.25089267  0.00309010  0.74661114  1
  Co  Co94  1  0.12389372  0.12638207  0.12531299  1
  Co  Co95  1  0.62093478  0.12482170  0.62414009  1
  Co  Co96  1  0.49741987  -0.00094479  0.49988606  1
  Co  Co97  1  0.25276978  0.49776146  0.50064087  1
  Co  Co98  1  0.88025771  0.12571644  0.61908587  1
  Co  Co99  1  0.37698722  0.12034721  0.87577254  1
  Co  Co100  1  0.37547130  0.37164955  0.12405782  1
  Co  Co101  1  0.87744801  0.62556487  0.12513283  1
  Co  Co102  1  0.74885802  0.50100427  0.74972280  1
  Co  Co103  1  0.50036222  0.00227062  0.25041600  1
  Co  Co104  1  0.25258212  0.50243672  0.00371105  1
  Co  Co105  1  0.87326486  0.37575979  0.62406363  1
  Co  Co106  1  0.37356862  0.62440919  0.37284960  1
  Co  Co107  1  0.37184697  0.37727854  0.87641803  1
  Co  Co108  1  0.62278294  0.62465506  0.87613514  1
  Co  Co109  1  0.49558295  0.75450051  0.25044068  1
  Co  Co110  1  0.87438923  0.12518998  0.87615379  1
  Co  Co111  1  0.49996117  0.25385843  0.49944438  1
  Co  Co112  1  0.49944587  0.49400910  0.25326424  1
  Co  Co113  1  0.24802811  0.00158492  0.24997283  1
  Co  Co114  1  0.12545824  0.12496972  0.37818924  1
  Co  Co115  1  0.62016824  0.62612943  0.13004760  1
  Co  Co116  1  0.87320373  0.87349370  0.62466460  1
  Co  Co117  1  0.25204497  0.24526134  -0.00119626  1
  Co  Co118  1  0.12639593  0.62342997  0.87537207  1
  Co  Co119  1  0.75215230  0.74928329  0.24984374  1
  Co  Co120  1  0.50314031  0.00039700  0.00134747  1
  Co  Co121  1  0.37450329  0.37388739  0.62707259  1
  Co  Co122  1  0.37172022  0.37061343  0.37293403  1
  Co  Co123  1  0.12744657  0.37786278  0.37406856  1
  Co  Co124  1  0.12317076  0.12506056  0.87216748  1
  Co  Co125  1  0.00362317  -0.00490463  0.50106298  1
  Co  Co126  1  0.74979615  0.00121760  0.50060337  1
  Co  Co127  1  0.12488694  0.37451198  0.12143209  1
