# generated using pymatgen
data_Fe45Co19
_symmetry_space_group_name_H-M   'P 1'
_cell_length_a   11.41495443
_cell_length_b   11.41614403
_cell_length_c   11.41506225
_cell_angle_alpha   90.00286828
_cell_angle_beta   89.99092352
_cell_angle_gamma   90.00280392
_symmetry_Int_Tables_number   1
_chemical_formula_structural   Fe45Co19
_chemical_formula_sum   'Fe90 Co38'
_cell_volume   1487.55111884
_cell_formula_units_Z   2
loop_
 _symmetry_equiv_pos_site_id
 _symmetry_equiv_pos_as_xyz
  1  'x, y, z'
loop_
 _atom_site_type_symbol
 _atom_site_label
 _atom_site_symmetry_multiplicity
 _atom_site_fract_x
 _atom_site_fract_y
 _atom_site_fract_z
 _atom_site_occupancy
  Fe  Fe0  1  0.37573006  0.62459880  0.87377970  1
  Fe  Fe1  1  0.74941022  0.25009040  0.25071170  1
  Fe  Fe2  1  0.12415935  0.12424289  0.38133779  1
  Fe  Fe3  1  0.37333126  0.12249224  0.62466825  1
  Fe  Fe4  1  0.87656543  0.62411533  0.37442537  1
  Fe  Fe5  1  0.00147605  0.74781817  0.24832792  1
  Fe  Fe6  1  0.25341697  0.74844533  0.50269204  1
  Fe  Fe7  1  0.62400732  0.62433464  0.62453792  1
  Fe  Fe8  1  0.49833793  0.74949928  0.00236902  1
  Fe  Fe9  1  0.37207883  0.87538652  0.12454432  1
  Fe  Fe10  1  0.62244561  0.37402394  0.62612330  1
  Fe  Fe11  1  0.49758916  0.75161835  0.50160408  1
  Fe  Fe12  1  0.75235877  0.00084716  0.24860499  1
  Fe  Fe13  1  0.50135911  -0.00109250  -0.00057599  1
  Fe  Fe14  1  0.24845091  0.50181680  0.74930214  1
  Fe  Fe15  1  0.12582874  0.87430484  0.87887135  1
  Fe  Fe16  1  0.62566738  0.62683184  0.87660298  1
  Fe  Fe17  1  0.37293465  0.37490509  0.12705838  1
  Fe  Fe18  1  0.00479519  0.50077255  0.24930418  1
  Fe  Fe19  1  0.24851772  0.24938649  -0.00282295  1
  Fe  Fe20  1  0.12209514  0.62767890  0.87824947  1
  Fe  Fe21  1  0.37329016  0.87459926  0.37277329  1
  Fe  Fe22  1  0.00346773  0.24838858  0.74716173  1
  Fe  Fe23  1  0.49836866  0.25063626  0.00005893  1
  Fe  Fe24  1  0.00289904  0.50287611  0.74647529  1
  Fe  Fe25  1  0.87668010  0.62456630  0.87243175  1
  Fe  Fe26  1  0.37388522  0.12612205  0.12582261  1
  Fe  Fe27  1  0.12111497  0.12895146  0.12111438  1
  Fe  Fe28  1  0.62579803  0.87728995  0.62591105  1
  Fe  Fe29  1  0.12393412  0.37377662  0.87435430  1
  Fe  Fe30  1  0.62530943  0.37533180  0.12616349  1
  Fe  Fe31  1  0.62652370  0.87436107  0.12532901  1
  Fe  Fe32  1  0.87565524  0.87312988  0.37411280  1
  Fe  Fe33  1  0.12553144  0.87157096  0.12147834  1
  Fe  Fe34  1  0.50017079  0.50102990  0.00130933  1
  Fe  Fe35  1  0.74652107  0.50086324  0.25137678  1
  Fe  Fe36  1  0.74705413  0.49932529  0.75065299  1
  Fe  Fe37  1  0.37608176  0.62561289  0.37183330  1
  Fe  Fe38  1  0.12532377  0.87567378  0.62250896  1
  Fe  Fe39  1  0.24630646  0.24864740  0.25170176  1
  Fe  Fe40  1  0.87611708  0.12506443  0.87678593  1
  Fe  Fe41  1  0.24998742  0.25110252  0.50247797  1
  Fe  Fe42  1  0.49854983  0.24975459  0.49951679  1
  Fe  Fe43  1  0.87691971  0.37554903  0.37371619  1
  Fe  Fe44  1  0.37303708  0.87601454  0.87575415  1
  Fe  Fe45  1  -0.00272436  -0.00156796  0.00242268  1
  Fe  Fe46  1  0.75255170  -0.00088432  0.49911854  1
  Fe  Fe47  1  0.24732416  0.00170001  0.25039097  1
  Fe  Fe48  1  0.37602763  0.37690132  0.62908221  1
  Fe  Fe49  1  0.75073382  0.75136943  0.74871164  1
  Fe  Fe50  1  0.87596100  0.62371298  0.12491257  1
  Fe  Fe51  1  0.87399215  0.87613350  0.87193911  1
  Fe  Fe52  1  0.00099904  -0.00017733  0.25011666  1
  Fe  Fe53  1  0.74978585  0.74873769  0.24944071  1
  Fe  Fe54  1  -0.00290197  0.74682507  0.50420252  1
  Fe  Fe55  1  0.62525190  0.87454743  0.37388694  1
  Fe  Fe56  1  0.87710479  0.12250694  0.62324230  1
  Fe  Fe57  1  0.24680095  0.24736895  0.74910718  1
  Fe  Fe58  1  0.37672845  0.37324010  0.37105160  1
  Fe  Fe59  1  0.49850004  0.49906872  0.49854403  1
  Fe  Fe60  1  0.75100727  0.24908673  0.74893468  1
  Fe  Fe61  1  0.12363457  0.37768058  0.38060313  1
  Fe  Fe62  1  0.24860913  0.74873621  0.74953433  1
  Fe  Fe63  1  0.37338839  0.12360897  0.87550691  1
  Fe  Fe64  1  0.50195871  0.00096987  0.75204447  1
  Fe  Fe65  1  0.24782392  0.74667318  0.24722135  1
  Fe  Fe66  1  0.75269839  0.49729469  -0.00110624  1
  Fe  Fe67  1  0.24607695  0.50278798  0.24972864  1
  Fe  Fe68  1  0.49867695  0.00137316  0.25074110  1
  Fe  Fe69  1  0.62395902  0.12572641  0.37550525  1
  Fe  Fe70  1  -0.00151997  0.49504888  0.00157458  1
  Fe  Fe71  1  0.62343047  0.37242511  0.87333979  1
  Fe  Fe72  1  0.62833689  0.12576174  0.87695977  1
  Fe  Fe73  1  0.49898585  0.75001560  0.74883980  1
  Fe  Fe74  1  0.62191017  0.62658305  0.37404776  1
  Fe  Fe75  1  0.75028436  0.49979599  0.49917150  1
  Fe  Fe76  1  0.75658975  0.25380465  0.00043326  1
  Fe  Fe77  1  0.87671862  0.37720537  0.62628567  1
  Fe  Fe78  1  0.75313136  0.75189820  0.00076431  1
  Fe  Fe79  1  0.12493242  0.87239671  0.37768757  1
  Fe  Fe80  1  0.62501135  0.12450889  0.62437360  1
  Fe  Fe81  1  0.75171112  0.25157863  0.49964536  1
  Fe  Fe82  1  0.62728136  0.12516008  0.12311151  1
  Fe  Fe83  1  0.75169630  0.74964618  0.50125118  1
  Fe  Fe84  1  0.24929495  0.50206206  0.00057940  1
  Fe  Fe85  1  0.37594379  0.37511116  0.87271822  1
  Fe  Fe86  1  0.24679265  0.00128218  0.75057793  1
  Fe  Fe87  1  0.00137952  -0.00055451  0.74838796  1
  Fe  Fe88  1  0.87798841  0.12648760  0.37394637  1
  Fe  Fe89  1  0.49686818  -0.00070417  0.49800285  1
  Co  Co90  1  0.74963529  0.00175057  0.74987227  1
  Co  Co91  1  0.12716333  0.37288977  0.12319363  1
  Co  Co92  1  0.37445816  0.62247478  0.12816109  1
  Co  Co93  1  -0.00074329  0.25209713  0.50145175  1
  Co  Co94  1  0.87268339  0.62376935  0.62863546  1
  Co  Co95  1  0.62713283  0.62565780  0.12366360  1
  Co  Co96  1  -0.00226927  -0.00312453  0.49815413  1
  Co  Co97  1  0.87728609  0.12802166  0.12568680  1
  Co  Co98  1  0.12258192  0.62658786  0.11976809  1
  Co  Co99  1  0.12779456  0.62377885  0.62118855  1
  Co  Co100  1  0.37553026  0.62237100  0.62669689  1
  Co  Co101  1  0.50163399  0.24838709  0.24848635  1
  Co  Co102  1  0.87739861  0.37597038  0.86785066  1
  Co  Co103  1  0.00231776  0.75101213  0.74799756  1
  Co  Co104  1  0.24875196  0.00222484  0.00174612  1
  Co  Co105  1  0.62393584  0.37303862  0.37496872  1
  Co  Co106  1  0.12455208  0.12170279  0.62010514  1
  Co  Co107  1  0.37436787  0.87756963  0.62783687  1
  Co  Co108  1  0.12548085  0.37814423  0.62297528  1
  Co  Co109  1  0.25512279  0.49980715  0.49836561  1
  Co  Co110  1  0.50017025  0.75130462  0.24744146  1
  Co  Co111  1  -0.00316705  0.50303958  0.50162333  1
  Co  Co112  1  0.25200329  -0.00188904  0.49811607  1
  Co  Co113  1  -0.00494246  0.75241370  -0.00092901  1
  Co  Co114  1  0.75201954  -0.00247555  0.00121473  1
  Co  Co115  1  0.62585957  0.87361376  0.87455108  1
  Co  Co116  1  0.50273860  0.50156055  0.75238732  1
  Co  Co117  1  0.00401575  0.25106201  0.25306443  1
  Co  Co118  1  -0.00325565  0.25579858  -0.00105229  1
  Co  Co119  1  0.25317389  0.74673114  -0.00060574  1
  Co  Co120  1  0.12140168  0.12480384  0.87872322  1
  Co  Co121  1  0.87568094  0.37549613  0.13196548  1
  Co  Co122  1  0.49928718  0.24639987  0.75114221  1
  Co  Co123  1  0.37332631  0.12661286  0.37497272  1
  Co  Co124  1  0.12551972  0.62594555  0.37989565  1
  Co  Co125  1  0.50246251  0.49986409  0.24897909  1
  Co  Co126  1  0.87383451  0.87593963  0.62576878  1
  Co  Co127  1  0.87523772  0.87435894  0.12881823  1
