# generated using pymatgen
data_Fe45Co19
_symmetry_space_group_name_H-M   'P 1'
_cell_length_a   11.41554140
_cell_length_b   11.41628257
_cell_length_c   11.41716579
_cell_angle_alpha   90.00108367
_cell_angle_beta   89.99151381
_cell_angle_gamma   89.99844908
_symmetry_Int_Tables_number   1
_chemical_formula_structural   Fe45Co19
_chemical_formula_sum   'Fe90 Co38'
_cell_volume   1487.91980961
_cell_formula_units_Z   2
loop_
 _symmetry_equiv_pos_site_id
 _symmetry_equiv_pos_as_xyz
  1  'x, y, z'
loop_
 _atom_site_type_symbol
 _atom_site_label
 _atom_site_symmetry_multiplicity
 _atom_site_fract_x
 _atom_site_fract_y
 _atom_site_fract_z
 _atom_site_occupancy
  Fe  Fe0  1  0.37570375  0.37658724  0.62753610  1
  Fe  Fe1  1  0.75200647  0.50069575  0.74969680  1
  Fe  Fe2  1  0.74984247  0.24835450  0.74949884  1
  Fe  Fe3  1  0.12392449  0.12474070  0.12605807  1
  Fe  Fe4  1  0.37559226  0.87305830  0.37490855  1
  Fe  Fe5  1  0.37575250  0.12601595  0.37535790  1
  Fe  Fe6  1  0.87421302  0.87558498  0.12556667  1
  Fe  Fe7  1  0.62348051  0.12328066  0.87248963  1
  Fe  Fe8  1  0.50302911  0.74993672  0.49897181  1
  Fe  Fe9  1  0.12527233  0.12480351  0.87380473  1
  Fe  Fe10  1  0.62362621  0.37804450  0.62669888  1
  Fe  Fe11  1  0.12427694  0.37612265  0.12762597  1
  Fe  Fe12  1  0.87661209  0.62563969  0.87674239  1
  Fe  Fe13  1  0.12561316  0.87711225  0.37382717  1
  Fe  Fe14  1  0.50337215  0.75069615  0.25001822  1
  Fe  Fe15  1  0.62386622  0.62144978  0.12600076  1
  Fe  Fe16  1  0.62559291  0.87691496  0.87434534  1
  Fe  Fe17  1  0.37587165  0.37597990  0.87069426  1
  Fe  Fe18  1  0.74828447  0.24904020  0.00128683  1
  Fe  Fe19  1  0.87578867  0.37498831  0.87367303  1
  Fe  Fe20  1  0.00267679  0.75334562  0.00079743  1
  Fe  Fe21  1  -0.00196134  0.49786297  0.49801816  1
  Fe  Fe22  1  0.49954830  0.24885135  -0.00032758  1
  Fe  Fe23  1  0.00422857  0.24993387  0.49536223  1
  Fe  Fe24  1  0.62505093  0.62353328  0.87549532  1
  Fe  Fe25  1  0.37583692  0.87332110  0.62369225  1
  Fe  Fe26  1  0.87073187  0.62665079  0.37563040  1
  Fe  Fe27  1  0.75251502  0.49941710  0.00149680  1
  Fe  Fe28  1  0.24893038  0.75009976  0.00349571  1
  Fe  Fe29  1  0.87083620  0.36903696  0.37401893  1
  Fe  Fe30  1  0.50085934  0.74978943  0.00051567  1
  Fe  Fe31  1  0.50068039  0.24960114  0.25031362  1
  Fe  Fe32  1  0.50241359  0.25005212  0.50025105  1
  Fe  Fe33  1  0.49884881  0.50163720  0.49755980  1
  Fe  Fe34  1  0.37563587  0.37461254  0.12629744  1
  Fe  Fe35  1  0.49579260  0.50145403  -0.00043251  1
  Fe  Fe36  1  0.62422173  0.12233788  0.62717817  1
  Fe  Fe37  1  -0.00322527  0.49926032  0.25118841  1
  Fe  Fe38  1  0.12418686  0.62341748  0.62168223  1
  Fe  Fe39  1  0.37675374  0.12667977  0.62536380  1
  Fe  Fe40  1  0.12393874  0.12496321  0.62456487  1
  Fe  Fe41  1  0.87582026  0.12495054  0.87643064  1
  Fe  Fe42  1  0.24848215  0.74914138  0.24961992  1
  Fe  Fe43  1  0.37410241  0.37551391  0.37534168  1
  Fe  Fe44  1  0.62409330  0.37734906  0.12597934  1
  Fe  Fe45  1  0.87489718  0.62551250  0.62356444  1
  Fe  Fe46  1  0.62567657  0.62300827  0.62468986  1
  Fe  Fe47  1  0.62699808  0.87761023  0.62579588  1
  Fe  Fe48  1  0.25006536  -0.00062990  0.50057256  1
  Fe  Fe49  1  0.87570405  0.37116031  0.12678192  1
  Fe  Fe50  1  0.25356145  0.50202404  0.25055918  1
  Fe  Fe51  1  0.12581451  0.62203183  0.37644865  1
  Fe  Fe52  1  0.87602297  0.37280359  0.62506055  1
  Fe  Fe53  1  0.62391541  0.37644597  0.87397757  1
  Fe  Fe54  1  0.37540839  0.12602655  0.87249124  1
  Fe  Fe55  1  0.49677791  0.00016938  0.00046758  1
  Fe  Fe56  1  0.37309539  0.87386123  0.87468595  1
  Fe  Fe57  1  0.62885626  0.62400768  0.37431696  1
  Fe  Fe58  1  0.87357966  0.87551285  0.62411940  1
  Fe  Fe59  1  0.62250375  0.12125815  0.12769954  1
  Fe  Fe60  1  0.62884304  0.37400592  0.37327602  1
  Fe  Fe61  1  0.12443077  0.62179905  0.12436049  1
  Fe  Fe62  1  0.00179127  -0.00341704  -0.00116394  1
  Fe  Fe63  1  0.12359678  0.37784906  0.87181033  1
  Fe  Fe64  1  0.87553680  0.62574057  0.12432438  1
  Fe  Fe65  1  0.24987970  0.25155797  -0.00117701  1
  Fe  Fe66  1  0.25271892  0.00078220  0.24898082  1
  Fe  Fe67  1  0.74844643  0.75122051  0.00247047  1
  Fe  Fe68  1  0.24788546  0.25136547  0.49954275  1
  Fe  Fe69  1  0.12526286  0.62192459  0.87797570  1
  Fe  Fe70  1  -0.00493622  0.00430459  0.25289536  1
  Fe  Fe71  1  0.00208211  0.25145742  -0.00028116  1
  Fe  Fe72  1  0.50299854  -0.00081782  0.49651589  1
  Fe  Fe73  1  0.25023614  -0.00053295  0.74771529  1
  Fe  Fe74  1  0.37658367  0.87386841  0.12639051  1
  Fe  Fe75  1  0.75046018  0.75093916  0.75029766  1
  Fe  Fe76  1  0.00022575  -0.00257080  0.75138899  1
  Fe  Fe77  1  0.49949417  0.74893957  0.75035978  1
  Fe  Fe78  1  0.00041333  0.75002330  0.25080878  1
  Fe  Fe79  1  0.87537423  0.12539654  0.62236697  1
  Fe  Fe80  1  -0.00134760  -0.00007151  0.49662654  1
  Fe  Fe81  1  0.24892687  0.74785204  0.74783640  1
  Fe  Fe82  1  0.00168997  0.75161355  0.75098550  1
  Fe  Fe83  1  0.12444171  0.37594583  0.62702407  1
  Fe  Fe84  1  0.24932102  0.74978208  0.49946105  1
  Fe  Fe85  1  0.86873612  0.87237242  0.37535918  1
  Fe  Fe86  1  0.75047211  -0.00039979  0.00032055  1
  Fe  Fe87  1  0.24790072  0.24871024  0.25167507  1
  Fe  Fe88  1  0.25040141  -0.00019987  0.00248291  1
  Fe  Fe89  1  0.00026066  0.75185777  0.49854848  1
  Co  Co90  1  0.62919498  0.87374292  0.37370659  1
  Co  Co91  1  0.12338137  0.87766963  0.12925557  1
  Co  Co92  1  0.37350216  0.62697993  0.87600696  1
  Co  Co93  1  0.49903202  0.50366423  0.75067371  1
  Co  Co94  1  0.37510255  0.12770036  0.12637542  1
  Co  Co95  1  0.49902979  0.50015782  0.25301641  1
  Co  Co96  1  0.12777226  0.12181501  0.37506143  1
  Co  Co97  1  0.37482233  0.62751565  0.37536746  1
  Co  Co98  1  0.75240287  0.00192096  0.25182850  1
  Co  Co99  1  0.75260222  0.49970839  0.24895466  1
  Co  Co100  1  0.12836618  0.87452143  0.87409460  1
  Co  Co101  1  0.62476362  0.87949615  0.12469227  1
  Co  Co102  1  -0.00061331  0.24807518  0.75089062  1
  Co  Co103  1  0.37674509  0.62618586  0.12622710  1
  Co  Co104  1  0.12399010  0.87521304  0.62345232  1
  Co  Co105  1  0.25194534  0.49899956  0.50095616  1
  Co  Co106  1  0.50140002  0.24945318  0.74955363  1
  Co  Co107  1  0.74815443  0.75000592  0.50258667  1
  Co  Co108  1  0.12623003  0.37884893  0.37270569  1
  Co  Co109  1  0.24964896  0.24976360  0.74980681  1
  Co  Co110  1  0.62598882  0.12779572  0.37267750  1
  Co  Co111  1  -0.00171099  0.49749007  0.00158302  1
  Co  Co112  1  0.87722931  0.12546853  0.12128927  1
  Co  Co113  1  0.00181163  0.24693286  0.25299585  1
  Co  Co114  1  0.86957081  0.13194893  0.37839118  1
  Co  Co115  1  0.75165695  0.49876652  0.49995003  1
  Co  Co116  1  -0.00051283  0.50245964  0.74887610  1
  Co  Co117  1  0.74778719  0.74961476  0.24563612  1
  Co  Co118  1  0.74787706  0.00120016  0.49753833  1
  Co  Co119  1  0.74850040  0.24648114  0.24427165  1
  Co  Co120  1  0.74496798  0.24967437  0.50509738  1
  Co  Co121  1  0.87377968  0.87314615  0.87621299  1
  Co  Co122  1  0.49710518  -0.00189304  0.74978326  1
  Co  Co123  1  0.37612568  0.62582226  0.62243008  1
  Co  Co124  1  0.25300392  0.49765768  0.00056132  1
  Co  Co125  1  0.75305591  0.00082555  0.75059002  1
  Co  Co126  1  0.24987539  0.50252956  0.74889496  1
  Co  Co127  1  0.49869153  -0.00131932  0.25326351  1
