# generated using pymatgen
data_Fe45Co19
_symmetry_space_group_name_H-M   'P 1'
_cell_length_a   11.41533386
_cell_length_b   11.41383670
_cell_length_c   11.41414551
_cell_angle_alpha   89.99585101
_cell_angle_beta   90.00355270
_cell_angle_gamma   89.99800794
_symmetry_Int_Tables_number   1
_chemical_formula_structural   Fe45Co19
_chemical_formula_sum   'Fe90 Co38'
_cell_volume   1487.18047460
_cell_formula_units_Z   2
loop_
 _symmetry_equiv_pos_site_id
 _symmetry_equiv_pos_as_xyz
  1  'x, y, z'
loop_
 _atom_site_type_symbol
 _atom_site_label
 _atom_site_symmetry_multiplicity
 _atom_site_fract_x
 _atom_site_fract_y
 _atom_site_fract_z
 _atom_site_occupancy
  Fe  Fe0  1  0.87570842  0.12313421  0.37647052  1
  Fe  Fe1  1  0.62473057  0.37317468  0.12341327  1
  Fe  Fe2  1  0.12368893  0.12595978  0.87296813  1
  Fe  Fe3  1  0.62630283  0.37508792  0.62733254  1
  Fe  Fe4  1  0.49929331  -0.00144217  0.50089428  1
  Fe  Fe5  1  0.49884581  0.25023411  0.25196755  1
  Fe  Fe6  1  0.75108302  -0.00060476  0.50288846  1
  Fe  Fe7  1  0.87430693  0.87559747  0.12425915  1
  Fe  Fe8  1  0.12735801  0.37241884  0.37804292  1
  Fe  Fe9  1  0.87455125  0.62285833  0.12594964  1
  Fe  Fe10  1  0.86995803  0.37378012  0.87191275  1
  Fe  Fe11  1  0.62365799  0.12485321  0.12396106  1
  Fe  Fe12  1  0.25060901  0.50165835  0.74858285  1
  Fe  Fe13  1  0.25365562  0.24855113  0.74793656  1
  Fe  Fe14  1  0.87577609  0.62448626  0.87295681  1
  Fe  Fe15  1  0.62486280  0.87406439  0.12394909  1
  Fe  Fe16  1  0.74972277  0.00084124  -0.00100976  1
  Fe  Fe17  1  0.00064367  0.75167226  0.74726875  1
  Fe  Fe18  1  0.37674767  0.37836193  0.87734672  1
  Fe  Fe19  1  0.62597350  0.87299665  0.62601852  1
  Fe  Fe20  1  0.87299024  0.87714062  0.87120720  1
  Fe  Fe21  1  0.37612277  0.12327765  0.12473366  1
  Fe  Fe22  1  0.00247429  -0.00373488  0.25012793  1
  Fe  Fe23  1  -0.00105539  0.75140979  -0.00047840  1
  Fe  Fe24  1  0.00183538  0.49988997  0.50092243  1
  Fe  Fe25  1  0.12706057  0.62617294  0.62669867  1
  Fe  Fe26  1  0.50140914  -0.00169745  0.24956145  1
  Fe  Fe27  1  -0.00060601  0.25007637  0.25208990  1
  Fe  Fe28  1  0.25093851  0.50250479  0.00131555  1
  Fe  Fe29  1  0.74710946  0.50061145  0.50063043  1
  Fe  Fe30  1  0.75198336  0.74986837  -0.00145291  1
  Fe  Fe31  1  0.37656687  0.62734713  0.12804866  1
  Fe  Fe32  1  0.62325649  0.12441656  0.62438948  1
  Fe  Fe33  1  -0.00093669  0.49807608  -0.00104039  1
  Fe  Fe34  1  0.12318181  0.62986561  0.37239560  1
  Fe  Fe35  1  0.87516593  0.62595716  0.37602563  1
  Fe  Fe36  1  0.12733332  0.37472493  0.87408940  1
  Fe  Fe37  1  0.37367411  0.87219289  0.62818460  1
  Fe  Fe38  1  0.24811430  0.00361692  0.74611106  1
  Fe  Fe39  1  0.75024783  -0.00202832  0.25192656  1
  Fe  Fe40  1  0.62362015  0.62704762  0.62592447  1
  Fe  Fe41  1  0.49896521  0.50241434  0.74880912  1
  Fe  Fe42  1  0.62445947  0.62478596  0.37380581  1
  Fe  Fe43  1  0.12570041  0.36931464  0.62332853  1
  Fe  Fe44  1  0.37566899  0.87486841  0.12451079  1
  Fe  Fe45  1  0.62493350  0.12502780  0.37574885  1
  Fe  Fe46  1  0.87369202  0.62633639  0.62380083  1
  Fe  Fe47  1  0.37739664  0.12259394  0.87494471  1
  Fe  Fe48  1  0.50268537  0.49904541  0.25066085  1
  Fe  Fe49  1  0.24850460  0.50131882  0.25029726  1
  Fe  Fe50  1  0.75059534  0.25006509  0.24912166  1
  Fe  Fe51  1  0.49774607  0.74875401  0.49807143  1
  Fe  Fe52  1  0.37440014  0.37971798  0.37891640  1
  Fe  Fe53  1  0.62444014  0.87545726  0.37626652  1
  Fe  Fe54  1  0.49951391  0.25109440  0.75108018  1
  Fe  Fe55  1  0.25131004  0.24960293  0.25231017  1
  Fe  Fe56  1  0.49851238  0.25073369  0.49968207  1
  Fe  Fe57  1  0.37570901  0.37558638  0.12391775  1
  Fe  Fe58  1  0.62520604  0.12533694  0.87717933  1
  Fe  Fe59  1  0.12451847  0.37389033  0.12396511  1
  Fe  Fe60  1  0.12382021  0.62389297  0.87464067  1
  Fe  Fe61  1  0.24951915  -0.00004853  0.00009259  1
  Fe  Fe62  1  0.87204619  0.37819981  0.37354590  1
  Fe  Fe63  1  0.00005876  0.49839767  0.74825732  1
  Fe  Fe64  1  0.12602975  0.87578342  0.87229083  1
  Fe  Fe65  1  0.25174855  0.74849315  0.49728824  1
  Fe  Fe66  1  0.24828839  0.00303051  0.50271170  1
  Fe  Fe67  1  0.87393677  0.37230775  0.62633171  1
  Fe  Fe68  1  0.74933189  0.49812897  -0.00009741  1
  Fe  Fe69  1  0.00104888  -0.00064242  -0.00006332  1
  Fe  Fe70  1  0.62457165  0.62367649  0.87480072  1
  Fe  Fe71  1  -0.00192346  0.25108557  -0.00218483  1
  Fe  Fe72  1  0.49838175  0.75276963  -0.00556263  1
  Fe  Fe73  1  0.37529918  0.12217707  0.37522081  1
  Fe  Fe74  1  0.50290860  -0.00440586  0.75331390  1
  Fe  Fe75  1  0.74949661  0.74995948  0.74961931  1
  Fe  Fe76  1  -0.00186369  0.00126092  0.74493073  1
  Fe  Fe77  1  0.00239911  -0.00035602  0.50463270  1
  Fe  Fe78  1  0.87544865  0.12513602  0.12397879  1
  Fe  Fe79  1  0.25097863  0.75006168  -0.00342360  1
  Fe  Fe80  1  0.24665527  -0.00442059  0.25176459  1
  Fe  Fe81  1  0.25191387  0.24837315  -0.00061886  1
  Fe  Fe82  1  0.12466619  0.12560455  0.12666328  1
  Fe  Fe83  1  0.37421604  0.37901215  0.62075403  1
  Fe  Fe84  1  0.62426274  0.62826288  0.12473638  1
  Fe  Fe85  1  0.74984739  0.24956701  0.50051925  1
  Fe  Fe86  1  0.87831116  0.87148844  0.38005602  1
  Fe  Fe87  1  0.00093941  0.50041793  0.24980223  1
  Fe  Fe88  1  0.75087885  0.75106450  0.25192304  1
  Fe  Fe89  1  0.12464193  0.62927513  0.12560000  1
  Co  Co90  1  0.50065235  0.50123347  0.00145073  1
  Co  Co91  1  0.25069474  0.74617422  0.75274319  1
  Co  Co92  1  0.75025291  0.50292216  0.74866042  1
  Co  Co93  1  0.37028785  0.87765913  0.87121167  1
  Co  Co94  1  0.12974540  0.87308464  0.62556405  1
  Co  Co95  1  0.74649745  0.50092578  0.24934456  1
  Co  Co96  1  0.63052253  0.87440832  0.87511290  1
  Co  Co97  1  0.74682114  0.74910255  0.49888392  1
  Co  Co98  1  0.24484625  0.50419086  0.49982392  1
  Co  Co99  1  0.62466555  0.37708039  0.87277399  1
  Co  Co100  1  0.49955058  0.75240600  0.25358757  1
  Co  Co101  1  0.25508905  0.24508401  0.50152824  1
  Co  Co102  1  -0.00305888  0.75225560  0.24712569  1
  Co  Co103  1  0.12627249  0.87178826  0.12332105  1
  Co  Co104  1  0.12219073  0.87280066  0.37836295  1
  Co  Co105  1  0.62578718  0.37330134  0.37548459  1
  Co  Co106  1  0.37500517  0.62556211  0.62351148  1
  Co  Co107  1  -0.00191978  0.25062690  0.75352999  1
  Co  Co108  1  0.49872260  0.25000017  -0.00097448  1
  Co  Co109  1  0.37651756  0.61999476  0.37422548  1
  Co  Co110  1  0.25293071  0.75277681  0.25352590  1
  Co  Co111  1  0.87439580  0.12348844  0.87545397  1
  Co  Co112  1  0.38052268  0.12204440  0.62691974  1
  Co  Co113  1  0.87178070  0.87219578  0.62424868  1
  Co  Co114  1  0.12095244  0.13243049  0.62405079  1
  Co  Co115  1  0.12525841  0.12467016  0.37598862  1
  Co  Co116  1  -0.00294851  0.25169070  0.49554671  1
  Co  Co117  1  0.37544820  0.62252041  0.87401111  1
  Co  Co118  1  0.87679911  0.12855826  0.62366640  1
  Co  Co119  1  0.37526351  0.87851793  0.37737851  1
  Co  Co120  1  0.49986990  -0.00305447  -0.00174784  1
  Co  Co121  1  0.50483214  0.50125294  0.50072663  1
  Co  Co122  1  0.74782156  0.24507224  0.74990276  1
  Co  Co123  1  0.00233913  0.74821458  0.50572241  1
  Co  Co124  1  0.75034217  0.00279328  0.74673147  1
  Co  Co125  1  0.87555978  0.37641139  0.12673091  1
  Co  Co126  1  0.50005112  0.75028552  0.75350951  1
  Co  Co127  1  0.74985945  0.25161153  -0.00010040  1
