# generated using pymatgen
data_Fe45Co19
_symmetry_space_group_name_H-M   'P 1'
_cell_length_a   11.41563214
_cell_length_b   11.41581825
_cell_length_c   11.41505607
_cell_angle_alpha   90.00142713
_cell_angle_beta   90.00971293
_cell_angle_gamma   90.00348352
_symmetry_Int_Tables_number   1
_chemical_formula_structural   Fe45Co19
_chemical_formula_sum   'Fe90 Co38'
_cell_volume   1487.59617555
_cell_formula_units_Z   2
loop_
 _symmetry_equiv_pos_site_id
 _symmetry_equiv_pos_as_xyz
  1  'x, y, z'
loop_
 _atom_site_type_symbol
 _atom_site_label
 _atom_site_symmetry_multiplicity
 _atom_site_fract_x
 _atom_site_fract_y
 _atom_site_fract_z
 _atom_site_occupancy
  Fe  Fe0  1  0.50138224  0.50122110  0.50136527  1
  Fe  Fe1  1  0.00143090  -0.00189027  0.75277820  1
  Fe  Fe2  1  0.25185063  0.49980011  0.50050023  1
  Fe  Fe3  1  0.12494978  0.12528739  0.62732245  1
  Fe  Fe4  1  0.74912699  0.74818777  0.25202051  1
  Fe  Fe5  1  0.50081277  0.24784739  0.24607334  1
  Fe  Fe6  1  0.74537498  0.24836616  -0.00402117  1
  Fe  Fe7  1  0.12690417  0.87586517  0.12282269  1
  Fe  Fe8  1  0.87281070  0.12508437  0.62746460  1
  Fe  Fe9  1  -0.00018107  0.25026166  0.50123751  1
  Fe  Fe10  1  0.12642911  0.62549078  0.12550241  1
  Fe  Fe11  1  0.00129894  0.49870280  0.75055757  1
  Fe  Fe12  1  0.25162118  0.00222440  -0.00136941  1
  Fe  Fe13  1  0.62328086  0.87592445  0.37906446  1
  Fe  Fe14  1  0.62766091  0.87099813  0.62031876  1
  Fe  Fe15  1  0.37545276  0.37240266  0.62530794  1
  Fe  Fe16  1  0.24909388  0.25063728  0.75499959  1
  Fe  Fe17  1  0.25208406  0.49825895  0.24941199  1
  Fe  Fe18  1  0.50081101  -0.00342154  0.74679335  1
  Fe  Fe19  1  0.25097732  0.74910292  -0.00138471  1
  Fe  Fe20  1  0.50150431  0.00276234  0.00427204  1
  Fe  Fe21  1  0.24913754  0.49929458  -0.00182596  1
  Fe  Fe22  1  0.12697607  0.37484406  0.62497098  1
  Fe  Fe23  1  0.74820187  0.00010218  0.25155536  1
  Fe  Fe24  1  0.74601928  0.49881312  0.74754447  1
  Fe  Fe25  1  0.12524891  0.62317712  0.37475619  1
  Fe  Fe26  1  0.87445332  0.87349350  0.87663329  1
  Fe  Fe27  1  0.25234893  0.75259801  0.25128454  1
  Fe  Fe28  1  0.12586943  0.37207297  0.12338461  1
  Fe  Fe29  1  0.37658682  0.37275592  0.37426162  1
  Fe  Fe30  1  0.12471478  0.37390512  0.37637428  1
  Fe  Fe31  1  0.50250615  0.49862526  0.74739951  1
  Fe  Fe32  1  0.49669216  0.75215690  0.24896466  1
  Fe  Fe33  1  0.74621928  0.50384925  0.49919921  1
  Fe  Fe34  1  0.37725835  0.87540737  0.87709555  1
  Fe  Fe35  1  0.50054302  0.50074064  0.00370069  1
  Fe  Fe36  1  0.74928549  0.24775098  0.49836706  1
  Fe  Fe37  1  0.74808576  -0.00165675  -0.00175036  1
  Fe  Fe38  1  -0.00054167  0.49749618  0.24812915  1
  Fe  Fe39  1  0.12841813  0.87969265  0.37763427  1
  Fe  Fe40  1  0.50037413  0.75182709  0.74924676  1
  Fe  Fe41  1  0.50580328  0.25424054  0.75331165  1
  Fe  Fe42  1  0.87230865  0.12532636  0.12363333  1
  Fe  Fe43  1  0.00039295  0.49848401  0.00001982  1
  Fe  Fe44  1  0.87689866  0.12422467  0.37461050  1
  Fe  Fe45  1  0.49869884  0.24567908  0.50006633  1
  Fe  Fe46  1  0.12643822  0.62443943  0.62493184  1
  Fe  Fe47  1  0.87357677  0.62643394  0.87440336  1
  Fe  Fe48  1  0.00137158  0.75117642  -0.00156451  1
  Fe  Fe49  1  0.87223532  0.87418997  0.62213505  1
  Fe  Fe50  1  0.37385252  0.37163101  0.12334430  1
  Fe  Fe51  1  0.00138930  0.75157641  0.75093138  1
  Fe  Fe52  1  0.37672294  0.62377043  0.37354312  1
  Fe  Fe53  1  0.12338394  0.12652095  0.11939053  1
  Fe  Fe54  1  -0.00004226  0.00063588  0.50186684  1
  Fe  Fe55  1  0.37529102  0.62323965  0.87448275  1
  Fe  Fe56  1  0.12890234  0.87616561  0.62323838  1
  Fe  Fe57  1  -0.00137137  0.24982299  0.24871541  1
  Fe  Fe58  1  0.87342526  0.62616142  0.62589565  1
  Fe  Fe59  1  0.62617322  0.87232707  0.12360610  1
  Fe  Fe60  1  0.37724873  0.37562060  0.87636675  1
  Fe  Fe61  1  0.87443496  0.37623833  0.37582290  1
  Fe  Fe62  1  0.62759644  0.37636014  0.12718832  1
  Fe  Fe63  1  0.87229993  0.37548971  0.87489134  1
  Fe  Fe64  1  0.87524797  0.62777972  0.12561208  1
  Fe  Fe65  1  0.87449621  0.12425612  0.87474867  1
  Fe  Fe66  1  0.62396654  0.37697931  0.37293626  1
  Fe  Fe67  1  0.74764813  -0.00359840  0.75128208  1
  Fe  Fe68  1  0.00076423  0.74968325  0.49969502  1
  Fe  Fe69  1  0.25013308  0.74920249  0.75172924  1
  Fe  Fe70  1  0.87097186  0.37243785  0.12548940  1
  Fe  Fe71  1  0.62612920  0.12672473  0.62806181  1
  Fe  Fe72  1  0.62156291  0.12174289  0.37326752  1
  Fe  Fe73  1  0.87424007  0.87619639  0.37662586  1
  Fe  Fe74  1  0.49961806  0.74743398  0.00253434  1
  Fe  Fe75  1  0.37464914  0.88363395  0.37657040  1
  Fe  Fe76  1  0.24996684  0.24443516  0.25166479  1
  Fe  Fe77  1  0.87208728  0.37450717  0.62399912  1
  Fe  Fe78  1  0.87761961  0.62327721  0.37432815  1
  Fe  Fe79  1  0.74915056  0.50385795  0.00240653  1
  Fe  Fe80  1  0.00119472  0.00039101  0.24736045  1
  Fe  Fe81  1  0.38063006  0.12699481  0.87542882  1
  Fe  Fe82  1  0.25094235  0.00185467  0.75254179  1
  Fe  Fe83  1  0.37573689  0.62565289  0.62490889  1
  Fe  Fe84  1  0.87367134  0.87445986  0.12536188  1
  Fe  Fe85  1  -0.00062505  0.25125755  0.75313568  1
  Fe  Fe86  1  0.37176003  0.87504838  0.62089276  1
  Fe  Fe87  1  0.00212467  0.75212296  0.25111381  1
  Fe  Fe88  1  0.62573626  0.62675731  0.87369209  1
  Fe  Fe89  1  0.25301927  0.24292836  0.49781885  1
  Co  Co90  1  0.50438892  0.25006447  0.00208590  1
  Co  Co91  1  0.37995992  0.11873850  0.36906347  1
  Co  Co92  1  0.74896407  0.74957720  -0.00024009  1
  Co  Co93  1  0.50336881  -0.00247360  0.24395856  1
  Co  Co94  1  0.12445082  0.37598257  0.87513884  1
  Co  Co95  1  0.37421374  0.12573962  0.12515564  1
  Co  Co96  1  0.49616731  0.49848437  0.24638287  1
  Co  Co97  1  0.37709907  0.12938411  0.63197701  1
  Co  Co98  1  0.49879827  0.00253792  0.50645463  1
  Co  Co99  1  0.62565342  0.37972213  0.87825775  1
  Co  Co100  1  0.12220662  0.12443998  0.87746093  1
  Co  Co101  1  0.62467147  0.63006864  0.62624622  1
  Co  Co102  1  -0.00264080  0.25255527  -0.00200159  1
  Co  Co103  1  0.74916615  0.75362494  0.75223639  1
  Co  Co104  1  0.75235835  0.50220255  0.25071878  1
  Co  Co105  1  0.74941375  0.00338249  0.49984116  1
  Co  Co106  1  0.49739070  0.75024456  0.49807173  1
  Co  Co107  1  0.25338113  0.00869712  0.50187485  1
  Co  Co108  1  0.25158676  0.49924315  0.74963780  1
  Co  Co109  1  0.25133968  0.74836497  0.49740434  1
  Co  Co110  1  0.12115761  0.12399744  0.37570153  1
  Co  Co111  1  0.37352124  0.87660908  0.12339521  1
  Co  Co112  1  0.62540689  0.37217632  0.62123038  1
  Co  Co113  1  0.62433356  0.62542111  0.12904342  1
  Co  Co114  1  0.62115707  0.87406690  0.87786813  1
  Co  Co115  1  0.74948202  0.24864910  0.25369086  1
  Co  Co116  1  0.12474739  0.62433758  0.87445480  1
  Co  Co117  1  0.12703762  0.87542229  0.87557235  1
  Co  Co118  1  0.37238053  0.62501145  0.12523561  1
  Co  Co119  1  0.62001020  0.62395373  0.37044153  1
  Co  Co120  1  0.75063275  0.74528680  0.49612172  1
  Co  Co121  1  0.00070608  0.49997509  0.50136228  1
  Co  Co122  1  0.62195892  0.12154899  0.87239006  1
  Co  Co123  1  0.24693190  0.00317177  0.24719121  1
  Co  Co124  1  -0.00227285  -0.00245898  -0.00018210  1
  Co  Co125  1  0.74771635  0.25170646  0.75289688  1
  Co  Co126  1  0.25171280  0.24944865  -0.00375495  1
  Co  Co127  1  0.62889413  0.12526299  0.12561497  1
