# generated using pymatgen
data_Fe45Co19
_symmetry_space_group_name_H-M   'P 1'
_cell_length_a   11.41522610
_cell_length_b   11.41522091
_cell_length_c   11.41501535
_cell_angle_alpha   89.99628283
_cell_angle_beta   90.00632523
_cell_angle_gamma   90.00087759
_symmetry_Int_Tables_number   1
_chemical_formula_structural   Fe45Co19
_chemical_formula_sum   'Fe90 Co38'
_cell_volume   1487.46013341
_cell_formula_units_Z   2
loop_
 _symmetry_equiv_pos_site_id
 _symmetry_equiv_pos_as_xyz
  1  'x, y, z'
loop_
 _atom_site_type_symbol
 _atom_site_label
 _atom_site_symmetry_multiplicity
 _atom_site_fract_x
 _atom_site_fract_y
 _atom_site_fract_z
 _atom_site_occupancy
  Fe  Fe0  1  0.62691294  0.37627755  0.62345351  1
  Fe  Fe1  1  0.37386256  0.12675576  0.87633765  1
  Fe  Fe2  1  0.24728456  0.49452551  0.75200629  1
  Fe  Fe3  1  0.75329092  0.50074633  0.75166261  1
  Fe  Fe4  1  0.62606452  0.12517029  0.62295307  1
  Fe  Fe5  1  0.12455909  0.62236738  0.62650173  1
  Fe  Fe6  1  0.12626084  0.12688135  0.12463504  1
  Fe  Fe7  1  -0.00413367  0.25055658  0.50257189  1
  Fe  Fe8  1  0.49850153  0.00081163  0.25260817  1
  Fe  Fe9  1  0.50229358  0.24804997  0.25301855  1
  Fe  Fe10  1  0.12721362  0.12608239  0.37551451  1
  Fe  Fe11  1  -0.00151285  0.50044090  0.49943627  1
  Fe  Fe12  1  0.75190577  0.75084774  0.75227208  1
  Fe  Fe13  1  0.37576944  0.37683336  0.62523367  1
  Fe  Fe14  1  0.00204490  0.74839844  -0.00097941  1
  Fe  Fe15  1  0.00118155  0.00214687  0.00018593  1
  Fe  Fe16  1  0.37431568  0.12673568  0.12608623  1
  Fe  Fe17  1  0.50094601  0.00038872  0.75105238  1
  Fe  Fe18  1  0.75320633  0.25089010  0.74945718  1
  Fe  Fe19  1  0.75043072  0.49929572  0.24905255  1
  Fe  Fe20  1  0.37065237  0.62430071  0.12597513  1
  Fe  Fe21  1  0.37548394  0.37703147  0.37322438  1
  Fe  Fe22  1  0.62756684  0.62525630  0.62478250  1
  Fe  Fe23  1  0.00082829  0.50199390  0.24993707  1
  Fe  Fe24  1  0.62698481  0.37570233  0.87711288  1
  Fe  Fe25  1  0.62531536  0.87487299  0.37370981  1
  Fe  Fe26  1  0.87603540  0.37492854  0.12326370  1
  Fe  Fe27  1  0.00078759  0.00037141  0.25124297  1
  Fe  Fe28  1  0.87433416  0.12485639  0.87602208  1
  Fe  Fe29  1  0.12420450  0.87474011  0.87490744  1
  Fe  Fe30  1  0.24897355  -0.00011474  0.25047857  1
  Fe  Fe31  1  0.25135646  0.25796784  0.00225794  1
  Fe  Fe32  1  0.62292926  0.87298323  0.62500977  1
  Fe  Fe33  1  0.49959748  0.50204413  0.49877671  1
  Fe  Fe34  1  0.50071301  0.25004633  -0.00006777  1
  Fe  Fe35  1  0.24810406  0.25533473  0.24779837  1
  Fe  Fe36  1  0.62689049  0.62535248  0.87671283  1
  Fe  Fe37  1  0.00191430  0.49967663  -0.00354914  1
  Fe  Fe38  1  0.12439287  0.87376564  0.12652471  1
  Fe  Fe39  1  0.25051724  0.25234088  0.50150882  1
  Fe  Fe40  1  -0.00032522  0.00251602  0.74992569  1
  Fe  Fe41  1  0.62507327  0.12271530  0.12647143  1
  Fe  Fe42  1  -0.00034834  0.74774646  0.75210475  1
  Fe  Fe43  1  0.75101403  0.75044641  -0.00096060  1
  Fe  Fe44  1  0.50018716  0.50098981  0.00128309  1
  Fe  Fe45  1  0.12980644  0.62517825  0.37291777  1
  Fe  Fe46  1  -0.00208538  0.24932328  0.00068225  1
  Fe  Fe47  1  0.37570808  0.87453902  0.12440518  1
  Fe  Fe48  1  0.74981933  -0.00338911  0.75101589  1
  Fe  Fe49  1  0.87729033  0.87388478  0.62495532  1
  Fe  Fe50  1  0.75044231  -0.00115299  0.00121809  1
  Fe  Fe51  1  0.49754356  0.74656563  0.49836192  1
  Fe  Fe52  1  0.12482648  0.12888953  0.62677643  1
  Fe  Fe53  1  0.36984983  0.87335509  0.37733272  1
  Fe  Fe54  1  -0.00101326  0.24863019  0.24911068  1
  Fe  Fe55  1  0.12548966  0.87504846  0.62303374  1
  Fe  Fe56  1  0.50074498  0.25085947  0.74990267  1
  Fe  Fe57  1  0.75021082  0.25073431  0.24955240  1
  Fe  Fe58  1  0.12297048  0.37521580  0.37562160  1
  Fe  Fe59  1  0.24940465  -0.00064817  0.00018439  1
  Fe  Fe60  1  0.50131940  0.24975373  0.49691817  1
  Fe  Fe61  1  0.75133959  0.75062574  0.24959773  1
  Fe  Fe62  1  -0.00227077  0.49694376  0.75307729  1
  Fe  Fe63  1  0.75094193  -0.00230525  0.49949021  1
  Fe  Fe64  1  0.62579643  0.12375585  0.87605773  1
  Fe  Fe65  1  0.12919593  0.62428926  0.12297364  1
  Fe  Fe66  1  0.36971148  0.62199593  0.87727362  1
  Fe  Fe67  1  0.62183031  0.87447232  0.12447129  1
  Fe  Fe68  1  0.87526101  0.62501129  0.12413604  1
  Fe  Fe69  1  0.62421937  0.37597342  0.12459760  1
  Fe  Fe70  1  0.49966021  0.74788427  0.75134479  1
  Fe  Fe71  1  0.24924722  0.75068257  0.75021313  1
  Fe  Fe72  1  0.37204550  0.62293958  0.62500934  1
  Fe  Fe73  1  0.75284208  0.50049502  0.49726710  1
  Fe  Fe74  1  0.75113858  0.25227909  0.49765813  1
  Fe  Fe75  1  0.24960487  0.00140757  0.74931719  1
  Fe  Fe76  1  0.87276157  0.12332935  0.37335448  1
  Fe  Fe77  1  0.00090872  0.00020998  0.49817077  1
  Fe  Fe78  1  0.50185066  0.50071844  0.75023815  1
  Fe  Fe79  1  0.12658476  0.13110885  0.87309981  1
  Fe  Fe80  1  0.49910844  0.00224742  0.49692532  1
  Fe  Fe81  1  0.62567290  0.62522388  0.37318296  1
  Fe  Fe82  1  0.50052312  0.50396516  0.25010444  1
  Fe  Fe83  1  0.75281107  0.74898779  0.49864703  1
  Fe  Fe84  1  0.87858356  0.87510259  0.12607300  1
  Fe  Fe85  1  0.37624764  0.87590550  0.87622571  1
  Fe  Fe86  1  0.49887575  0.74764392  0.00043726  1
  Fe  Fe87  1  0.37541562  0.12494650  0.62395808  1
  Fe  Fe88  1  0.00031658  0.74860280  0.49629045  1
  Fe  Fe89  1  0.37452006  0.87522108  0.62351249  1
  Co  Co90  1  0.87616818  0.62526920  0.62539055  1
  Co  Co91  1  0.74896122  0.50101074  0.00205001  1
  Co  Co92  1  0.24862253  0.74681706  0.50260772  1
  Co  Co93  1  0.24806513  0.49593327  0.24751956  1
  Co  Co94  1  -0.00717899  0.25113217  0.74774390  1
  Co  Co95  1  0.12702024  0.87400349  0.37530235  1
  Co  Co96  1  0.87734312  0.37566301  0.37235813  1
  Co  Co97  1  0.00174174  0.74761393  0.25035960  1
  Co  Co98  1  0.25364482  0.25246912  0.74803520  1
  Co  Co99  1  0.87306436  0.37395045  0.87961904  1
  Co  Co100  1  0.87627571  0.87513719  0.37291908  1
  Co  Co101  1  0.24811869  0.00221348  0.50128581  1
  Co  Co102  1  0.62564517  0.62704992  0.12632552  1
  Co  Co103  1  0.37823044  0.37620695  0.87434624  1
  Co  Co104  1  0.24924205  0.75280570  -0.00032780  1
  Co  Co105  1  0.62214489  0.87382913  0.87715459  1
  Co  Co106  1  0.49935904  0.00239217  0.00081071  1
  Co  Co107  1  0.37041473  0.12762155  0.37350031  1
  Co  Co108  1  0.38055794  0.37505601  0.12848517  1
  Co  Co109  1  0.12820804  0.62385259  0.87596161  1
  Co  Co110  1  0.49824208  0.74992888  0.25179750  1
  Co  Co111  1  0.24934575  0.49224566  0.00161718  1
  Co  Co112  1  0.12248472  0.37372031  0.62566277  1
  Co  Co113  1  0.74905755  0.24803181  0.00307478  1
  Co  Co114  1  0.87439021  0.62488905  0.37259230  1
  Co  Co115  1  0.87872497  0.87538754  0.87622928  1
  Co  Co116  1  0.11864627  0.37550040  0.12489389  1
  Co  Co117  1  0.12266329  0.36933660  0.87269895  1
  Co  Co118  1  0.87361983  0.37839194  0.62328734  1
  Co  Co119  1  0.24968826  0.75117488  0.24878097  1
  Co  Co120  1  0.75069626  -0.00182576  0.24730614  1
  Co  Co121  1  0.87578602  0.12429657  0.12626214  1
  Co  Co122  1  0.87262034  0.12222476  0.62372224  1
  Co  Co123  1  0.87525733  0.62526041  0.87670178  1
  Co  Co124  1  0.62408661  0.37776390  0.37432165  1
  Co  Co125  1  0.24863182  0.49854308  0.49981702  1
  Co  Co126  1  0.37089692  0.62335023  0.37267444  1
  Co  Co127  1  0.62885994  0.12323408  0.37490529  1
