# generated using pymatgen
data_Fe45Co19
_symmetry_space_group_name_H-M   'P 1'
_cell_length_a   11.41422079
_cell_length_b   11.41504525
_cell_length_c   11.41530998
_cell_angle_alpha   89.99289982
_cell_angle_beta   90.00041034
_cell_angle_gamma   89.99476951
_symmetry_Int_Tables_number   1
_chemical_formula_structural   Fe45Co19
_chemical_formula_sum   'Fe90 Co38'
_cell_volume   1487.34463174
_cell_formula_units_Z   2
loop_
 _symmetry_equiv_pos_site_id
 _symmetry_equiv_pos_as_xyz
  1  'x, y, z'
loop_
 _atom_site_type_symbol
 _atom_site_label
 _atom_site_symmetry_multiplicity
 _atom_site_fract_x
 _atom_site_fract_y
 _atom_site_fract_z
 _atom_site_occupancy
  Fe  Fe0  1  0.62374516  0.87455406  0.37434483  1
  Fe  Fe1  1  0.37699970  0.12597169  0.12759513  1
  Fe  Fe2  1  0.74636404  0.24562761  0.75186403  1
  Fe  Fe3  1  0.12623387  0.87544880  0.62263905  1
  Fe  Fe4  1  0.25359420  0.00105363  0.74987995  1
  Fe  Fe5  1  0.87268536  0.87710066  0.87696061  1
  Fe  Fe6  1  0.25069507  0.74896386  0.49792229  1
  Fe  Fe7  1  0.87507268  0.62781412  0.62517878  1
  Fe  Fe8  1  0.74821167  0.50054485  0.74685877  1
  Fe  Fe9  1  -0.00145370  0.25009889  0.74890453  1
  Fe  Fe10  1  0.37537422  0.62676182  0.62717634  1
  Fe  Fe11  1  0.00007421  0.75281500  0.74992315  1
  Fe  Fe12  1  0.87298417  0.12707654  0.12767010  1
  Fe  Fe13  1  0.87542129  0.12608001  0.62174094  1
  Fe  Fe14  1  0.25134989  0.75110546  0.75307142  1
  Fe  Fe15  1  0.12257959  0.12445579  0.37633236  1
  Fe  Fe16  1  0.37902001  0.62124225  0.37408148  1
  Fe  Fe17  1  0.12862482  0.37228848  0.62601924  1
  Fe  Fe18  1  0.50031161  0.49449696  0.74512049  1
  Fe  Fe19  1  0.87361463  0.38016561  0.37582284  1
  Fe  Fe20  1  -0.00223440  0.24953376  -0.00014857  1
  Fe  Fe21  1  0.50167101  0.25325354  0.25424549  1
  Fe  Fe22  1  0.87337465  0.37643373  0.12645623  1
  Fe  Fe23  1  0.50119800  0.74783366  0.49975358  1
  Fe  Fe24  1  0.74882268  0.75153147  0.75176408  1
  Fe  Fe25  1  0.00035147  0.00034367  0.00242091  1
  Fe  Fe26  1  0.62355590  0.87969405  0.87546509  1
  Fe  Fe27  1  0.62690099  0.87484491  0.62246997  1
  Fe  Fe28  1  -0.00203740  -0.00152551  0.74712812  1
  Fe  Fe29  1  0.25273630  0.49756309  0.75147115  1
  Fe  Fe30  1  0.25176616  0.24642284  -0.00316189  1
  Fe  Fe31  1  -0.00182954  -0.00079908  0.25066472  1
  Fe  Fe32  1  0.75095842  0.00208296  0.49843674  1
  Fe  Fe33  1  0.12616868  0.62482484  0.62671031  1
  Fe  Fe34  1  0.49985867  0.75458737  0.75079434  1
  Fe  Fe35  1  0.87671569  0.87266654  0.37868527  1
  Fe  Fe36  1  0.50181514  0.75270644  0.00001631  1
  Fe  Fe37  1  0.12324021  0.62446970  0.37519286  1
  Fe  Fe38  1  0.50154467  0.49931618  0.00269612  1
  Fe  Fe39  1  0.49914030  0.00131470  0.49978376  1
  Fe  Fe40  1  0.75168598  0.74485674  0.25269479  1
  Fe  Fe41  1  0.25147143  0.25121674  0.25266550  1
  Fe  Fe42  1  0.37505606  0.37358440  0.12408874  1
  Fe  Fe43  1  0.25016293  -0.00096655  0.25100124  1
  Fe  Fe44  1  0.49880299  0.75116756  0.24930999  1
  Fe  Fe45  1  0.50038054  -0.00268662  0.24763617  1
  Fe  Fe46  1  0.25259004  0.00207202  0.49921721  1
  Fe  Fe47  1  0.37674110  0.62489682  0.87481553  1
  Fe  Fe48  1  0.12591465  0.37399478  0.87450974  1
  Fe  Fe49  1  0.12914255  0.87614554  0.87761081  1
  Fe  Fe50  1  0.38017175  0.13106391  0.62646082  1
  Fe  Fe51  1  0.00048627  0.49980073  -0.00030884  1
  Fe  Fe52  1  0.37449166  0.62497222  0.12445952  1
  Fe  Fe53  1  0.50211640  0.24960724  -0.00093842  1
  Fe  Fe54  1  0.75033431  -0.00017676  0.25080066  1
  Fe  Fe55  1  0.62338454  0.62354790  0.87256647  1
  Fe  Fe56  1  0.62698361  0.62761433  0.12617023  1
  Fe  Fe57  1  0.87310202  0.37406212  0.87417588  1
  Fe  Fe58  1  0.74527964  0.00305001  0.00290632  1
  Fe  Fe59  1  0.12443649  0.62491744  0.12582642  1
  Fe  Fe60  1  0.74901363  0.50128510  0.00232395  1
  Fe  Fe61  1  0.74918368  0.00251968  0.74773553  1
  Fe  Fe62  1  0.24965480  0.50103120  -0.00164623  1
  Fe  Fe63  1  0.74663657  0.25274294  0.25331415  1
  Fe  Fe64  1  0.62203985  0.38504517  0.37811819  1
  Fe  Fe65  1  0.87065191  0.37300597  0.62314777  1
  Fe  Fe66  1  0.12233868  0.12447230  0.87379232  1
  Fe  Fe67  1  0.12390247  0.87486379  0.37652603  1
  Fe  Fe68  1  0.62591580  0.37578965  0.87583556  1
  Fe  Fe69  1  0.37427828  0.87349255  0.62284334  1
  Fe  Fe70  1  0.87459815  0.62528038  0.87609702  1
  Fe  Fe71  1  0.12480611  0.12511534  0.12654651  1
  Fe  Fe72  1  -0.00103670  0.49862222  0.74914868  1
  Fe  Fe73  1  0.12459593  0.12696123  0.62333213  1
  Fe  Fe74  1  0.37059194  0.87529842  0.12076974  1
  Fe  Fe75  1  0.25099128  0.75096444  0.25066535  1
  Fe  Fe76  1  0.12577471  0.37338537  0.12420194  1
  Fe  Fe77  1  0.74646333  0.24775084  0.49621111  1
  Fe  Fe78  1  0.12506061  0.37589520  0.37544430  1
  Fe  Fe79  1  -0.00063250  0.25167250  0.25206719  1
  Fe  Fe80  1  0.74834196  0.24645654  -0.00149197  1
  Fe  Fe81  1  -0.00147453  0.74857207  0.24937517  1
  Fe  Fe82  1  0.87220887  0.87190950  0.12314103  1
  Fe  Fe83  1  0.38269080  0.12196019  0.87261306  1
  Fe  Fe84  1  0.00189372  0.74961767  -0.00036381  1
  Fe  Fe85  1  0.00007573  0.49936419  0.50226659  1
  Fe  Fe86  1  0.74816480  0.74469567  0.49760199  1
  Fe  Fe87  1  0.25372181  0.49942604  0.50090194  1
  Fe  Fe88  1  0.25392375  0.24985822  0.49628719  1
  Fe  Fe89  1  0.25085465  0.49859018  0.24935650  1
  Co  Co90  1  0.12450896  0.62414687  0.87207669  1
  Co  Co91  1  0.62294229  0.12144720  0.37291113  1
  Co  Co92  1  0.74891618  0.50275512  0.24755089  1
  Co  Co93  1  0.00046982  0.49976738  0.24909968  1
  Co  Co94  1  0.25144872  0.24790118  0.75455337  1
  Co  Co95  1  0.74578639  0.74920045  -0.00308445  1
  Co  Co96  1  0.37613806  0.87487760  0.37611688  1
  Co  Co97  1  0.37394051  0.87666712  0.87936381  1
  Co  Co98  1  -0.00194193  -0.00027300  0.50051108  1
  Co  Co99  1  0.50081512  0.25083726  0.49449185  1
  Co  Co100  1  0.87564759  0.12672389  0.37423604  1
  Co  Co101  1  0.50262341  -0.00154085  0.00652672  1
  Co  Co102  1  0.61950526  0.12107053  0.87325557  1
  Co  Co103  1  0.87449355  0.62504235  0.12205611  1
  Co  Co104  1  0.49917834  -0.00444899  0.74516462  1
  Co  Co105  1  0.62176663  0.12630724  0.62373751  1
  Co  Co106  1  0.62376885  0.62811100  0.62846420  1
  Co  Co107  1  0.24906256  0.74624835  -0.00069771  1
  Co  Co108  1  0.50123012  0.49937089  0.24311047  1
  Co  Co109  1  0.37627836  0.37576256  0.87676700  1
  Co  Co110  1  0.50492710  0.25598708  0.75177703  1
  Co  Co111  1  0.74806280  0.50620529  0.50320966  1
  Co  Co112  1  0.12702322  0.87541527  0.12461687  1
  Co  Co113  1  0.61921404  0.62093470  0.37298009  1
  Co  Co114  1  0.37373363  0.36853807  0.62460859  1
  Co  Co115  1  0.62465526  0.12764520  0.12957138  1
  Co  Co116  1  0.62851439  0.87204984  0.12842700  1
  Co  Co117  1  0.87566028  0.12292494  0.87537263  1
  Co  Co118  1  -0.00058742  0.25259084  0.49943923  1
  Co  Co119  1  0.62781837  0.37099717  0.62120619  1
  Co  Co120  1  0.25089656  0.00616003  -0.00100366  1
  Co  Co121  1  0.62594282  0.37258700  0.12387886  1
  Co  Co122  1  0.87770929  0.62095186  0.37673523  1
  Co  Co123  1  0.49843999  0.50125136  0.50885830  1
  Co  Co124  1  0.00111133  0.74913612  0.50232848  1
  Co  Co125  1  0.87147207  0.87340352  0.62265788  1
  Co  Co126  1  0.37688296  0.12361690  0.37232678  1
  Co  Co127  1  0.37875935  0.38048065  0.37501601  1
