# generated using pymatgen
data_Fe45Co19
_symmetry_space_group_name_H-M   'P 1'
_cell_length_a   11.41460255
_cell_length_b   11.41560104
_cell_length_c   11.41483912
_cell_angle_alpha   89.99575961
_cell_angle_beta   90.00860492
_cell_angle_gamma   90.00140829
_symmetry_Int_Tables_number   1
_chemical_formula_structural   Fe45Co19
_chemical_formula_sum   'Fe90 Co38'
_cell_volume   1487.40543953
_cell_formula_units_Z   2
loop_
 _symmetry_equiv_pos_site_id
 _symmetry_equiv_pos_as_xyz
  1  'x, y, z'
loop_
 _atom_site_type_symbol
 _atom_site_label
 _atom_site_symmetry_multiplicity
 _atom_site_fract_x
 _atom_site_fract_y
 _atom_site_fract_z
 _atom_site_occupancy
  Fe  Fe0  1  0.37583277  0.37643237  0.37568395  1
  Fe  Fe1  1  0.62478938  0.12578416  0.12662107  1
  Fe  Fe2  1  0.49957644  0.00108386  0.75084642  1
  Fe  Fe3  1  0.50168057  0.50246529  0.50114842  1
  Fe  Fe4  1  0.49902368  -0.00084198  0.00416263  1
  Fe  Fe5  1  0.12414779  0.62135179  0.37814831  1
  Fe  Fe6  1  0.24989804  0.00167708  0.49972678  1
  Fe  Fe7  1  0.62112825  0.37009281  0.62557013  1
  Fe  Fe8  1  0.87433781  0.62522825  0.37316363  1
  Fe  Fe9  1  0.25203286  0.75319455  0.75169771  1
  Fe  Fe10  1  0.75180322  0.74828206  -0.00064493  1
  Fe  Fe11  1  0.37589218  0.87610227  0.62366451  1
  Fe  Fe12  1  0.87798570  0.87558293  0.12324602  1
  Fe  Fe13  1  0.62344412  0.62609888  0.12520092  1
  Fe  Fe14  1  0.25036964  -0.00111931  0.75029574  1
  Fe  Fe15  1  0.87671584  0.87559543  0.87701416  1
  Fe  Fe16  1  0.12618916  0.37410070  0.87499428  1
  Fe  Fe17  1  0.25193650  0.49894097  0.74883830  1
  Fe  Fe18  1  0.12527040  0.12570540  0.36949246  1
  Fe  Fe19  1  0.62545479  0.37431918  0.37481237  1
  Fe  Fe20  1  0.24963427  0.25080270  0.49661270  1
  Fe  Fe21  1  0.25341252  0.24982570  0.75138376  1
  Fe  Fe22  1  0.62377968  0.62638573  0.87153579  1
  Fe  Fe23  1  0.24535720  0.00262302  0.00148711  1
  Fe  Fe24  1  0.24845162  0.24739240  0.00033689  1
  Fe  Fe25  1  0.87360868  0.12151180  0.37263823  1
  Fe  Fe26  1  0.50001645  0.50121901  -0.00127713  1
  Fe  Fe27  1  0.62418282  0.87598349  0.62618855  1
  Fe  Fe28  1  0.74867944  0.24791917  0.50047060  1
  Fe  Fe29  1  0.75202825  0.25104052  0.24862636  1
  Fe  Fe30  1  0.87883899  0.12267641  0.12746853  1
  Fe  Fe31  1  0.74956423  0.49968230  0.24822832  1
  Fe  Fe32  1  0.87315327  0.62570321  0.62635892  1
  Fe  Fe33  1  0.62591987  0.37166839  0.87542828  1
  Fe  Fe34  1  0.75000663  0.49669542  0.74873041  1
  Fe  Fe35  1  0.49951311  0.24907733  0.25173221  1
  Fe  Fe36  1  0.49840234  0.24892896  -0.00191705  1
  Fe  Fe37  1  0.00007699  0.24930666  0.49836099  1
  Fe  Fe38  1  0.62607531  0.12593726  0.87373497  1
  Fe  Fe39  1  0.12461516  0.87516557  0.62279859  1
  Fe  Fe40  1  0.87338137  0.12275670  0.62632613  1
  Fe  Fe41  1  0.37543953  0.37621180  0.12366577  1
  Fe  Fe42  1  -0.00031960  -0.00151438  0.49720065  1
  Fe  Fe43  1  -0.00106376  0.75044670  0.75048007  1
  Fe  Fe44  1  0.12576720  0.62450687  0.62446813  1
  Fe  Fe45  1  0.36990414  0.87174500  0.12796677  1
  Fe  Fe46  1  0.87767548  0.37816967  0.37583613  1
  Fe  Fe47  1  0.50217285  0.50128997  0.24933592  1
  Fe  Fe48  1  0.62460330  0.37343567  0.12379065  1
  Fe  Fe49  1  0.50282204  0.74848342  0.49993293  1
  Fe  Fe50  1  -0.00205480  0.75137944  0.49924948  1
  Fe  Fe51  1  0.87411932  0.37409666  0.87775196  1
  Fe  Fe52  1  0.12613947  0.37674668  0.62099522  1
  Fe  Fe53  1  0.74724767  0.75128052  0.24872263  1
  Fe  Fe54  1  0.37627677  0.62422978  0.87291454  1
  Fe  Fe55  1  0.75023596  0.75327155  0.75013981  1
  Fe  Fe56  1  0.37723012  0.62605892  0.37145973  1
  Fe  Fe57  1  0.62422302  0.87614509  0.37181297  1
  Fe  Fe58  1  0.50289274  0.00372784  0.49805345  1
  Fe  Fe59  1  0.00009508  0.50246462  0.00019161  1
  Fe  Fe60  1  0.74828812  -0.00195149  0.24742052  1
  Fe  Fe61  1  0.12499591  0.12452645  0.62643952  1
  Fe  Fe62  1  0.37485431  0.87448903  0.37324801  1
  Fe  Fe63  1  0.74809611  -0.00006816  0.50145753  1
  Fe  Fe64  1  0.37247067  0.12511637  0.12752300  1
  Fe  Fe65  1  0.24956769  0.50173906  0.00141387  1
  Fe  Fe66  1  -0.00096491  0.25218614  0.74801577  1
  Fe  Fe67  1  0.49602622  0.74989130  0.00194477  1
  Fe  Fe68  1  0.12448142  0.62562529  0.87481978  1
  Fe  Fe69  1  0.25170445  0.74820055  0.49998616  1
  Fe  Fe70  1  0.12434313  0.87389505  0.87915895  1
  Fe  Fe71  1  0.12579190  0.63003582  0.12321778  1
  Fe  Fe72  1  0.74992508  0.50182966  0.00001099  1
  Fe  Fe73  1  0.37445486  0.12328137  0.37173843  1
  Fe  Fe74  1  0.00003962  -0.00129499  0.75112157  1
  Fe  Fe75  1  0.74864408  0.50112799  0.50158917  1
  Fe  Fe76  1  0.87618066  0.37565508  0.12329982  1
  Fe  Fe77  1  0.87436849  0.12620926  0.87297545  1
  Fe  Fe78  1  0.37752287  0.37277529  0.62338342  1
  Fe  Fe79  1  0.00144102  0.24619358  0.00043894  1
  Fe  Fe80  1  0.24789736  0.49965900  0.25029515  1
  Fe  Fe81  1  0.87640473  0.62592824  0.12659473  1
  Fe  Fe82  1  0.37687370  0.12635016  0.62421129  1
  Fe  Fe83  1  0.12369834  0.37179486  0.12786969  1
  Fe  Fe84  1  0.75082627  0.00152916  -0.00002561  1
  Fe  Fe85  1  0.00372301  0.75489954  0.25207463  1
  Fe  Fe86  1  0.74848382  0.75073288  0.50077588  1
  Fe  Fe87  1  0.37783883  0.62608363  0.62783051  1
  Fe  Fe88  1  0.62303840  0.87513839  0.87770200  1
  Fe  Fe89  1  -0.00160358  0.49843098  0.74826778  1
  Co  Co90  1  0.12535478  0.87160375  0.11876018  1
  Co  Co91  1  0.24541468  0.74938966  0.25344086  1
  Co  Co92  1  0.12587428  0.12629172  0.87075892  1
  Co  Co93  1  0.75197590  0.25157890  0.74774771  1
  Co  Co94  1  -0.00348247  0.25190232  0.25261725  1
  Co  Co95  1  0.49875201  0.75390253  0.75027516  1
  Co  Co96  1  0.12901079  0.87605249  0.38072767  1
  Co  Co97  1  0.87555464  0.37387402  0.62127435  1
  Co  Co98  1  0.50005289  0.49647646  0.75082690  1
  Co  Co99  1  0.25437577  0.50128442  0.50037592  1
  Co  Co100  1  -0.00268883  0.50213382  0.50287421  1
  Co  Co101  1  0.25217293  0.25385206  0.25187670  1
  Co  Co102  1  -0.00323570  0.74734990  -0.00118677  1
  Co  Co103  1  0.50205940  0.75152092  0.24829373  1
  Co  Co104  1  0.50111095  0.24640325  0.49571593  1
  Co  Co105  1  0.87427281  0.62265521  0.87207605  1
  Co  Co106  1  0.75121842  0.24738808  0.00287475  1
  Co  Co107  1  0.37262775  0.37671601  0.87869928  1
  Co  Co108  1  0.37532525  0.87878531  0.87697384  1
  Co  Co109  1  0.00190162  0.50098604  0.24750148  1
  Co  Co110  1  0.37449537  0.62464382  0.12829205  1
  Co  Co111  1  0.12270248  0.37802156  0.37703907  1
  Co  Co112  1  0.12361241  0.12680037  0.13230582  1
  Co  Co113  1  0.74937859  -0.00226597  0.75143341  1
  Co  Co114  1  0.62657725  0.87409507  0.12269369  1
  Co  Co115  1  0.49941451  -0.00116409  0.24751811  1
  Co  Co116  1  0.25460781  0.74801422  -0.00349034  1
  Co  Co117  1  0.87110963  0.87506344  0.37424753  1
  Co  Co118  1  0.00257229  0.00460883  -0.00024987  1
  Co  Co119  1  0.62441346  0.12704118  0.62854223  1
  Co  Co120  1  0.24663777  -0.00361769  0.24962085  1
  Co  Co121  1  0.87598515  0.87628393  0.62439881  1
  Co  Co122  1  0.62530384  0.62556626  0.62872613  1
  Co  Co123  1  0.62737410  0.12376759  0.37084536  1
  Co  Co124  1  0.49554280  0.24839025  0.75489043  1
  Co  Co125  1  0.00399408  -0.00671516  0.25174491  1
  Co  Co126  1  0.62624219  0.62488187  0.37355952  1
  Co  Co127  1  0.37336199  0.12187395  0.87767423  1
