# generated using pymatgen
data_Fe45Co19
_symmetry_space_group_name_H-M   'P 1'
_cell_length_a   11.41496863
_cell_length_b   11.41388016
_cell_length_c   11.41477992
_cell_angle_alpha   90.00624791
_cell_angle_beta   89.99959281
_cell_angle_gamma   90.00009640
_symmetry_Int_Tables_number   1
_chemical_formula_structural   Fe45Co19
_chemical_formula_sum   'Fe90 Co38'
_cell_volume   1487.22121121
_cell_formula_units_Z   2
loop_
 _symmetry_equiv_pos_site_id
 _symmetry_equiv_pos_as_xyz
  1  'x, y, z'
loop_
 _atom_site_type_symbol
 _atom_site_label
 _atom_site_symmetry_multiplicity
 _atom_site_fract_x
 _atom_site_fract_y
 _atom_site_fract_z
 _atom_site_occupancy
  Fe  Fe0  1  0.25463663  0.00592602  0.75151795  1
  Fe  Fe1  1  0.37718473  0.87507957  0.62485974  1
  Fe  Fe2  1  -0.00370967  0.00166552  0.75171428  1
  Fe  Fe3  1  0.50092347  0.00164763  0.50215868  1
  Fe  Fe4  1  0.12581967  0.37524689  0.37483693  1
  Fe  Fe5  1  0.00102516  0.74788482  0.75119267  1
  Fe  Fe6  1  0.75028238  0.49906751  0.50163582  1
  Fe  Fe7  1  0.37595314  0.87323021  0.12283199  1
  Fe  Fe8  1  0.25084005  0.00138816  0.24824853  1
  Fe  Fe9  1  -0.00123766  0.00301967  0.50020664  1
  Fe  Fe10  1  0.12550059  0.87520803  0.12347443  1
  Fe  Fe11  1  0.50181662  0.25329116  0.25118988  1
  Fe  Fe12  1  0.87236270  0.62562663  0.37366024  1
  Fe  Fe13  1  0.62682236  0.37442735  0.12387779  1
  Fe  Fe14  1  0.74638857  0.75149275  -0.00003645  1
  Fe  Fe15  1  0.62359290  0.87473849  0.12464662  1
  Fe  Fe16  1  0.25126012  0.50044446  0.74791414  1
  Fe  Fe17  1  0.62386685  0.62383869  0.62725672  1
  Fe  Fe18  1  0.12455851  0.12531802  0.37438368  1
  Fe  Fe19  1  0.37567203  0.12822714  0.12316866  1
  Fe  Fe20  1  0.62691833  0.12913943  0.11868908  1
  Fe  Fe21  1  0.37660849  0.87556058  0.37341580  1
  Fe  Fe22  1  -0.00608758  0.24716482  0.74999579  1
  Fe  Fe23  1  0.62913596  0.12310607  0.63253826  1
  Fe  Fe24  1  0.74960605  0.00165313  0.24747714  1
  Fe  Fe25  1  0.12299641  0.37445429  0.87256174  1
  Fe  Fe26  1  0.25012028  0.25093872  0.25096656  1
  Fe  Fe27  1  0.12533800  0.87592320  0.37445565  1
  Fe  Fe28  1  0.75176408  0.49557105  0.75234256  1
  Fe  Fe29  1  0.37569759  0.87484760  0.87778653  1
  Fe  Fe30  1  0.62186476  0.88181010  0.87452012  1
  Fe  Fe31  1  0.24994266  0.00415160  -0.00079350  1
  Fe  Fe32  1  0.24913290  0.74790814  0.24799507  1
  Fe  Fe33  1  0.50093060  0.74938799  0.50012933  1
  Fe  Fe34  1  0.37636866  0.62369385  0.12442026  1
  Fe  Fe35  1  -0.00183676  0.49872049  0.49993401  1
  Fe  Fe36  1  -0.00105989  0.24815117  -0.00185894  1
  Fe  Fe37  1  0.62456525  0.37483797  0.62988500  1
  Fe  Fe38  1  0.50048312  0.49757844  0.49920708  1
  Fe  Fe39  1  -0.00013264  0.74972258  0.50072710  1
  Fe  Fe40  1  0.87321633  0.87646433  0.37387755  1
  Fe  Fe41  1  0.12615568  0.62368774  0.37572419  1
  Fe  Fe42  1  0.50080890  0.74998378  0.75165776  1
  Fe  Fe43  1  0.74826836  0.75065653  0.50070577  1
  Fe  Fe44  1  0.75176580  0.49396515  -0.00375828  1
  Fe  Fe45  1  0.87497768  0.87463611  0.87710343  1
  Fe  Fe46  1  -0.00027462  0.50309583  -0.00130696  1
  Fe  Fe47  1  0.62564543  0.62274405  0.37335125  1
  Fe  Fe48  1  0.37824696  0.37275372  0.87238709  1
  Fe  Fe49  1  0.74772477  0.75306228  0.75056544  1
  Fe  Fe50  1  0.25060034  0.74837685  0.50149177  1
  Fe  Fe51  1  0.50250301  0.25034579  0.50112074  1
  Fe  Fe52  1  0.12552487  0.87626154  0.62659715  1
  Fe  Fe53  1  0.62585863  0.62228400  0.87572558  1
  Fe  Fe54  1  -0.00032569  0.74925742  0.25007507  1
  Fe  Fe55  1  0.12170813  0.37399419  0.62725318  1
  Fe  Fe56  1  0.12344777  0.37417600  0.12469391  1
  Fe  Fe57  1  0.12433609  0.12639620  0.62750837  1
  Fe  Fe58  1  0.74973574  -0.00078363  0.50124128  1
  Fe  Fe59  1  0.87472593  0.87306024  0.12431607  1
  Fe  Fe60  1  -0.00036811  0.49927038  0.24965705  1
  Fe  Fe61  1  0.62779591  0.12754433  0.37452515  1
  Fe  Fe62  1  0.00063958  0.00271700  -0.00033060  1
  Fe  Fe63  1  -0.00221780  0.24901664  0.25101502  1
  Fe  Fe64  1  0.87110793  0.12876793  0.12121148  1
  Fe  Fe65  1  0.25163542  0.49959737  0.50311079  1
  Fe  Fe66  1  0.37608962  0.62062366  0.37271996  1
  Fe  Fe67  1  0.24985082  0.74750263  0.74824495  1
  Fe  Fe68  1  0.62455824  0.87546216  0.37397421  1
  Fe  Fe69  1  0.75236942  0.25010674  0.50405247  1
  Fe  Fe70  1  0.24823799  0.49965127  0.00004560  1
  Fe  Fe71  1  0.50065867  0.49906964  -0.00023681  1
  Fe  Fe72  1  0.37465663  0.62557583  0.87627027  1
  Fe  Fe73  1  -0.00127286  0.00282788  0.24834227  1
  Fe  Fe74  1  0.50346851  0.74679165  0.24710548  1
  Fe  Fe75  1  0.74900751  0.49665352  0.24966700  1
  Fe  Fe76  1  0.37486379  0.37542610  0.12637772  1
  Fe  Fe77  1  0.12743039  0.87612918  0.87506418  1
  Fe  Fe78  1  0.00278505  0.74662293  -0.00240841  1
  Fe  Fe79  1  0.37634604  0.12697650  0.37639932  1
  Fe  Fe80  1  0.87432656  0.87507351  0.62486160  1
  Fe  Fe81  1  0.50097440  0.00312596  0.24775822  1
  Fe  Fe82  1  -0.00171605  0.50398313  0.75132610  1
  Fe  Fe83  1  0.87150454  0.62495759  0.12360012  1
  Fe  Fe84  1  0.24835352  0.25127481  0.50171072  1
  Fe  Fe85  1  0.87213633  0.37123881  0.37579961  1
  Fe  Fe86  1  0.37811911  0.37208330  0.62746559  1
  Fe  Fe87  1  0.24902414  0.24974495  -0.00363018  1
  Fe  Fe88  1  0.25039102  0.00103415  0.50047496  1
  Fe  Fe89  1  0.87350196  0.62511128  0.62717307  1
  Co  Co90  1  0.24831104  0.74829667  0.00074739  1
  Co  Co91  1  0.75173290  0.25330931  0.75624185  1
  Co  Co92  1  0.25229664  0.24868167  0.75175526  1
  Co  Co93  1  0.74916559  0.25077683  0.24779768  1
  Co  Co94  1  0.75327231  -0.00264880  0.75094667  1
  Co  Co95  1  0.61883516  0.37449767  0.87127776  1
  Co  Co96  1  0.49834043  0.50205936  0.75078854  1
  Co  Co97  1  0.62825007  0.37293402  0.37762165  1
  Co  Co98  1  0.74799204  0.75083210  0.24907910  1
  Co  Co99  1  0.87066997  0.62655391  0.87554025  1
  Co  Co100  1  0.12331713  0.12643639  0.87258786  1
  Co  Co101  1  0.37909284  0.62552059  0.62532884  1
  Co  Co102  1  0.87241490  0.12413410  0.62598283  1
  Co  Co103  1  0.74926469  0.25617645  -0.00787352  1
  Co  Co104  1  0.12362758  0.62416337  0.12467583  1
  Co  Co105  1  0.49565306  0.00348479  0.74922618  1
  Co  Co106  1  0.74957286  -0.00298108  0.00241100  1
  Co  Co107  1  -0.00129371  0.24910638  0.49971892  1
  Co  Co108  1  0.12847023  0.62378361  0.87358594  1
  Co  Co109  1  0.37424382  0.37484644  0.37557970  1
  Co  Co110  1  0.50332597  0.49577930  0.24976457  1
  Co  Co111  1  0.87618495  0.37386096  0.12419001  1
  Co  Co112  1  0.62250959  0.87648129  0.62589149  1
  Co  Co113  1  0.50112739  0.24416796  0.75020289  1
  Co  Co114  1  0.50348612  0.74889719  -0.00082131  1
  Co  Co115  1  0.37458173  0.12770128  0.62147660  1
  Co  Co116  1  0.62833346  0.62034579  0.12261530  1
  Co  Co117  1  0.87555792  0.37593834  0.62582356  1
  Co  Co118  1  0.50105751  0.25311926  0.00021452  1
  Co  Co119  1  0.62676162  0.12211853  0.87652998  1
  Co  Co120  1  0.38045107  0.12730397  0.87951004  1
  Co  Co121  1  0.88128716  0.37577634  0.87479899  1
  Co  Co122  1  0.87184660  0.12536310  0.37482026  1
  Co  Co123  1  0.24878121  0.49981574  0.24771831  1
  Co  Co124  1  0.49843760  0.00040742  0.00243102  1
  Co  Co125  1  0.86927541  0.12254732  0.87771373  1
  Co  Co126  1  0.12583966  0.12729763  0.12475579  1
  Co  Co127  1  0.12310168  0.62364590  0.62453363  1
