# generated using pymatgen
data_Fe45Co19
_symmetry_space_group_name_H-M   'P 1'
_cell_length_a   11.41564426
_cell_length_b   11.41454004
_cell_length_c   11.41559721
_cell_angle_alpha   90.01194711
_cell_angle_beta   89.99868838
_cell_angle_gamma   90.00297727
_symmetry_Int_Tables_number   1
_chemical_formula_structural   Fe45Co19
_chemical_formula_sum   'Fe90 Co38'
_cell_volume   1487.50169286
_cell_formula_units_Z   2
loop_
 _symmetry_equiv_pos_site_id
 _symmetry_equiv_pos_as_xyz
  1  'x, y, z'
loop_
 _atom_site_type_symbol
 _atom_site_label
 _atom_site_symmetry_multiplicity
 _atom_site_fract_x
 _atom_site_fract_y
 _atom_site_fract_z
 _atom_site_occupancy
  Fe  Fe0  1  0.50115527  0.00092894  0.50025334  1
  Fe  Fe1  1  0.37748842  0.63141818  0.37311174  1
  Fe  Fe2  1  -0.00112418  0.74950899  0.74756758  1
  Fe  Fe3  1  0.75060291  0.50099601  0.49764998  1
  Fe  Fe4  1  0.87728017  0.87812334  0.62390087  1
  Fe  Fe5  1  0.61996874  0.12133237  0.87322458  1
  Fe  Fe6  1  0.24924011  -0.00535175  0.25387863  1
  Fe  Fe7  1  0.75046373  0.00093413  0.75215887  1
  Fe  Fe8  1  0.00351949  0.24962507  0.74756542  1
  Fe  Fe9  1  0.50191643  0.75161084  0.74821393  1
  Fe  Fe10  1  0.75241050  0.25245325  0.24957739  1
  Fe  Fe11  1  0.00197541  -0.00127427  0.25176413  1
  Fe  Fe12  1  0.87538859  0.62375417  0.87319923  1
  Fe  Fe13  1  0.24840042  0.75312030  0.75035305  1
  Fe  Fe14  1  0.62379678  0.12485541  0.37477181  1
  Fe  Fe15  1  0.37416684  0.37791213  0.12620812  1
  Fe  Fe16  1  0.88046710  0.87068040  0.37602123  1
  Fe  Fe17  1  0.25143970  0.50219757  -0.00062136  1
  Fe  Fe18  1  0.12704505  0.62455598  0.12682396  1
  Fe  Fe19  1  0.24999277  0.50381410  0.49767802  1
  Fe  Fe20  1  -0.00080907  0.75146602  0.00299200  1
  Fe  Fe21  1  0.75210085  0.00043163  0.49708053  1
  Fe  Fe22  1  0.00352989  0.24834219  0.00535643  1
  Fe  Fe23  1  0.49852116  0.25042244  0.24964856  1
  Fe  Fe24  1  0.62615604  0.87655270  0.12279627  1
  Fe  Fe25  1  0.75044434  0.75222110  0.75102533  1
  Fe  Fe26  1  0.74892013  0.24786738  -0.00095975  1
  Fe  Fe27  1  0.62373219  0.37646694  0.62367893  1
  Fe  Fe28  1  0.12717485  0.62365555  0.62644162  1
  Fe  Fe29  1  0.24752575  0.24872633  0.50173499  1
  Fe  Fe30  1  0.24934110  -0.00156918  -0.00647512  1
  Fe  Fe31  1  -0.00343927  0.49738546  0.25047233  1
  Fe  Fe32  1  0.49969617  0.24698425  0.74593991  1
  Fe  Fe33  1  0.75007875  0.49981007  -0.00135310  1
  Fe  Fe34  1  0.87672091  0.37721481  0.62467683  1
  Fe  Fe35  1  0.74906220  0.24989766  0.75033184  1
  Fe  Fe36  1  0.87592562  0.87526914  0.87678377  1
  Fe  Fe37  1  0.37614795  0.37322218  0.87427461  1
  Fe  Fe38  1  0.12525632  0.87619893  0.12353449  1
  Fe  Fe39  1  0.62509763  0.37624488  0.12546732  1
  Fe  Fe40  1  0.75273603  0.49680488  0.25355361  1
  Fe  Fe41  1  0.75059961  0.75315550  0.25018431  1
  Fe  Fe42  1  0.87683405  0.12242419  0.12482162  1
  Fe  Fe43  1  0.37433955  0.12507617  0.37502084  1
  Fe  Fe44  1  0.87205006  0.62189526  0.62745126  1
  Fe  Fe45  1  0.12325474  0.62709288  0.87429007  1
  Fe  Fe46  1  0.49949622  0.50277340  0.74828528  1
  Fe  Fe47  1  0.37220880  0.12185580  0.12501350  1
  Fe  Fe48  1  0.62481732  0.12245225  0.12748063  1
  Fe  Fe49  1  0.12308946  0.37287198  0.37397851  1
  Fe  Fe50  1  0.62245536  0.37357071  0.37644701  1
  Fe  Fe51  1  0.75153766  0.74999492  0.49983862  1
  Fe  Fe52  1  0.25238304  0.50269128  0.25133574  1
  Fe  Fe53  1  -0.00001487  0.50321932  0.49900860  1
  Fe  Fe54  1  0.75125437  -0.00201866  0.25340123  1
  Fe  Fe55  1  0.00421232  0.24671983  0.50333298  1
  Fe  Fe56  1  0.12250446  0.87769140  0.62303085  1
  Fe  Fe57  1  0.25159863  -0.00180162  0.75562581  1
  Fe  Fe58  1  0.87271642  0.62468743  0.12665665  1
  Fe  Fe59  1  0.37392753  0.87354546  0.62289094  1
  Fe  Fe60  1  0.00119560  0.00213263  0.75434071  1
  Fe  Fe61  1  0.62367583  0.62419049  0.12893396  1
  Fe  Fe62  1  0.37524421  0.37334060  0.37631479  1
  Fe  Fe63  1  0.49840835  -0.00392244  0.24964256  1
  Fe  Fe64  1  0.87692172  0.37412856  0.87576449  1
  Fe  Fe65  1  0.49883430  0.24762161  0.00259872  1
  Fe  Fe66  1  0.12161065  0.63216972  0.37217046  1
  Fe  Fe67  1  0.24813183  0.24993219  0.74764188  1
  Fe  Fe68  1  0.87911666  0.12904461  0.37331401  1
  Fe  Fe69  1  0.24489192  -0.00129756  0.49578601  1
  Fe  Fe70  1  0.24908561  0.49932746  0.75179738  1
  Fe  Fe71  1  0.37297181  0.12242109  0.62421988  1
  Fe  Fe72  1  0.37467764  0.87016119  0.11878832  1
  Fe  Fe73  1  -0.00001602  0.50034676  0.00065778  1
  Fe  Fe74  1  0.49849198  0.50316632  0.00135925  1
  Fe  Fe75  1  0.75112429  0.00128605  -0.00274850  1
  Fe  Fe76  1  0.49903779  0.50479851  0.50107989  1
  Fe  Fe77  1  0.87558719  0.12351163  0.62608740  1
  Fe  Fe78  1  0.62661367  0.87658466  0.62399102  1
  Fe  Fe79  1  0.24951312  0.24988542  0.00224515  1
  Fe  Fe80  1  0.24735340  0.24956454  0.24756519  1
  Fe  Fe81  1  0.74944233  0.24862261  0.50177330  1
  Fe  Fe82  1  0.62697491  0.62458067  0.87181755  1
  Fe  Fe83  1  0.37383498  0.37748570  0.62323577  1
  Fe  Fe84  1  0.62309280  0.62866149  0.37365827  1
  Fe  Fe85  1  0.62257120  0.37531239  0.87537014  1
  Fe  Fe86  1  0.12452824  0.37413527  0.87608017  1
  Fe  Fe87  1  0.74952693  0.75063622  -0.00045914  1
  Fe  Fe88  1  0.37407173  0.62978524  0.87536363  1
  Fe  Fe89  1  0.37698017  0.87018816  0.37862293  1
  Co  Co90  1  0.49905665  0.24768597  0.50169368  1
  Co  Co91  1  -0.00059750  0.75223613  0.24319697  1
  Co  Co92  1  0.12173587  0.87221123  0.87405001  1
  Co  Co93  1  0.12719372  0.11881208  0.62685503  1
  Co  Co94  1  0.50112066  0.74822734  0.50479196  1
  Co  Co95  1  0.37106243  0.62662205  0.62729686  1
  Co  Co96  1  0.62641589  0.12101822  0.62445825  1
  Co  Co97  1  0.87294907  0.37544445  0.12198133  1
  Co  Co98  1  0.24733540  0.74960158  0.50052152  1
  Co  Co99  1  0.49970091  0.75511721  0.24711262  1
  Co  Co100  1  0.87755429  0.12704545  0.87565491  1
  Co  Co101  1  0.12626279  0.12747040  0.87590904  1
  Co  Co102  1  0.62971881  0.62589515  0.62642006  1
  Co  Co103  1  -0.00094800  0.74640942  0.50639615  1
  Co  Co104  1  0.12735605  0.11855676  0.12545773  1
  Co  Co105  1  0.49808964  0.49897330  0.25130393  1
  Co  Co106  1  0.11979149  0.86855533  0.37760871  1
  Co  Co107  1  0.12743055  0.38031080  0.12626319  1
  Co  Co108  1  0.00121187  -0.00095395  -0.00257368  1
  Co  Co109  1  0.12493961  0.12768771  0.37177156  1
  Co  Co110  1  0.00132537  0.49973667  0.75067070  1
  Co  Co111  1  0.75035263  0.49556200  0.75126518  1
  Co  Co112  1  0.62408612  0.87816503  0.87546548  1
  Co  Co113  1  0.87875591  0.37146989  0.37841557  1
  Co  Co114  1  0.87598241  0.62926089  0.37262160  1
  Co  Co115  1  0.37503143  0.62831996  0.12555623  1
  Co  Co116  1  0.50552347  0.74649327  -0.00041684  1
  Co  Co117  1  0.49651517  -0.00228389  0.74798662  1
  Co  Co118  1  0.87313785  0.87828807  0.12388331  1
  Co  Co119  1  0.24563445  0.74910618  -0.00023779  1
  Co  Co120  1  0.49769517  0.00080037  0.00096568  1
  Co  Co121  1  0.62380477  0.87381486  0.37727872  1
  Co  Co122  1  0.37856869  0.87003152  0.87820582  1
  Co  Co123  1  0.12597515  0.37964673  0.62281196  1
  Co  Co124  1  0.25020425  0.75315033  0.24990313  1
  Co  Co125  1  0.00074259  0.00280522  0.49616999  1
  Co  Co126  1  0.37555932  0.12673813  0.87441404  1
  Co  Co127  1  0.00145169  0.25145823  0.24346139  1
