# generated using pymatgen
data_Fe45Co19
_symmetry_space_group_name_H-M   'P 1'
_cell_length_a   11.41470802
_cell_length_b   11.41329770
_cell_length_c   11.41516965
_cell_angle_alpha   90.01202583
_cell_angle_beta   90.00932906
_cell_angle_gamma   90.00663465
_symmetry_Int_Tables_number   1
_chemical_formula_structural   Fe45Co19
_chemical_formula_sum   'Fe90 Co38'
_cell_volume   1487.16208453
_cell_formula_units_Z   2
loop_
 _symmetry_equiv_pos_site_id
 _symmetry_equiv_pos_as_xyz
  1  'x, y, z'
loop_
 _atom_site_type_symbol
 _atom_site_label
 _atom_site_symmetry_multiplicity
 _atom_site_fract_x
 _atom_site_fract_y
 _atom_site_fract_z
 _atom_site_occupancy
  Fe  Fe0  1  0.49992475  0.24970993  0.49679467  1
  Fe  Fe1  1  0.25114049  0.49805893  0.75064895  1
  Fe  Fe2  1  0.25075069  0.75245273  0.50242882  1
  Fe  Fe3  1  0.62687347  0.12385964  0.37186583  1
  Fe  Fe4  1  0.87490813  0.12568729  0.37498145  1
  Fe  Fe5  1  0.50034357  0.25015605  0.75333101  1
  Fe  Fe6  1  0.75072257  0.75190339  0.24826431  1
  Fe  Fe7  1  0.62524863  0.62442160  0.37537676  1
  Fe  Fe8  1  0.74811947  0.49671343  0.00240379  1
  Fe  Fe9  1  0.50004197  0.74908564  -0.00083935  1
  Fe  Fe10  1  0.75091124  0.49760007  0.24840498  1
  Fe  Fe11  1  0.49909854  0.50042854  0.24734559  1
  Fe  Fe12  1  0.37512042  0.62471291  0.62498874  1
  Fe  Fe13  1  0.12542853  0.87427231  0.87105449  1
  Fe  Fe14  1  0.62605618  0.62527171  0.12541082  1
  Fe  Fe15  1  0.12433229  0.62640283  0.62837196  1
  Fe  Fe16  1  0.37507813  0.87830919  0.37611160  1
  Fe  Fe17  1  0.12101098  0.37272285  0.12608165  1
  Fe  Fe18  1  0.37961481  0.37839022  0.87810791  1
  Fe  Fe19  1  -0.00165236  0.00208501  0.24627932  1
  Fe  Fe20  1  0.37526637  0.12567911  0.62440181  1
  Fe  Fe21  1  0.24980079  0.74937018  0.24904873  1
  Fe  Fe22  1  0.00389356  0.49886638  -0.00251507  1
  Fe  Fe23  1  0.75297106  0.25178082  0.24675592  1
  Fe  Fe24  1  0.62360768  0.87718570  0.37241769  1
  Fe  Fe25  1  0.00160973  0.50152723  0.25318040  1
  Fe  Fe26  1  0.24791178  0.49839980  0.24980993  1
  Fe  Fe27  1  0.00315115  0.74687963  -0.00431482  1
  Fe  Fe28  1  0.50212654  0.24872384  0.00011470  1
  Fe  Fe29  1  0.12193530  0.12885753  0.12187910  1
  Fe  Fe30  1  -0.00092605  0.49600276  0.74642868  1
  Fe  Fe31  1  0.36892171  0.62254882  0.12064227  1
  Fe  Fe32  1  0.37642390  0.37331279  0.12523628  1
  Fe  Fe33  1  0.37573945  0.87565839  0.12246283  1
  Fe  Fe34  1  0.62380488  0.87724835  0.62662566  1
  Fe  Fe35  1  0.87435911  0.87774777  0.87668794  1
  Fe  Fe36  1  0.37243796  0.62277053  0.37603981  1
  Fe  Fe37  1  0.62537423  0.12546968  0.12220785  1
  Fe  Fe38  1  0.75126113  0.25539256  0.00098518  1
  Fe  Fe39  1  0.87423353  0.62144508  0.87366385  1
  Fe  Fe40  1  0.87423721  0.62390665  0.62492590  1
  Fe  Fe41  1  0.37333498  0.87541679  0.87491294  1
  Fe  Fe42  1  0.24825217  0.25251846  -0.00237757  1
  Fe  Fe43  1  0.12826475  0.13351295  0.63066519  1
  Fe  Fe44  1  0.49792815  0.74777319  0.24926902  1
  Fe  Fe45  1  0.12411212  0.87394888  0.62853572  1
  Fe  Fe46  1  0.62642443  0.12797006  0.62616390  1
  Fe  Fe47  1  0.12325319  0.37102241  0.86871286  1
  Fe  Fe48  1  0.24978814  0.00202210  0.24648844  1
  Fe  Fe49  1  0.12236921  0.87311033  0.12542307  1
  Fe  Fe50  1  0.37457562  0.37256685  0.62403895  1
  Fe  Fe51  1  0.87770925  0.37355644  0.37830009  1
  Fe  Fe52  1  0.37405550  0.12436803  0.37478917  1
  Fe  Fe53  1  0.50069020  0.49784134  0.50073727  1
  Fe  Fe54  1  0.74833362  0.49592824  0.50170893  1
  Fe  Fe55  1  0.87670835  0.87640111  0.37509157  1
  Fe  Fe56  1  0.24946136  0.00121967  0.50267297  1
  Fe  Fe57  1  0.12386510  0.37305830  0.37870111  1
  Fe  Fe58  1  0.74867320  0.00050250  0.50044289  1
  Fe  Fe59  1  0.00168452  0.00430426  0.50268322  1
  Fe  Fe60  1  0.37142063  0.62234559  0.87847950  1
  Fe  Fe61  1  0.87384549  0.62352151  0.37801768  1
  Fe  Fe62  1  0.87170252  0.12864201  0.62370121  1
  Fe  Fe63  1  0.87331905  0.12314368  0.88034030  1
  Fe  Fe64  1  -0.00112832  0.00425359  0.75120039  1
  Fe  Fe65  1  0.50145738  0.00291663  0.75208130  1
  Fe  Fe66  1  0.24717612  0.00016225  0.00036063  1
  Fe  Fe67  1  0.37380033  0.12416850  0.87799870  1
  Fe  Fe68  1  0.62705463  0.88002609  0.87705182  1
  Fe  Fe69  1  0.62442549  0.62049772  0.87401717  1
  Fe  Fe70  1  0.74945807  0.75090409  0.00056847  1
  Fe  Fe71  1  0.12495811  0.12510497  0.37443264  1
  Fe  Fe72  1  0.75093549  0.75111098  0.75083428  1
  Fe  Fe73  1  0.12475909  0.87620018  0.37486632  1
  Fe  Fe74  1  0.75425322  -0.00208431  0.24158381  1
  Fe  Fe75  1  0.87730951  0.62328284  0.12386515  1
  Fe  Fe76  1  0.25041016  0.25010740  0.25123604  1
  Fe  Fe77  1  0.25088321  0.00148864  0.75019003  1
  Fe  Fe78  1  0.74904526  0.75199900  0.50036422  1
  Fe  Fe79  1  0.49948624  0.75183847  0.50014863  1
  Fe  Fe80  1  0.87586157  0.87626799  0.62564771  1
  Fe  Fe81  1  0.24704711  0.49726143  0.50143081  1
  Fe  Fe82  1  0.75071623  0.25327077  0.75372727  1
  Fe  Fe83  1  0.49824045  0.00331118  0.24565489  1
  Fe  Fe84  1  0.74818356  0.49527984  0.74791827  1
  Fe  Fe85  1  0.62270627  0.37407223  0.37195414  1
  Fe  Fe86  1  0.49840026  0.74912428  0.75173259  1
  Fe  Fe87  1  0.00024083  0.74834729  0.50022209  1
  Fe  Fe88  1  0.00123111  0.74568685  0.25195025  1
  Fe  Fe89  1  0.62445238  0.62433425  0.62595635  1
  Co  Co90  1  0.50150500  0.50187642  0.00428090  1
  Co  Co91  1  0.62996012  0.12416778  0.87816822  1
  Co  Co92  1  0.25704527  0.25190548  0.75499703  1
  Co  Co93  1  0.12698502  0.62382160  0.87067803  1
  Co  Co94  1  0.74728271  0.25093983  0.49667568  1
  Co  Co95  1  0.12597050  0.12774927  0.87363622  1
  Co  Co96  1  0.87509879  0.37141507  0.62108664  1
  Co  Co97  1  0.87947270  0.12962790  0.12065052  1
  Co  Co98  1  -0.00403284  0.74951967  0.75233230  1
  Co  Co99  1  0.49900283  0.24716440  0.25013415  1
  Co  Co100  1  0.87449471  0.37878376  0.87604219  1
  Co  Co101  1  0.24646236  0.75171393  -0.00061454  1
  Co  Co102  1  0.12867757  0.62583398  0.37704316  1
  Co  Co103  1  0.75103145  0.00119444  0.74870821  1
  Co  Co104  1  0.88078407  0.86977963  0.12239385  1
  Co  Co105  1  0.37573116  0.37605268  0.37317367  1
  Co  Co106  1  0.12607968  0.62347389  0.12377335  1
  Co  Co107  1  0.24465854  0.49398046  -0.00171513  1
  Co  Co108  1  0.25339314  0.74857175  0.74944880  1
  Co  Co109  1  -0.00702266  0.24804077  0.75195171  1
  Co  Co110  1  -0.00024715  0.25280752  -0.00545281  1
  Co  Co111  1  0.49819303  0.50013133  0.74868063  1
  Co  Co112  1  0.75266793  -0.00246277  0.00780462  1
  Co  Co113  1  0.00299218  -0.00020869  -0.00067560  1
  Co  Co114  1  0.62246361  0.37379739  0.12607350  1
  Co  Co115  1  0.62342340  0.37175838  0.62684403  1
  Co  Co116  1  0.25144950  0.24939242  0.49654655  1
  Co  Co117  1  0.49886249  0.00171577  -0.00063656  1
  Co  Co118  1  0.50181313  0.00296566  0.50032371  1
  Co  Co119  1  0.62199521  0.37738565  0.87531335  1
  Co  Co120  1  0.88064370  0.37655697  0.12509016  1
  Co  Co121  1  0.12715005  0.36807855  0.62808227  1
  Co  Co122  1  0.00184324  0.24746861  0.50138555  1
  Co  Co123  1  -0.00081998  0.24947253  0.25319764  1
  Co  Co124  1  0.37717548  0.87797785  0.62655492  1
  Co  Co125  1  0.00288523  0.49958333  0.50268989  1
  Co  Co126  1  0.37210939  0.12817766  0.12207043  1
  Co  Co127  1  0.62047065  0.87514339  0.12467239  1
