# generated using pymatgen
data_Fe45Co19
_symmetry_space_group_name_H-M   'P 1'
_cell_length_a   11.41642105
_cell_length_b   11.41604445
_cell_length_c   11.41448372
_cell_angle_alpha   89.99781400
_cell_angle_beta   89.98452819
_cell_angle_gamma   89.99805268
_symmetry_Int_Tables_number   1
_chemical_formula_structural   Fe45Co19
_chemical_formula_sum   'Fe90 Co38'
_cell_volume   1487.65383144
_cell_formula_units_Z   2
loop_
 _symmetry_equiv_pos_site_id
 _symmetry_equiv_pos_as_xyz
  1  'x, y, z'
loop_
 _atom_site_type_symbol
 _atom_site_label
 _atom_site_symmetry_multiplicity
 _atom_site_fract_x
 _atom_site_fract_y
 _atom_site_fract_z
 _atom_site_occupancy
  Fe  Fe0  1  0.62514509  0.62493705  0.12642967  1
  Fe  Fe1  1  0.12519842  0.12645403  0.62679478  1
  Fe  Fe2  1  -0.00186327  -0.00065933  0.50071816  1
  Fe  Fe3  1  0.62728648  0.87712372  0.12886560  1
  Fe  Fe4  1  0.00247173  0.75287601  -0.00159276  1
  Fe  Fe5  1  0.37555038  0.62444166  0.62464636  1
  Fe  Fe6  1  0.37215917  0.37221272  0.62614550  1
  Fe  Fe7  1  0.37601264  0.37170336  0.37351841  1
  Fe  Fe8  1  0.62428175  0.12584824  0.37266871  1
  Fe  Fe9  1  0.50195225  0.25075187  0.00048191  1
  Fe  Fe10  1  0.24764497  0.24560510  -0.00046710  1
  Fe  Fe11  1  0.12367053  0.62628947  0.62569196  1
  Fe  Fe12  1  0.24870454  0.74708862  0.49849016  1
  Fe  Fe13  1  -0.00109607  0.49831513  0.24850604  1
  Fe  Fe14  1  0.12466840  0.62468756  0.12662140  1
  Fe  Fe15  1  0.24912969  0.50062212  0.49838539  1
  Fe  Fe16  1  0.12511305  0.87281140  0.62583250  1
  Fe  Fe17  1  0.38001531  0.12798457  0.86877321  1
  Fe  Fe18  1  -0.00073969  0.25182038  0.75182627  1
  Fe  Fe19  1  0.87601495  0.62575216  0.12254770  1
  Fe  Fe20  1  0.87378406  0.87300965  0.62516285  1
  Fe  Fe21  1  0.37622930  0.12772026  0.37347489  1
  Fe  Fe22  1  0.62656570  0.12336619  0.12490092  1
  Fe  Fe23  1  0.37452975  0.62613292  0.87379449  1
  Fe  Fe24  1  0.74829884  0.75050259  -0.00004912  1
  Fe  Fe25  1  0.49901437  0.49877384  0.00144518  1
  Fe  Fe26  1  -0.00018878  0.24961592  0.24664870  1
  Fe  Fe27  1  0.50145896  0.24958312  0.50238074  1
  Fe  Fe28  1  0.00183005  -0.00257458  0.75260143  1
  Fe  Fe29  1  -0.00233330  0.25171261  0.50330772  1
  Fe  Fe30  1  0.62361635  0.62498450  0.87422372  1
  Fe  Fe31  1  0.62266727  0.62362723  0.37333320  1
  Fe  Fe32  1  0.62710438  0.37476692  0.12387579  1
  Fe  Fe33  1  0.87491352  0.12252066  0.12097820  1
  Fe  Fe34  1  0.75019834  0.49922749  0.75211197  1
  Fe  Fe35  1  0.37317147  0.87547525  0.12542666  1
  Fe  Fe36  1  0.50137297  0.74919697  0.49955823  1
  Fe  Fe37  1  0.75032866  0.24874180  -0.00541447  1
  Fe  Fe38  1  0.62683560  0.87540023  0.62527239  1
  Fe  Fe39  1  0.75219500  0.49889304  0.49763791  1
  Fe  Fe40  1  0.49930391  0.00129884  0.50007580  1
  Fe  Fe41  1  0.37367958  0.87580059  0.62305306  1
  Fe  Fe42  1  0.12357675  0.87472543  0.37635949  1
  Fe  Fe43  1  0.12177104  0.12555404  0.37415798  1
  Fe  Fe44  1  -0.00336719  -0.00038466  0.25059719  1
  Fe  Fe45  1  0.74877928  0.00085130  0.75320036  1
  Fe  Fe46  1  0.75204316  0.00293639  0.49729282  1
  Fe  Fe47  1  0.75011798  0.74927846  0.49798488  1
  Fe  Fe48  1  0.62335801  0.87611113  0.87546552  1
  Fe  Fe49  1  0.49960884  0.74984329  0.00245641  1
  Fe  Fe50  1  0.87356154  0.62803147  0.62743818  1
  Fe  Fe51  1  0.12653393  0.62897337  0.87366324  1
  Fe  Fe52  1  0.24950654  0.50161713  0.00026023  1
  Fe  Fe53  1  0.12207993  0.37493751  0.37613796  1
  Fe  Fe54  1  0.87635131  0.37551852  0.11980846  1
  Fe  Fe55  1  0.87148979  0.87644140  0.12497979  1
  Fe  Fe56  1  0.37598501  0.87423731  0.37433409  1
  Fe  Fe57  1  0.12528080  0.37397043  0.12198951  1
  Fe  Fe58  1  0.12897836  0.88035561  0.12044506  1
  Fe  Fe59  1  -0.00000084  0.75270458  0.24947135  1
  Fe  Fe60  1  0.37524740  0.62442457  0.12713734  1
  Fe  Fe61  1  0.75219283  0.49898480  0.25069136  1
  Fe  Fe62  1  0.49912942  0.49542997  0.24870910  1
  Fe  Fe63  1  0.87367406  0.12648121  0.62672860  1
  Fe  Fe64  1  0.25051063  0.49772567  0.25116849  1
  Fe  Fe65  1  0.37477034  0.12880347  0.12925685  1
  Fe  Fe66  1  0.87346489  0.87616483  0.87559103  1
  Fe  Fe67  1  0.50033145  0.49869490  0.50066181  1
  Fe  Fe68  1  0.62686909  0.87619800  0.37080553  1
  Fe  Fe69  1  0.62325719  0.12377470  0.62854886  1
  Fe  Fe70  1  0.37127001  0.87243412  0.87649822  1
  Fe  Fe71  1  0.37540786  0.37360128  0.87580215  1
  Fe  Fe72  1  0.75020419  0.49999069  -0.00144022  1
  Fe  Fe73  1  0.24969648  0.00280144  0.50031412  1
  Fe  Fe74  1  0.87822895  0.62686366  0.37401263  1
  Fe  Fe75  1  0.24915330  0.24872874  0.50071816  1
  Fe  Fe76  1  0.24854087  0.49803765  0.74964857  1
  Fe  Fe77  1  0.50135605  0.49793215  0.74857497  1
  Fe  Fe78  1  0.25078327  0.00268471  0.25176193  1
  Fe  Fe79  1  -0.00170906  0.49913495  0.50245291  1
  Fe  Fe80  1  0.24983355  0.74898654  0.25137712  1
  Fe  Fe81  1  0.74894440  0.25069204  0.75501178  1
  Fe  Fe82  1  0.50100940  0.75044890  0.74748384  1
  Fe  Fe83  1  0.62934095  0.37529113  0.62353341  1
  Fe  Fe84  1  0.25075402  0.00162572  0.75037937  1
  Fe  Fe85  1  0.49869555  0.00084674  0.00128467  1
  Fe  Fe86  1  0.12322145  0.37369589  0.87706284  1
  Fe  Fe87  1  -0.00030508  0.49853765  0.74981835  1
  Fe  Fe88  1  0.75164805  0.25046192  0.25229713  1
  Fe  Fe89  1  0.87540688  0.62518940  0.87586470  1
  Co  Co90  1  0.37577530  0.12607838  0.62810211  1
  Co  Co91  1  0.50344047  0.25229494  0.24833690  1
  Co  Co92  1  0.00308456  0.50306279  -0.00079255  1
  Co  Co93  1  0.87140559  0.37334631  0.62598343  1
  Co  Co94  1  0.24988920  0.74597746  0.00357441  1
  Co  Co95  1  0.12392542  0.12029196  0.12529389  1
  Co  Co96  1  0.62022937  0.12293790  0.87335233  1
  Co  Co97  1  0.62683317  0.62420059  0.62460798  1
  Co  Co98  1  -0.00018501  0.75228318  0.75268728  1
  Co  Co99  1  0.87755793  0.37650432  0.87790968  1
  Co  Co100  1  0.12200520  0.12294160  0.87501356  1
  Co  Co101  1  0.37679433  0.62430191  0.37410434  1
  Co  Co102  1  0.87670518  0.12308011  0.87516372  1
  Co  Co103  1  0.12520546  0.37442737  0.62399739  1
  Co  Co104  1  0.74784679  0.00049285  -0.00247496  1
  Co  Co105  1  0.13181247  0.87553998  0.87789569  1
  Co  Co106  1  0.49782674  -0.00530297  0.74953097  1
  Co  Co107  1  0.75088948  0.74723038  0.25047088  1
  Co  Co108  1  0.25524019  0.00778149  -0.00247316  1
  Co  Co109  1  0.87399228  0.87417636  0.37573437  1
  Co  Co110  1  -0.00024615  0.75043534  0.50090703  1
  Co  Co111  1  0.74881095  0.75050324  0.75187938  1
  Co  Co112  1  0.50380340  0.25549555  0.74703377  1
  Co  Co113  1  0.25109122  0.74983233  0.74630178  1
  Co  Co114  1  0.75352402  0.00388900  0.25278552  1
  Co  Co115  1  0.87678342  0.37313054  0.37574185  1
  Co  Co116  1  -0.00057975  -0.00211289  -0.00208586  1
  Co  Co117  1  0.62361006  0.37691166  0.87697392  1
  Co  Co118  1  0.37285516  0.37208198  0.12303166  1
  Co  Co119  1  0.24548330  0.25040283  0.25028542  1
  Co  Co120  1  0.24701872  0.25020613  0.75100971  1
  Co  Co121  1  0.74898144  0.24763220  0.49856423  1
  Co  Co122  1  0.87892016  0.12741550  0.37685755  1
  Co  Co123  1  0.00049601  0.24693315  0.00009363  1
  Co  Co124  1  0.50008447  0.75041431  0.24897428  1
  Co  Co125  1  0.12236454  0.62396832  0.37428339  1
  Co  Co126  1  0.62539809  0.37536918  0.37548432  1
  Co  Co127  1  0.49884785  0.00103269  0.24937786  1
