# generated using pymatgen
data_Fe45Co19
_symmetry_space_group_name_H-M   'P 1'
_cell_length_a   11.41694302
_cell_length_b   11.41684628
_cell_length_c   11.41552228
_cell_angle_alpha   90.00508311
_cell_angle_beta   89.98547307
_cell_angle_gamma   89.99588479
_symmetry_Int_Tables_number   1
_chemical_formula_structural   Fe45Co19
_chemical_formula_sum   'Fe90 Co38'
_cell_volume   1487.96171219
_cell_formula_units_Z   2
loop_
 _symmetry_equiv_pos_site_id
 _symmetry_equiv_pos_as_xyz
  1  'x, y, z'
loop_
 _atom_site_type_symbol
 _atom_site_label
 _atom_site_symmetry_multiplicity
 _atom_site_fract_x
 _atom_site_fract_y
 _atom_site_fract_z
 _atom_site_occupancy
  Fe  Fe0  1  0.75040172  0.25087504  0.50068386  1
  Fe  Fe1  1  0.12620566  0.12656329  0.62393126  1
  Fe  Fe2  1  0.74953260  0.74833026  0.50015896  1
  Fe  Fe3  1  0.62455455  0.87704296  0.37580095  1
  Fe  Fe4  1  0.12234180  0.87344316  0.62784555  1
  Fe  Fe5  1  0.87647414  0.87284223  0.62779829  1
  Fe  Fe6  1  0.87561951  0.12411015  0.12642017  1
  Fe  Fe7  1  0.24970201  0.50093835  0.24942390  1
  Fe  Fe8  1  0.37806690  0.37164359  0.12665656  1
  Fe  Fe9  1  0.37462020  0.37702341  0.37571214  1
  Fe  Fe10  1  0.12601928  0.37611348  0.37656574  1
  Fe  Fe11  1  0.74969627  0.75156020  -0.00034247  1
  Fe  Fe12  1  -0.00071561  0.24946444  0.50025470  1
  Fe  Fe13  1  0.37488011  0.87645711  0.37508170  1
  Fe  Fe14  1  0.25165193  0.74995353  0.49951432  1
  Fe  Fe15  1  0.50073325  0.74999130  0.75024106  1
  Fe  Fe16  1  0.24695012  0.00161318  0.75175532  1
  Fe  Fe17  1  0.49830333  0.74905258  -0.00134411  1
  Fe  Fe18  1  0.00058949  0.00074715  -0.00270103  1
  Fe  Fe19  1  0.62364218  0.37610231  0.37576784  1
  Fe  Fe20  1  0.87458501  0.12372950  0.37323268  1
  Fe  Fe21  1  0.75029428  -0.00118433  0.50190630  1
  Fe  Fe22  1  -0.00080316  0.25096729  -0.00122857  1
  Fe  Fe23  1  0.74692919  -0.00057518  0.74943608  1
  Fe  Fe24  1  0.37258920  0.62140177  0.87311125  1
  Fe  Fe25  1  0.87484370  0.37426447  0.12757288  1
  Fe  Fe26  1  0.12352599  0.87594460  0.37339911  1
  Fe  Fe27  1  0.50192022  0.75128773  0.25054534  1
  Fe  Fe28  1  0.24843714  0.24996948  0.75047023  1
  Fe  Fe29  1  0.00196062  0.50148191  0.74999429  1
  Fe  Fe30  1  0.87640387  0.87546461  0.37047759  1
  Fe  Fe31  1  0.87535705  0.12732600  0.87131341  1
  Fe  Fe32  1  0.37280692  0.87528405  0.12379788  1
  Fe  Fe33  1  0.25294603  0.24893499  -0.00241052  1
  Fe  Fe34  1  0.74678902  0.25014740  0.25028095  1
  Fe  Fe35  1  0.62437992  0.62536253  0.87436453  1
  Fe  Fe36  1  0.87538825  0.37374124  0.87289525  1
  Fe  Fe37  1  0.74778407  0.49972185  0.74887445  1
  Fe  Fe38  1  0.49899300  0.49911918  0.00012493  1
  Fe  Fe39  1  0.74877703  0.75021010  0.74954240  1
  Fe  Fe40  1  0.87418391  0.12763397  0.62807167  1
  Fe  Fe41  1  0.87536290  0.37450130  0.62612878  1
  Fe  Fe42  1  0.37569959  0.37598707  0.87238429  1
  Fe  Fe43  1  0.12564917  0.62618156  0.62413164  1
  Fe  Fe44  1  0.50161324  0.49988195  0.25003289  1
  Fe  Fe45  1  -0.00203529  0.50235037  0.49950800  1
  Fe  Fe46  1  0.37489592  0.87635439  0.62634004  1
  Fe  Fe47  1  0.24682260  0.74847162  0.75464966  1
  Fe  Fe48  1  0.37562600  0.37429852  0.62664298  1
  Fe  Fe49  1  0.87700937  0.87540263  0.12763176  1
  Fe  Fe50  1  0.37454648  0.87759387  0.87546989  1
  Fe  Fe51  1  0.12566859  0.37837971  0.87826827  1
  Fe  Fe52  1  0.37457033  0.62627772  0.12605231  1
  Fe  Fe53  1  0.49693500  0.24659457  0.50053845  1
  Fe  Fe54  1  0.24753596  0.74907473  0.25030997  1
  Fe  Fe55  1  0.62175765  0.12708071  0.12445183  1
  Fe  Fe56  1  0.12658742  0.12422255  0.12308859  1
  Fe  Fe57  1  -0.00044852  0.00002819  0.50192842  1
  Fe  Fe58  1  -0.00152814  0.74882479  0.49987561  1
  Fe  Fe59  1  0.62340673  0.37478378  0.62381257  1
  Fe  Fe60  1  0.12735580  0.12344292  0.37754248  1
  Fe  Fe61  1  0.87404173  0.62690853  0.37098471  1
  Fe  Fe62  1  0.00266519  0.74953809  -0.00357105  1
  Fe  Fe63  1  0.12543027  0.37500482  0.62155195  1
  Fe  Fe64  1  0.74987722  -0.00039315  -0.00105899  1
  Fe  Fe65  1  0.25132601  0.24906201  0.25266224  1
  Fe  Fe66  1  0.49911848  0.00085924  -0.00182897  1
  Fe  Fe67  1  0.87551749  0.62479639  0.87427515  1
  Fe  Fe68  1  0.75002807  0.50231980  0.50022330  1
  Fe  Fe69  1  0.62411365  0.12220934  0.37612052  1
  Fe  Fe70  1  0.00223122  0.24783342  0.25084602  1
  Fe  Fe71  1  0.12663342  0.62328828  0.11943791  1
  Fe  Fe72  1  0.50413172  0.00188369  0.74762939  1
  Fe  Fe73  1  0.49807622  0.50533283  0.50300277  1
  Fe  Fe74  1  0.87719773  0.87506009  0.87186976  1
  Fe  Fe75  1  0.12532846  0.37493122  0.12357007  1
  Fe  Fe76  1  0.75015080  0.49840241  0.00135733  1
  Fe  Fe77  1  0.49921364  0.74792109  0.50135126  1
  Fe  Fe78  1  0.87367269  0.62679939  0.12666159  1
  Fe  Fe79  1  0.87603419  0.37443805  0.37316037  1
  Fe  Fe80  1  0.25357472  0.50288770  0.50186233  1
  Fe  Fe81  1  0.00115705  0.50215189  0.24899162  1
  Fe  Fe82  1  0.12652682  0.87697349  0.12235563  1
  Fe  Fe83  1  0.37304711  0.11989062  0.37816000  1
  Fe  Fe84  1  0.74935618  0.25084216  0.00022858  1
  Fe  Fe85  1  0.62414535  0.87619258  0.12332512  1
  Fe  Fe86  1  0.37640667  0.12556981  0.12505613  1
  Fe  Fe87  1  0.62659551  0.62448769  0.12622128  1
  Fe  Fe88  1  0.62411253  0.37382211  0.87602048  1
  Fe  Fe89  1  0.50196614  0.24629603  0.74971265  1
  Co  Co90  1  0.37486397  0.62594725  0.37235623  1
  Co  Co91  1  0.37615816  0.12328566  0.87272410  1
  Co  Co92  1  0.37176007  0.12279819  0.62563863  1
  Co  Co93  1  0.62655562  0.12511447  0.87689578  1
  Co  Co94  1  0.62502425  0.62629030  0.62631735  1
  Co  Co95  1  0.25663780  0.49725097  0.00263164  1
  Co  Co96  1  0.25047308  -0.00009208  0.24952794  1
  Co  Co97  1  0.62512077  0.62495763  0.37387237  1
  Co  Co98  1  0.25291947  0.25130652  0.49996009  1
  Co  Co99  1  0.25090701  0.75033996  -0.00340011  1
  Co  Co100  1  0.50110007  0.50010751  0.74940877  1
  Co  Co101  1  0.12760324  0.61904005  0.87939430  1
  Co  Co102  1  0.74717795  0.75358672  0.24898167  1
  Co  Co103  1  0.12597128  0.62407171  0.37762420  1
  Co  Co104  1  0.74834401  0.00004367  0.24790949  1
  Co  Co105  1  0.00398729  0.74865077  0.24803605  1
  Co  Co106  1  0.37392942  0.62750927  0.62905461  1
  Co  Co107  1  0.62411814  0.87436948  0.87602776  1
  Co  Co108  1  0.74674562  0.25207366  0.74922518  1
  Co  Co109  1  0.74937570  0.49807090  0.24965231  1
  Co  Co110  1  0.62502377  0.87231540  0.62392211  1
  Co  Co111  1  0.87442196  0.62568560  0.62665431  1
  Co  Co112  1  0.49900271  -0.00102775  0.24936680  1
  Co  Co113  1  0.12327537  0.12626701  0.87601740  1
  Co  Co114  1  0.50010334  0.00000732  0.50393189  1
  Co  Co115  1  0.62245846  0.37272571  0.12493876  1
  Co  Co116  1  0.49810045  0.25085955  -0.00385401  1
  Co  Co117  1  0.24786465  0.49844018  0.74670765  1
  Co  Co118  1  0.62709326  0.12596774  0.62278484  1
  Co  Co119  1  0.49880938  0.24849062  0.25564286  1
  Co  Co120  1  0.25120230  0.00204184  -0.00206989  1
  Co  Co121  1  -0.00461936  0.49923749  0.00104289  1
  Co  Co122  1  0.00317034  0.74590176  0.75313867  1
  Co  Co123  1  0.00120422  0.00185879  0.74880852  1
  Co  Co124  1  0.24801097  -0.00464979  0.50217155  1
  Co  Co125  1  0.12446602  0.87746967  0.87587835  1
  Co  Co126  1  0.00199890  0.00167370  0.24990090  1
  Co  Co127  1  0.00357259  0.25286907  0.74921365  1
