# generated using pymatgen
data_Fe45Co19
_symmetry_space_group_name_H-M   'P 1'
_cell_length_a   11.41522833
_cell_length_b   11.41503683
_cell_length_c   11.41581529
_cell_angle_alpha   90.00043630
_cell_angle_beta   89.99866668
_cell_angle_gamma   89.99249721
_symmetry_Int_Tables_number   1
_chemical_formula_structural   Fe45Co19
_chemical_formula_sum   'Fe90 Co38'
_cell_volume   1487.54067235
_cell_formula_units_Z   2
loop_
 _symmetry_equiv_pos_site_id
 _symmetry_equiv_pos_as_xyz
  1  'x, y, z'
loop_
 _atom_site_type_symbol
 _atom_site_label
 _atom_site_symmetry_multiplicity
 _atom_site_fract_x
 _atom_site_fract_y
 _atom_site_fract_z
 _atom_site_occupancy
  Fe  Fe0  1  0.87474229  0.37586645  0.62448253  1
  Fe  Fe1  1  0.87523436  0.37372973  0.87771182  1
  Fe  Fe2  1  -0.00035718  -0.00265996  0.75248857  1
  Fe  Fe3  1  0.61543734  0.62784200  0.12631384  1
  Fe  Fe4  1  0.00106708  0.74935692  0.49985874  1
  Fe  Fe5  1  0.37604574  0.12588491  0.37442298  1
  Fe  Fe6  1  0.74802659  0.49804176  0.75241285  1
  Fe  Fe7  1  0.00269733  0.49869078  0.75375309  1
  Fe  Fe8  1  0.37334762  0.87592881  0.37652500  1
  Fe  Fe9  1  0.00108395  0.75190898  0.24579939  1
  Fe  Fe10  1  0.62135132  0.62509822  0.37215931  1
  Fe  Fe11  1  0.37498787  0.12535332  0.62519197  1
  Fe  Fe12  1  0.25162397  0.75394996  0.75403525  1
  Fe  Fe13  1  0.50015253  0.75166369  0.50104643  1
  Fe  Fe14  1  0.87643536  0.12779227  0.36860707  1
  Fe  Fe15  1  0.74968834  0.74725763  0.24699361  1
  Fe  Fe16  1  0.12721456  0.87609383  0.62478731  1
  Fe  Fe17  1  0.62506883  0.12429968  0.12518110  1
  Fe  Fe18  1  -0.00060172  0.75402305  0.00142361  1
  Fe  Fe19  1  0.24822511  0.24937175  0.24814062  1
  Fe  Fe20  1  0.87549855  0.12514357  0.62624524  1
  Fe  Fe21  1  0.00099653  0.75263490  0.75233472  1
  Fe  Fe22  1  0.74731609  0.50048947  0.24693726  1
  Fe  Fe23  1  -0.00138947  -0.00069347  0.49735681  1
  Fe  Fe24  1  0.37471012  0.37491431  0.87849015  1
  Fe  Fe25  1  0.00091045  0.24866358  0.00345667  1
  Fe  Fe26  1  0.49874456  0.49851380  0.50047359  1
  Fe  Fe27  1  0.87627398  0.62596163  0.87709595  1
  Fe  Fe28  1  0.12758184  0.62623363  0.12225683  1
  Fe  Fe29  1  0.12515602  0.12619179  0.37285574  1
  Fe  Fe30  1  0.74948043  0.24795563  0.49824718  1
  Fe  Fe31  1  0.50356972  0.49519095  0.75232544  1
  Fe  Fe32  1  0.62153250  0.37370918  0.12018333  1
  Fe  Fe33  1  0.00114780  0.25163639  0.74977746  1
  Fe  Fe34  1  0.49965857  -0.00167052  0.00227134  1
  Fe  Fe35  1  0.87570824  0.37444699  0.12586597  1
  Fe  Fe36  1  0.12551328  0.62501863  0.62810854  1
  Fe  Fe37  1  0.74783125  0.50255060  0.00106812  1
  Fe  Fe38  1  0.62335786  0.62467936  0.62559769  1
  Fe  Fe39  1  0.12430453  0.12484407  0.62499491  1
  Fe  Fe40  1  0.24931767  0.25014926  0.74907536  1
  Fe  Fe41  1  0.62639062  0.87519526  0.37386177  1
  Fe  Fe42  1  0.62536333  0.37384731  0.37536291  1
  Fe  Fe43  1  0.50083728  0.25325640  0.75052360  1
  Fe  Fe44  1  0.12486868  0.12271649  0.87505571  1
  Fe  Fe45  1  0.74872586  0.25127924  0.75210823  1
  Fe  Fe46  1  0.87716575  0.62501983  0.37166702  1
  Fe  Fe47  1  0.00405088  0.49976168  -0.00140645  1
  Fe  Fe48  1  0.25275163  0.75128682  0.24806939  1
  Fe  Fe49  1  0.62493239  0.12493435  0.62509624  1
  Fe  Fe50  1  0.50058013  0.25130091  0.24852071  1
  Fe  Fe51  1  0.24627011  0.49800717  0.75517516  1
  Fe  Fe52  1  0.37421108  0.12162630  0.87466532  1
  Fe  Fe53  1  0.24970869  0.00262430  0.49996685  1
  Fe  Fe54  1  0.87505205  0.37410106  0.37041432  1
  Fe  Fe55  1  0.24966181  0.74756433  0.49995260  1
  Fe  Fe56  1  -0.00393028  -0.00239275  0.00053177  1
  Fe  Fe57  1  0.75181927  0.24580911  0.00111416  1
  Fe  Fe58  1  0.75071932  0.00177152  0.49864628  1
  Fe  Fe59  1  0.24951651  0.50033148  0.24830917  1
  Fe  Fe60  1  0.49748529  0.75463935  0.75063460  1
  Fe  Fe61  1  0.49931863  -0.00338507  0.24928696  1
  Fe  Fe62  1  0.49970078  0.25121013  0.50126957  1
  Fe  Fe63  1  0.00145203  0.25171327  0.49859822  1
  Fe  Fe64  1  0.75045326  0.50184044  0.49928914  1
  Fe  Fe65  1  0.37495129  0.62367500  0.62863656  1
  Fe  Fe66  1  0.87419977  0.87283634  0.37192226  1
  Fe  Fe67  1  0.37437051  0.37733510  0.12114510  1
  Fe  Fe68  1  0.12616616  0.87467578  0.37300810  1
  Fe  Fe69  1  0.62582276  0.87498363  0.87849840  1
  Fe  Fe70  1  0.74976127  0.74806073  0.50050120  1
  Fe  Fe71  1  0.49890069  -0.00302340  0.74733375  1
  Fe  Fe72  1  0.75025491  0.74909688  0.74947836  1
  Fe  Fe73  1  0.75054792  0.74884773  0.00338671  1
  Fe  Fe74  1  0.74967356  0.00168672  0.24823053  1
  Fe  Fe75  1  0.75134702  0.00101414  0.75332553  1
  Fe  Fe76  1  0.50077886  -0.00179400  0.50159532  1
  Fe  Fe77  1  0.62305456  0.12556455  0.87634776  1
  Fe  Fe78  1  0.37689362  0.62480001  0.37175909  1
  Fe  Fe79  1  0.00449282  0.49924886  0.24895132  1
  Fe  Fe80  1  0.25716869  0.74841276  -0.00211408  1
  Fe  Fe81  1  0.24829433  0.50058900  0.49941175  1
  Fe  Fe82  1  0.87314741  0.87511025  0.62554813  1
  Fe  Fe83  1  0.37187592  0.37312413  0.37554829  1
  Fe  Fe84  1  0.24977984  0.24667560  0.00124824  1
  Fe  Fe85  1  0.87671634  0.62404415  0.62624096  1
  Fe  Fe86  1  0.62187720  0.62708123  0.87658158  1
  Fe  Fe87  1  0.37467309  0.12163336  0.12698627  1
  Fe  Fe88  1  0.12324874  0.11988821  0.12770713  1
  Fe  Fe89  1  0.00320727  0.50069440  0.49765379  1
  Co  Co90  1  0.74579426  0.25081363  0.24754414  1
  Co  Co91  1  0.12381997  0.62948487  0.87734956  1
  Co  Co92  1  0.37128530  0.87442228  0.62293797  1
  Co  Co93  1  0.12546725  0.62675678  0.37138639  1
  Co  Co94  1  0.62474616  0.37220177  0.88215169  1
  Co  Co95  1  0.49968810  0.49500072  0.25031778  1
  Co  Co96  1  0.87857966  0.62259509  0.12448621  1
  Co  Co97  1  0.12791318  0.37671174  0.12260646  1
  Co  Co98  1  0.37263514  0.87705537  0.12346219  1
  Co  Co99  1  0.49368695  0.75192319  -0.00194323  1
  Co  Co100  1  0.49864863  0.50318484  -0.00176631  1
  Co  Co101  1  0.87635067  0.12497046  0.12878377  1
  Co  Co102  1  0.87764448  0.12713847  0.87474105  1
  Co  Co103  1  0.00438372  0.25178649  0.24754160  1
  Co  Co104  1  0.62724083  0.37413300  0.62212131  1
  Co  Co105  1  0.24996076  0.00302229  0.00133036  1
  Co  Co106  1  0.12798671  0.37299976  0.37500703  1
  Co  Co107  1  0.49620099  0.24578808  0.00068320  1
  Co  Co108  1  0.62834859  0.87582029  0.62505958  1
  Co  Co109  1  0.00026068  -0.00358153  0.25030125  1
  Co  Co110  1  0.62625061  0.87398105  0.12331127  1
  Co  Co111  1  0.62200066  0.12448407  0.37373560  1
  Co  Co112  1  0.49685224  0.75604671  0.25060482  1
  Co  Co113  1  0.75207013  0.00328846  -0.00110735  1
  Co  Co114  1  0.24991543  0.24847315  0.50213539  1
  Co  Co115  1  0.37281527  0.37663208  0.62640807  1
  Co  Co116  1  0.87105789  0.87686624  0.12573265  1
  Co  Co117  1  0.25063857  -0.00023568  0.25206963  1
  Co  Co118  1  0.12925645  0.87583258  0.12298400  1
  Co  Co119  1  0.12628297  0.37030445  0.87855509  1
  Co  Co120  1  0.12541988  0.37594605  0.62396808  1
  Co  Co121  1  0.37835801  0.62322849  0.12807589  1
  Co  Co122  1  0.24937754  0.00066809  0.74786239  1
  Co  Co123  1  0.87209052  0.87264072  0.87661102  1
  Co  Co124  1  0.25050820  0.50352274  -0.00261675  1
  Co  Co125  1  0.37757674  0.62228722  0.87023160  1
  Co  Co126  1  0.12807451  0.87695851  0.87834404  1
  Co  Co127  1  0.37381086  0.88246988  0.87699383  1
