# generated using pymatgen
data_Fe45Co19
_symmetry_space_group_name_H-M   'P 1'
_cell_length_a   11.41573030
_cell_length_b   11.41495902
_cell_length_c   11.41466873
_cell_angle_alpha   90.00542381
_cell_angle_beta   89.99511917
_cell_angle_gamma   90.00611700
_symmetry_Int_Tables_number   1
_chemical_formula_structural   Fe45Co19
_chemical_formula_sum   'Fe90 Co38'
_cell_volume   1487.44652917
_cell_formula_units_Z   2
loop_
 _symmetry_equiv_pos_site_id
 _symmetry_equiv_pos_as_xyz
  1  'x, y, z'
loop_
 _atom_site_type_symbol
 _atom_site_label
 _atom_site_symmetry_multiplicity
 _atom_site_fract_x
 _atom_site_fract_y
 _atom_site_fract_z
 _atom_site_occupancy
  Fe  Fe0  1  0.49624844  0.24703623  -0.00230634  1
  Fe  Fe1  1  0.00011067  0.25318277  0.49814212  1
  Fe  Fe2  1  0.37380830  0.37570385  0.37477673  1
  Fe  Fe3  1  0.87451865  0.37632867  0.87456824  1
  Fe  Fe4  1  -0.00093287  -0.00025605  -0.00094314  1
  Fe  Fe5  1  0.74860616  -0.00198466  0.25181512  1
  Fe  Fe6  1  0.12508761  0.87642154  0.87383029  1
  Fe  Fe7  1  0.49978540  -0.00128510  0.74808450  1
  Fe  Fe8  1  -0.00101154  -0.00281662  0.50285812  1
  Fe  Fe9  1  0.62535050  0.87541033  0.87553818  1
  Fe  Fe10  1  0.00130241  -0.00147784  0.25061985  1
  Fe  Fe11  1  0.00305826  0.50141873  0.25038847  1
  Fe  Fe12  1  0.00009872  0.74856270  -0.00066208  1
  Fe  Fe13  1  0.62223567  0.12325440  0.12431771  1
  Fe  Fe14  1  -0.00125242  0.50116191  0.74596774  1
  Fe  Fe15  1  0.37647426  0.12773777  0.62769134  1
  Fe  Fe16  1  0.00460022  0.74720402  0.25384315  1
  Fe  Fe17  1  0.74705630  0.50276905  0.74673397  1
  Fe  Fe18  1  0.62228477  0.87517883  0.12556936  1
  Fe  Fe19  1  0.49966683  0.24937413  0.25031190  1
  Fe  Fe20  1  0.87721418  0.12468753  0.37562630  1
  Fe  Fe21  1  0.74882491  0.74686689  0.00077042  1
  Fe  Fe22  1  0.25183507  0.50190095  0.74656576  1
  Fe  Fe23  1  0.62270682  0.37660655  0.12384602  1
  Fe  Fe24  1  0.37457467  0.12152736  0.37448101  1
  Fe  Fe25  1  0.87475612  0.87109260  0.37727539  1
  Fe  Fe26  1  0.00023478  0.25176694  -0.00019321  1
  Fe  Fe27  1  0.24983410  0.74788821  -0.00338431  1
  Fe  Fe28  1  0.37264025  0.37682684  0.12547482  1
  Fe  Fe29  1  0.12654481  0.87274036  0.12431037  1
  Fe  Fe30  1  0.49962071  0.50218556  -0.00174354  1
  Fe  Fe31  1  0.74848101  0.50049239  0.24945455  1
  Fe  Fe32  1  0.37331567  0.88016439  0.37883963  1
  Fe  Fe33  1  0.87685448  0.87272550  0.12607408  1
  Fe  Fe34  1  0.12486276  0.12571071  0.87238274  1
  Fe  Fe35  1  0.74899328  0.25043232  0.24964779  1
  Fe  Fe36  1  0.87740179  0.63012144  0.62008956  1
  Fe  Fe37  1  0.62280273  0.12217710  0.37532359  1
  Fe  Fe38  1  0.62322235  0.37674765  0.37678650  1
  Fe  Fe39  1  0.50094761  0.24896972  0.49965332  1
  Fe  Fe40  1  0.74811091  0.74949261  0.25250272  1
  Fe  Fe41  1  0.62493245  0.37744434  0.87359151  1
  Fe  Fe42  1  0.25286349  0.00145169  -0.00011431  1
  Fe  Fe43  1  0.87470303  0.87304293  0.87319726  1
  Fe  Fe44  1  0.12178789  0.12688321  0.62510362  1
  Fe  Fe45  1  0.49912539  0.75260771  0.50148211  1
  Fe  Fe46  1  0.49851872  0.50107382  0.25060496  1
  Fe  Fe47  1  0.00409202  0.75015988  0.74692348  1
  Fe  Fe48  1  0.12678102  0.12397666  0.12586440  1
  Fe  Fe49  1  0.37483797  0.87405505  0.87140210  1
  Fe  Fe50  1  0.50125035  0.74909482  -0.00092347  1
  Fe  Fe51  1  0.25016757  -0.00031273  0.74688345  1
  Fe  Fe52  1  0.62640978  0.12628771  0.62379817  1
  Fe  Fe53  1  0.12967132  0.37911177  0.12443639  1
  Fe  Fe54  1  -0.00026430  0.50030029  0.00113457  1
  Fe  Fe55  1  0.74712176  0.74825124  0.74780903  1
  Fe  Fe56  1  0.37574021  0.37417112  0.87060530  1
  Fe  Fe57  1  0.12509380  0.62326482  0.87417099  1
  Fe  Fe58  1  0.87563512  0.12501529  0.12541658  1
  Fe  Fe59  1  0.37311130  0.62308436  0.38008429  1
  Fe  Fe60  1  0.12524571  0.37621471  0.87216627  1
  Fe  Fe61  1  0.62371202  0.62537673  0.37718425  1
  Fe  Fe62  1  0.49814733  0.75035720  0.25206655  1
  Fe  Fe63  1  0.87231689  0.37202979  0.62572501  1
  Fe  Fe64  1  0.12723021  0.61827427  0.38427591  1
  Fe  Fe65  1  0.12939427  0.87928002  0.37895812  1
  Fe  Fe66  1  -0.00404323  0.00094994  0.74816743  1
  Fe  Fe67  1  0.87543961  0.37682042  0.37223746  1
  Fe  Fe68  1  0.24901342  0.74777088  0.25382908  1
  Fe  Fe69  1  0.75081761  -0.00202374  0.49945927  1
  Fe  Fe70  1  0.74984317  0.25048392  0.49712961  1
  Fe  Fe71  1  0.00318453  0.25141521  0.25111091  1
  Fe  Fe72  1  0.37234270  0.62426313  0.12493137  1
  Fe  Fe73  1  0.75091146  0.24763491  0.75122638  1
  Fe  Fe74  1  0.87492897  0.62415967  0.12681109  1
  Fe  Fe75  1  0.37841212  0.37034009  0.62849513  1
  Fe  Fe76  1  0.37385036  0.87564732  0.12581822  1
  Fe  Fe77  1  0.75197084  -0.00141363  0.00038339  1
  Fe  Fe78  1  0.25215786  0.24859032  -0.00255856  1
  Fe  Fe79  1  0.87349069  0.62473676  0.87419888  1
  Fe  Fe80  1  0.12421865  0.37606072  0.62464288  1
  Fe  Fe81  1  0.75046718  0.50187468  0.50078072  1
  Fe  Fe82  1  0.24831293  0.25003620  0.49909281  1
  Fe  Fe83  1  0.24830936  0.24927934  0.25291086  1
  Fe  Fe84  1  0.62434083  0.12286113  0.87652112  1
  Fe  Fe85  1  0.62658712  0.87488270  0.62275756  1
  Fe  Fe86  1  0.49837307  0.49886636  0.50556802  1
  Fe  Fe87  1  0.75396010  0.00163856  0.74859059  1
  Fe  Fe88  1  0.75173817  0.25206498  0.00139158  1
  Fe  Fe89  1  0.37900196  0.62696146  0.86807512  1
  Co  Co90  1  0.50025063  -0.00148521  0.25006472  1
  Co  Co91  1  0.50478188  0.24858799  0.75142922  1
  Co  Co92  1  0.37222111  0.87151682  0.62575798  1
  Co  Co93  1  0.87533032  0.62573100  0.37591042  1
  Co  Co94  1  0.62354180  0.62431384  0.87386840  1
  Co  Co95  1  0.12832167  0.62475577  0.12261870  1
  Co  Co96  1  0.37468376  0.12472684  0.12825948  1
  Co  Co97  1  0.25024060  0.50284465  0.25237609  1
  Co  Co98  1  0.87493076  0.12768528  0.62098855  1
  Co  Co99  1  0.87434359  0.87064491  0.62506677  1
  Co  Co100  1  0.62106134  0.62662129  0.62307399  1
  Co  Co101  1  0.74946880  0.50087050  0.00060483  1
  Co  Co102  1  -0.00233408  0.25035494  0.75018289  1
  Co  Co103  1  0.74773423  0.74966803  0.49968230  1
  Co  Co104  1  0.00450836  0.75279455  0.49866254  1
  Co  Co105  1  0.12675884  0.38001065  0.37750071  1
  Co  Co106  1  0.25692071  0.49581961  0.50684348  1
  Co  Co107  1  0.25304446  0.50184057  -0.00550081  1
  Co  Co108  1  0.24747410  0.25123596  0.74892781  1
  Co  Co109  1  0.37398134  0.12472235  0.86906360  1
  Co  Co110  1  0.62655021  0.37189716  0.62387521  1
  Co  Co111  1  0.25126341  0.00382943  0.50558289  1
  Co  Co112  1  0.24486877  0.74845301  0.74982646  1
  Co  Co113  1  0.12677376  0.87550999  0.62522378  1
  Co  Co114  1  0.12604874  0.62259515  0.61955158  1
  Co  Co115  1  0.49590828  0.00038384  -0.00149860  1
  Co  Co116  1  0.49912866  0.00010033  0.50397914  1
  Co  Co117  1  0.24903845  0.75105558  0.50113881  1
  Co  Co118  1  -0.00527179  0.49703749  0.50241721  1
  Co  Co119  1  0.62236666  0.87464282  0.37669426  1
  Co  Co120  1  0.87588958  0.37655598  0.12705081  1
  Co  Co121  1  0.37572127  0.63081525  0.62774557  1
  Co  Co122  1  0.12384567  0.12203671  0.37712258  1
  Co  Co123  1  0.50170329  0.49862671  0.74578404  1
  Co  Co124  1  0.87594679  0.12631050  0.87751514  1
  Co  Co125  1  0.50429579  0.75415221  0.74831074  1
  Co  Co126  1  0.24907858  -0.00039898  0.24899966  1
  Co  Co127  1  0.62344945  0.62469018  0.12695287  1
