# generated using pymatgen
data_Fe45Co19
_symmetry_space_group_name_H-M   'P 1'
_cell_length_a   11.41465568
_cell_length_b   11.41432368
_cell_length_c   11.41418895
_cell_angle_alpha   89.98822714
_cell_angle_beta   90.00640448
_cell_angle_gamma   89.99943017
_symmetry_Int_Tables_number   1
_chemical_formula_structural   Fe45Co19
_chemical_formula_sum   'Fe90 Co38'
_cell_volume   1487.16119609
_cell_formula_units_Z   2
loop_
 _symmetry_equiv_pos_site_id
 _symmetry_equiv_pos_as_xyz
  1  'x, y, z'
loop_
 _atom_site_type_symbol
 _atom_site_label
 _atom_site_symmetry_multiplicity
 _atom_site_fract_x
 _atom_site_fract_y
 _atom_site_fract_z
 _atom_site_occupancy
  Fe  Fe0  1  0.50050267  0.75186926  0.49900671  1
  Fe  Fe1  1  0.75317920  0.00109551  0.75020017  1
  Fe  Fe2  1  0.37663147  0.37455630  0.37431181  1
  Fe  Fe3  1  0.12319899  0.62674236  0.62454367  1
  Fe  Fe4  1  0.87500924  0.87004680  0.62493898  1
  Fe  Fe5  1  0.24821159  0.75173747  0.74900538  1
  Fe  Fe6  1  -0.00011554  0.24745305  0.25024318  1
  Fe  Fe7  1  0.37533501  0.87650020  0.37282164  1
  Fe  Fe8  1  0.25386312  0.75020357  0.24635261  1
  Fe  Fe9  1  0.50235429  0.24948592  0.50171382  1
  Fe  Fe10  1  0.75107051  0.24803290  0.74956206  1
  Fe  Fe11  1  0.12581852  0.62534029  0.87597057  1
  Fe  Fe12  1  0.74821636  -0.00162984  0.50219579  1
  Fe  Fe13  1  0.62443181  0.62378485  0.12309840  1
  Fe  Fe14  1  0.12301861  0.87438632  0.87594534  1
  Fe  Fe15  1  0.50112707  0.00088590  0.75276001  1
  Fe  Fe16  1  0.25112076  0.75268048  0.00325352  1
  Fe  Fe17  1  0.25119215  0.24874522  0.25008795  1
  Fe  Fe18  1  -0.00135871  0.74866601  0.25019010  1
  Fe  Fe19  1  0.25016618  0.49742021  0.75261696  1
  Fe  Fe20  1  0.12370550  0.12408656  0.62445292  1
  Fe  Fe21  1  0.49746850  0.74588247  0.24755234  1
  Fe  Fe22  1  0.62505688  0.12361819  0.37613902  1
  Fe  Fe23  1  0.87441220  0.37430077  0.62359996  1
  Fe  Fe24  1  0.74686567  0.50491824  0.74539097  1
  Fe  Fe25  1  0.87238651  0.62759650  0.37599071  1
  Fe  Fe26  1  -0.00247046  0.00090528  0.75126632  1
  Fe  Fe27  1  -0.00085492  -0.00241803  0.49981441  1
  Fe  Fe28  1  0.50005545  0.50019248  0.50021515  1
  Fe  Fe29  1  -0.00162081  0.50215437  0.25038981  1
  Fe  Fe30  1  0.50189031  0.24852855  0.75101822  1
  Fe  Fe31  1  0.87371532  0.12544170  0.37676850  1
  Fe  Fe32  1  0.87194680  0.12724318  0.12115340  1
  Fe  Fe33  1  -0.00102237  0.50152955  0.00115988  1
  Fe  Fe34  1  0.12359931  0.37536033  0.12627441  1
  Fe  Fe35  1  0.00059358  -0.00044994  0.00224233  1
  Fe  Fe36  1  0.62561016  0.62609029  0.37488593  1
  Fe  Fe37  1  0.75331190  0.74958623  -0.00148703  1
  Fe  Fe38  1  0.37659488  0.62537992  0.62687006  1
  Fe  Fe39  1  0.49922047  0.00208667  0.24956309  1
  Fe  Fe40  1  0.74798892  0.25325302  0.24650597  1
  Fe  Fe41  1  0.75117130  -0.00135101  0.24729885  1
  Fe  Fe42  1  0.62299195  0.87332066  0.12377976  1
  Fe  Fe43  1  0.24924768  -0.00032841  0.75009260  1
  Fe  Fe44  1  0.25027269  0.25337260  -0.00142492  1
  Fe  Fe45  1  0.37693691  0.12344846  0.62451233  1
  Fe  Fe46  1  0.63025110  0.12549320  0.87775312  1
  Fe  Fe47  1  0.25108197  -0.00168660  0.50011859  1
  Fe  Fe48  1  0.74803531  0.24903993  0.50298854  1
  Fe  Fe49  1  0.87306129  0.87310314  0.37455786  1
  Fe  Fe50  1  0.49679301  0.50340557  -0.00585396  1
  Fe  Fe51  1  0.37312303  0.12565634  0.87592824  1
  Fe  Fe52  1  0.24938161  0.24928701  0.49986596  1
  Fe  Fe53  1  0.37711606  0.37558489  0.62917919  1
  Fe  Fe54  1  -0.00267371  0.74881103  0.75360629  1
  Fe  Fe55  1  0.87435059  0.37381620  0.37517666  1
  Fe  Fe56  1  0.37543088  0.87368268  0.87631158  1
  Fe  Fe57  1  0.00084540  0.50112077  0.74846116  1
  Fe  Fe58  1  0.37748476  0.87504077  0.62761193  1
  Fe  Fe59  1  0.25362320  0.50160276  0.25039581  1
  Fe  Fe60  1  -0.00078267  0.25149746  -0.00073989  1
  Fe  Fe61  1  0.12506325  0.62600139  0.12454094  1
  Fe  Fe62  1  0.74980461  0.49868422  0.24704291  1
  Fe  Fe63  1  0.50116201  0.24955243  0.24819396  1
  Fe  Fe64  1  0.25039990  0.50011642  0.50050728  1
  Fe  Fe65  1  -0.00034716  0.50065936  0.49929112  1
  Fe  Fe66  1  0.87659167  0.87213673  0.12364545  1
  Fe  Fe67  1  0.87518683  0.37694730  0.87320076  1
  Fe  Fe68  1  0.24777976  -0.00313766  0.00286229  1
  Fe  Fe69  1  0.75379351  0.49634702  0.00420324  1
  Fe  Fe70  1  0.12464110  0.87737837  0.36964084  1
  Fe  Fe71  1  0.74917983  0.50281446  0.50239185  1
  Fe  Fe72  1  0.50327111  0.74504863  0.75592807  1
  Fe  Fe73  1  0.12750866  0.62600525  0.37463355  1
  Fe  Fe74  1  0.12493054  0.37334855  0.62558159  1
  Fe  Fe75  1  0.37911187  0.37735852  0.12451921  1
  Fe  Fe76  1  0.62523449  0.87365473  0.62794403  1
  Fe  Fe77  1  0.24775967  0.75283172  0.50148573  1
  Fe  Fe78  1  -0.00137618  0.24807811  0.74999488  1
  Fe  Fe79  1  0.62425278  0.37577570  0.87547386  1
  Fe  Fe80  1  0.12455055  0.37584549  0.37365640  1
  Fe  Fe81  1  0.62808437  0.12560990  0.12161967  1
  Fe  Fe82  1  0.62506252  0.37642777  0.37450140  1
  Fe  Fe83  1  0.12531995  0.12616244  0.87587182  1
  Fe  Fe84  1  0.50157148  0.00010894  -0.00158428  1
  Fe  Fe85  1  0.62813118  0.87372957  0.87582876  1
  Fe  Fe86  1  0.25056013  0.49717063  -0.00301478  1
  Fe  Fe87  1  0.62550249  0.87468591  0.37248050  1
  Fe  Fe88  1  0.37350846  0.12374052  0.12354051  1
  Fe  Fe89  1  0.12427938  0.12204644  0.37281710  1
  Co  Co90  1  0.12176969  0.37406553  0.87426637  1
  Co  Co91  1  0.24939627  0.24980448  0.75021891  1
  Co  Co92  1  0.37944771  0.87746264  0.12421825  1
  Co  Co93  1  0.87325985  0.62044342  0.87443459  1
  Co  Co94  1  0.74999081  -0.00401391  0.00144909  1
  Co  Co95  1  0.49959944  0.74809265  -0.00229336  1
  Co  Co96  1  0.25222026  0.00060738  0.24833358  1
  Co  Co97  1  0.36936617  0.62816511  0.87357112  1
  Co  Co98  1  0.00179068  0.25158491  0.49911151  1
  Co  Co99  1  0.12640917  0.12618580  0.12477293  1
  Co  Co100  1  0.87435166  0.62698729  0.12604657  1
  Co  Co101  1  0.62125126  0.62760733  0.62302141  1
  Co  Co102  1  0.37345793  0.62672332  0.37877913  1
  Co  Co103  1  0.87483055  0.87611995  0.87567151  1
  Co  Co104  1  0.63139024  0.62304872  0.88026922  1
  Co  Co105  1  0.50013131  0.24745618  -0.00060690  1
  Co  Co106  1  0.50132026  -0.00276202  0.49989904  1
  Co  Co107  1  0.74877191  0.75014917  0.24755059  1
  Co  Co108  1  0.62417900  0.12217717  0.62596475  1
  Co  Co109  1  0.37861721  0.37290316  0.87250161  1
  Co  Co110  1  0.12178348  0.87599167  0.62745383  1
  Co  Co111  1  0.87742472  0.62843922  0.62334612  1
  Co  Co112  1  0.75052610  0.74669633  0.75147937  1
  Co  Co113  1  0.61805704  0.37878598  0.12308771  1
  Co  Co114  1  0.87302339  0.12473677  0.87984964  1
  Co  Co115  1  0.75003002  0.25703023  0.00102299  1
  Co  Co116  1  -0.00180948  0.74749356  -0.00252895  1
  Co  Co117  1  0.74723597  0.74976393  0.50098012  1
  Co  Co118  1  0.50201080  0.50413739  0.75337424  1
  Co  Co119  1  0.87953139  0.37338288  0.12790675  1
  Co  Co120  1  0.37504299  0.62226909  0.12175002  1
  Co  Co121  1  0.87589194  0.12537949  0.62230959  1
  Co  Co122  1  0.12165853  0.87350248  0.12817665  1
  Co  Co123  1  0.00287191  0.75090075  0.49700600  1
  Co  Co124  1  0.49908997  0.50379705  0.25315582  1
  Co  Co125  1  0.37700550  0.12512212  0.37662227  1
  Co  Co126  1  0.62469296  0.37554232  0.62642658  1
  Co  Co127  1  -0.00530679  0.00188508  0.24639793  1
