# generated using pymatgen
data_Fe45Co19
_symmetry_space_group_name_H-M   'P 1'
_cell_length_a   11.41547461
_cell_length_b   11.41452533
_cell_length_c   11.41462125
_cell_angle_alpha   90.00337083
_cell_angle_beta   90.00517990
_cell_angle_gamma   89.99547767
_symmetry_Int_Tables_number   1
_chemical_formula_structural   Fe45Co19
_chemical_formula_sum   'Fe90 Co38'
_cell_volume   1487.35052407
_cell_formula_units_Z   2
loop_
 _symmetry_equiv_pos_site_id
 _symmetry_equiv_pos_as_xyz
  1  'x, y, z'
loop_
 _atom_site_type_symbol
 _atom_site_label
 _atom_site_symmetry_multiplicity
 _atom_site_fract_x
 _atom_site_fract_y
 _atom_site_fract_z
 _atom_site_occupancy
  Fe  Fe0  1  0.75056842  -0.00014221  0.50026351  1
  Fe  Fe1  1  0.62687571  0.12842732  0.87746501  1
  Fe  Fe2  1  0.49987782  0.00240033  0.25025170  1
  Fe  Fe3  1  0.50176009  0.00091224  0.00048029  1
  Fe  Fe4  1  0.00282583  0.49713361  0.00063299  1
  Fe  Fe5  1  0.62341596  0.62345471  0.87295595  1
  Fe  Fe6  1  0.37531233  0.37544530  0.87527030  1
  Fe  Fe7  1  0.62675046  0.62481068  0.37606831  1
  Fe  Fe8  1  0.37658615  0.62482764  0.87413718  1
  Fe  Fe9  1  0.24888960  0.25265950  -0.00035526  1
  Fe  Fe10  1  0.00341916  0.24874029  0.49859371  1
  Fe  Fe11  1  0.49962004  0.49962749  0.00099516  1
  Fe  Fe12  1  0.50186971  0.75087228  0.50289859  1
  Fe  Fe13  1  0.49818108  0.25014041  0.74965159  1
  Fe  Fe14  1  0.24802309  0.74804753  0.24970371  1
  Fe  Fe15  1  0.74880895  0.49891063  0.25023496  1
  Fe  Fe16  1  0.50007940  0.74874365  0.24958125  1
  Fe  Fe17  1  0.24483256  0.49645694  0.49647399  1
  Fe  Fe18  1  0.50111990  0.00014640  0.50022821  1
  Fe  Fe19  1  0.24886135  0.75134631  0.49966853  1
  Fe  Fe20  1  0.62697561  0.37287947  0.12484412  1
  Fe  Fe21  1  0.12482234  0.87200351  0.12483276  1
  Fe  Fe22  1  -0.00127610  0.74737516  0.74965874  1
  Fe  Fe23  1  0.87778977  0.37679338  0.62610550  1
  Fe  Fe24  1  0.12426153  0.13073774  0.12447876  1
  Fe  Fe25  1  0.87546846  0.62175393  0.12460383  1
  Fe  Fe26  1  0.24990562  0.49928176  0.74969838  1
  Fe  Fe27  1  0.37522907  0.87582987  0.62658174  1
  Fe  Fe28  1  0.12310631  0.87486437  0.37354902  1
  Fe  Fe29  1  0.62709063  0.12791414  0.37425470  1
  Fe  Fe30  1  0.12162203  0.37505107  0.62767662  1
  Fe  Fe31  1  0.24597785  -0.00253780  0.75188721  1
  Fe  Fe32  1  0.87313504  0.87636684  0.12386571  1
  Fe  Fe33  1  0.37345475  0.62487085  0.12509469  1
  Fe  Fe34  1  0.00259548  0.00091867  0.75120430  1
  Fe  Fe35  1  0.37227955  0.12880067  0.37840111  1
  Fe  Fe36  1  0.62619858  0.37602805  0.62642418  1
  Fe  Fe37  1  0.37479875  0.87399051  0.12430154  1
  Fe  Fe38  1  0.24672989  0.49916081  0.25170867  1
  Fe  Fe39  1  -0.00151088  0.00225991  0.24697710  1
  Fe  Fe40  1  -0.00097132  0.74895054  0.49964328  1
  Fe  Fe41  1  0.50124484  0.49751938  0.49889226  1
  Fe  Fe42  1  -0.00011569  0.74894765  0.00255683  1
  Fe  Fe43  1  0.25010492  0.75241190  0.75295293  1
  Fe  Fe44  1  0.00286333  0.00214894  0.50099456  1
  Fe  Fe45  1  0.50025520  0.00121025  0.74970071  1
  Fe  Fe46  1  0.49903457  0.74925719  0.00059399  1
  Fe  Fe47  1  0.37435385  0.62401611  0.37568378  1
  Fe  Fe48  1  0.12473026  0.62483494  0.62420112  1
  Fe  Fe49  1  0.87771020  0.37940300  0.87420667  1
  Fe  Fe50  1  0.87408107  0.61974758  0.62348114  1
  Fe  Fe51  1  0.24867547  0.25031936  0.75028429  1
  Fe  Fe52  1  0.37282740  0.12661773  0.62297329  1
  Fe  Fe53  1  0.75201095  0.74872057  0.24915652  1
  Fe  Fe54  1  0.74961316  0.49947853  -0.00131010  1
  Fe  Fe55  1  0.24744675  -0.00339614  -0.00165418  1
  Fe  Fe56  1  0.75295891  0.25124520  0.75310934  1
  Fe  Fe57  1  0.62613540  0.87490081  0.12695293  1
  Fe  Fe58  1  0.87465458  0.12473675  0.37516509  1
  Fe  Fe59  1  0.37325754  0.12426609  0.87594825  1
  Fe  Fe60  1  0.87556970  0.62388924  0.37560496  1
  Fe  Fe61  1  0.37485267  0.37318960  0.62124053  1
  Fe  Fe62  1  0.37433105  0.62389080  0.62429948  1
  Fe  Fe63  1  0.62700398  0.12632707  0.62491820  1
  Fe  Fe64  1  0.37437199  0.87510594  0.37455097  1
  Fe  Fe65  1  0.75172237  0.74829757  0.74969825  1
  Fe  Fe66  1  0.87466126  0.87506690  0.37469296  1
  Fe  Fe67  1  0.75115492  0.00073686  0.75186402  1
  Fe  Fe68  1  0.62278512  0.37510209  0.87457111  1
  Fe  Fe69  1  0.24969405  0.00161340  0.24898652  1
  Fe  Fe70  1  0.62748895  0.87461167  0.37498556  1
  Fe  Fe71  1  0.87728475  0.87681905  0.87706895  1
  Fe  Fe72  1  0.87142216  0.12601599  0.11886589  1
  Fe  Fe73  1  0.12409065  0.62510208  0.87632351  1
  Fe  Fe74  1  0.24529055  0.00119782  0.50115948  1
  Fe  Fe75  1  0.37402344  0.12552082  0.12267079  1
  Fe  Fe76  1  0.62906944  0.12878777  0.12340496  1
  Fe  Fe77  1  0.00469028  0.50148874  0.25032551  1
  Fe  Fe78  1  0.49808874  0.25007308  0.24993642  1
  Fe  Fe79  1  0.87524717  0.87622101  0.62470992  1
  Fe  Fe80  1  0.75015049  0.74873043  -0.00069666  1
  Fe  Fe81  1  0.75085797  0.25330632  0.49913443  1
  Fe  Fe82  1  0.62752932  0.62179851  0.62633419  1
  Fe  Fe83  1  0.50035971  0.49942676  0.25039917  1
  Fe  Fe84  1  0.87603022  0.12605314  0.62662313  1
  Fe  Fe85  1  0.87737191  0.37602587  0.37355545  1
  Fe  Fe86  1  0.62307857  0.87365053  0.87282694  1
  Fe  Fe87  1  0.00056743  0.24830887  0.75591998  1
  Fe  Fe88  1  0.24745378  0.49948390  0.00146790  1
  Fe  Fe89  1  0.37396829  0.37564796  0.12617708  1
  Co  Co90  1  0.00313856  0.49932807  0.49815600  1
  Co  Co91  1  0.12368608  0.37123956  0.12770929  1
  Co  Co92  1  0.87684740  0.62356433  0.87817223  1
  Co  Co93  1  0.75499479  0.25475315  -0.00353738  1
  Co  Co94  1  0.00262971  0.00134768  0.00346174  1
  Co  Co95  1  0.75209558  0.49941524  0.75194792  1
  Co  Co96  1  0.12015633  0.87291364  0.87649891  1
  Co  Co97  1  0.12503377  0.12641546  0.37074435  1
  Co  Co98  1  -0.00138084  0.74972474  0.24878336  1
  Co  Co99  1  0.49720757  0.49832610  0.74850682  1
  Co  Co100  1  0.12444135  0.62804428  0.37592463  1
  Co  Co101  1  0.12558871  0.12560100  0.87721807  1
  Co  Co102  1  0.74692812  -0.00166146  -0.00159125  1
  Co  Co103  1  0.12601933  0.37610307  0.87388790  1
  Co  Co104  1  0.50271776  0.25066824  0.50055494  1
  Co  Co105  1  0.12406766  0.12645584  0.62828667  1
  Co  Co106  1  0.87627274  0.37834892  0.12635298  1
  Co  Co107  1  0.25380535  0.25044406  0.24943410  1
  Co  Co108  1  -0.00268929  0.25287341  -0.00221788  1
  Co  Co109  1  0.12489736  0.62575579  0.12364801  1
  Co  Co110  1  -0.00617626  0.24679443  0.24735155  1
  Co  Co111  1  0.62466352  0.37379176  0.37208582  1
  Co  Co112  1  0.87621070  0.12112476  0.87792711  1
  Co  Co113  1  0.00059428  0.50294638  0.75077998  1
  Co  Co114  1  0.37449508  0.37335980  0.37644397  1
  Co  Co115  1  0.12335887  0.87278653  0.62509406  1
  Co  Co116  1  0.75074307  0.49642948  0.49893692  1
  Co  Co117  1  0.37798997  0.87617212  0.87510032  1
  Co  Co118  1  0.75104049  0.00121447  0.24944735  1
  Co  Co119  1  0.12309198  0.36872101  0.36975483  1
  Co  Co120  1  0.49762773  0.25039643  0.00079138  1
  Co  Co121  1  0.25105492  0.75020221  -0.00229650  1
  Co  Co122  1  0.75379887  0.25110259  0.25030773  1
  Co  Co123  1  0.24351841  0.25140704  0.50107188  1
  Co  Co124  1  0.62604309  0.62420828  0.12463069  1
  Co  Co125  1  0.49987146  0.74912035  0.74633688  1
  Co  Co126  1  0.75118632  0.74924900  0.50191877  1
  Co  Co127  1  0.62701522  0.87718213  0.62587526  1
