# generated using pymatgen
data_Fe45Co19
_symmetry_space_group_name_H-M   'P 1'
_cell_length_a   11.41505084
_cell_length_b   11.41495293
_cell_length_c   11.41593222
_cell_angle_alpha   89.99021148
_cell_angle_beta   90.01323017
_cell_angle_gamma   90.00143363
_symmetry_Int_Tables_number   1
_chemical_formula_structural   Fe45Co19
_chemical_formula_sum   'Fe90 Co38'
_cell_volume   1487.52179884
_cell_formula_units_Z   2
loop_
 _symmetry_equiv_pos_site_id
 _symmetry_equiv_pos_as_xyz
  1  'x, y, z'
loop_
 _atom_site_type_symbol
 _atom_site_label
 _atom_site_symmetry_multiplicity
 _atom_site_fract_x
 _atom_site_fract_y
 _atom_site_fract_z
 _atom_site_occupancy
  Fe  Fe0  1  0.49945373  -0.00134616  0.24899501  1
  Fe  Fe1  1  0.62621114  0.62426679  0.87380319  1
  Fe  Fe2  1  0.00142214  0.24526662  0.00604822  1
  Fe  Fe3  1  0.74986450  0.74820793  0.00106420  1
  Fe  Fe4  1  0.87356157  0.37624176  0.12410798  1
  Fe  Fe5  1  0.62447719  0.87612698  0.87505799  1
  Fe  Fe6  1  0.75071807  0.75007533  0.49827676  1
  Fe  Fe7  1  0.74727328  0.25066167  -0.00128794  1
  Fe  Fe8  1  0.12560054  0.87672403  0.12153862  1
  Fe  Fe9  1  0.13057202  0.62448083  0.37217144  1
  Fe  Fe10  1  0.25117351  0.24999838  0.75009940  1
  Fe  Fe11  1  0.75193195  0.75225750  0.74855809  1
  Fe  Fe12  1  0.37638681  0.37412702  0.87672098  1
  Fe  Fe13  1  0.00293097  0.74900546  0.49870327  1
  Fe  Fe14  1  0.00179400  0.24866584  0.50145625  1
  Fe  Fe15  1  -0.00060033  -0.00024069  0.74896633  1
  Fe  Fe16  1  0.74884049  0.50099896  0.49659139  1
  Fe  Fe17  1  0.12344888  0.12505578  0.87410768  1
  Fe  Fe18  1  0.87436351  0.62420110  0.87536471  1
  Fe  Fe19  1  0.12954972  0.62784244  0.62654305  1
  Fe  Fe20  1  -0.00189301  0.49592831  0.74804481  1
  Fe  Fe21  1  0.12770754  0.62417942  0.12690354  1
  Fe  Fe22  1  -0.00190148  0.00392581  0.24636142  1
  Fe  Fe23  1  0.75337741  0.49600760  0.75083895  1
  Fe  Fe24  1  0.12682478  0.37364800  0.62440973  1
  Fe  Fe25  1  0.12500107  0.62682857  0.87421461  1
  Fe  Fe26  1  0.12342728  0.87389281  0.88044266  1
  Fe  Fe27  1  0.49721576  0.25079825  0.24918211  1
  Fe  Fe28  1  0.62449710  0.37741155  0.12696542  1
  Fe  Fe29  1  0.75005786  0.00093058  0.25384615  1
  Fe  Fe30  1  0.49844093  0.75079041  0.74986752  1
  Fe  Fe31  1  0.24885054  0.24882711  0.00216552  1
  Fe  Fe32  1  0.62601758  0.62498257  0.62552830  1
  Fe  Fe33  1  0.87808670  0.37336000  0.37762651  1
  Fe  Fe34  1  0.25388874  0.49877300  0.50086402  1
  Fe  Fe35  1  0.74880570  0.00086746  0.49792743  1
  Fe  Fe36  1  0.37382334  0.62585995  0.87366940  1
  Fe  Fe37  1  0.87459040  0.87655526  0.12260038  1
  Fe  Fe38  1  0.62267638  0.37588782  0.87460753  1
  Fe  Fe39  1  0.25407661  0.25059616  0.49784048  1
  Fe  Fe40  1  0.75229854  0.25310410  0.74980769  1
  Fe  Fe41  1  0.37790382  0.12404765  0.37655335  1
  Fe  Fe42  1  0.37609886  0.12435022  0.87601541  1
  Fe  Fe43  1  0.75077622  0.25036964  0.25443262  1
  Fe  Fe44  1  0.24927216  0.49871778  -0.00044398  1
  Fe  Fe45  1  0.49779885  0.24866762  0.74700255  1
  Fe  Fe46  1  0.00158336  0.49586204  0.25193375  1
  Fe  Fe47  1  0.75036860  0.75104100  0.25189982  1
  Fe  Fe48  1  0.25062235  0.49764697  0.75051357  1
  Fe  Fe49  1  0.37322642  0.12349796  0.12412544  1
  Fe  Fe50  1  0.49625446  0.74469000  0.49782816  1
  Fe  Fe51  1  0.00182036  0.00229932  0.50078933  1
  Fe  Fe52  1  0.50047876  0.50211267  0.00221521  1
  Fe  Fe53  1  0.62659677  0.12491065  0.12770861  1
  Fe  Fe54  1  0.74693105  0.00293720  -0.00222504  1
  Fe  Fe55  1  0.87566559  0.62560566  0.37371607  1
  Fe  Fe56  1  0.87306092  0.62268820  0.12718319  1
  Fe  Fe57  1  0.12860983  0.12547280  0.62623940  1
  Fe  Fe58  1  0.12494824  0.12895410  0.36904727  1
  Fe  Fe59  1  0.62298370  0.37686937  0.62253405  1
  Fe  Fe60  1  0.62208310  0.87463119  0.37577017  1
  Fe  Fe61  1  0.87553795  0.87623830  0.87727510  1
  Fe  Fe62  1  0.12606994  0.87322312  0.62401610  1
  Fe  Fe63  1  0.24909807  -0.00163530  0.49661404  1
  Fe  Fe64  1  0.37032848  0.62563498  0.12812841  1
  Fe  Fe65  1  0.87356803  0.12504533  0.62437482  1
  Fe  Fe66  1  0.37602128  0.87590050  0.88116963  1
  Fe  Fe67  1  0.00302984  0.50036704  0.50016074  1
  Fe  Fe68  1  0.49761841  0.74880876  0.25056727  1
  Fe  Fe69  1  -0.00097788  0.75137963  0.74939588  1
  Fe  Fe70  1  0.49914382  0.00080963  0.74918359  1
  Fe  Fe71  1  0.74639140  0.24858976  0.49630468  1
  Fe  Fe72  1  0.87504583  0.62461416  0.62382582  1
  Fe  Fe73  1  0.00040825  0.50106984  0.00101623  1
  Fe  Fe74  1  0.37342508  0.87444940  0.62250215  1
  Fe  Fe75  1  0.00239245  0.75041409  0.24824985  1
  Fe  Fe76  1  0.62502094  0.87457570  0.62400670  1
  Fe  Fe77  1  0.62416473  0.87577581  0.12448964  1
  Fe  Fe78  1  0.61657197  0.37848717  0.37588417  1
  Fe  Fe79  1  0.49722554  0.50076916  0.74668404  1
  Fe  Fe80  1  0.62854461  0.62238138  0.12860503  1
  Fe  Fe81  1  0.87541186  0.12638580  0.87402402  1
  Fe  Fe82  1  0.12192265  0.37244219  0.87605443  1
  Fe  Fe83  1  0.25001457  -0.00201565  0.75238075  1
  Fe  Fe84  1  0.25193352  -0.00378687  0.25099951  1
  Fe  Fe85  1  0.50006496  0.74784279  0.00257876  1
  Fe  Fe86  1  0.25220400  0.48994034  0.25004084  1
  Fe  Fe87  1  0.87881216  0.87645079  0.37600626  1
  Fe  Fe88  1  0.62543959  0.12390473  0.62621118  1
  Fe  Fe89  1  0.50211366  0.24717369  0.00071237  1
  Co  Co90  1  0.49712346  0.50175915  0.24764567  1
  Co  Co91  1  0.74901501  0.49913677  -0.00160396  1
  Co  Co92  1  0.12483833  0.37086268  0.37624268  1
  Co  Co93  1  0.24974366  0.75298091  0.49457102  1
  Co  Co94  1  0.87423673  0.37416907  0.61871207  1
  Co  Co95  1  0.11983778  0.87747500  0.37354938  1
  Co  Co96  1  0.24869327  0.00234670  -0.00040841  1
  Co  Co97  1  0.36905259  0.62355919  0.37035585  1
  Co  Co98  1  0.50349414  0.00333275  0.00041625  1
  Co  Co99  1  -0.00306439  0.25055362  0.24687469  1
  Co  Co100  1  0.00016417  0.00506747  0.00225951  1
  Co  Co101  1  0.37537434  0.37349544  0.62518744  1
  Co  Co102  1  0.61965609  0.12419040  0.37352545  1
  Co  Co103  1  0.50114718  0.00072986  0.50229125  1
  Co  Co104  1  0.24888915  0.75718829  0.25080726  1
  Co  Co105  1  -0.00080895  0.74673932  0.00245923  1
  Co  Co106  1  0.25013563  0.74855546  0.00080795  1
  Co  Co107  1  0.49543999  0.50731953  0.50311511  1
  Co  Co108  1  0.25629754  0.25472261  0.25108253  1
  Co  Co109  1  0.37895076  0.87539721  0.37614891  1
  Co  Co110  1  0.86867415  0.12550285  0.12503974  1
  Co  Co111  1  0.75131324  -0.00106749  0.74956790  1
  Co  Co112  1  0.36954557  0.62970914  0.62822643  1
  Co  Co113  1  0.49939036  0.24730838  0.50334869  1
  Co  Co114  1  0.12461418  0.37279135  0.12477742  1
  Co  Co115  1  0.87867990  0.37201121  0.87922376  1
  Co  Co116  1  -0.00057236  0.25121435  0.74572530  1
  Co  Co117  1  0.37200540  0.12232545  0.62416755  1
  Co  Co118  1  0.87835871  0.12508772  0.37601059  1
  Co  Co119  1  0.13072602  0.12550321  0.13157040  1
  Co  Co120  1  0.37675770  0.37403584  0.11993942  1
  Co  Co121  1  0.38206475  0.37635151  0.37855676  1
  Co  Co122  1  0.62422606  0.62360054  0.37290686  1
  Co  Co123  1  0.37580794  0.87616907  0.12168477  1
  Co  Co124  1  0.75092748  0.49694234  0.25454222  1
  Co  Co125  1  0.87620047  0.87587666  0.62141071  1
  Co  Co126  1  0.62478673  0.12618899  0.87050090  1
  Co  Co127  1  0.24980469  0.75448682  0.75385902  1
