# generated using pymatgen
data_Fe45Co19
_symmetry_space_group_name_H-M   'P 1'
_cell_length_a   11.41485592
_cell_length_b   11.41580930
_cell_length_c   11.41409047
_cell_angle_alpha   90.00218978
_cell_angle_beta   90.00045955
_cell_angle_gamma   89.98931686
_symmetry_Int_Tables_number   1
_chemical_formula_structural   Fe45Co19
_chemical_formula_sum   'Fe90 Co38'
_cell_volume   1487.36803071
_cell_formula_units_Z   2
loop_
 _symmetry_equiv_pos_site_id
 _symmetry_equiv_pos_as_xyz
  1  'x, y, z'
loop_
 _atom_site_type_symbol
 _atom_site_label
 _atom_site_symmetry_multiplicity
 _atom_site_fract_x
 _atom_site_fract_y
 _atom_site_fract_z
 _atom_site_occupancy
  Fe  Fe0  1  0.49558984  0.00186690  -0.00859225  1
  Fe  Fe1  1  0.25285171  0.49880440  0.75185734  1
  Fe  Fe2  1  0.74959134  0.75005237  -0.00095074  1
  Fe  Fe3  1  0.25004838  0.75210599  -0.00056215  1
  Fe  Fe4  1  0.87472194  0.37085889  0.37636775  1
  Fe  Fe5  1  0.74932236  0.49919107  0.25142812  1
  Fe  Fe6  1  0.87421103  0.12226162  0.12696832  1
  Fe  Fe7  1  0.87524278  0.37587790  0.12404182  1
  Fe  Fe8  1  0.12613642  0.87356231  0.87229692  1
  Fe  Fe9  1  0.00066490  0.00136808  0.74879538  1
  Fe  Fe10  1  0.24720582  0.74794800  0.50600451  1
  Fe  Fe11  1  0.49974443  0.25031355  0.24648273  1
  Fe  Fe12  1  0.75212460  0.49698200  -0.00648046  1
  Fe  Fe13  1  0.62414069  0.12520459  0.37600036  1
  Fe  Fe14  1  0.37392395  0.87686094  0.62911471  1
  Fe  Fe15  1  0.37800263  0.37431858  0.62836742  1
  Fe  Fe16  1  0.62515424  0.12238985  0.12214041  1
  Fe  Fe17  1  0.25011033  0.50188277  0.50080848  1
  Fe  Fe18  1  0.24940555  0.75208567  0.24952980  1
  Fe  Fe19  1  0.00091983  0.75143224  0.24893381  1
  Fe  Fe20  1  0.12639914  0.37436451  0.12247590  1
  Fe  Fe21  1  0.87195636  0.12929904  0.86891289  1
  Fe  Fe22  1  0.12798606  0.12052564  0.12203188  1
  Fe  Fe23  1  0.49906580  0.75308266  0.00018423  1
  Fe  Fe24  1  0.62501018  0.62315838  0.12193017  1
  Fe  Fe25  1  0.75271371  0.00286188  0.50001987  1
  Fe  Fe26  1  0.87457219  0.87706020  0.12513330  1
  Fe  Fe27  1  0.37566419  0.12607509  0.63023377  1
  Fe  Fe28  1  0.25189524  0.49861741  -0.00421670  1
  Fe  Fe29  1  0.37697205  0.37220337  0.37529006  1
  Fe  Fe30  1  -0.00179210  0.49950436  0.75244471  1
  Fe  Fe31  1  0.37848293  0.62355563  0.62843299  1
  Fe  Fe32  1  0.12454431  0.37334370  0.37679621  1
  Fe  Fe33  1  0.25196723  0.24798179  -0.00265654  1
  Fe  Fe34  1  0.00174969  -0.00012221  0.25144674  1
  Fe  Fe35  1  0.12639802  0.87526161  0.37814350  1
  Fe  Fe36  1  0.25066106  0.00436349  0.75566641  1
  Fe  Fe37  1  0.87410379  0.62426304  0.12333875  1
  Fe  Fe38  1  0.25120369  0.24858774  0.24966308  1
  Fe  Fe39  1  0.74898481  0.24784663  0.24864669  1
  Fe  Fe40  1  0.37114939  0.87963567  0.12401579  1
  Fe  Fe41  1  0.50318135  0.24960262  0.50514208  1
  Fe  Fe42  1  0.50516989  0.75338931  0.74920089  1
  Fe  Fe43  1  0.37143984  0.12104663  0.12432772  1
  Fe  Fe44  1  -0.00237789  0.50038079  -0.00355859  1
  Fe  Fe45  1  0.74925504  0.49956345  0.49888952  1
  Fe  Fe46  1  0.12533490  0.62460926  0.12362687  1
  Fe  Fe47  1  0.00110061  0.49997743  0.25081371  1
  Fe  Fe48  1  0.49656768  0.00017726  0.50021652  1
  Fe  Fe49  1  0.49982519  0.49761521  0.24981685  1
  Fe  Fe50  1  0.62429825  0.62505212  0.37524142  1
  Fe  Fe51  1  -0.00281818  0.24809130  0.00083960  1
  Fe  Fe52  1  0.74844118  0.24773884  0.50442628  1
  Fe  Fe53  1  -0.00011380  0.50104905  0.50005222  1
  Fe  Fe54  1  0.74832043  0.74976150  0.50197145  1
  Fe  Fe55  1  0.62445097  0.87695745  0.37753186  1
  Fe  Fe56  1  0.25068882  0.25070780  0.50339995  1
  Fe  Fe57  1  0.00021065  -0.00030157  -0.00322709  1
  Fe  Fe58  1  0.37525169  0.62716972  0.37558367  1
  Fe  Fe59  1  0.62555856  0.37418257  0.12102612  1
  Fe  Fe60  1  0.00451336  0.24794988  0.74499459  1
  Fe  Fe61  1  0.25001385  0.49974638  0.25102823  1
  Fe  Fe62  1  0.38061955  0.36726731  0.87186694  1
  Fe  Fe63  1  0.74480609  0.49689884  0.75631585  1
  Fe  Fe64  1  -0.00026534  0.75078730  -0.00098421  1
  Fe  Fe65  1  0.00005054  0.24845005  0.24951969  1
  Fe  Fe66  1  0.49671440  -0.00050855  0.25334004  1
  Fe  Fe67  1  0.12332365  0.37194618  0.87562830  1
  Fe  Fe68  1  0.50142340  0.75083653  0.50342221  1
  Fe  Fe69  1  0.87501857  0.87637646  0.37544720  1
  Fe  Fe70  1  0.50065831  0.49968599  0.49917980  1
  Fe  Fe71  1  0.12509229  0.12696592  0.37838392  1
  Fe  Fe72  1  -0.00232961  0.00422345  0.50294348  1
  Fe  Fe73  1  0.00315629  0.74924487  0.50623446  1
  Fe  Fe74  1  0.75169924  0.00226795  -0.00358416  1
  Fe  Fe75  1  0.37743774  0.62873488  0.87254922  1
  Fe  Fe76  1  0.87616184  0.62670249  0.37549872  1
  Fe  Fe77  1  0.87310848  0.62424776  0.62924867  1
  Fe  Fe78  1  0.62450682  0.87943140  0.12226741  1
  Fe  Fe79  1  0.50071589  0.75200367  0.24833522  1
  Fe  Fe80  1  0.12536169  0.37686454  0.62472987  1
  Fe  Fe81  1  0.25457724  0.00169580  0.49768358  1
  Fe  Fe82  1  0.87378374  0.37330166  0.62700144  1
  Fe  Fe83  1  0.74810905  0.75245213  0.24903367  1
  Fe  Fe84  1  0.12426559  0.62717814  0.87139135  1
  Fe  Fe85  1  0.74500870  0.75120468  0.74981163  1
  Fe  Fe86  1  0.87390521  0.87332371  0.87221572  1
  Fe  Fe87  1  0.49823918  0.49777193  -0.00231891  1
  Fe  Fe88  1  0.87318785  0.87673175  0.62676775  1
  Fe  Fe89  1  0.37484665  0.62362164  0.12400293  1
  Co  Co90  1  0.37918304  0.13260737  0.86922372  1
  Co  Co91  1  0.37432817  0.87012485  0.37712393  1
  Co  Co92  1  0.62498575  0.37208512  0.37564673  1
  Co  Co93  1  0.25202080  0.00058300  -0.00868317  1
  Co  Co94  1  0.62254809  0.62681319  0.87724547  1
  Co  Co95  1  0.62618812  0.12903816  0.87659239  1
  Co  Co96  1  0.62521460  0.87984520  0.62266769  1
  Co  Co97  1  0.00163721  0.75263154  0.74560911  1
  Co  Co98  1  0.74210738  0.25219903  0.74564079  1
  Co  Co99  1  0.62133668  0.36695408  0.88013345  1
  Co  Co100  1  0.50157896  -0.00150924  0.75466432  1
  Co  Co101  1  0.25090487  0.00092546  0.25610238  1
  Co  Co102  1  0.75353009  0.24896709  0.00173328  1
  Co  Co103  1  0.62545615  0.62177181  0.62574601  1
  Co  Co104  1  0.87444725  0.62833415  0.87184888  1
  Co  Co105  1  0.49675031  0.24656197  0.00524065  1
  Co  Co106  1  0.12832336  0.88248677  0.62614188  1
  Co  Co107  1  0.24618040  0.25081576  0.74905888  1
  Co  Co108  1  0.37786336  0.13066926  0.37644235  1
  Co  Co109  1  0.87413772  0.12648048  0.37423163  1
  Co  Co110  1  0.37237641  0.37546478  0.12425534  1
  Co  Co111  1  0.74856215  -0.00050183  0.25133995  1
  Co  Co112  1  -0.00092849  0.24814606  0.50422387  1
  Co  Co113  1  0.50270458  0.49840435  0.75395652  1
  Co  Co114  1  0.62653806  0.87640627  0.87752286  1
  Co  Co115  1  0.24799437  0.74807635  0.74548549  1
  Co  Co116  1  0.12899140  0.12211726  0.62316117  1
  Co  Co117  1  0.12481850  0.62641534  0.37502000  1
  Co  Co118  1  0.12336076  0.61951424  0.62962351  1
  Co  Co119  1  0.62432790  0.38102697  0.62328745  1
  Co  Co120  1  0.37350788  0.87095827  0.87068543  1
  Co  Co121  1  0.87600054  0.36753920  0.87128394  1
  Co  Co122  1  0.12702913  0.87911896  0.12339474  1
  Co  Co123  1  0.74774054  -0.00114425  0.75183285  1
  Co  Co124  1  0.87273113  0.12652694  0.62989530  1
  Co  Co125  1  0.62450856  0.11660260  0.62499730  1
  Co  Co126  1  0.50810806  0.24840369  0.74373370  1
  Co  Co127  1  0.12261022  0.12752699  0.87612852  1
