# generated using pymatgen
data_Fe45Co19
_symmetry_space_group_name_H-M   'P 1'
_cell_length_a   11.41575371
_cell_length_b   11.41621617
_cell_length_c   11.41582559
_cell_angle_alpha   90.00889473
_cell_angle_beta   90.00151461
_cell_angle_gamma   89.99609028
_symmetry_Int_Tables_number   1
_chemical_formula_structural   Fe45Co19
_chemical_formula_sum   'Fe90 Co38'
_cell_volume   1487.76416127
_cell_formula_units_Z   2
loop_
 _symmetry_equiv_pos_site_id
 _symmetry_equiv_pos_as_xyz
  1  'x, y, z'
loop_
 _atom_site_type_symbol
 _atom_site_label
 _atom_site_symmetry_multiplicity
 _atom_site_fract_x
 _atom_site_fract_y
 _atom_site_fract_z
 _atom_site_occupancy
  Fe  Fe0  1  0.12245354  0.37862745  0.62919171  1
  Fe  Fe1  1  0.37500382  0.87493417  0.62420079  1
  Fe  Fe2  1  0.49949145  0.25064396  0.49879683  1
  Fe  Fe3  1  0.87551186  0.12540429  0.12348802  1
  Fe  Fe4  1  0.37533533  0.62486553  0.87591414  1
  Fe  Fe5  1  0.12237358  0.37508555  0.87230416  1
  Fe  Fe6  1  0.62448454  0.12682808  0.62521096  1
  Fe  Fe7  1  0.62056336  0.87846441  0.87500437  1
  Fe  Fe8  1  0.62438940  0.37514833  0.62743750  1
  Fe  Fe9  1  0.62244820  0.37596372  0.87287563  1
  Fe  Fe10  1  0.24821576  -0.00367316  -0.00334490  1
  Fe  Fe11  1  0.50009739  0.50115076  0.49979338  1
  Fe  Fe12  1  0.49971972  0.24814659  0.00121562  1
  Fe  Fe13  1  0.12163235  0.12626111  0.87317044  1
  Fe  Fe14  1  0.25116291  0.25110687  0.75093035  1
  Fe  Fe15  1  0.37939403  0.12154021  0.87505836  1
  Fe  Fe16  1  0.87804926  0.37458123  0.12619755  1
  Fe  Fe17  1  0.12669253  0.12680839  0.12735290  1
  Fe  Fe18  1  0.50301448  -0.00133390  0.49734971  1
  Fe  Fe19  1  0.37131779  0.62523656  0.12488676  1
  Fe  Fe20  1  0.37136697  0.87466619  0.12378352  1
  Fe  Fe21  1  0.37324733  0.12368966  0.37533963  1
  Fe  Fe22  1  0.24972217  -0.00314942  0.75231700  1
  Fe  Fe23  1  0.12545937  0.12491240  0.62543187  1
  Fe  Fe24  1  0.50128742  -0.00091957  0.25171114  1
  Fe  Fe25  1  0.62460493  0.62475436  0.37268525  1
  Fe  Fe26  1  0.75027145  0.25131503  0.49845490  1
  Fe  Fe27  1  0.87098224  0.62611845  0.88238904  1
  Fe  Fe28  1  0.00078986  0.74742521  0.50110360  1
  Fe  Fe29  1  0.00260645  0.50333921  0.49739510  1
  Fe  Fe30  1  0.24705379  -0.00377602  0.25285223  1
  Fe  Fe31  1  0.00255387  0.00003744  0.00061492  1
  Fe  Fe32  1  0.37304104  0.62446130  0.62508415  1
  Fe  Fe33  1  0.87688748  0.37723416  0.62571626  1
  Fe  Fe34  1  0.24716992  0.25257254  0.49777259  1
  Fe  Fe35  1  0.50026415  0.75016759  0.00116719  1
  Fe  Fe36  1  0.50079216  0.74914654  0.75058298  1
  Fe  Fe37  1  0.87853790  0.87662509  0.87574010  1
  Fe  Fe38  1  0.75120152  0.50157370  0.75259038  1
  Fe  Fe39  1  0.87790325  0.37800587  0.37287846  1
  Fe  Fe40  1  0.87577609  0.12387416  0.62477877  1
  Fe  Fe41  1  0.62598888  0.87347961  0.62344524  1
  Fe  Fe42  1  0.49667025  0.25019557  0.25052870  1
  Fe  Fe43  1  0.12419164  0.87214379  0.62649159  1
  Fe  Fe44  1  0.37392828  0.12408069  0.62429472  1
  Fe  Fe45  1  0.75293132  0.74780105  0.24868238  1
  Fe  Fe46  1  0.62410475  0.37553410  0.12738139  1
  Fe  Fe47  1  0.75241568  0.24889698  0.25085883  1
  Fe  Fe48  1  0.87472576  0.12398265  0.37583757  1
  Fe  Fe49  1  0.75052451  0.00135781  0.75193417  1
  Fe  Fe50  1  0.37772475  0.37622893  0.87414411  1
  Fe  Fe51  1  0.49774178  0.74942909  0.49662678  1
  Fe  Fe52  1  0.00256415  0.74385644  0.24613461  1
  Fe  Fe53  1  0.37469578  0.37612268  0.12481320  1
  Fe  Fe54  1  0.75255597  0.50378464  0.24688712  1
  Fe  Fe55  1  0.37207200  0.12321513  0.12535317  1
  Fe  Fe56  1  0.74952566  0.50073560  0.49866506  1
  Fe  Fe57  1  -0.00189786  0.74744027  0.75018801  1
  Fe  Fe58  1  0.37563019  0.37655367  0.62725430  1
  Fe  Fe59  1  0.87803164  0.37296878  0.87565304  1
  Fe  Fe60  1  0.49635671  0.74788736  0.25120167  1
  Fe  Fe61  1  0.62587168  0.62473926  0.62605986  1
  Fe  Fe62  1  0.12315043  0.37378941  0.12997437  1
  Fe  Fe63  1  0.62484688  0.37605934  0.37240818  1
  Fe  Fe64  1  0.00209568  0.25059741  0.49816568  1
  Fe  Fe65  1  0.62579937  0.87426116  0.12882989  1
  Fe  Fe66  1  0.87422500  0.62366810  0.62442064  1
  Fe  Fe67  1  0.37431487  0.37785827  0.37475963  1
  Fe  Fe68  1  0.74952874  0.24879262  -0.00232363  1
  Fe  Fe69  1  0.24707702  0.50103436  0.50072078  1
  Fe  Fe70  1  0.24908794  0.49811963  -0.00116416  1
  Fe  Fe71  1  0.00438694  0.74997735  0.00253164  1
  Fe  Fe72  1  0.24959255  0.25066150  -0.00022703  1
  Fe  Fe73  1  0.00067627  0.49994485  0.00253937  1
  Fe  Fe74  1  0.74985061  -0.00053277  -0.00018593  1
  Fe  Fe75  1  0.24902440  0.50046700  0.25075655  1
  Fe  Fe76  1  0.87627914  0.87282351  0.37397241  1
  Fe  Fe77  1  0.74720733  -0.00128793  0.49593756  1
  Fe  Fe78  1  0.62614498  0.12471636  0.12636159  1
  Fe  Fe79  1  0.50268761  0.50242544  0.00194963  1
  Fe  Fe80  1  0.75038656  0.74909397  0.49822379  1
  Fe  Fe81  1  0.12633675  0.62439645  0.87547261  1
  Fe  Fe82  1  0.00137465  0.00050950  0.25099755  1
  Fe  Fe83  1  0.74998613  0.75056516  0.75254367  1
  Fe  Fe84  1  0.00203591  -0.00137078  0.49909854  1
  Fe  Fe85  1  0.87639191  0.87434717  0.12522880  1
  Fe  Fe86  1  0.25042592  0.75083594  0.75209509  1
  Fe  Fe87  1  0.75125154  0.24741284  0.75262949  1
  Fe  Fe88  1  0.87405885  0.87562249  0.62487817  1
  Fe  Fe89  1  0.24700771  -0.00427294  0.49749502  1
  Co  Co90  1  0.87510409  0.62586944  0.37635572  1
  Co  Co91  1  0.62648777  0.87109221  0.37301731  1
  Co  Co92  1  0.62740923  0.62682546  0.12382247  1
  Co  Co93  1  0.12909032  0.62791383  0.37488868  1
  Co  Co94  1  0.12178110  0.86955877  0.37469225  1
  Co  Co95  1  0.62076704  0.12213893  0.87600047  1
  Co  Co96  1  0.12590811  0.62549791  0.62684789  1
  Co  Co97  1  -0.00131013  0.24658516  0.25228011  1
  Co  Co98  1  0.24963346  0.75198720  0.24976876  1
  Co  Co99  1  0.50005550  0.50292795  0.74935706  1
  Co  Co100  1  0.37858487  0.87582070  0.87621208  1
  Co  Co101  1  0.75114262  -0.00048320  0.25059159  1
  Co  Co102  1  0.74646267  0.75786949  -0.00043466  1
  Co  Co103  1  0.12715623  0.12555099  0.37400806  1
  Co  Co104  1  0.37433300  0.87588562  0.37507102  1
  Co  Co105  1  0.74840961  0.49468702  0.00161964  1
  Co  Co106  1  0.24964018  0.75188797  -0.00188987  1
  Co  Co107  1  0.25087206  0.50022941  0.75123134  1
  Co  Co108  1  0.25262715  0.25164833  0.25109545  1
  Co  Co109  1  0.37070334  0.62320217  0.37463241  1
  Co  Co110  1  0.13083760  0.62382639  0.12341552  1
  Co  Co111  1  0.49790467  0.24877467  0.74920057  1
  Co  Co112  1  0.62479004  0.12765191  0.37300817  1
  Co  Co113  1  0.87121336  0.62682276  0.11648178  1
  Co  Co114  1  0.25111968  0.75111284  0.50069007  1
  Co  Co115  1  0.12634556  0.87503737  0.12497646  1
  Co  Co116  1  0.87951724  0.12482396  0.87637028  1
  Co  Co117  1  -0.00076957  0.24881845  0.74650858  1
  Co  Co118  1  0.00060807  -0.00047069  0.74767539  1
  Co  Co119  1  0.00242923  0.25076712  0.00271025  1
  Co  Co120  1  0.50030447  -0.00155520  0.00618618  1
  Co  Co121  1  0.12266824  0.37669674  0.37041732  1
  Co  Co122  1  -0.00155427  0.50810722  0.24779531  1
  Co  Co123  1  0.12220034  0.87302737  0.87362272  1
  Co  Co124  1  0.49971830  -0.00100095  0.74467384  1
  Co  Co125  1  0.62735244  0.62478480  0.87772952  1
  Co  Co126  1  0.49923524  0.50230964  0.24849875  1
  Co  Co127  1  -0.00323476  0.50495669  0.75292274  1
