# generated using pymatgen
data_Fe45Co19
_symmetry_space_group_name_H-M   'P 1'
_cell_length_a   11.41517747
_cell_length_b   11.41503349
_cell_length_c   11.41618475
_cell_angle_alpha   90.00529008
_cell_angle_beta   89.99284040
_cell_angle_gamma   89.99893873
_symmetry_Int_Tables_number   1
_chemical_formula_structural   Fe45Co19
_chemical_formula_sum   'Fe90 Co38'
_cell_volume   1487.58174658
_cell_formula_units_Z   2
loop_
 _symmetry_equiv_pos_site_id
 _symmetry_equiv_pos_as_xyz
  1  'x, y, z'
loop_
 _atom_site_type_symbol
 _atom_site_label
 _atom_site_symmetry_multiplicity
 _atom_site_fract_x
 _atom_site_fract_y
 _atom_site_fract_z
 _atom_site_occupancy
  Fe  Fe0  1  0.24817676  0.00042508  0.74966656  1
  Fe  Fe1  1  0.75009615  0.25166111  0.49891237  1
  Fe  Fe2  1  0.87643157  0.12654064  0.12299181  1
  Fe  Fe3  1  0.24910783  0.75017084  0.74948083  1
  Fe  Fe4  1  0.87710226  0.87233072  0.12520587  1
  Fe  Fe5  1  0.75432118  0.74668809  -0.00001550  1
  Fe  Fe6  1  0.24752204  0.75362953  0.49978746  1
  Fe  Fe7  1  0.37271630  0.87591765  0.12584551  1
  Fe  Fe8  1  0.62690275  0.62674075  0.87140885  1
  Fe  Fe9  1  0.87183226  0.62268667  0.62716662  1
  Fe  Fe10  1  0.25107553  0.25130831  0.75135293  1
  Fe  Fe11  1  0.50070857  -0.00088052  0.50014285  1
  Fe  Fe12  1  0.37182848  0.62276948  0.87499290  1
  Fe  Fe13  1  0.87897844  0.87374563  0.87464412  1
  Fe  Fe14  1  0.12382315  0.37383536  0.62273367  1
  Fe  Fe15  1  0.00223816  0.50221715  0.74862970  1
  Fe  Fe16  1  0.50019119  0.25072787  0.24840543  1
  Fe  Fe17  1  0.12341930  0.62514460  0.37988676  1
  Fe  Fe18  1  0.87510088  0.12433156  0.37598080  1
  Fe  Fe19  1  0.49781692  0.74875621  -0.00024537  1
  Fe  Fe20  1  0.37158506  0.62309283  0.62411513  1
  Fe  Fe21  1  0.24832770  0.75196482  0.25333119  1
  Fe  Fe22  1  0.62500699  0.12514445  0.37503872  1
  Fe  Fe23  1  0.00291298  0.74628337  0.74731729  1
  Fe  Fe24  1  0.49774054  0.25297195  0.50013056  1
  Fe  Fe25  1  0.49889528  0.25118459  0.74861843  1
  Fe  Fe26  1  0.62323755  0.38037697  0.37557795  1
  Fe  Fe27  1  0.37507715  0.62460133  0.37551743  1
  Fe  Fe28  1  0.00260266  -0.00050033  0.00268674  1
  Fe  Fe29  1  0.37227315  0.12582524  0.62399090  1
  Fe  Fe30  1  0.37514242  0.87456608  0.62440857  1
  Fe  Fe31  1  0.37625829  0.12551766  0.87665011  1
  Fe  Fe32  1  0.62460830  0.12414348  0.12421126  1
  Fe  Fe33  1  0.74914760  0.74660513  0.24866447  1
  Fe  Fe34  1  0.00139889  0.00494206  0.74754371  1
  Fe  Fe35  1  0.12306761  0.12774457  0.87790582  1
  Fe  Fe36  1  0.87615026  0.37447452  0.87358003  1
  Fe  Fe37  1  0.62711077  0.12597023  0.62521199  1
  Fe  Fe38  1  0.75049336  -0.00027236  0.24977803  1
  Fe  Fe39  1  0.50224028  0.74536397  0.50194419  1
  Fe  Fe40  1  0.25112331  0.25387007  0.49718691  1
  Fe  Fe41  1  0.87793609  0.87583164  0.62408631  1
  Fe  Fe42  1  0.87426422  0.62372545  0.37417578  1
  Fe  Fe43  1  0.37395368  0.87674099  0.87599863  1
  Fe  Fe44  1  0.62325362  0.87104060  0.62827098  1
  Fe  Fe45  1  0.24890168  0.74924213  -0.00152712  1
  Fe  Fe46  1  0.75146751  0.00022511  0.75118075  1
  Fe  Fe47  1  0.74833318  -0.00270533  0.49937702  1
  Fe  Fe48  1  0.62536473  0.87323892  0.12384661  1
  Fe  Fe49  1  0.87804931  0.87361653  0.37581740  1
  Fe  Fe50  1  0.12408451  0.37500999  0.87550841  1
  Fe  Fe51  1  0.00263150  0.50055078  0.25154203  1
  Fe  Fe52  1  0.25027577  0.49541503  0.49625178  1
  Fe  Fe53  1  0.87514678  0.37762632  0.12510456  1
  Fe  Fe54  1  0.62418501  0.87208830  0.37371417  1
  Fe  Fe55  1  0.12512166  0.12628730  0.37433483  1
  Fe  Fe56  1  0.49842534  0.50097657  0.74857288  1
  Fe  Fe57  1  0.00057705  0.50301886  -0.00170799  1
  Fe  Fe58  1  0.62417782  0.37586304  0.87508783  1
  Fe  Fe59  1  0.75286248  0.50340787  -0.00113395  1
  Fe  Fe60  1  0.87516478  0.37466046  0.62420618  1
  Fe  Fe61  1  -0.00041823  0.25106660  0.24986371  1
  Fe  Fe62  1  0.24854103  0.49805703  0.75133103  1
  Fe  Fe63  1  0.62473898  0.12580857  0.87508857  1
  Fe  Fe64  1  0.62433497  0.87163044  0.87361037  1
  Fe  Fe65  1  0.49911197  -0.00117529  0.24976141  1
  Fe  Fe66  1  0.49865010  -0.00077381  0.75068678  1
  Fe  Fe67  1  0.87665519  0.37735256  0.37663597  1
  Fe  Fe68  1  0.74996608  0.25190246  0.25036742  1
  Fe  Fe69  1  0.75043453  -0.00073441  -0.00096274  1
  Fe  Fe70  1  0.12331767  0.87308462  0.87450598  1
  Fe  Fe71  1  0.62575460  0.37850450  0.12403783  1
  Fe  Fe72  1  0.49577083  0.50214955  0.00146730  1
  Fe  Fe73  1  0.75131857  0.25046783  -0.00119063  1
  Fe  Fe74  1  0.62544673  0.37810147  0.62472110  1
  Fe  Fe75  1  0.25124239  0.25069107  0.24999383  1
  Fe  Fe76  1  0.25261137  0.25285227  0.00150087  1
  Fe  Fe77  1  0.24816509  -0.00359941  0.49753705  1
  Fe  Fe78  1  0.00212660  0.74914275  0.24942563  1
  Fe  Fe79  1  0.49895686  0.50366934  0.24750474  1
  Fe  Fe80  1  0.00290124  0.00288781  0.50229349  1
  Fe  Fe81  1  0.49668221  0.25136694  0.00278200  1
  Fe  Fe82  1  -0.00188997  0.24600395  0.74754536  1
  Fe  Fe83  1  0.12716328  0.62500978  0.12253169  1
  Fe  Fe84  1  0.12709276  0.37648426  0.12550278  1
  Fe  Fe85  1  0.50017563  0.74711580  0.24808243  1
  Fe  Fe86  1  0.00357219  -0.00020106  0.24717614  1
  Fe  Fe87  1  0.24782326  0.00201589  0.00331827  1
  Fe  Fe88  1  0.74904021  0.74727781  0.50073539  1
  Fe  Fe89  1  0.37520087  0.12401812  0.37426395  1
  Co  Co90  1  0.12644567  0.62525270  0.87554868  1
  Co  Co91  1  0.11934828  0.87430716  0.37704104  1
  Co  Co92  1  0.87717762  0.62349692  0.12766548  1
  Co  Co93  1  0.25053823  0.49739936  -0.00150660  1
  Co  Co94  1  0.24793491  -0.00211028  0.25168905  1
  Co  Co95  1  0.12669417  0.87119189  0.12432034  1
  Co  Co96  1  -0.00047381  0.25393448  0.00118595  1
  Co  Co97  1  -0.00080763  0.74673762  -0.00009848  1
  Co  Co98  1  0.75000643  0.49691332  0.75137436  1
  Co  Co99  1  0.62533591  0.62197688  0.37381017  1
  Co  Co100  1  0.62635214  0.62389615  0.12269165  1
  Co  Co101  1  0.24672208  0.50260980  0.25392498  1
  Co  Co102  1  -0.00019756  0.24807533  0.50109514  1
  Co  Co103  1  0.87049432  0.12465395  0.62244184  1
  Co  Co104  1  0.13016303  0.12758890  0.62346869  1
  Co  Co105  1  0.12351594  0.87424956  0.62589688  1
  Co  Co106  1  0.87541162  0.62547533  0.87098530  1
  Co  Co107  1  0.87668696  0.12518551  0.87793269  1
  Co  Co108  1  0.37286174  0.37898705  0.12893409  1
  Co  Co109  1  0.36975505  0.62586604  0.12543756  1
  Co  Co110  1  0.75038878  0.49968141  0.24926336  1
  Co  Co111  1  0.37567805  0.12255567  0.12614138  1
  Co  Co112  1  0.75079578  0.25033659  0.75103494  1
  Co  Co113  1  0.75025938  0.50185354  0.50057070  1
  Co  Co114  1  -0.00082015  0.50130022  0.50099486  1
  Co  Co115  1  0.37797754  0.37756026  0.37060936  1
  Co  Co116  1  0.75396021  0.75269617  0.74898404  1
  Co  Co117  1  0.12207418  0.37384627  0.37563118  1
  Co  Co118  1  0.49412745  0.74834651  0.75089855  1
  Co  Co119  1  0.37859163  0.87328859  0.37535119  1
  Co  Co120  1  0.62710624  0.62499186  0.63049869  1
  Co  Co121  1  0.50089624  -0.00213343  -0.00060455  1
  Co  Co122  1  0.37654909  0.37549415  0.87421028  1
  Co  Co123  1  0.12500801  0.12927944  0.12500397  1
  Co  Co124  1  -0.00140986  0.74565119  0.50371959  1
  Co  Co125  1  0.49896041  0.50229363  0.50239003  1
  Co  Co126  1  0.12951685  0.62270039  0.62237906  1
  Co  Co127  1  0.37392144  0.37591452  0.62587617  1
