# generated using pymatgen
data_Fe45Co19
_symmetry_space_group_name_H-M   'P 1'
_cell_length_a   11.41497517
_cell_length_b   11.41551591
_cell_length_c   11.41517166
_cell_angle_alpha   89.99819035
_cell_angle_beta   90.00468078
_cell_angle_gamma   90.01029314
_symmetry_Int_Tables_number   1
_chemical_formula_structural   Fe45Co19
_chemical_formula_sum   'Fe90 Co38'
_cell_volume   1487.48622659
_cell_formula_units_Z   2
loop_
 _symmetry_equiv_pos_site_id
 _symmetry_equiv_pos_as_xyz
  1  'x, y, z'
loop_
 _atom_site_type_symbol
 _atom_site_label
 _atom_site_symmetry_multiplicity
 _atom_site_fract_x
 _atom_site_fract_y
 _atom_site_fract_z
 _atom_site_occupancy
  Fe  Fe0  1  0.37541162  0.62466760  0.12450352  1
  Fe  Fe1  1  0.75131357  0.49856644  0.25489841  1
  Fe  Fe2  1  0.62481130  0.12422384  0.12246697  1
  Fe  Fe3  1  0.12062629  0.37610818  0.87336249  1
  Fe  Fe4  1  0.87466959  0.12591484  0.37316481  1
  Fe  Fe5  1  0.00101196  0.75293112  0.25037576  1
  Fe  Fe6  1  0.74983894  -0.00177408  0.49835349  1
  Fe  Fe7  1  0.87158791  0.87495048  0.12518088  1
  Fe  Fe8  1  -0.00184397  0.49914790  0.25072170  1
  Fe  Fe9  1  0.25148409  0.49899939  0.49945002  1
  Fe  Fe10  1  0.12605593  0.87941352  0.37817578  1
  Fe  Fe11  1  0.62633754  0.62391747  0.12653755  1
  Fe  Fe12  1  0.12357806  0.37423448  0.37525151  1
  Fe  Fe13  1  0.74675427  0.00010681  -0.00183647  1
  Fe  Fe14  1  0.50076670  0.49751676  0.25192224  1
  Fe  Fe15  1  0.12351165  0.37449527  0.12413134  1
  Fe  Fe16  1  0.11996728  0.62399604  0.87641568  1
  Fe  Fe17  1  0.37423734  0.37390108  0.12511716  1
  Fe  Fe18  1  0.24840593  0.24893954  0.25027297  1
  Fe  Fe19  1  0.37439918  0.87801587  0.37525999  1
  Fe  Fe20  1  0.74732466  0.00033732  0.25196591  1
  Fe  Fe21  1  0.12374334  0.62465580  0.12440807  1
  Fe  Fe22  1  0.75189031  0.24882202  -0.00151086  1
  Fe  Fe23  1  0.74803054  0.74993798  0.74842088  1
  Fe  Fe24  1  0.37478940  0.87306078  0.62726418  1
  Fe  Fe25  1  -0.00320347  0.24834303  -0.00028886  1
  Fe  Fe26  1  0.12394077  0.62430208  0.37537427  1
  Fe  Fe27  1  0.87558645  0.62756104  0.12608714  1
  Fe  Fe28  1  0.25176562  0.75163551  0.49894903  1
  Fe  Fe29  1  0.37676808  0.62372637  0.37598645  1
  Fe  Fe30  1  0.50223652  0.50087256  0.74770647  1
  Fe  Fe31  1  0.25069208  0.74725400  -0.00244705  1
  Fe  Fe32  1  0.12463776  0.37346679  0.62721130  1
  Fe  Fe33  1  0.62575608  0.37400273  0.87373194  1
  Fe  Fe34  1  0.74843387  -0.00051204  0.75198642  1
  Fe  Fe35  1  0.87471966  0.62726708  0.62354606  1
  Fe  Fe36  1  0.37630314  0.12557000  0.12534713  1
  Fe  Fe37  1  0.50397649  0.00016194  0.75135803  1
  Fe  Fe38  1  0.00224765  0.75364885  0.75136338  1
  Fe  Fe39  1  0.25105521  0.49945107  0.25076259  1
  Fe  Fe40  1  0.62586833  0.12467121  0.62606661  1
  Fe  Fe41  1  0.75344815  0.50214791  -0.00057909  1
  Fe  Fe42  1  0.25142639  0.00261986  -0.00043349  1
  Fe  Fe43  1  0.37424261  0.37454510  0.62796217  1
  Fe  Fe44  1  0.50367530  0.25257098  0.25092172  1
  Fe  Fe45  1  0.50085713  0.24991994  -0.00102756  1
  Fe  Fe46  1  0.62815569  0.62227200  0.61742318  1
  Fe  Fe47  1  0.87555813  0.37213624  0.12768597  1
  Fe  Fe48  1  0.24467698  -0.00293959  0.74565757  1
  Fe  Fe49  1  0.12486374  0.62795452  0.62356505  1
  Fe  Fe50  1  0.75052676  0.24886963  0.75088924  1
  Fe  Fe51  1  0.50207015  0.75045954  0.25085837  1
  Fe  Fe52  1  -0.00013879  0.00097108  0.24952321  1
  Fe  Fe53  1  0.37603254  0.12492837  0.87168327  1
  Fe  Fe54  1  0.50309560  0.74879848  0.74888013  1
  Fe  Fe55  1  0.50244835  0.75100680  0.50018302  1
  Fe  Fe56  1  0.87723765  0.37762514  0.87324669  1
  Fe  Fe57  1  0.24906383  0.50269171  0.75150243  1
  Fe  Fe58  1  0.12053617  0.12483503  0.86966223  1
  Fe  Fe59  1  0.37464897  0.12642715  0.62836647  1
  Fe  Fe60  1  0.87768441  0.12215599  0.62868330  1
  Fe  Fe61  1  -0.00313214  0.75181278  0.49628904  1
  Fe  Fe62  1  0.75144962  0.50228136  0.74943965  1
  Fe  Fe63  1  0.37459111  0.12530529  0.37490363  1
  Fe  Fe64  1  0.24966300  0.24949902  -0.00334843  1
  Fe  Fe65  1  0.74943197  0.25026304  0.50028291  1
  Fe  Fe66  1  0.37665890  0.37526677  0.87245389  1
  Fe  Fe67  1  0.37325265  0.62613701  0.62611607  1
  Fe  Fe68  1  -0.00248249  -0.00058995  -0.00044513  1
  Fe  Fe69  1  0.50008147  0.00031813  0.50120457  1
  Fe  Fe70  1  0.12691408  0.12176991  0.37725413  1
  Fe  Fe71  1  0.12431502  0.12487777  0.12408001  1
  Fe  Fe72  1  0.25053831  0.50024541  -0.00172563  1
  Fe  Fe73  1  0.74672329  0.25042238  0.25112291  1
  Fe  Fe74  1  0.24973707  0.24826429  0.50246520  1
  Fe  Fe75  1  0.74786557  0.75058980  0.25546154  1
  Fe  Fe76  1  0.62594645  0.62597394  0.87590404  1
  Fe  Fe77  1  0.87258621  0.87264474  0.87657310  1
  Fe  Fe78  1  0.37429077  0.87620934  0.12395925  1
  Fe  Fe79  1  0.50280234  0.75226943  0.00073268  1
  Fe  Fe80  1  0.87411467  0.37558937  0.62489733  1
  Fe  Fe81  1  0.87500365  0.87536990  0.62311993  1
  Fe  Fe82  1  0.24977628  0.75109640  0.25109649  1
  Fe  Fe83  1  0.37434728  0.87432498  0.87320464  1
  Fe  Fe84  1  0.12686355  0.87565542  0.12227158  1
  Fe  Fe85  1  0.50164330  0.25276231  0.50207853  1
  Fe  Fe86  1  -0.00278249  0.49960949  0.49993584  1
  Fe  Fe87  1  0.50152121  -0.00012021  0.24931981  1
  Fe  Fe88  1  -0.00067242  0.24764858  0.50088295  1
  Fe  Fe89  1  0.50155127  0.49950565  0.00040427  1
  Co  Co90  1  0.62406606  0.62215475  0.37900686  1
  Co  Co91  1  0.62321133  0.87595660  0.37636787  1
  Co  Co92  1  0.00215680  0.24597593  0.24975132  1
  Co  Co93  1  0.87694538  0.62750302  0.87281947  1
  Co  Co94  1  0.37817068  0.62589530  0.87480829  1
  Co  Co95  1  0.49636846  0.49694049  0.50176185  1
  Co  Co96  1  0.87519922  0.87765805  0.37387457  1
  Co  Co97  1  0.25044157  0.00031018  0.24831753  1
  Co  Co98  1  0.25237385  0.00109699  0.50562771  1
  Co  Co99  1  0.62567735  0.37780706  0.37941681  1
  Co  Co100  1  0.75649242  0.49914804  0.49661011  1
  Co  Co101  1  -0.00441975  0.50044144  0.00276311  1
  Co  Co102  1  -0.00254462  0.00255158  0.49999331  1
  Co  Co103  1  0.62600482  0.87277488  0.87421083  1
  Co  Co104  1  0.62847438  0.37694837  0.62453956  1
  Co  Co105  1  0.75004233  0.75315725  0.49695738  1
  Co  Co106  1  0.12702756  0.87590738  0.87977384  1
  Co  Co107  1  0.74898401  0.74726173  0.00079227  1
  Co  Co108  1  0.62736699  0.37605686  0.12364114  1
  Co  Co109  1  -0.00196989  0.75066463  0.00109402  1
  Co  Co110  1  0.37436867  0.37244527  0.37433304  1
  Co  Co111  1  -0.00419841  0.25156654  0.74911512  1
  Co  Co112  1  0.12108016  0.12549508  0.62820113  1
  Co  Co113  1  0.62422919  0.12508290  0.37727420  1
  Co  Co114  1  0.87605384  0.62650997  0.37495559  1
  Co  Co115  1  0.62480029  0.12691246  0.87541598  1
  Co  Co116  1  0.50302840  0.25025594  0.74804531  1
  Co  Co117  1  0.87221890  0.12426229  0.12615331  1
  Co  Co118  1  0.24606963  0.74946048  0.75177208  1
  Co  Co119  1  -0.00100986  0.50132285  0.74570879  1
  Co  Co120  1  0.00152160  -0.00671499  0.74993356  1
  Co  Co121  1  0.87682124  0.12176268  0.87277482  1
  Co  Co122  1  0.62566735  0.87678473  0.62391336  1
  Co  Co123  1  0.50075595  -0.00158916  -0.00117570  1
  Co  Co124  1  0.62720851  0.87553119  0.12610786  1
  Co  Co125  1  0.24912741  0.25044823  0.75096482  1
  Co  Co126  1  0.12316295  0.87280223  0.61879775  1
  Co  Co127  1  0.87682832  0.36994391  0.37397755  1
