# generated using pymatgen
data_Fe45Co19
_symmetry_space_group_name_H-M   'P 1'
_cell_length_a   11.41543166
_cell_length_b   11.41468911
_cell_length_c   11.41417946
_cell_angle_alpha   89.99392985
_cell_angle_beta   89.99767186
_cell_angle_gamma   89.99950324
_symmetry_Int_Tables_number   1
_chemical_formula_structural   Fe45Co19
_chemical_formula_sum   'Fe90 Co38'
_cell_volume   1487.30870311
_cell_formula_units_Z   2
loop_
 _symmetry_equiv_pos_site_id
 _symmetry_equiv_pos_as_xyz
  1  'x, y, z'
loop_
 _atom_site_type_symbol
 _atom_site_label
 _atom_site_symmetry_multiplicity
 _atom_site_fract_x
 _atom_site_fract_y
 _atom_site_fract_z
 _atom_site_occupancy
  Fe  Fe0  1  0.37586664  0.12576511  0.37268707  1
  Fe  Fe1  1  0.12318527  0.87116293  0.37985419  1
  Fe  Fe2  1  0.87528262  0.62425488  0.12290551  1
  Fe  Fe3  1  0.87328348  0.37162867  0.87737877  1
  Fe  Fe4  1  0.74977423  0.24928262  0.49943836  1
  Fe  Fe5  1  -0.00229005  0.24945289  0.24549146  1
  Fe  Fe6  1  0.75034779  0.49942449  0.75073842  1
  Fe  Fe7  1  0.37483825  0.12644401  0.87513181  1
  Fe  Fe8  1  0.37296445  0.87361139  0.37526316  1
  Fe  Fe9  1  0.87391116  0.12687633  0.87985079  1
  Fe  Fe10  1  0.75078251  0.50099771  0.24916766  1
  Fe  Fe11  1  0.49978203  0.75314558  0.24721251  1
  Fe  Fe12  1  0.12737759  0.12781287  0.87805866  1
  Fe  Fe13  1  0.12579934  0.12629711  0.12425261  1
  Fe  Fe14  1  0.24672998  0.00073714  0.49831493  1
  Fe  Fe15  1  0.37530198  0.12418351  0.62530228  1
  Fe  Fe16  1  0.87638913  0.37752467  0.37196227  1
  Fe  Fe17  1  0.62164884  0.12148100  0.12862836  1
  Fe  Fe18  1  0.87935401  0.88135088  0.62476374  1
  Fe  Fe19  1  0.25208911  0.50197466  0.49766206  1
  Fe  Fe20  1  -0.00041649  0.25126647  0.49978762  1
  Fe  Fe21  1  0.75247153  0.74954592  0.25135298  1
  Fe  Fe22  1  0.62473547  0.37572798  0.12466337  1
  Fe  Fe23  1  0.12581957  0.37695649  0.12610474  1
  Fe  Fe24  1  0.12339286  0.62741188  0.62072042  1
  Fe  Fe25  1  0.37550804  0.37442363  0.37467666  1
  Fe  Fe26  1  0.62486712  0.62831718  0.87499546  1
  Fe  Fe27  1  0.50037425  0.49989758  0.25109579  1
  Fe  Fe28  1  0.75068727  0.49742243  0.50075840  1
  Fe  Fe29  1  0.50066291  0.49901629  0.50057138  1
  Fe  Fe30  1  0.62461099  0.37425715  0.62721198  1
  Fe  Fe31  1  0.74785714  0.24749672  0.74965506  1
  Fe  Fe32  1  0.50037123  0.74962725  0.74845441  1
  Fe  Fe33  1  -0.00102925  0.75255593  0.74804123  1
  Fe  Fe34  1  0.12728341  0.37512697  0.62527950  1
  Fe  Fe35  1  0.25014186  0.24911146  0.50075748  1
  Fe  Fe36  1  0.87588713  0.12486727  0.37388187  1
  Fe  Fe37  1  0.87494441  0.62249862  0.62339670  1
  Fe  Fe38  1  0.12605794  0.87174520  0.12561772  1
  Fe  Fe39  1  0.00084250  0.24869706  0.75125575  1
  Fe  Fe40  1  0.37535385  0.12219969  0.12722353  1
  Fe  Fe41  1  0.49958940  0.75095966  0.50037267  1
  Fe  Fe42  1  0.75007081  0.49956030  -0.00061229  1
  Fe  Fe43  1  0.62707203  0.87589798  0.37223681  1
  Fe  Fe44  1  0.24898750  0.75170191  0.74752196  1
  Fe  Fe45  1  0.12298789  0.87388737  0.87449229  1
  Fe  Fe46  1  0.87678999  0.62646533  0.87572484  1
  Fe  Fe47  1  0.74882203  -0.00019576  0.75364997  1
  Fe  Fe48  1  0.00024044  0.49802280  0.74878886  1
  Fe  Fe49  1  0.75231597  0.75332948  0.74990580  1
  Fe  Fe50  1  0.00005902  0.49815315  0.00101451  1
  Fe  Fe51  1  0.37527275  0.62486789  0.87298382  1
  Fe  Fe52  1  0.75076044  0.75337357  -0.00053060  1
  Fe  Fe53  1  0.12803674  0.37207650  0.87486060  1
  Fe  Fe54  1  0.62528066  0.62610089  0.37564686  1
  Fe  Fe55  1  0.24798546  -0.00042518  0.25216373  1
  Fe  Fe56  1  0.37299732  0.37326525  0.86783959  1
  Fe  Fe57  1  0.62501142  0.37234182  0.87534733  1
  Fe  Fe58  1  0.12248226  0.12208964  0.62445789  1
  Fe  Fe59  1  0.24758256  -0.00046520  0.75018962  1
  Fe  Fe60  1  0.37296110  0.62517516  0.12624761  1
  Fe  Fe61  1  0.62491580  0.62585017  0.12397288  1
  Fe  Fe62  1  0.25119332  0.25091085  0.24858288  1
  Fe  Fe63  1  0.25065162  -0.00100389  0.00070539  1
  Fe  Fe64  1  0.50290510  0.00220771  0.75158333  1
  Fe  Fe65  1  -0.00030581  0.74435062  0.25224521  1
  Fe  Fe66  1  0.25013262  0.74996112  -0.00114798  1
  Fe  Fe67  1  0.49916211  0.24924848  0.00065245  1
  Fe  Fe68  1  0.75441933  0.75264586  0.49860083  1
  Fe  Fe69  1  0.75220758  0.24793475  0.24558899  1
  Fe  Fe70  1  0.49926714  0.50087075  -0.00245855  1
  Fe  Fe71  1  0.37815655  0.87483511  0.87680478  1
  Fe  Fe72  1  0.75018190  0.00117368  0.49565587  1
  Fe  Fe73  1  0.62543823  0.87708041  0.62523396  1
  Fe  Fe74  1  0.25050615  0.49953597  -0.00128661  1
  Fe  Fe75  1  0.12246675  0.62679764  0.87650722  1
  Fe  Fe76  1  0.87568504  0.87701286  0.12697642  1
  Fe  Fe77  1  0.37487656  0.37726066  0.12613775  1
  Fe  Fe78  1  0.74674200  -0.00134998  -0.00031951  1
  Fe  Fe79  1  0.50228183  0.00144376  0.49638575  1
  Fe  Fe80  1  0.37434219  0.87731817  0.62428580  1
  Fe  Fe81  1  0.50101858  0.24921462  0.50214524  1
  Fe  Fe82  1  0.00212028  0.00112964  0.25204290  1
  Fe  Fe83  1  0.37538578  0.62267808  0.62580077  1
  Fe  Fe84  1  0.87585304  0.12443203  0.62499751  1
  Fe  Fe85  1  0.00203024  -0.00145079  -0.00113750  1
  Fe  Fe86  1  0.62705924  0.62563799  0.62456852  1
  Fe  Fe87  1  0.12365808  0.37705754  0.37237425  1
  Fe  Fe88  1  0.24733145  0.74443616  0.25436973  1
  Fe  Fe89  1  0.62562685  0.37219378  0.37291552  1
  Co  Co90  1  0.62725845  0.87592607  0.12563626  1
  Co  Co91  1  0.62166092  0.87206107  0.87547423  1
  Co  Co92  1  0.50282952  0.50080847  0.75021866  1
  Co  Co93  1  0.87455832  0.37772988  0.12409891  1
  Co  Co94  1  0.25310264  0.25108694  0.00311864  1
  Co  Co95  1  0.74752672  0.24839297  0.00665654  1
  Co  Co96  1  0.12268835  0.87638728  0.62231126  1
  Co  Co97  1  0.75085694  0.00233666  0.25080735  1
  Co  Co98  1  0.00152853  0.00236210  0.49525414  1
  Co  Co99  1  0.24598638  0.50342437  0.74966958  1
  Co  Co100  1  0.12499554  0.12993238  0.37307705  1
  Co  Co101  1  -0.00646963  0.75141519  0.49965084  1
  Co  Co102  1  0.87395696  0.37202149  0.62785208  1
  Co  Co103  1  0.00032079  0.50459180  0.24693486  1
  Co  Co104  1  0.25298548  0.74834653  0.50091750  1
  Co  Co105  1  0.00069668  0.00293861  0.75512440  1
  Co  Co106  1  0.87711160  0.12020221  0.12159547  1
  Co  Co107  1  0.37341580  0.37675779  0.62767577  1
  Co  Co108  1  0.49854715  0.74969020  0.00358358  1
  Co  Co109  1  0.00062882  0.25159823  0.00221737  1
  Co  Co110  1  0.50087898  0.24791565  0.74715513  1
  Co  Co111  1  0.37956534  0.62566346  0.37359877  1
  Co  Co112  1  0.49748792  -0.00501178  0.25078257  1
  Co  Co113  1  0.24877755  0.24637179  0.74627075  1
  Co  Co114  1  0.62448890  0.12673901  0.87678101  1
  Co  Co115  1  0.49951788  -0.00053409  0.00185891  1
  Co  Co116  1  -0.00208855  0.49547475  0.50310168  1
  Co  Co117  1  0.25001280  0.50243658  0.25286240  1
  Co  Co118  1  0.12701541  0.62457744  0.12163552  1
  Co  Co119  1  0.36960197  0.87366112  0.12593849  1
  Co  Co120  1  0.12042426  0.62250619  0.38169960  1
  Co  Co121  1  -0.00124336  0.75211087  0.00217904  1
  Co  Co122  1  0.87647304  0.87548153  0.87603665  1
  Co  Co123  1  0.62380024  0.12653397  0.37128889  1
  Co  Co124  1  0.62710942  0.12287209  0.62368665  1
  Co  Co125  1  0.87693277  0.87712389  0.37173015  1
  Co  Co126  1  0.49883876  0.25142348  0.24871959  1
  Co  Co127  1  0.87476333  0.61946991  0.37814727  1
