# generated using pymatgen
data_Fe45Co19
_symmetry_space_group_name_H-M   'P 1'
_cell_length_a   11.41447426
_cell_length_b   11.41365352
_cell_length_c   11.41507291
_cell_angle_alpha   90.01039749
_cell_angle_beta   90.00470252
_cell_angle_gamma   89.99615255
_symmetry_Int_Tables_number   1
_chemical_formula_structural   Fe45Co19
_chemical_formula_sum   'Fe90 Co38'
_cell_volume   1487.16541903
_cell_formula_units_Z   2
loop_
 _symmetry_equiv_pos_site_id
 _symmetry_equiv_pos_as_xyz
  1  'x, y, z'
loop_
 _atom_site_type_symbol
 _atom_site_label
 _atom_site_symmetry_multiplicity
 _atom_site_fract_x
 _atom_site_fract_y
 _atom_site_fract_z
 _atom_site_occupancy
  Fe  Fe0  1  0.49832064  0.50201792  -0.00018424  1
  Fe  Fe1  1  0.62482590  0.12631231  0.37406257  1
  Fe  Fe2  1  -0.00012316  0.00653824  0.50233752  1
  Fe  Fe3  1  0.12365987  0.37236199  0.12239618  1
  Fe  Fe4  1  0.75132347  0.75045990  0.50065848  1
  Fe  Fe5  1  0.62437133  0.62664218  0.37304913  1
  Fe  Fe6  1  0.62533818  0.62632884  0.62600257  1
  Fe  Fe7  1  0.62316049  0.87366924  0.37885245  1
  Fe  Fe8  1  0.87805071  0.62451740  0.87145263  1
  Fe  Fe9  1  0.87743096  0.37230225  0.62335060  1
  Fe  Fe10  1  0.25065620  0.24486952  0.00499230  1
  Fe  Fe11  1  0.74754654  -0.00231768  0.74919292  1
  Fe  Fe12  1  0.37351557  0.62800343  0.87219782  1
  Fe  Fe13  1  0.12679711  0.12334229  0.36939145  1
  Fe  Fe14  1  0.74956538  0.24942772  0.74980018  1
  Fe  Fe15  1  0.12687912  0.37186605  0.62165469  1
  Fe  Fe16  1  0.62502195  0.62656435  0.12558522  1
  Fe  Fe17  1  0.87623253  0.62478771  0.37415912  1
  Fe  Fe18  1  0.12615047  0.37291466  0.37779361  1
  Fe  Fe19  1  0.74859605  0.75442581  0.75203956  1
  Fe  Fe20  1  0.50072510  -0.00188467  0.74877237  1
  Fe  Fe21  1  0.49889710  0.25003950  0.74963725  1
  Fe  Fe22  1  0.87531751  0.87840721  0.62410683  1
  Fe  Fe23  1  0.37213583  0.37436689  0.37714484  1
  Fe  Fe24  1  0.49622476  0.25216344  0.24789140  1
  Fe  Fe25  1  0.37452408  0.62763329  0.37336344  1
  Fe  Fe26  1  0.00011394  0.50013415  0.50045806  1
  Fe  Fe27  1  0.87704013  0.12396584  0.12604716  1
  Fe  Fe28  1  0.24843371  0.75031496  -0.00082073  1
  Fe  Fe29  1  0.12501551  0.62738518  0.12658801  1
  Fe  Fe30  1  0.00331036  0.00252028  -0.00006583  1
  Fe  Fe31  1  0.75041166  0.49759165  0.75027220  1
  Fe  Fe32  1  0.24573438  0.49803609  0.75197962  1
  Fe  Fe33  1  0.12428229  0.62512035  0.62643490  1
  Fe  Fe34  1  0.24800705  0.49785889  0.25014328  1
  Fe  Fe35  1  0.75202453  0.49965404  -0.00067630  1
  Fe  Fe36  1  0.49826074  0.50138888  0.49978230  1
  Fe  Fe37  1  0.24688553  0.50150780  -0.00144731  1
  Fe  Fe38  1  0.37321478  0.12449699  0.87360595  1
  Fe  Fe39  1  0.37301675  0.12424036  0.37039595  1
  Fe  Fe40  1  0.00066949  0.75321492  0.74960121  1
  Fe  Fe41  1  0.74961952  0.24695763  0.50171744  1
  Fe  Fe42  1  0.37225640  0.37377351  0.62185411  1
  Fe  Fe43  1  0.75082866  0.50041221  0.49954998  1
  Fe  Fe44  1  0.00254221  0.24729057  0.74813750  1
  Fe  Fe45  1  0.37284939  0.62658779  0.12737369  1
  Fe  Fe46  1  0.75185075  0.75232526  -0.00253850  1
  Fe  Fe47  1  0.87633955  0.62454142  0.62794087  1
  Fe  Fe48  1  0.37265255  0.87642855  0.12411179  1
  Fe  Fe49  1  0.75278343  0.25299323  0.24814095  1
  Fe  Fe50  1  0.62478322  0.12410139  0.12582823  1
  Fe  Fe51  1  0.62398204  0.37390691  0.87595501  1
  Fe  Fe52  1  0.37441764  0.87340113  0.87407537  1
  Fe  Fe53  1  -0.00152533  0.25232944  0.25029258  1
  Fe  Fe54  1  0.12466665  0.87795691  0.62354121  1
  Fe  Fe55  1  0.49972182  0.49944280  0.24963914  1
  Fe  Fe56  1  0.62391161  0.62674380  0.87528029  1
  Fe  Fe57  1  0.49959316  -0.00354109  0.25043411  1
  Fe  Fe58  1  0.75193587  0.24820072  0.00021005  1
  Fe  Fe59  1  0.62492723  0.12340647  0.87492295  1
  Fe  Fe60  1  0.12965571  0.12355611  0.87064892  1
  Fe  Fe61  1  0.00084938  0.75100168  -0.00162320  1
  Fe  Fe62  1  0.87675494  0.87688166  0.12288985  1
  Fe  Fe63  1  0.49759575  0.24831254  0.00268255  1
  Fe  Fe64  1  0.75134359  -0.00142938  0.25096050  1
  Fe  Fe65  1  -0.00180180  0.49696081  0.25078545  1
  Fe  Fe66  1  0.87811920  0.87619529  0.37847850  1
  Fe  Fe67  1  0.62602020  0.37431921  0.37583479  1
  Fe  Fe68  1  0.37696127  0.87221513  0.62310063  1
  Fe  Fe69  1  0.25052184  0.00155376  0.49938532  1
  Fe  Fe70  1  0.62284046  0.37298601  0.62380281  1
  Fe  Fe71  1  0.24801265  0.75749953  0.25372768  1
  Fe  Fe72  1  0.62584933  0.37624081  0.12414926  1
  Fe  Fe73  1  0.12351841  0.62634912  0.37520996  1
  Fe  Fe74  1  0.87487836  0.12576912  0.37511453  1
  Fe  Fe75  1  0.49844903  0.00043351  -0.00004702  1
  Fe  Fe76  1  0.87568713  0.62416307  0.12630269  1
  Fe  Fe77  1  0.62522686  0.87501026  0.12198038  1
  Fe  Fe78  1  0.12659939  0.87672027  0.87346727  1
  Fe  Fe79  1  0.37394841  0.12714243  0.62569647  1
  Fe  Fe80  1  0.37363056  0.62654206  0.62741532  1
  Fe  Fe81  1  0.87432890  0.12198645  0.87279156  1
  Fe  Fe82  1  0.50151882  0.00347395  0.50055523  1
  Fe  Fe83  1  0.37241449  0.37378803  0.87735175  1
  Fe  Fe84  1  0.75068210  0.75187977  0.25021886  1
  Fe  Fe85  1  0.49897574  0.49937945  0.75037547  1
  Fe  Fe86  1  0.00225591  0.50099275  -0.00245714  1
  Fe  Fe87  1  0.24803346  0.75007341  0.49926441  1
  Fe  Fe88  1  0.87915593  0.37370939  0.87519312  1
  Fe  Fe89  1  0.00156785  0.75470991  0.25089913  1
  Co  Co90  1  0.62509645  0.12521900  0.62633701  1
  Co  Co91  1  0.50348451  0.75163393  0.75013722  1
  Co  Co92  1  0.12366838  0.62806186  0.87322945  1
  Co  Co93  1  0.37339815  0.37842550  0.12259500  1
  Co  Co94  1  0.37735507  0.87569315  0.37957528  1
  Co  Co95  1  0.25199639  0.25223653  0.24692476  1
  Co  Co96  1  0.49950693  0.74605192  0.50115814  1
  Co  Co97  1  0.00085138  0.24295216  -0.00144600  1
  Co  Co98  1  0.00451934  0.49650405  0.74958661  1
  Co  Co99  1  0.87433402  0.37384484  0.38004722  1
  Co  Co100  1  0.49905919  0.75305835  0.24870435  1
  Co  Co101  1  -0.00006053  0.74838872  0.50232164  1
  Co  Co102  1  0.24675804  0.75158172  0.74806343  1
  Co  Co103  1  0.24867067  0.00207525  -0.00022142  1
  Co  Co104  1  -0.00147754  -0.00287163  0.24989360  1
  Co  Co105  1  0.49767431  0.74982931  0.00030507  1
  Co  Co106  1  0.00301805  0.24443744  0.50055524  1
  Co  Co107  1  0.49802684  0.24809391  0.49913923  1
  Co  Co108  1  0.12543604  0.36958945  0.87833206  1
  Co  Co109  1  0.25365842  -0.00250930  0.74789333  1
  Co  Co110  1  0.62353418  0.87692463  0.87816120  1
  Co  Co111  1  0.75116238  0.49912348  0.25053405  1
  Co  Co112  1  0.87237604  0.12385086  0.62660781  1
  Co  Co113  1  0.24905592  0.24487366  0.49806103  1
  Co  Co114  1  0.25120412  0.25179060  0.74915169  1
  Co  Co115  1  0.12523711  0.12358054  0.13142590  1
  Co  Co116  1  0.00162231  0.00113626  0.74961574  1
  Co  Co117  1  0.37402743  0.11991874  0.12952832  1
  Co  Co118  1  0.12476602  0.87615602  0.12267871  1
  Co  Co119  1  0.74978332  0.00193608  0.49856555  1
  Co  Co120  1  0.87725270  0.37553282  0.12102396  1
  Co  Co121  1  0.24933756  0.50339223  0.49970978  1
  Co  Co122  1  0.12098939  0.87822503  0.38065405  1
  Co  Co123  1  0.12973002  0.12378555  0.62892534  1
  Co  Co124  1  0.87711128  0.87880132  0.87546317  1
  Co  Co125  1  0.24876357  -0.00707678  0.25159460  1
  Co  Co126  1  0.75124627  0.00121831  0.00145713  1
  Co  Co127  1  0.62453150  0.87566959  0.62108963  1
