# generated using pymatgen
data_Fe45Co19
_symmetry_space_group_name_H-M   'P 1'
_cell_length_a   11.41506714
_cell_length_b   11.41528257
_cell_length_c   11.41524089
_cell_angle_alpha   90.00174920
_cell_angle_beta   90.00042262
_cell_angle_gamma   90.00159385
_symmetry_Int_Tables_number   1
_chemical_formula_structural   Fe45Co19
_chemical_formula_sum   'Fe90 Co38'
_cell_volume   1487.47685548
_cell_formula_units_Z   2
loop_
 _symmetry_equiv_pos_site_id
 _symmetry_equiv_pos_as_xyz
  1  'x, y, z'
loop_
 _atom_site_type_symbol
 _atom_site_label
 _atom_site_symmetry_multiplicity
 _atom_site_fract_x
 _atom_site_fract_y
 _atom_site_fract_z
 _atom_site_occupancy
  Fe  Fe0  1  0.49667160  0.49724973  0.25209613  1
  Fe  Fe1  1  0.12824594  0.62141014  0.12516037  1
  Fe  Fe2  1  0.62441329  0.38181851  0.62658654  1
  Fe  Fe3  1  0.00036819  -0.00121917  0.49767435  1
  Fe  Fe4  1  0.24967826  0.25057284  0.50174956  1
  Fe  Fe5  1  0.37379555  0.62413154  0.87619987  1
  Fe  Fe6  1  -0.00149714  0.49932376  0.49873522  1
  Fe  Fe7  1  0.12989940  0.87679554  0.12671886  1
  Fe  Fe8  1  0.12471500  0.62459199  0.87610331  1
  Fe  Fe9  1  0.87452070  0.62482189  0.62181255  1
  Fe  Fe10  1  0.62516128  0.12620243  0.87540325  1
  Fe  Fe11  1  0.87621879  0.62595955  0.87561891  1
  Fe  Fe12  1  0.37324276  0.12673412  0.37678517  1
  Fe  Fe13  1  -0.00139432  -0.00228344  0.00138130  1
  Fe  Fe14  1  0.49938362  0.00272783  0.74911214  1
  Fe  Fe15  1  0.12418421  0.62693561  0.37746714  1
  Fe  Fe16  1  0.37560398  0.62345526  0.62349426  1
  Fe  Fe17  1  0.24748236  0.49999451  0.75122693  1
  Fe  Fe18  1  0.62410527  0.87443015  0.62333566  1
  Fe  Fe19  1  0.74990635  -0.00128980  0.24921938  1
  Fe  Fe20  1  0.87653481  0.37535204  0.87340128  1
  Fe  Fe21  1  0.62075906  0.62472398  0.37963062  1
  Fe  Fe22  1  0.87656726  0.12797919  0.37474360  1
  Fe  Fe23  1  0.74979415  0.75139164  0.00277802  1
  Fe  Fe24  1  0.87383103  0.62746136  0.12854650  1
  Fe  Fe25  1  0.12464694  0.12693325  0.87720809  1
  Fe  Fe26  1  0.49869304  0.25085916  0.25025930  1
  Fe  Fe27  1  0.74926564  0.75020987  0.49778554  1
  Fe  Fe28  1  0.00228620  -0.00091967  0.75235220  1
  Fe  Fe29  1  0.24767309  0.74866970  0.74997161  1
  Fe  Fe30  1  0.12683509  0.87369389  0.37189600  1
  Fe  Fe31  1  0.49636971  -0.00130860  0.50027129  1
  Fe  Fe32  1  0.74683552  0.74527199  0.74902042  1
  Fe  Fe33  1  0.49780489  -0.00098620  0.00042429  1
  Fe  Fe34  1  0.25142835  0.49842626  0.49863961  1
  Fe  Fe35  1  0.50279079  0.74488718  0.74801388  1
  Fe  Fe36  1  0.37242999  0.87657667  0.62751411  1
  Fe  Fe37  1  0.50057889  0.75187199  0.24821224  1
  Fe  Fe38  1  0.00252044  0.25111453  0.74678201  1
  Fe  Fe39  1  0.24776855  0.24882318  0.24665427  1
  Fe  Fe40  1  0.87528562  0.87449972  0.62649573  1
  Fe  Fe41  1  0.87522537  0.12359769  0.62516818  1
  Fe  Fe42  1  0.49711349  0.49623572  -0.00362896  1
  Fe  Fe43  1  0.75005302  0.25176380  0.00071954  1
  Fe  Fe44  1  0.87620028  0.12674193  0.87499284  1
  Fe  Fe45  1  0.74951896  0.25038668  0.24996063  1
  Fe  Fe46  1  0.12362917  0.37260834  0.37561723  1
  Fe  Fe47  1  0.62399319  0.87387227  0.87548165  1
  Fe  Fe48  1  0.37639731  0.62647188  0.37592031  1
  Fe  Fe49  1  0.37296391  0.12619302  0.12379290  1
  Fe  Fe50  1  0.00194523  0.00195102  0.24848646  1
  Fe  Fe51  1  0.12646339  0.12183545  0.62228800  1
  Fe  Fe52  1  0.25250387  0.50049436  0.25049120  1
  Fe  Fe53  1  0.00237786  0.25192712  0.00392972  1
  Fe  Fe54  1  0.00172198  0.75081092  0.00388459  1
  Fe  Fe55  1  0.37430927  0.12849902  0.87319853  1
  Fe  Fe56  1  0.12742899  0.87670021  0.62628194  1
  Fe  Fe57  1  0.75058847  0.25204977  0.50006784  1
  Fe  Fe58  1  0.87402614  0.37721709  0.62476466  1
  Fe  Fe59  1  0.87605363  0.87224917  0.87400925  1
  Fe  Fe60  1  0.24999394  0.75103762  0.50020645  1
  Fe  Fe61  1  0.62487280  0.12421934  0.12483888  1
  Fe  Fe62  1  0.49925188  0.25228377  0.50112441  1
  Fe  Fe63  1  0.74889428  0.00008396  0.75108729  1
  Fe  Fe64  1  0.25123646  0.74845575  0.00280638  1
  Fe  Fe65  1  0.75191764  0.50251992  0.25528541  1
  Fe  Fe66  1  0.00202500  0.50070039  0.74853360  1
  Fe  Fe67  1  0.75216924  -0.00179672  0.49776878  1
  Fe  Fe68  1  0.00258810  0.74873585  0.74783314  1
  Fe  Fe69  1  0.75096014  0.49879185  -0.00143288  1
  Fe  Fe70  1  0.49760224  0.75158217  0.00240859  1
  Fe  Fe71  1  0.75254703  -0.00083156  0.00085072  1
  Fe  Fe72  1  0.87536680  0.37550184  0.12816181  1
  Fe  Fe73  1  -0.00124321  0.50195246  0.25229875  1
  Fe  Fe74  1  0.87714855  0.86887046  0.36999767  1
  Fe  Fe75  1  0.74852844  0.25113246  0.74925354  1
  Fe  Fe76  1  0.37287882  0.87441460  0.37195743  1
  Fe  Fe77  1  0.49938708  0.25337062  -0.00165263  1
  Fe  Fe78  1  0.24822195  0.24977776  0.74899349  1
  Fe  Fe79  1  0.00327000  0.24742691  0.24686093  1
  Fe  Fe80  1  0.37472645  0.87362961  0.87237147  1
  Fe  Fe81  1  0.25137348  -0.00024313  -0.00312400  1
  Fe  Fe82  1  0.37685839  0.37649841  0.62884940  1
  Fe  Fe83  1  0.49843879  -0.00072269  0.24899893  1
  Fe  Fe84  1  0.62442042  0.12449591  0.62270762  1
  Fe  Fe85  1  0.62410508  0.37610516  0.12601295  1
  Fe  Fe86  1  0.62215304  0.62300965  0.12371064  1
  Fe  Fe87  1  0.62464346  0.37582803  0.37586100  1
  Fe  Fe88  1  0.62432591  0.12335123  0.37595695  1
  Fe  Fe89  1  0.00085478  0.49929317  0.00101221  1
  Co  Co90  1  0.50151993  0.24892039  0.74887973  1
  Co  Co91  1  0.62452860  0.87699387  0.12371978  1
  Co  Co92  1  0.24848515  0.25344902  0.00132337  1
  Co  Co93  1  0.87893617  0.37023264  0.37351340  1
  Co  Co94  1  0.12531290  0.12725924  0.37752673  1
  Co  Co95  1  0.37172520  0.37149764  0.37397848  1
  Co  Co96  1  -0.00020117  0.24888618  0.50337774  1
  Co  Co97  1  0.12577628  0.37926484  0.12743527  1
  Co  Co98  1  0.87451109  0.87215009  0.12927420  1
  Co  Co99  1  0.00562500  0.74780754  0.24569626  1
  Co  Co100  1  0.12771265  0.12120503  0.12150308  1
  Co  Co101  1  0.49657739  0.75290644  0.50148891  1
  Co  Co102  1  0.62535157  0.37532238  0.87261753  1
  Co  Co103  1  0.24887613  0.00168390  0.75355415  1
  Co  Co104  1  0.12633152  0.62404269  0.62229631  1
  Co  Co105  1  0.12588749  0.37675784  0.62264199  1
  Co  Co106  1  0.87891192  0.63217702  0.37516415  1
  Co  Co107  1  0.00305017  0.75274658  0.50294316  1
  Co  Co108  1  0.37147668  0.87581059  0.12723608  1
  Co  Co109  1  0.25019461  0.00436678  0.25155968  1
  Co  Co110  1  0.12426200  0.37580641  0.87513360  1
  Co  Co111  1  0.25050061  -0.00170259  0.49803316  1
  Co  Co112  1  0.25140094  0.49824741  -0.00053741  1
  Co  Co113  1  0.50216667  0.50511663  0.75376223  1
  Co  Co114  1  0.25119818  0.74518482  0.24905500  1
  Co  Co115  1  0.62528412  0.62612864  0.88063560  1
  Co  Co116  1  0.37328308  0.37410816  0.87128257  1
  Co  Co117  1  0.37332735  0.12496954  0.62425543  1
  Co  Co118  1  0.62304745  0.87648658  0.37606287  1
  Co  Co119  1  0.74917057  0.50442315  0.75269218  1
  Co  Co120  1  0.62389168  0.62059628  0.61764159  1
  Co  Co121  1  0.75450037  0.49974058  0.49393745  1
  Co  Co122  1  0.12569316  0.87203186  0.87632505  1
  Co  Co123  1  0.37413039  0.37500589  0.12508756  1
  Co  Co124  1  0.87396570  0.12568879  0.12528161  1
  Co  Co125  1  0.49509909  0.49624198  0.49812789  1
  Co  Co126  1  0.74327281  0.74750652  0.25068858  1
  Co  Co127  1  0.37778191  0.62196428  0.12535813  1
