# generated using pymatgen
data_Fe45Co19
_symmetry_space_group_name_H-M   'P 1'
_cell_length_a   11.41424975
_cell_length_b   11.41522861
_cell_length_c   11.41442597
_cell_angle_alpha   90.00612307
_cell_angle_beta   90.00772840
_cell_angle_gamma   89.99669741
_symmetry_Int_Tables_number   1
_chemical_formula_structural   Fe45Co19
_chemical_formula_sum   'Fe90 Co38'
_cell_volume   1487.25710749
_cell_formula_units_Z   2
loop_
 _symmetry_equiv_pos_site_id
 _symmetry_equiv_pos_as_xyz
  1  'x, y, z'
loop_
 _atom_site_type_symbol
 _atom_site_label
 _atom_site_symmetry_multiplicity
 _atom_site_fract_x
 _atom_site_fract_y
 _atom_site_fract_z
 _atom_site_occupancy
  Fe  Fe0  1  0.37292722  0.37502084  0.37572702  1
  Fe  Fe1  1  0.00015772  0.49961341  0.74907960  1
  Fe  Fe2  1  0.50380592  0.74747004  0.25288443  1
  Fe  Fe3  1  0.74779859  0.75248586  0.49863167  1
  Fe  Fe4  1  0.62629951  0.87348815  0.12786566  1
  Fe  Fe5  1  0.50169084  0.75295819  0.49998900  1
  Fe  Fe6  1  0.87459596  0.62420712  0.87617572  1
  Fe  Fe7  1  0.12398832  0.12564093  0.37536521  1
  Fe  Fe8  1  0.75167409  0.00226477  0.25124130  1
  Fe  Fe9  1  0.25022698  -0.00079964  -0.00049566  1
  Fe  Fe10  1  0.12557288  0.37534782  0.12462150  1
  Fe  Fe11  1  -0.00100878  0.25058542  0.00173350  1
  Fe  Fe12  1  0.62431345  0.37698495  0.37649360  1
  Fe  Fe13  1  0.37618146  0.62199434  0.87662462  1
  Fe  Fe14  1  0.87722588  0.12748261  0.12876785  1
  Fe  Fe15  1  0.12534455  0.87295328  0.37496325  1
  Fe  Fe16  1  0.75017813  0.25310187  0.00112249  1
  Fe  Fe17  1  -0.00080094  0.75076974  0.74720002  1
  Fe  Fe18  1  0.37495333  0.12541090  0.12363031  1
  Fe  Fe19  1  0.25205245  0.50047393  0.24943019  1
  Fe  Fe20  1  0.74923509  0.00079046  0.74877273  1
  Fe  Fe21  1  0.12785437  0.37529836  0.87575658  1
  Fe  Fe22  1  0.87446171  0.37530425  0.87483534  1
  Fe  Fe23  1  0.87384036  0.62532049  0.37692595  1
  Fe  Fe24  1  0.00033385  0.49691143  0.49971480  1
  Fe  Fe25  1  0.37350568  0.62655169  0.62321363  1
  Fe  Fe26  1  0.12741451  0.62380380  0.37690951  1
  Fe  Fe27  1  0.37575466  0.87264912  0.12657008  1
  Fe  Fe28  1  0.12406244  0.87291113  0.87515383  1
  Fe  Fe29  1  0.74578160  0.24891845  0.74762049  1
  Fe  Fe30  1  0.49656312  0.25051285  -0.00507923  1
  Fe  Fe31  1  0.74835600  0.74783172  0.00032426  1
  Fe  Fe32  1  0.37214430  0.12124148  0.62455564  1
  Fe  Fe33  1  0.37787518  0.62489524  0.12546199  1
  Fe  Fe34  1  0.37417126  0.37705155  0.12088833  1
  Fe  Fe35  1  0.25121862  0.75290587  0.50133569  1
  Fe  Fe36  1  0.50036008  -0.00104626  -0.00091000  1
  Fe  Fe37  1  0.37548074  0.87444433  0.37321677  1
  Fe  Fe38  1  0.12492510  0.62626625  0.12539954  1
  Fe  Fe39  1  0.50297754  0.00453510  0.75039045  1
  Fe  Fe40  1  0.24954769  0.24990149  0.24916806  1
  Fe  Fe41  1  0.75155218  0.00041869  0.00068399  1
  Fe  Fe42  1  0.62332189  0.12615796  0.12299734  1
  Fe  Fe43  1  0.74898571  -0.00169577  0.50055891  1
  Fe  Fe44  1  0.62384359  0.37752669  0.12510307  1
  Fe  Fe45  1  0.25009470  0.50204933  0.74946864  1
  Fe  Fe46  1  0.49944056  0.74771509  0.74882140  1
  Fe  Fe47  1  0.74895313  0.25135533  0.50036220  1
  Fe  Fe48  1  0.87417119  0.37231158  0.37082211  1
  Fe  Fe49  1  -0.00115606  0.74977311  0.25086257  1
  Fe  Fe50  1  0.37484203  0.12585417  0.37593253  1
  Fe  Fe51  1  0.62550738  0.87420090  0.87321567  1
  Fe  Fe52  1  0.62686169  0.62393692  0.62285990  1
  Fe  Fe53  1  0.50132795  0.25060853  0.50330910  1
  Fe  Fe54  1  0.50008909  0.25155661  0.25056505  1
  Fe  Fe55  1  0.00143389  0.25023958  0.74838250  1
  Fe  Fe56  1  0.12522175  0.12605266  0.87608676  1
  Fe  Fe57  1  0.87273242  0.62293993  0.12360824  1
  Fe  Fe58  1  0.12355562  0.12320540  0.12589713  1
  Fe  Fe59  1  0.49903834  0.49971770  0.50076877  1
  Fe  Fe60  1  0.87660863  0.87493714  0.87580691  1
  Fe  Fe61  1  0.74783834  0.50061481  0.25052424  1
  Fe  Fe62  1  0.62451344  0.12473360  0.37586234  1
  Fe  Fe63  1  0.75194294  0.75061096  0.74842567  1
  Fe  Fe64  1  0.12271652  0.87450745  0.12396825  1
  Fe  Fe65  1  0.49958950  0.00150129  0.24985430  1
  Fe  Fe66  1  -0.00076689  0.49890195  -0.00011861  1
  Fe  Fe67  1  0.12350329  0.62568769  0.87509448  1
  Fe  Fe68  1  0.49979119  -0.00335191  0.50102670  1
  Fe  Fe69  1  0.00238436  -0.00149408  0.50193557  1
  Fe  Fe70  1  0.37608777  0.37512481  0.62873629  1
  Fe  Fe71  1  0.50259125  0.74824821  -0.00113006  1
  Fe  Fe72  1  0.00079775  0.49919088  0.25119674  1
  Fe  Fe73  1  0.87365027  0.12652230  0.87446890  1
  Fe  Fe74  1  0.87708094  0.87464558  0.12433210  1
  Fe  Fe75  1  0.00181999  0.25347160  0.49945973  1
  Fe  Fe76  1  0.25047347  0.74858464  -0.00050549  1
  Fe  Fe77  1  0.37401092  0.87634614  0.87113171  1
  Fe  Fe78  1  0.25206113  0.24840056  0.75161829  1
  Fe  Fe79  1  0.00140095  -0.00026270  0.74805128  1
  Fe  Fe80  1  0.25027609  -0.00090175  0.25089857  1
  Fe  Fe81  1  0.74919676  0.50048525  0.74923229  1
  Fe  Fe82  1  0.37424310  0.62472118  0.37497966  1
  Fe  Fe83  1  0.87506130  0.62496800  0.62200114  1
  Fe  Fe84  1  0.62017055  0.37632013  0.86995132  1
  Fe  Fe85  1  0.24802151  0.25182422  0.50157060  1
  Fe  Fe86  1  0.12462663  0.62538498  0.62255884  1
  Fe  Fe87  1  0.87546958  0.12534752  0.62356755  1
  Fe  Fe88  1  0.87471772  0.37448835  0.62624659  1
  Fe  Fe89  1  0.87515321  0.87444786  0.37611717  1
  Co  Co90  1  0.62614986  0.62587676  0.87223736  1
  Co  Co91  1  0.25158138  0.49876540  0.50263349  1
  Co  Co92  1  0.62497179  0.62456131  0.12759657  1
  Co  Co93  1  0.87536902  0.87533557  0.62367087  1
  Co  Co94  1  0.25059586  0.24836211  -0.00040342  1
  Co  Co95  1  0.37331563  0.12167885  0.87531563  1
  Co  Co96  1  0.37422922  0.87742346  0.62946342  1
  Co  Co97  1  0.62311933  0.37709837  0.62676324  1
  Co  Co98  1  0.37527854  0.37878329  0.87374957  1
  Co  Co99  1  0.62707129  0.12577843  0.87885038  1
  Co  Co100  1  0.24947399  0.74994683  0.24985661  1
  Co  Co101  1  0.62401607  0.87454318  0.62837128  1
  Co  Co102  1  0.12855130  0.37715778  0.37418780  1
  Co  Co103  1  0.12541861  0.12673341  0.62326491  1
  Co  Co104  1  0.25060052  0.74665431  0.75083432  1
  Co  Co105  1  0.00304042  0.25139206  0.25048637  1
  Co  Co106  1  0.50354971  0.50182186  -0.00114139  1
  Co  Co107  1  0.75175843  0.74919693  0.25131491  1
  Co  Co108  1  0.87441464  0.37645778  0.12752230  1
  Co  Co109  1  0.87628276  0.12692653  0.37684630  1
  Co  Co110  1  0.24459655  0.00091896  0.75004026  1
  Co  Co111  1  0.24888601  0.50313837  0.00038087  1
  Co  Co112  1  -0.00100432  -0.00193750  0.25281838  1
  Co  Co113  1  0.24913259  -0.00280444  0.49784117  1
  Co  Co114  1  0.74632194  0.24857250  0.25001086  1
  Co  Co115  1  0.49924152  0.24445692  0.74976101  1
  Co  Co116  1  0.49838235  0.49872881  0.25223980  1
  Co  Co117  1  0.62564435  0.62238880  0.37703269  1
  Co  Co118  1  0.62581377  0.12374053  0.62180044  1
  Co  Co119  1  0.00054332  0.75029094  0.50002717  1
  Co  Co120  1  -0.00134889  0.00261115  -0.00177421  1
  Co  Co121  1  0.62505834  0.87682706  0.37151654  1
  Co  Co122  1  0.74723542  0.49894212  -0.00253706  1
  Co  Co123  1  0.75247358  0.49666815  0.50015350  1
  Co  Co124  1  -0.00118787  0.74797939  0.00027326  1
  Co  Co125  1  0.12618418  0.37604280  0.62731571  1
  Co  Co126  1  0.12826243  0.87217677  0.62625992  1
  Co  Co127  1  0.49908568  0.50438005  0.74697447  1
