# generated using pymatgen
data_Fe45Co19
_symmetry_space_group_name_H-M   'P 1'
_cell_length_a   11.41588570
_cell_length_b   11.41555000
_cell_length_c   11.41556383
_cell_angle_alpha   90.00283285
_cell_angle_beta   89.99322650
_cell_angle_gamma   89.99349270
_symmetry_Int_Tables_number   1
_chemical_formula_structural   Fe45Co19
_chemical_formula_sum   'Fe90 Co38'
_cell_volume   1487.66043394
_cell_formula_units_Z   2
loop_
 _symmetry_equiv_pos_site_id
 _symmetry_equiv_pos_as_xyz
  1  'x, y, z'
loop_
 _atom_site_type_symbol
 _atom_site_label
 _atom_site_symmetry_multiplicity
 _atom_site_fract_x
 _atom_site_fract_y
 _atom_site_fract_z
 _atom_site_occupancy
  Fe  Fe0  1  0.25167346  -0.00054026  0.00026694  1
  Fe  Fe1  1  0.12695938  0.12748778  0.62182436  1
  Fe  Fe2  1  0.00271279  0.24817192  0.75042635  1
  Fe  Fe3  1  0.00033140  0.50291030  0.74991259  1
  Fe  Fe4  1  0.12623499  0.37620105  0.87629635  1
  Fe  Fe5  1  0.12376349  0.37637553  0.62136728  1
  Fe  Fe6  1  0.25344508  0.74775949  0.00269327  1
  Fe  Fe7  1  0.12490749  0.87465958  0.87692515  1
  Fe  Fe8  1  0.74671553  0.24986706  0.25108829  1
  Fe  Fe9  1  0.62397127  0.37593248  0.37697541  1
  Fe  Fe10  1  0.37342150  0.62384465  0.37487467  1
  Fe  Fe11  1  0.37193884  0.12738078  0.87182790  1
  Fe  Fe12  1  0.37863956  0.87411648  0.12964483  1
  Fe  Fe13  1  0.50133655  0.50537907  0.74953319  1
  Fe  Fe14  1  0.00045289  0.50202199  0.00140287  1
  Fe  Fe15  1  0.62518425  0.62596537  0.12380680  1
  Fe  Fe16  1  0.49769404  0.74677046  0.00048519  1
  Fe  Fe17  1  0.00033558  0.24912754  -0.00176201  1
  Fe  Fe18  1  0.49864538  0.74904679  0.49803269  1
  Fe  Fe19  1  0.87604951  0.37418763  0.62816323  1
  Fe  Fe20  1  0.25134082  -0.00353529  0.50001244  1
  Fe  Fe21  1  0.62150517  0.87950759  0.37230759  1
  Fe  Fe22  1  0.12802985  0.62375141  0.62070238  1
  Fe  Fe23  1  0.49829257  0.00156178  0.49882799  1
  Fe  Fe24  1  0.37310867  0.12941790  0.62635149  1
  Fe  Fe25  1  0.62745463  0.12498923  0.62207673  1
  Fe  Fe26  1  0.49935056  0.00344448  0.74938439  1
  Fe  Fe27  1  0.24852461  0.49556010  0.25094503  1
  Fe  Fe28  1  0.25179722  -0.00037558  0.25080815  1
  Fe  Fe29  1  0.37377335  0.12773162  0.12484482  1
  Fe  Fe30  1  0.75020378  0.49832835  0.00029559  1
  Fe  Fe31  1  0.62148490  0.87661550  0.12882904  1
  Fe  Fe32  1  0.50304729  0.24623943  0.25142639  1
  Fe  Fe33  1  0.00183134  0.00178875  0.74882701  1
  Fe  Fe34  1  0.86894063  0.12350459  0.37895103  1
  Fe  Fe35  1  0.74877059  0.75096336  0.25102287  1
  Fe  Fe36  1  0.87703949  0.87700273  0.37821224  1
  Fe  Fe37  1  0.49967479  0.25129224  0.50053880  1
  Fe  Fe38  1  0.25183513  0.49917208  0.74733721  1
  Fe  Fe39  1  0.87542239  0.87212139  0.87128736  1
  Fe  Fe40  1  0.12763825  0.12736027  0.37609288  1
  Fe  Fe41  1  -0.00045457  0.00011465  -0.00035674  1
  Fe  Fe42  1  0.49934137  0.00189323  0.00020914  1
  Fe  Fe43  1  0.87177267  0.12650236  0.12422931  1
  Fe  Fe44  1  0.87384878  0.62254319  0.12875069  1
  Fe  Fe45  1  0.12923609  0.62375946  0.87743780  1
  Fe  Fe46  1  0.12576934  0.37458208  0.12435651  1
  Fe  Fe47  1  0.74943854  0.75585610  0.50357870  1
  Fe  Fe48  1  0.74966471  0.75181103  0.00081552  1
  Fe  Fe49  1  0.37625456  0.87287556  0.87254272  1
  Fe  Fe50  1  0.62424980  0.37337972  0.12195729  1
  Fe  Fe51  1  0.11965064  0.87290849  0.62143891  1
  Fe  Fe52  1  0.00056486  0.24948743  0.25165946  1
  Fe  Fe53  1  0.87227760  0.12417978  0.87401309  1
  Fe  Fe54  1  0.50385379  0.74433611  0.74953095  1
  Fe  Fe55  1  -0.00054098  0.74664365  -0.00045998  1
  Fe  Fe56  1  0.87162715  0.12512894  0.62291895  1
  Fe  Fe57  1  0.62904002  0.62351610  0.37862275  1
  Fe  Fe58  1  -0.00134863  0.74570554  0.25285965  1
  Fe  Fe59  1  0.25154027  0.75116485  0.25132815  1
  Fe  Fe60  1  0.87510943  0.37777332  0.37149769  1
  Fe  Fe61  1  -0.00393579  0.50278107  0.49831630  1
  Fe  Fe62  1  -0.00285063  0.24993779  0.49887271  1
  Fe  Fe63  1  0.87458336  0.37513054  0.12689023  1
  Fe  Fe64  1  0.37763772  0.87250820  0.62490346  1
  Fe  Fe65  1  0.50397362  0.50265193  0.24978713  1
  Fe  Fe66  1  0.75221111  0.49678207  0.50259215  1
  Fe  Fe67  1  0.50367848  0.24719239  -0.00498537  1
  Fe  Fe68  1  0.49607015  0.50345627  -0.00156825  1
  Fe  Fe69  1  0.62286378  0.37668142  0.62651580  1
  Fe  Fe70  1  0.37613843  0.37333952  0.12599230  1
  Fe  Fe71  1  0.62359319  0.87508904  0.87448758  1
  Fe  Fe72  1  0.74966479  -0.00188366  0.00221167  1
  Fe  Fe73  1  0.12801604  0.62253054  0.37700597  1
  Fe  Fe74  1  0.74602243  0.25281195  0.75225907  1
  Fe  Fe75  1  0.74959994  -0.00661022  0.74413393  1
  Fe  Fe76  1  0.87686716  0.87506458  0.12695868  1
  Fe  Fe77  1  0.12287491  0.87512101  0.37668126  1
  Fe  Fe78  1  0.37574099  0.37290575  0.87093526  1
  Fe  Fe79  1  0.25355851  0.25786188  0.49865424  1
  Fe  Fe80  1  0.24813628  0.75058806  0.74717786  1
  Fe  Fe81  1  0.12310512  0.87338941  0.12561456  1
  Fe  Fe82  1  0.49536028  0.49945275  0.50236775  1
  Fe  Fe83  1  0.12673812  0.12603277  0.12472321  1
  Fe  Fe84  1  0.87236420  0.62925272  0.62740880  1
  Fe  Fe85  1  0.87470015  0.37595390  0.87389102  1
  Fe  Fe86  1  0.37371994  0.12680780  0.37532332  1
  Fe  Fe87  1  -0.00062812  0.00239528  0.25175222  1
  Fe  Fe88  1  0.87002785  0.62660223  0.87158184  1
  Fe  Fe89  1  0.24846506  -0.00058441  0.74839038  1
  Co  Co90  1  0.25564796  0.49431635  0.49974362  1
  Co  Co91  1  0.25137897  0.75372031  0.49932163  1
  Co  Co92  1  0.62285492  0.38000930  0.87511027  1
  Co  Co93  1  0.74947972  0.25600511  0.50029232  1
  Co  Co94  1  0.00411239  0.74625830  0.75230582  1
  Co  Co95  1  0.12588087  0.12315330  0.87664743  1
  Co  Co96  1  0.62946519  0.11924072  0.87388016  1
  Co  Co97  1  0.62749804  0.12438290  0.12370670  1
  Co  Co98  1  0.62804581  0.12351980  0.37955863  1
  Co  Co99  1  0.74885309  -0.00738018  0.50408462  1
  Co  Co100  1  0.37335049  0.62752618  0.62326011  1
  Co  Co101  1  0.88425696  0.87167301  0.62454689  1
  Co  Co102  1  0.37850204  0.87561674  0.37339382  1
  Co  Co103  1  0.37406927  0.62315414  0.13032011  1
  Co  Co104  1  0.24508376  0.25163431  0.74985843  1
  Co  Co105  1  0.24997199  0.25296913  0.25191445  1
  Co  Co106  1  0.00264300  0.50161222  0.25056638  1
  Co  Co107  1  0.12092535  0.37551021  0.37834986  1
  Co  Co108  1  0.74837867  0.25148589  -0.00322196  1
  Co  Co109  1  0.74851793  0.49938152  0.74895168  1
  Co  Co110  1  0.50162171  0.74519586  0.25267698  1
  Co  Co111  1  0.12680631  0.62523859  0.12559762  1
  Co  Co112  1  0.37229447  0.62663852  0.87181592  1
  Co  Co113  1  0.37797774  0.37255349  0.63145454  1
  Co  Co114  1  0.00091443  0.00453111  0.50005388  1
  Co  Co115  1  0.50640323  0.24700996  0.75132531  1
  Co  Co116  1  0.25462600  0.49900757  0.00081350  1
  Co  Co117  1  0.86822139  0.62256696  0.37394078  1
  Co  Co118  1  0.75071413  0.00025924  0.24970197  1
  Co  Co119  1  0.61565630  0.87592232  0.62516363  1
  Co  Co120  1  0.62691944  0.62285457  0.62036976  1
  Co  Co121  1  0.25035627  0.25085020  -0.00223035  1
  Co  Co122  1  0.38006619  0.37601948  0.37017030  1
  Co  Co123  1  0.74440429  0.49822827  0.24810939  1
  Co  Co124  1  0.62872204  0.62522523  0.87759927  1
  Co  Co125  1  0.74484097  0.75367067  0.74548042  1
  Co  Co126  1  -0.00123648  0.74350157  0.49628800  1
  Co  Co127  1  0.49910361  0.00642539  0.25040564  1
