# generated using pymatgen
data_Fe45Co19
_symmetry_space_group_name_H-M   'P 1'
_cell_length_a   11.41487156
_cell_length_b   11.41534429
_cell_length_c   11.41577069
_cell_angle_alpha   89.99863663
_cell_angle_beta   90.00725406
_cell_angle_gamma   90.00383895
_symmetry_Int_Tables_number   1
_chemical_formula_structural   Fe45Co19
_chemical_formula_sum   'Fe90 Co38'
_cell_volume   1487.52843156
_cell_formula_units_Z   2
loop_
 _symmetry_equiv_pos_site_id
 _symmetry_equiv_pos_as_xyz
  1  'x, y, z'
loop_
 _atom_site_type_symbol
 _atom_site_label
 _atom_site_symmetry_multiplicity
 _atom_site_fract_x
 _atom_site_fract_y
 _atom_site_fract_z
 _atom_site_occupancy
  Fe  Fe0  1  -0.00240850  0.49934170  0.24640078  1
  Fe  Fe1  1  0.37594458  0.87570295  0.62570903  1
  Fe  Fe2  1  0.62432530  0.12446478  0.37320797  1
  Fe  Fe3  1  -0.00296038  -0.00330274  0.00112165  1
  Fe  Fe4  1  0.25029620  0.74938239  0.75206786  1
  Fe  Fe5  1  0.24804164  0.24846098  -0.00211012  1
  Fe  Fe6  1  0.25061657  0.25000041  0.25189318  1
  Fe  Fe7  1  0.24972501  0.00189304  0.74691287  1
  Fe  Fe8  1  -0.00071504  -0.00047063  0.50373689  1
  Fe  Fe9  1  0.62560333  0.87207396  0.62744640  1
  Fe  Fe10  1  0.37549513  0.12555261  0.12495356  1
  Fe  Fe11  1  0.75087064  0.00056151  0.24901683  1
  Fe  Fe12  1  0.74887901  0.50145372  0.49948273  1
  Fe  Fe13  1  0.75361667  0.74493358  0.75622472  1
  Fe  Fe14  1  0.12400738  0.12298923  0.37713855  1
  Fe  Fe15  1  0.62421600  0.37835132  0.87783655  1
  Fe  Fe16  1  0.62746211  0.87662429  0.37580572  1
  Fe  Fe17  1  0.12800003  0.37407950  0.12564554  1
  Fe  Fe18  1  -0.00203824  0.75248623  0.24937898  1
  Fe  Fe19  1  0.24954075  0.49986996  0.74994367  1
  Fe  Fe20  1  0.50188037  0.74772739  0.49900288  1
  Fe  Fe21  1  0.49947082  0.24908579  0.75204350  1
  Fe  Fe22  1  0.37232532  0.86951924  0.12525737  1
  Fe  Fe23  1  0.50310125  0.74849418  -0.00026016  1
  Fe  Fe24  1  0.87709984  0.13073810  0.62720714  1
  Fe  Fe25  1  0.62387389  0.12339581  0.87494028  1
  Fe  Fe26  1  0.62324871  0.37378126  0.62343150  1
  Fe  Fe27  1  -0.00237276  0.74951836  0.50097760  1
  Fe  Fe28  1  0.63182139  0.87220135  0.12269747  1
  Fe  Fe29  1  0.87498815  0.12366332  0.37517721  1
  Fe  Fe30  1  0.12374991  0.62669078  0.62604316  1
  Fe  Fe31  1  0.37517848  0.87335504  0.37518281  1
  Fe  Fe32  1  0.62674795  0.87486905  0.87420637  1
  Fe  Fe33  1  0.12561445  0.62980198  0.12356834  1
  Fe  Fe34  1  0.12374391  0.87672655  0.37790135  1
  Fe  Fe35  1  0.87491431  0.37266922  0.62602591  1
  Fe  Fe36  1  0.50112956  -0.00384056  0.24725987  1
  Fe  Fe37  1  0.25084314  0.50191963  0.50032035  1
  Fe  Fe38  1  0.24986747  -0.00212792  0.25028014  1
  Fe  Fe39  1  0.12092833  0.62611594  0.87543395  1
  Fe  Fe40  1  0.12559950  0.37725895  0.37415177  1
  Fe  Fe41  1  0.25112060  -0.00196242  -0.00003098  1
  Fe  Fe42  1  -0.00201213  -0.00267833  0.24791516  1
  Fe  Fe43  1  0.74898370  0.00142749  0.74955638  1
  Fe  Fe44  1  -0.00035854  0.49817098  0.74920512  1
  Fe  Fe45  1  0.75031268  0.50052855  0.75071919  1
  Fe  Fe46  1  0.12476220  0.12285819  0.87479722  1
  Fe  Fe47  1  0.50138979  0.24929571  0.00122214  1
  Fe  Fe48  1  0.00074868  0.49822579  0.00293813  1
  Fe  Fe49  1  0.12699582  0.87257932  0.12345933  1
  Fe  Fe50  1  0.25147692  0.50363960  0.00220141  1
  Fe  Fe51  1  0.74803054  0.24804481  0.00043643  1
  Fe  Fe52  1  0.00064109  -0.00099852  0.74661137  1
  Fe  Fe53  1  0.74810817  0.25288387  0.24942047  1
  Fe  Fe54  1  0.75012616  0.50574866  0.00386513  1
  Fe  Fe55  1  0.37438363  0.37589250  0.87745313  1
  Fe  Fe56  1  0.24969532  0.24853585  0.75160434  1
  Fe  Fe57  1  0.50169079  0.25502121  0.24898475  1
  Fe  Fe58  1  0.12275652  0.62360448  0.37489285  1
  Fe  Fe59  1  0.00156675  0.25113445  -0.00170981  1
  Fe  Fe60  1  0.25451271  0.50324356  0.24814546  1
  Fe  Fe61  1  0.12389314  0.37122406  0.62496235  1
  Fe  Fe62  1  0.50025880  0.50066679  0.74849387  1
  Fe  Fe63  1  0.74858863  0.25079881  0.49847607  1
  Fe  Fe64  1  0.37707972  0.12320057  0.37436966  1
  Fe  Fe65  1  0.62294959  0.12676333  0.62554321  1
  Fe  Fe66  1  0.62059247  0.61819401  0.36781277  1
  Fe  Fe67  1  0.25017746  0.74890715  0.49740287  1
  Fe  Fe68  1  0.37718463  0.37388978  0.62351117  1
  Fe  Fe69  1  0.37921195  0.37885348  0.37828857  1
  Fe  Fe70  1  0.87419233  0.12501975  0.12440453  1
  Fe  Fe71  1  0.75000902  0.74567622  0.49628537  1
  Fe  Fe72  1  -0.00097459  0.49867104  0.50147584  1
  Fe  Fe73  1  0.12233354  0.87335895  0.87292269  1
  Fe  Fe74  1  0.50159668  -0.00076000  0.00174285  1
  Fe  Fe75  1  0.87322323  0.37601671  0.87703280  1
  Fe  Fe76  1  0.50066801  -0.00008523  0.50118032  1
  Fe  Fe77  1  0.87321060  0.37752809  0.37415737  1
  Fe  Fe78  1  0.62589505  0.62618543  0.62819846  1
  Fe  Fe79  1  0.37529131  0.62653783  0.62506246  1
  Fe  Fe80  1  0.87437439  0.12478587  0.87339782  1
  Fe  Fe81  1  -0.00023956  0.25108116  0.25061382  1
  Fe  Fe82  1  0.12529885  0.12398686  0.12533098  1
  Fe  Fe83  1  0.25113424  0.24843598  0.49924130  1
  Fe  Fe84  1  0.75317797  0.74733497  0.25301206  1
  Fe  Fe85  1  0.87230841  0.87119624  0.62592582  1
  Fe  Fe86  1  0.37732521  0.62504345  0.87494852  1
  Fe  Fe87  1  0.75037467  0.00112136  0.50242530  1
  Fe  Fe88  1  0.37763592  0.87631423  0.87315124  1
  Fe  Fe89  1  0.49762416  0.50303360  0.00734540  1
  Co  Co90  1  0.37941479  0.62471556  0.37225458  1
  Co  Co91  1  0.50187149  0.00123670  0.74942982  1
  Co  Co92  1  0.87605500  0.62866393  0.12511870  1
  Co  Co93  1  0.86800127  0.87391406  0.12352587  1
  Co  Co94  1  0.37402651  0.63447082  0.12791639  1
  Co  Co95  1  0.50317422  0.75429300  0.24998982  1
  Co  Co96  1  0.24613948  0.75006419  0.25512240  1
  Co  Co97  1  0.37048505  0.37043376  0.12122610  1
  Co  Co98  1  0.62431368  0.12448158  0.12686191  1
  Co  Co99  1  0.24983115  0.75016265  -0.00593919  1
  Co  Co100  1  0.12307250  0.12950074  0.62333751  1
  Co  Co101  1  0.12781705  0.37829614  0.87673728  1
  Co  Co102  1  0.12667303  0.87195361  0.62530275  1
  Co  Co103  1  0.25069575  0.00029865  0.50069416  1
  Co  Co104  1  0.37515710  0.12370402  0.87672123  1
  Co  Co105  1  0.37601785  0.12485326  0.62492277  1
  Co  Co106  1  0.50152632  0.50485996  0.50356175  1
  Co  Co107  1  0.62306991  0.38044720  0.37416052  1
  Co  Co108  1  -0.00381345  0.75461812  -0.00024544  1
  Co  Co109  1  0.88078894  0.62064173  0.87706165  1
  Co  Co110  1  0.87433553  0.62432078  0.62436638  1
  Co  Co111  1  0.62568007  0.62640949  0.12954150  1
  Co  Co112  1  0.75422782  0.49918050  0.24597380  1
  Co  Co113  1  0.87744073  0.62228784  0.37446967  1
  Co  Co114  1  0.49960544  0.74875610  0.75066994  1
  Co  Co115  1  0.74923736  0.00274578  -0.00146152  1
  Co  Co116  1  -0.00148740  0.25222272  0.49523374  1
  Co  Co117  1  0.87447262  0.87680638  0.37738704  1
  Co  Co118  1  0.87358959  0.87795915  0.87370893  1
  Co  Co119  1  0.74716266  0.25137021  0.75186459  1
  Co  Co120  1  0.75152504  0.74446322  -0.00608613  1
  Co  Co121  1  0.49394675  0.49587073  0.24158130  1
  Co  Co122  1  0.50177798  0.24789971  0.49789109  1
  Co  Co123  1  0.87442481  0.37217524  0.12209316  1
  Co  Co124  1  -0.00289647  0.74921158  0.74984281  1
  Co  Co125  1  0.62207688  0.62170013  0.87491576  1
  Co  Co126  1  0.62748837  0.37794053  0.12351715  1
  Co  Co127  1  0.00147520  0.25288172  0.75566538  1
