# generated using pymatgen
data_Fe45Co19
_symmetry_space_group_name_H-M   'P 1'
_cell_length_a   11.41528721
_cell_length_b   11.41516964
_cell_length_c   11.41682075
_cell_angle_alpha   90.00328106
_cell_angle_beta   90.00978788
_cell_angle_gamma   89.99246902
_symmetry_Int_Tables_number   1
_chemical_formula_structural   Fe45Co19
_chemical_formula_sum   'Fe90 Co38'
_cell_volume   1487.69664868
_cell_formula_units_Z   2
loop_
 _symmetry_equiv_pos_site_id
 _symmetry_equiv_pos_as_xyz
  1  'x, y, z'
loop_
 _atom_site_type_symbol
 _atom_site_label
 _atom_site_symmetry_multiplicity
 _atom_site_fract_x
 _atom_site_fract_y
 _atom_site_fract_z
 _atom_site_occupancy
  Fe  Fe0  1  0.00044472  0.00091371  0.49989705  1
  Fe  Fe1  1  0.24996404  0.24704765  0.24917585  1
  Fe  Fe2  1  0.12467266  0.62759847  0.62549706  1
  Fe  Fe3  1  0.37550505  0.87569842  0.37346881  1
  Fe  Fe4  1  0.25106673  0.49988055  0.50005583  1
  Fe  Fe5  1  0.00085664  0.24939764  0.00066658  1
  Fe  Fe6  1  0.37796535  0.12386489  0.62561374  1
  Fe  Fe7  1  0.62543603  0.62522614  0.37376896  1
  Fe  Fe8  1  0.62604479  0.12322535  0.62499232  1
  Fe  Fe9  1  0.62303784  0.62553014  0.87592488  1
  Fe  Fe10  1  0.00370256  0.50135158  -0.00107202  1
  Fe  Fe11  1  0.12586703  0.37468238  0.37443670  1
  Fe  Fe12  1  0.25132000  0.24969996  0.74889574  1
  Fe  Fe13  1  -0.00023509  0.24762446  0.49707962  1
  Fe  Fe14  1  0.62520622  0.37457568  0.62600753  1
  Fe  Fe15  1  -0.00006679  0.50074523  0.49948322  1
  Fe  Fe16  1  0.50400107  -0.00405622  0.75274809  1
  Fe  Fe17  1  0.62498412  0.87198256  0.12437270  1
  Fe  Fe18  1  0.12485671  0.37311147  0.62343632  1
  Fe  Fe19  1  0.87615952  0.12774043  0.12850048  1
  Fe  Fe20  1  0.12702768  0.37358796  0.87527007  1
  Fe  Fe21  1  0.75193951  0.74868291  -0.00030947  1
  Fe  Fe22  1  0.87472973  0.37560974  0.12437217  1
  Fe  Fe23  1  0.49759617  0.74852952  0.24792117  1
  Fe  Fe24  1  0.62553750  0.37749551  0.37450063  1
  Fe  Fe25  1  0.37277808  0.62142527  0.87850352  1
  Fe  Fe26  1  0.87652546  0.12372343  0.87457452  1
  Fe  Fe27  1  0.75136139  0.00053933  0.00158574  1
  Fe  Fe28  1  0.87299020  0.12304367  0.62567739  1
  Fe  Fe29  1  0.00098109  0.00029212  0.00129069  1
  Fe  Fe30  1  0.74610275  0.75253948  0.49846620  1
  Fe  Fe31  1  0.37539378  0.62396567  0.37389021  1
  Fe  Fe32  1  0.00147964  0.24911097  0.75073127  1
  Fe  Fe33  1  0.24711274  0.74968696  0.00021244  1
  Fe  Fe34  1  0.87778775  0.87209161  0.12570643  1
  Fe  Fe35  1  0.25163758  0.24821787  0.49976205  1
  Fe  Fe36  1  0.12429570  0.62689747  0.37576179  1
  Fe  Fe37  1  0.74819586  0.24955533  0.49812501  1
  Fe  Fe38  1  0.50028382  0.25084308  0.24864165  1
  Fe  Fe39  1  0.50519581  -0.00508751  0.49950180  1
  Fe  Fe40  1  0.87209454  0.12397811  0.37120526  1
  Fe  Fe41  1  0.37500808  0.87610389  0.87860099  1
  Fe  Fe42  1  0.25129700  0.75077105  0.75041666  1
  Fe  Fe43  1  0.62513730  0.12712480  0.87870137  1
  Fe  Fe44  1  0.00335320  0.00034054  0.74859221  1
  Fe  Fe45  1  -0.00070731  0.75303544  0.50017599  1
  Fe  Fe46  1  0.24847952  -0.00010857  0.74823116  1
  Fe  Fe47  1  0.49887467  0.49680914  0.75305323  1
  Fe  Fe48  1  0.87343038  0.87597593  0.37188109  1
  Fe  Fe49  1  0.62726298  0.12147412  0.37189438  1
  Fe  Fe50  1  0.37456886  0.12372304  0.87542188  1
  Fe  Fe51  1  0.50010324  -0.00008929  0.00165119  1
  Fe  Fe52  1  0.37811342  0.87357448  0.62493576  1
  Fe  Fe53  1  0.37616646  0.12237970  0.37371871  1
  Fe  Fe54  1  0.12349139  0.87606241  0.12852600  1
  Fe  Fe55  1  0.49944568  -0.00220370  0.24666722  1
  Fe  Fe56  1  0.75113735  0.50217730  0.24799151  1
  Fe  Fe57  1  0.74997687  0.24904194  0.75222639  1
  Fe  Fe58  1  0.00059716  0.50136632  0.74969263  1
  Fe  Fe59  1  0.24936853  0.00074593  0.50091447  1
  Fe  Fe60  1  0.25079533  0.75020294  0.24932637  1
  Fe  Fe61  1  0.87392633  0.37489356  0.62384202  1
  Fe  Fe62  1  0.87385731  0.37563916  0.87552901  1
  Fe  Fe63  1  0.87383693  0.62677899  0.62251824  1
  Fe  Fe64  1  0.49898616  0.25263699  0.75343765  1
  Fe  Fe65  1  0.37758403  0.62625306  0.62517980  1
  Fe  Fe66  1  0.49904675  0.50141386  0.24438704  1
  Fe  Fe67  1  0.25202804  0.75064752  0.50034168  1
  Fe  Fe68  1  0.25172799  0.24783969  0.00268862  1
  Fe  Fe69  1  0.62151502  0.62930841  0.62604452  1
  Fe  Fe70  1  -0.00178966  0.50299541  0.25204695  1
  Fe  Fe71  1  0.24939007  0.00174536  0.00396107  1
  Fe  Fe72  1  0.74997826  0.50227195  0.74991995  1
  Fe  Fe73  1  0.24974730  0.49895738  0.74949385  1
  Fe  Fe74  1  0.87936992  0.62748748  0.87661838  1
  Fe  Fe75  1  0.49938799  0.49992745  0.50049472  1
  Fe  Fe76  1  0.87215765  0.37733350  0.37590305  1
  Fe  Fe77  1  0.37473270  0.37655931  0.37255925  1
  Fe  Fe78  1  0.87502196  0.87414375  0.87367640  1
  Fe  Fe79  1  0.74952449  0.50193702  -0.00038553  1
  Fe  Fe80  1  0.62532543  0.12797946  0.12379544  1
  Fe  Fe81  1  0.62563677  0.37289736  0.12025198  1
  Fe  Fe82  1  0.12375145  0.87455146  0.87310595  1
  Fe  Fe83  1  0.50019869  0.25048199  0.49874025  1
  Fe  Fe84  1  0.12509349  0.87712543  0.37325693  1
  Fe  Fe85  1  0.86987177  0.87686815  0.62822151  1
  Fe  Fe86  1  0.49793201  0.74722616  0.00093184  1
  Fe  Fe87  1  0.12380721  0.62599781  0.12614181  1
  Fe  Fe88  1  0.12545275  0.37484922  0.12767553  1
  Fe  Fe89  1  0.75307925  0.74711961  0.24846131  1
  Co  Co90  1  0.12587162  0.12481957  0.87589269  1
  Co  Co91  1  0.12495562  0.12624174  0.62384016  1
  Co  Co92  1  0.62641090  0.62695976  0.12449549  1
  Co  Co93  1  0.00347854  0.75110155  0.00006757  1
  Co  Co94  1  0.74813288  -0.00228293  0.49849810  1
  Co  Co95  1  0.74655387  0.50075713  0.50240851  1
  Co  Co96  1  0.37314475  0.37701969  0.12549561  1
  Co  Co97  1  0.49529221  0.25219030  -0.00174438  1
  Co  Co98  1  0.12242195  0.12409753  0.12758415  1
  Co  Co99  1  0.50095718  0.49925513  0.00175033  1
  Co  Co100  1  0.12580989  0.12227404  0.37282406  1
  Co  Co101  1  0.74886131  0.25258933  0.25004512  1
  Co  Co102  1  0.62771701  0.37444955  0.87739945  1
  Co  Co103  1  -0.00125141  0.00053455  0.25027178  1
  Co  Co104  1  0.62588282  0.87414463  0.36835475  1
  Co  Co105  1  0.62609134  0.87256568  0.87979386  1
  Co  Co106  1  0.37185811  0.37754825  0.87884671  1
  Co  Co107  1  -0.00096044  0.75090316  0.74792966  1
  Co  Co108  1  0.75395000  0.24833629  -0.00084492  1
  Co  Co109  1  0.37772922  0.12537193  0.12580902  1
  Co  Co110  1  0.12465637  0.62660967  0.87226372  1
  Co  Co111  1  0.12594888  0.87418097  0.62454773  1
  Co  Co112  1  0.87773433  0.62486570  0.12152876  1
  Co  Co113  1  0.49759921  0.75214804  0.75519842  1
  Co  Co114  1  -0.00051540  0.25213053  0.25155935  1
  Co  Co115  1  0.87279573  0.62484513  0.37881452  1
  Co  Co116  1  0.37598049  0.37435678  0.62381245  1
  Co  Co117  1  0.24847495  0.50206397  0.25065976  1
  Co  Co118  1  0.75038166  -0.00088052  0.24469501  1
  Co  Co119  1  0.37135823  0.62340657  0.12242431  1
  Co  Co120  1  0.50098756  0.75222712  0.49662937  1
  Co  Co121  1  0.74580774  0.00075441  0.75403016  1
  Co  Co122  1  0.37517951  0.87319136  0.12326911  1
  Co  Co123  1  0.74979760  0.74803309  0.75312752  1
  Co  Co124  1  0.25276674  0.00041428  0.24760988  1
  Co  Co125  1  0.62614799  0.87189642  0.62852234  1
  Co  Co126  1  -0.00114531  0.74751337  0.25152331  1
  Co  Co127  1  0.24522221  0.50042331  0.00126810  1
