# generated using pymatgen
data_Fe45Co19
_symmetry_space_group_name_H-M   'P 1'
_cell_length_a   11.41618229
_cell_length_b   11.41479056
_cell_length_c   11.41544503
_cell_angle_alpha   89.99908945
_cell_angle_beta   90.00370730
_cell_angle_gamma   89.99986697
_symmetry_Int_Tables_number   1
_chemical_formula_structural   Fe45Co19
_chemical_formula_sum   'Fe90 Co38'
_cell_volume   1487.58464906
_cell_formula_units_Z   2
loop_
 _symmetry_equiv_pos_site_id
 _symmetry_equiv_pos_as_xyz
  1  'x, y, z'
loop_
 _atom_site_type_symbol
 _atom_site_label
 _atom_site_symmetry_multiplicity
 _atom_site_fract_x
 _atom_site_fract_y
 _atom_site_fract_z
 _atom_site_occupancy
  Fe  Fe0  1  0.25100867  0.00131088  0.49967893  1
  Fe  Fe1  1  0.74601100  0.49643619  0.75087574  1
  Fe  Fe2  1  0.50189246  0.25053294  0.25104224  1
  Fe  Fe3  1  0.25232996  0.25132542  0.00126622  1
  Fe  Fe4  1  0.49776320  0.24674587  0.00258777  1
  Fe  Fe5  1  0.62324688  0.87117019  0.37764447  1
  Fe  Fe6  1  0.49926223  0.00110014  0.74955226  1
  Fe  Fe7  1  0.62537204  0.12542869  0.62285504  1
  Fe  Fe8  1  0.49786888  0.50545620  0.49683214  1
  Fe  Fe9  1  0.50179298  0.49732612  0.74891034  1
  Fe  Fe10  1  0.49991404  0.74907315  0.74936343  1
  Fe  Fe11  1  0.74519927  0.50059045  0.25076274  1
  Fe  Fe12  1  0.75071054  -0.00092481  0.49987047  1
  Fe  Fe13  1  0.25056331  0.74961320  0.24539230  1
  Fe  Fe14  1  0.37275438  0.12555221  0.87118559  1
  Fe  Fe15  1  0.62440759  0.37397068  0.12359873  1
  Fe  Fe16  1  0.24887200  0.25396968  0.25256917  1
  Fe  Fe17  1  0.37585573  0.37265560  0.61940411  1
  Fe  Fe18  1  0.49881278  0.00156209  0.49898159  1
  Fe  Fe19  1  0.25273925  -0.00340642  0.24855494  1
  Fe  Fe20  1  0.00261697  -0.00052567  0.75074740  1
  Fe  Fe21  1  0.37721690  0.37934051  0.13043899  1
  Fe  Fe22  1  0.74749543  0.75235773  -0.00461970  1
  Fe  Fe23  1  0.12314334  0.37721684  0.12349193  1
  Fe  Fe24  1  0.12671160  0.12427967  0.12676923  1
  Fe  Fe25  1  -0.00224286  0.50005133  -0.00243300  1
  Fe  Fe26  1  0.25131012  0.74820874  0.00376086  1
  Fe  Fe27  1  0.74873780  -0.00004551  -0.00109418  1
  Fe  Fe28  1  0.87495871  0.87438802  0.37508860  1
  Fe  Fe29  1  0.62025006  0.87548450  0.12225581  1
  Fe  Fe30  1  0.62871632  0.12746374  0.37539823  1
  Fe  Fe31  1  0.37775092  0.87558818  0.87667245  1
  Fe  Fe32  1  0.87110383  0.62558140  0.12556008  1
  Fe  Fe33  1  0.62326692  0.12568302  0.87635426  1
  Fe  Fe34  1  0.87266811  0.62394980  0.87122775  1
  Fe  Fe35  1  0.00038538  0.24724018  0.49978163  1
  Fe  Fe36  1  0.74887744  -0.00154405  0.24800022  1
  Fe  Fe37  1  0.00054213  0.00217786  -0.00078203  1
  Fe  Fe38  1  0.37740256  0.37548941  0.87660391  1
  Fe  Fe39  1  0.87240426  0.12609464  0.37340524  1
  Fe  Fe40  1  0.49968162  0.74522857  -0.00129615  1
  Fe  Fe41  1  0.87568466  0.87510171  0.12311706  1
  Fe  Fe42  1  -0.00084039  0.24988753  -0.00049472  1
  Fe  Fe43  1  0.00539542  0.25555403  0.75252546  1
  Fe  Fe44  1  0.25390650  -0.00180558  0.00264942  1
  Fe  Fe45  1  0.12526865  0.87445836  0.87641164  1
  Fe  Fe46  1  0.87362146  0.37291985  0.37423611  1
  Fe  Fe47  1  0.50005120  0.25090988  0.74684186  1
  Fe  Fe48  1  0.12664140  0.87400586  0.37561553  1
  Fe  Fe49  1  0.00027329  0.50178840  0.25054031  1
  Fe  Fe50  1  0.87788408  0.37660849  0.62646354  1
  Fe  Fe51  1  0.12585661  0.87383430  0.62331954  1
  Fe  Fe52  1  0.00107457  0.00222086  0.50036020  1
  Fe  Fe53  1  0.74572749  0.25378335  0.74793706  1
  Fe  Fe54  1  0.87374132  0.37551334  0.12569847  1
  Fe  Fe55  1  0.12644604  0.62305008  0.87466141  1
  Fe  Fe56  1  0.74869882  -0.00281630  0.75260943  1
  Fe  Fe57  1  0.62672991  0.62708035  0.62350235  1
  Fe  Fe58  1  0.25141878  0.75156188  0.74979178  1
  Fe  Fe59  1  0.37615463  0.87635338  0.62335971  1
  Fe  Fe60  1  0.13021063  0.12603174  0.87339642  1
  Fe  Fe61  1  0.50202694  0.74464164  0.25160632  1
  Fe  Fe62  1  0.75054874  0.24865135  0.00180382  1
  Fe  Fe63  1  0.00000902  0.00010551  0.24980273  1
  Fe  Fe64  1  0.87036799  0.62809887  0.37278740  1
  Fe  Fe65  1  -0.00035904  0.24919874  0.24950354  1
  Fe  Fe66  1  0.62438279  0.87242864  0.62339117  1
  Fe  Fe67  1  0.25200177  0.50069395  0.49761254  1
  Fe  Fe68  1  0.75193110  0.50006472  0.50044502  1
  Fe  Fe69  1  0.74788295  0.49909223  -0.00236710  1
  Fe  Fe70  1  0.37374717  0.12665743  0.37470156  1
  Fe  Fe71  1  0.12567110  0.62237637  0.62604817  1
  Fe  Fe72  1  0.12695767  0.62682535  0.37359914  1
  Fe  Fe73  1  0.87484080  0.87472421  0.62679504  1
  Fe  Fe74  1  0.00079645  0.74853576  0.00037269  1
  Fe  Fe75  1  0.25131500  0.50169778  0.00350715  1
  Fe  Fe76  1  0.37489841  0.62224132  0.87222615  1
  Fe  Fe77  1  0.24838053  0.49441936  0.74941820  1
  Fe  Fe78  1  0.50158171  0.50242529  0.00116739  1
  Fe  Fe79  1  0.13039594  0.12719826  0.62758579  1
  Fe  Fe80  1  0.87456861  0.12702000  0.87310360  1
  Fe  Fe81  1  -0.00277750  0.74767949  0.50115340  1
  Fe  Fe82  1  0.25548776  0.74737419  0.50051667  1
  Fe  Fe83  1  0.12367086  0.37537798  0.37787575  1
  Fe  Fe84  1  0.00008257  0.75000442  0.24838594  1
  Fe  Fe85  1  0.87436754  0.12626249  0.62782671  1
  Fe  Fe86  1  -0.00047737  0.74859276  0.74936092  1
  Fe  Fe87  1  0.49889378  0.00155273  0.24913273  1
  Fe  Fe88  1  0.62497212  0.37239666  0.37965049  1
  Fe  Fe89  1  -0.00213934  0.50377366  0.49934741  1
  Co  Co90  1  0.25081196  -0.00461042  0.75027431  1
  Co  Co91  1  0.24558535  0.49838204  0.25038427  1
  Co  Co92  1  0.62214807  0.37221149  0.87854017  1
  Co  Co93  1  0.50905360  0.50222586  0.25280086  1
  Co  Co94  1  0.25056139  0.25779156  0.75004304  1
  Co  Co95  1  0.12612247  0.12282694  0.37233233  1
  Co  Co96  1  0.37199135  0.12561657  0.62618057  1
  Co  Co97  1  0.87265297  0.62272117  0.62967790  1
  Co  Co98  1  0.87215283  0.37349668  0.87373750  1
  Co  Co99  1  0.12396374  0.37655839  0.61863871  1
  Co  Co100  1  0.62411158  0.62336370  0.87216856  1
  Co  Co101  1  0.00310241  0.49749946  0.75257199  1
  Co  Co102  1  0.62210838  0.37646023  0.61896241  1
  Co  Co103  1  0.75232148  0.25055267  0.50311511  1
  Co  Co104  1  0.37739649  0.62145711  0.12960136  1
  Co  Co105  1  0.87478869  0.12404636  0.12582458  1
  Co  Co106  1  0.37270541  0.12755972  0.12963382  1
  Co  Co107  1  0.38062187  0.87176942  0.12477611  1
  Co  Co108  1  0.12351373  0.87648390  0.12464355  1
  Co  Co109  1  0.62729189  0.62633126  0.12241332  1
  Co  Co110  1  0.12272269  0.62302119  0.12470617  1
  Co  Co111  1  0.37573895  0.87319907  0.37424761  1
  Co  Co112  1  0.74903141  0.25149810  0.24816286  1
  Co  Co113  1  0.75376538  0.75179463  0.50189166  1
  Co  Co114  1  0.37402014  0.62227304  0.62925527  1
  Co  Co115  1  0.49443189  0.74623821  0.50051255  1
  Co  Co116  1  0.62518433  0.12449335  0.12539686  1
  Co  Co117  1  0.62872240  0.62907244  0.38092456  1
  Co  Co118  1  0.49607066  0.00567068  0.00143653  1
  Co  Co119  1  0.24991499  0.24920643  0.49723073  1
  Co  Co120  1  0.61907131  0.87715768  0.87651708  1
  Co  Co121  1  0.74758853  0.75272181  0.24828190  1
  Co  Co122  1  0.37745844  0.37720045  0.37357628  1
  Co  Co123  1  0.74856916  0.75319301  0.75253853  1
  Co  Co124  1  0.37302243  0.62294325  0.36818056  1
  Co  Co125  1  0.87814165  0.87566763  0.87480497  1
  Co  Co126  1  0.49888370  0.24576412  0.49977387  1
  Co  Co127  1  0.12731050  0.37679075  0.88107892  1
