# generated using pymatgen
data_Fe45Co19
_symmetry_space_group_name_H-M   'P 1'
_cell_length_a   11.41588989
_cell_length_b   11.41582266
_cell_length_c   11.41615275
_cell_angle_alpha   90.00750568
_cell_angle_beta   89.99612063
_cell_angle_gamma   89.99813172
_symmetry_Int_Tables_number   1
_chemical_formula_structural   Fe45Co19
_chemical_formula_sum   'Fe90 Co38'
_cell_volume   1487.77326758
_cell_formula_units_Z   2
loop_
 _symmetry_equiv_pos_site_id
 _symmetry_equiv_pos_as_xyz
  1  'x, y, z'
loop_
 _atom_site_type_symbol
 _atom_site_label
 _atom_site_symmetry_multiplicity
 _atom_site_fract_x
 _atom_site_fract_y
 _atom_site_fract_z
 _atom_site_occupancy
  Fe  Fe0  1  0.87382312  0.87579019  0.37663540  1
  Fe  Fe1  1  0.00219498  -0.00103463  0.25092839  1
  Fe  Fe2  1  0.37566139  0.37930357  0.37830423  1
  Fe  Fe3  1  0.25042130  0.00646535  0.50034813  1
  Fe  Fe4  1  0.12426150  0.62279414  0.12268116  1
  Fe  Fe5  1  0.25422481  0.74931915  0.24710132  1
  Fe  Fe6  1  0.49750346  0.25559213  0.24798018  1
  Fe  Fe7  1  0.12570790  0.12689998  0.12715796  1
  Fe  Fe8  1  0.12899301  0.87528097  0.12170970  1
  Fe  Fe9  1  0.37230088  0.38267163  0.11937155  1
  Fe  Fe10  1  0.62692618  0.37449115  0.62466768  1
  Fe  Fe11  1  -0.00069398  0.25107253  0.00074932  1
  Fe  Fe12  1  0.00250012  0.50058388  0.49958942  1
  Fe  Fe13  1  0.25343923  0.24957216  0.74799206  1
  Fe  Fe14  1  0.74810133  0.00272551  -0.00210220  1
  Fe  Fe15  1  0.25469848  0.24635279  0.50064412  1
  Fe  Fe16  1  0.87821409  0.62389646  0.62490040  1
  Fe  Fe17  1  0.75172664  0.50047247  0.75219511  1
  Fe  Fe18  1  0.75115150  0.74926899  0.74989680  1
  Fe  Fe19  1  0.61978662  0.62480988  0.12668568  1
  Fe  Fe20  1  0.62540635  0.87429980  0.62335044  1
  Fe  Fe21  1  0.49845883  0.49590673  0.75292740  1
  Fe  Fe22  1  0.37871088  0.12673563  0.87036122  1
  Fe  Fe23  1  0.12417290  0.62593878  0.37385402  1
  Fe  Fe24  1  0.49708013  0.74752936  0.00167124  1
  Fe  Fe25  1  0.74918567  0.50264557  -0.00205252  1
  Fe  Fe26  1  0.87283702  0.37587094  0.12484072  1
  Fe  Fe27  1  0.50017557  -0.00008447  -0.00213709  1
  Fe  Fe28  1  0.00222290  0.49731544  0.24862861  1
  Fe  Fe29  1  -0.00160801  0.25118253  0.25109102  1
  Fe  Fe30  1  0.87601462  0.62339224  0.12554579  1
  Fe  Fe31  1  0.00306716  0.00196085  0.49884420  1
  Fe  Fe32  1  0.62539093  0.87204433  0.87698338  1
  Fe  Fe33  1  0.25338749  0.25222026  0.24947901  1
  Fe  Fe34  1  0.24650819  0.00197448  0.74990736  1
  Fe  Fe35  1  0.74722779  0.75230338  0.24989625  1
  Fe  Fe36  1  0.24995229  0.00534737  -0.00246690  1
  Fe  Fe37  1  0.87616367  0.62368245  0.37358537  1
  Fe  Fe38  1  0.00383989  0.75283509  0.74751722  1
  Fe  Fe39  1  0.87630133  0.87559647  0.62360951  1
  Fe  Fe40  1  0.49789057  0.25093291  -0.00014326  1
  Fe  Fe41  1  0.00098379  0.49532076  0.75166612  1
  Fe  Fe42  1  0.74741829  0.00118077  0.75156402  1
  Fe  Fe43  1  0.00236019  0.00031998  -0.00082768  1
  Fe  Fe44  1  -0.00195393  0.24801116  0.49719584  1
  Fe  Fe45  1  0.62106459  0.12695870  0.37390010  1
  Fe  Fe46  1  0.25183309  -0.00086714  0.25161235  1
  Fe  Fe47  1  0.87667638  0.12660120  0.87321738  1
  Fe  Fe48  1  0.74622177  -0.00192208  0.25007794  1
  Fe  Fe49  1  0.12982674  0.37277649  0.88008206  1
  Fe  Fe50  1  0.24902405  0.74460839  0.50276897  1
  Fe  Fe51  1  0.12908108  0.37492709  0.62219712  1
  Fe  Fe52  1  0.37700814  0.12228122  0.12828240  1
  Fe  Fe53  1  0.49928794  -0.00897782  0.25136298  1
  Fe  Fe54  1  0.75075152  0.25151142  0.25470894  1
  Fe  Fe55  1  0.62079206  0.62627597  0.37233576  1
  Fe  Fe56  1  0.49981236  0.75286678  0.74784905  1
  Fe  Fe57  1  0.24610271  0.74780159  0.74954591  1
  Fe  Fe58  1  0.13008288  0.37556592  0.12087042  1
  Fe  Fe59  1  0.74829237  0.00400819  0.50143071  1
  Fe  Fe60  1  0.00028687  0.75220386  0.24877676  1
  Fe  Fe61  1  0.37176076  0.87337591  0.87471483  1
  Fe  Fe62  1  0.00008413  0.25331434  0.75091966  1
  Fe  Fe63  1  0.37489859  0.62049939  0.62697036  1
  Fe  Fe64  1  0.37182952  0.87671274  0.62443569  1
  Fe  Fe65  1  0.37803090  0.62294543  0.37151000  1
  Fe  Fe66  1  0.62442076  0.62369701  0.62780487  1
  Fe  Fe67  1  0.74661127  0.49720827  0.25258046  1
  Fe  Fe68  1  0.75096542  0.74764651  0.50059005  1
  Fe  Fe69  1  0.00501567  -0.00049181  0.75046176  1
  Fe  Fe70  1  0.87610706  0.12680673  0.62655963  1
  Fe  Fe71  1  0.62667888  0.37310744  0.87492023  1
  Fe  Fe72  1  0.87224374  0.37388194  0.62248122  1
  Fe  Fe73  1  0.87460822  0.12450662  0.12699271  1
  Fe  Fe74  1  0.49844638  0.74878836  0.50099794  1
  Fe  Fe75  1  0.62555391  0.37593229  0.12260665  1
  Fe  Fe76  1  0.62080355  0.12689662  0.63030446  1
  Fe  Fe77  1  0.49763145  -0.00026307  0.49962554  1
  Fe  Fe78  1  0.12832141  0.87333737  0.37782880  1
  Fe  Fe79  1  0.25112633  0.74360368  -0.00067082  1
  Fe  Fe80  1  0.49693731  0.25091968  0.50419504  1
  Fe  Fe81  1  0.74755461  0.49996303  0.49767877  1
  Fe  Fe82  1  0.24900177  0.50127594  0.75403657  1
  Fe  Fe83  1  0.87674301  0.87426943  0.87560145  1
  Fe  Fe84  1  0.12661228  0.37328410  0.37604534  1
  Fe  Fe85  1  0.74989661  0.24679118  -0.00168429  1
  Fe  Fe86  1  0.75097513  0.74704917  -0.00026059  1
  Fe  Fe87  1  0.88056322  0.62420608  0.87607855  1
  Fe  Fe88  1  0.62271914  0.12505172  0.12680789  1
  Fe  Fe89  1  0.87338323  0.87581345  0.12433185  1
  Co  Co90  1  0.12438705  0.13008513  0.87422763  1
  Co  Co91  1  0.74944384  0.24731656  0.49898171  1
  Co  Co92  1  0.49739564  0.75691372  0.24913576  1
  Co  Co93  1  0.12276323  0.62179612  0.62751768  1
  Co  Co94  1  0.87580184  0.37780816  0.37654249  1
  Co  Co95  1  0.37801470  0.12211836  0.63041710  1
  Co  Co96  1  0.25208509  0.50795734  -0.00429881  1
  Co  Co97  1  0.50164864  0.50124763  0.50144752  1
  Co  Co98  1  0.12746336  0.87604011  0.62140201  1
  Co  Co99  1  0.50147758  -0.00610675  0.75183396  1
  Co  Co100  1  0.49645791  0.25739061  0.74831201  1
  Co  Co101  1  0.37094782  0.37340932  0.87871979  1
  Co  Co102  1  0.12742040  0.87321630  0.87758205  1
  Co  Co103  1  0.37906333  0.61980511  0.12907924  1
  Co  Co104  1  0.50033666  0.50030200  -0.00474423  1
  Co  Co105  1  0.75029221  0.24832441  0.75030278  1
  Co  Co106  1  0.62485351  0.87382781  0.12002396  1
  Co  Co107  1  0.00025583  0.49588648  0.00124730  1
  Co  Co108  1  0.50153183  0.49491292  0.25017040  1
  Co  Co109  1  0.00049319  0.74921889  0.50015979  1
  Co  Co110  1  0.37876283  0.62715019  0.87091166  1
  Co  Co111  1  0.37078746  0.87303964  0.38005073  1
  Co  Co112  1  0.24866569  0.49942114  0.25129428  1
  Co  Co113  1  0.12408950  0.12889062  0.62520119  1
  Co  Co114  1  0.37826855  0.12550712  0.37085991  1
  Co  Co115  1  0.12695351  0.12807517  0.37235100  1
  Co  Co116  1  0.62152789  0.37202333  0.37853625  1
  Co  Co117  1  0.24852321  0.50393041  0.49751945  1
  Co  Co118  1  0.62033480  0.12813576  0.87252343  1
  Co  Co119  1  0.87221038  0.37459067  0.87667721  1
  Co  Co120  1  0.62322335  0.62668626  0.87217038  1
  Co  Co121  1  0.00027846  0.75251206  0.00321228  1
  Co  Co122  1  0.37222403  0.87613391  0.12013804  1
  Co  Co123  1  0.11826514  0.62493721  0.87564282  1
  Co  Co124  1  0.25486346  0.24367705  0.00278831  1
  Co  Co125  1  0.37123005  0.38069279  0.62315580  1
  Co  Co126  1  0.87425708  0.12205516  0.37335786  1
  Co  Co127  1  0.62559511  0.87353082  0.37973805  1
