# generated using pymatgen
data_Fe45Co19
_symmetry_space_group_name_H-M   'P 1'
_cell_length_a   11.41498765
_cell_length_b   11.41380810
_cell_length_c   11.41500879
_cell_angle_alpha   90.00858933
_cell_angle_beta   89.99750133
_cell_angle_gamma   89.99437726
_symmetry_Int_Tables_number   1
_chemical_formula_structural   Fe45Co19
_chemical_formula_sum   'Fe90 Co38'
_cell_volume   1487.24410095
_cell_formula_units_Z   2
loop_
 _symmetry_equiv_pos_site_id
 _symmetry_equiv_pos_as_xyz
  1  'x, y, z'
loop_
 _atom_site_type_symbol
 _atom_site_label
 _atom_site_symmetry_multiplicity
 _atom_site_fract_x
 _atom_site_fract_y
 _atom_site_fract_z
 _atom_site_occupancy
  Fe  Fe0  1  0.62658088  0.37386045  0.37591590  1
  Fe  Fe1  1  0.62432561  0.62787121  0.12693603  1
  Fe  Fe2  1  -0.00099505  -0.00094692  0.74740811  1
  Fe  Fe3  1  0.87252668  0.62755968  0.87684211  1
  Fe  Fe4  1  0.24788057  0.25239163  0.49646856  1
  Fe  Fe5  1  0.24980737  0.50089983  0.74763118  1
  Fe  Fe6  1  0.87947144  0.12216214  0.37481389  1
  Fe  Fe7  1  0.12616497  0.62042093  0.37842764  1
  Fe  Fe8  1  0.37276385  0.37817340  0.37213950  1
  Fe  Fe9  1  0.62212173  0.62609448  0.62397125  1
  Fe  Fe10  1  0.75042654  0.24400092  0.25135081  1
  Fe  Fe11  1  0.37591872  0.12380495  0.37642986  1
  Fe  Fe12  1  0.25030517  0.25086614  -0.00056845  1
  Fe  Fe13  1  0.87188838  0.87202570  0.87342018  1
  Fe  Fe14  1  0.12804574  0.87513774  0.62681745  1
  Fe  Fe15  1  0.87484940  0.62470640  0.62016888  1
  Fe  Fe16  1  -0.00133514  0.50314074  0.25052247  1
  Fe  Fe17  1  0.87394257  0.87415647  0.37467500  1
  Fe  Fe18  1  -0.00019761  0.49891393  0.74854532  1
  Fe  Fe19  1  0.12733802  0.87550662  0.87142150  1
  Fe  Fe20  1  0.75092839  -0.00176110  0.00474781  1
  Fe  Fe21  1  0.74806915  0.00304973  0.49955174  1
  Fe  Fe22  1  0.12493975  0.87217338  0.12577511  1
  Fe  Fe23  1  0.75028155  0.50731773  0.25316392  1
  Fe  Fe24  1  0.50139361  0.49929617  0.00149001  1
  Fe  Fe25  1  0.12289679  0.12432725  0.87690508  1
  Fe  Fe26  1  0.12254716  0.62803490  0.12392455  1
  Fe  Fe27  1  0.37874976  0.62280737  0.87211790  1
  Fe  Fe28  1  0.87314923  0.37546944  0.12779394  1
  Fe  Fe29  1  0.50143483  0.75145079  -0.00074260  1
  Fe  Fe30  1  0.49982193  0.49551087  0.50270294  1
  Fe  Fe31  1  0.87351324  0.37641951  0.87464973  1
  Fe  Fe32  1  0.25121368  0.49847464  0.00284700  1
  Fe  Fe33  1  0.00168564  0.75175858  0.49902866  1
  Fe  Fe34  1  0.37702888  0.12674890  0.12342671  1
  Fe  Fe35  1  0.87489583  0.12383805  0.87627388  1
  Fe  Fe36  1  0.87239743  0.37396534  0.62304710  1
  Fe  Fe37  1  0.87539082  0.12744148  0.62354612  1
  Fe  Fe38  1  0.12478244  0.62334188  0.87546065  1
  Fe  Fe39  1  0.37603705  0.62681991  0.12482768  1
  Fe  Fe40  1  -0.00093427  -0.00187812  0.24936752  1
  Fe  Fe41  1  0.74857123  0.00247191  0.74618313  1
  Fe  Fe42  1  0.62333689  0.87757111  0.37009884  1
  Fe  Fe43  1  0.62884198  0.87231685  0.87277235  1
  Fe  Fe44  1  0.37541447  0.87375153  0.12723109  1
  Fe  Fe45  1  0.74771918  0.50147655  0.74787263  1
  Fe  Fe46  1  0.49788313  0.75387436  0.50025525  1
  Fe  Fe47  1  0.62587166  0.12480531  0.87591578  1
  Fe  Fe48  1  0.12627078  0.87748953  0.37620753  1
  Fe  Fe49  1  0.25206335  0.00054658  0.24989016  1
  Fe  Fe50  1  0.00227859  0.25462365  0.49535253  1
  Fe  Fe51  1  0.37296474  0.37373502  0.62638640  1
  Fe  Fe52  1  0.00027327  0.25219383  0.75143217  1
  Fe  Fe53  1  0.74898546  0.50431440  0.00118868  1
  Fe  Fe54  1  0.25120044  0.00123113  -0.00050114  1
  Fe  Fe55  1  0.25062039  0.74881227  0.25248985  1
  Fe  Fe56  1  0.62476870  0.87507407  0.13156454  1
  Fe  Fe57  1  0.62661429  0.37625755  0.87491732  1
  Fe  Fe58  1  0.50046126  -0.00148410  0.50164008  1
  Fe  Fe59  1  0.12267064  0.12633022  0.62162307  1
  Fe  Fe60  1  0.24849194  0.24756467  0.75209959  1
  Fe  Fe61  1  -0.00064702  0.74965922  0.74959598  1
  Fe  Fe62  1  0.49915661  0.49978280  0.24824516  1
  Fe  Fe63  1  0.75045144  0.24869162  0.00119334  1
  Fe  Fe64  1  0.50150811  0.25027634  0.75060577  1
  Fe  Fe65  1  0.87300333  0.37907023  0.37566417  1
  Fe  Fe66  1  0.50100975  0.24834326  0.25106748  1
  Fe  Fe67  1  -0.00155870  -0.00389512  0.00123301  1
  Fe  Fe68  1  0.49971939  0.75179853  0.74812030  1
  Fe  Fe69  1  0.87150953  0.87286594  0.62292508  1
  Fe  Fe70  1  0.24812595  0.24948734  0.25193849  1
  Fe  Fe71  1  0.25077312  -0.00042094  0.50107906  1
  Fe  Fe72  1  0.25040859  0.74994997  -0.00286233  1
  Fe  Fe73  1  0.74635876  0.74701082  0.49540130  1
  Fe  Fe74  1  0.25389468  0.75009826  0.50173546  1
  Fe  Fe75  1  0.62909974  0.36884499  0.62171624  1
  Fe  Fe76  1  -0.00097565  0.25283860  0.00043412  1
  Fe  Fe77  1  0.50284583  0.00076140  0.74759642  1
  Fe  Fe78  1  0.37468402  0.37630368  0.87477975  1
  Fe  Fe79  1  0.12494583  0.62326924  0.62294861  1
  Fe  Fe80  1  -0.00147231  0.49991290  0.00118397  1
  Fe  Fe81  1  0.37193141  0.87679298  0.86981092  1
  Fe  Fe82  1  0.49966525  -0.00167071  -0.00028527  1
  Fe  Fe83  1  0.50091568  0.25147573  0.00017431  1
  Fe  Fe84  1  0.87484750  0.86724208  0.12889942  1
  Fe  Fe85  1  0.37686631  0.12536268  0.62492047  1
  Fe  Fe86  1  0.62711406  0.37421607  0.12739134  1
  Fe  Fe87  1  0.37652394  0.62302334  0.37666185  1
  Fe  Fe88  1  0.12168777  0.12581209  0.12691429  1
  Fe  Fe89  1  0.12456026  0.37507601  0.12815089  1
  Co  Co90  1  0.87684076  0.62962713  0.12422026  1
  Co  Co91  1  0.74675924  0.74978524  0.00310700  1
  Co  Co92  1  0.37219353  0.87679905  0.62871124  1
  Co  Co93  1  0.75054999  0.24887511  0.75230585  1
  Co  Co94  1  0.25117758  0.50346014  0.24579014  1
  Co  Co95  1  0.12308264  0.12092813  0.37468207  1
  Co  Co96  1  0.25015127  0.74516384  0.74885036  1
  Co  Co97  1  0.37905503  0.62424956  0.62526441  1
  Co  Co98  1  0.87869552  0.62392718  0.38046719  1
  Co  Co99  1  0.12762622  0.38122330  0.37211602  1
  Co  Co100  1  0.00252935  0.74852260  0.25618329  1
  Co  Co101  1  0.62445950  0.13014296  0.62170154  1
  Co  Co102  1  0.74624417  0.50230981  0.50004457  1
  Co  Co103  1  0.24806737  0.00607634  0.74906067  1
  Co  Co104  1  0.49772796  0.74883323  0.25061185  1
  Co  Co105  1  0.74966464  0.74414855  0.25493221  1
  Co  Co106  1  0.62337314  0.62631158  0.87279809  1
  Co  Co107  1  0.62327012  0.12367938  0.12400145  1
  Co  Co108  1  0.00098131  0.49499285  0.50137313  1
  Co  Co109  1  0.37598209  0.87585097  0.37382764  1
  Co  Co110  1  0.49645251  0.25292290  0.49798431  1
  Co  Co111  1  0.12605849  0.37664898  0.87511355  1
  Co  Co112  1  0.75358655  0.24616990  0.49473038  1
  Co  Co113  1  0.62202559  0.12376598  0.37682005  1
  Co  Co114  1  0.25258623  0.49879685  0.50321660  1
  Co  Co115  1  0.75274917  0.00380669  0.24916975  1
  Co  Co116  1  0.61742828  0.62401464  0.37667759  1
  Co  Co117  1  0.12641736  0.37407206  0.62558480  1
  Co  Co118  1  0.75041133  0.74619839  0.74697248  1
  Co  Co119  1  0.00117295  0.75216212  -0.00426868  1
  Co  Co120  1  0.62790981  0.87305981  0.62398547  1
  Co  Co121  1  0.37724643  0.12480688  0.87505007  1
  Co  Co122  1  -0.00078462  0.25190027  0.25465213  1
  Co  Co123  1  0.37556134  0.37278925  0.12640153  1
  Co  Co124  1  0.49673797  0.00361070  0.24999708  1
  Co  Co125  1  0.87858051  0.12680231  0.12424296  1
  Co  Co126  1  0.50388308  0.49551406  0.74633861  1
  Co  Co127  1  -0.00076264  -0.00223775  0.50218017  1
