# generated using pymatgen
data_Fe45Co19
_symmetry_space_group_name_H-M   'P 1'
_cell_length_a   11.41439818
_cell_length_b   11.41538117
_cell_length_c   11.41543313
_cell_angle_alpha   90.00448330
_cell_angle_beta   89.99977606
_cell_angle_gamma   90.00218408
_symmetry_Int_Tables_number   1
_chemical_formula_structural   Fe45Co19
_chemical_formula_sum   'Fe90 Co38'
_cell_volume   1487.42757410
_cell_formula_units_Z   2
loop_
 _symmetry_equiv_pos_site_id
 _symmetry_equiv_pos_as_xyz
  1  'x, y, z'
loop_
 _atom_site_type_symbol
 _atom_site_label
 _atom_site_symmetry_multiplicity
 _atom_site_fract_x
 _atom_site_fract_y
 _atom_site_fract_z
 _atom_site_occupancy
  Fe  Fe0  1  0.12257227  0.37520665  0.62189951  1
  Fe  Fe1  1  0.62712409  0.62677004  0.37391543  1
  Fe  Fe2  1  -0.00262802  0.25009728  0.74665491  1
  Fe  Fe3  1  0.12282635  0.87574089  0.62451265  1
  Fe  Fe4  1  0.87547173  0.87660419  0.62545183  1
  Fe  Fe5  1  0.37287418  0.62641181  0.37465670  1
  Fe  Fe6  1  0.50156915  0.75119077  0.75300994  1
  Fe  Fe7  1  0.00063431  0.74974436  0.00154620  1
  Fe  Fe8  1  0.74814927  0.49947672  0.24945788  1
  Fe  Fe9  1  0.74938931  0.00034933  0.49915082  1
  Fe  Fe10  1  0.25005686  -0.00227127  0.50006777  1
  Fe  Fe11  1  0.87481472  0.62379323  0.12437881  1
  Fe  Fe12  1  0.24911540  0.74841785  0.74941982  1
  Fe  Fe13  1  0.62314122  0.37350304  0.87507614  1
  Fe  Fe14  1  0.87518383  0.37342771  0.87653227  1
  Fe  Fe15  1  0.12458876  0.62407460  0.62161532  1
  Fe  Fe16  1  0.49748333  0.49550372  0.74897847  1
  Fe  Fe17  1  0.75394649  0.24918550  0.50140837  1
  Fe  Fe18  1  0.12532850  0.87492167  0.37554518  1
  Fe  Fe19  1  0.50113577  -0.00238526  0.49943433  1
  Fe  Fe20  1  -0.00100605  0.74915895  0.49755879  1
  Fe  Fe21  1  0.75046649  0.49918335  0.49845870  1
  Fe  Fe22  1  0.00174588  0.00435955  0.25195348  1
  Fe  Fe23  1  0.37670844  0.87294611  0.62634610  1
  Fe  Fe24  1  -0.00051834  0.49970011  0.74990251  1
  Fe  Fe25  1  0.12503822  0.62279525  0.87800762  1
  Fe  Fe26  1  0.12250446  0.37368671  0.37705432  1
  Fe  Fe27  1  0.62489659  0.37428458  0.62312794  1
  Fe  Fe28  1  0.50160580  0.49999968  0.49682495  1
  Fe  Fe29  1  0.87378267  0.12773309  0.87659667  1
  Fe  Fe30  1  0.74775452  0.00176261  0.75250000  1
  Fe  Fe31  1  0.37398178  0.12414723  0.37639902  1
  Fe  Fe32  1  0.12699880  0.87517262  0.87500757  1
  Fe  Fe33  1  0.62079789  0.37217312  0.12997562  1
  Fe  Fe34  1  0.74774534  0.24511227  0.24869198  1
  Fe  Fe35  1  0.75024598  0.49968864  0.75048730  1
  Fe  Fe36  1  0.87509093  0.87846023  0.12453750  1
  Fe  Fe37  1  0.74810334  0.49736435  0.00207128  1
  Fe  Fe38  1  0.25128642  0.25034662  0.24892971  1
  Fe  Fe39  1  0.00116219  0.74754620  0.24907236  1
  Fe  Fe40  1  0.00370254  0.00436346  -0.00103182  1
  Fe  Fe41  1  0.37552836  0.62321093  0.87504197  1
  Fe  Fe42  1  0.37788149  0.12557662  0.62542204  1
  Fe  Fe43  1  0.25353166  0.25380157  0.74809080  1
  Fe  Fe44  1  0.87549484  0.37428303  0.37442894  1
  Fe  Fe45  1  0.49972481  -0.00068243  -0.00541223  1
  Fe  Fe46  1  0.25052511  0.75021879  0.00097791  1
  Fe  Fe47  1  0.50135249  0.00250564  0.25171885  1
  Fe  Fe48  1  0.87304954  0.87532661  0.87646859  1
  Fe  Fe49  1  0.00314188  0.24724768  0.00150477  1
  Fe  Fe50  1  0.87531605  0.62410278  0.62388436  1
  Fe  Fe51  1  0.62497594  0.87415728  0.62763205  1
  Fe  Fe52  1  0.24806258  0.75002561  0.24906913  1
  Fe  Fe53  1  0.25017309  0.49964964  0.49814204  1
  Fe  Fe54  1  0.12559973  0.37399948  0.87540897  1
  Fe  Fe55  1  0.62429747  0.62529501  0.62650003  1
  Fe  Fe56  1  0.00248964  0.50362509  0.25135741  1
  Fe  Fe57  1  0.62199917  0.12604331  0.62642049  1
  Fe  Fe58  1  0.37767441  0.37706103  0.37094663  1
  Fe  Fe59  1  0.74950444  0.75121175  0.49996363  1
  Fe  Fe60  1  0.87451963  0.62321578  0.87712129  1
  Fe  Fe61  1  0.74693076  0.00435327  0.24890543  1
  Fe  Fe62  1  0.75059591  0.75104846  0.24846479  1
  Fe  Fe63  1  0.50005816  0.25190081  0.49805691  1
  Fe  Fe64  1  -0.00040005  0.00116209  0.75192306  1
  Fe  Fe65  1  0.74736577  0.00487471  -0.00004387  1
  Fe  Fe66  1  0.50190786  0.74951624  0.24982560  1
  Fe  Fe67  1  0.12542263  0.37554448  0.12493911  1
  Fe  Fe68  1  0.00158476  0.24519662  0.25062331  1
  Fe  Fe69  1  0.49789425  0.25060447  0.00151963  1
  Fe  Fe70  1  0.12366753  0.12518036  0.62294252  1
  Fe  Fe71  1  0.37188890  0.12312031  0.12462343  1
  Fe  Fe72  1  0.25114805  0.25092570  0.49977109  1
  Fe  Fe73  1  0.37630992  0.87271533  0.37559705  1
  Fe  Fe74  1  0.25195591  0.49770951  0.74914487  1
  Fe  Fe75  1  0.12735898  0.87941328  0.12437401  1
  Fe  Fe76  1  0.25104852  0.49667821  0.00252070  1
  Fe  Fe77  1  -0.00115027  0.74929828  0.75156763  1
  Fe  Fe78  1  0.50112093  0.50068087  0.00340262  1
  Fe  Fe79  1  0.50119194  0.74896755  -0.00099425  1
  Fe  Fe80  1  0.87644123  0.37276129  0.12581644  1
  Fe  Fe81  1  0.87390655  0.87694693  0.37351354  1
  Fe  Fe82  1  0.37581279  0.62600187  0.62282803  1
  Fe  Fe83  1  0.37385741  0.62213298  0.12830281  1
  Fe  Fe84  1  0.25157677  -0.00008149  0.75064732  1
  Fe  Fe85  1  0.37524464  0.12796499  0.87254817  1
  Fe  Fe86  1  0.74786783  0.74825438  -0.00090358  1
  Fe  Fe87  1  0.75016307  0.25005348  0.74886031  1
  Fe  Fe88  1  0.62416118  0.87605854  0.12415800  1
  Fe  Fe89  1  0.37358075  0.87807575  0.12374519  1
  Co  Co90  1  0.37510248  0.37529043  0.87846960  1
  Co  Co91  1  0.24634231  0.49884806  0.25067141  1
  Co  Co92  1  0.50281839  0.75021283  0.49905875  1
  Co  Co93  1  0.87372348  0.12464266  0.37456215  1
  Co  Co94  1  0.75155242  0.74834815  0.75066357  1
  Co  Co95  1  0.62522744  0.12601435  0.37882127  1
  Co  Co96  1  0.25147986  -0.00123955  0.25459637  1
  Co  Co97  1  0.74832369  0.25157953  0.00268806  1
  Co  Co98  1  0.50041378  -0.00196331  0.75287476  1
  Co  Co99  1  0.37262688  0.87276393  0.87463513  1
  Co  Co100  1  0.62151880  0.12520228  0.12239388  1
  Co  Co101  1  0.24952770  0.25037584  0.00191941  1
  Co  Co102  1  0.87507864  0.12050959  0.62551597  1
  Co  Co103  1  0.12685877  0.12887462  0.86994480  1
  Co  Co104  1  -0.00146514  0.49795837  0.00107825  1
  Co  Co105  1  0.37532066  0.37610428  0.62013389  1
  Co  Co106  1  -0.00183510  0.50045692  0.49751176  1
  Co  Co107  1  0.62608713  0.37200642  0.37334905  1
  Co  Co108  1  0.24921520  0.00274133  -0.00536973  1
  Co  Co109  1  0.62271734  0.12971765  0.87327155  1
  Co  Co110  1  0.62357145  0.62248368  0.87333110  1
  Co  Co111  1  0.62679126  0.62632004  0.12644675  1
  Co  Co112  1  0.49849089  0.24452245  0.25155346  1
  Co  Co113  1  0.62768128  0.87360314  0.87571085  1
  Co  Co114  1  0.87618252  0.12513085  0.12406684  1
  Co  Co115  1  0.12736731  0.12688656  0.37770394  1
  Co  Co116  1  0.49756660  0.25489305  0.74822960  1
  Co  Co117  1  0.12748932  0.62604353  0.37737406  1
  Co  Co118  1  0.00059491  0.00091596  0.49702363  1
  Co  Co119  1  0.87248151  0.62482700  0.37355064  1
  Co  Co120  1  0.62571247  0.87533311  0.37261571  1
  Co  Co121  1  0.13031942  0.12214489  0.12766750  1
  Co  Co122  1  -0.00467785  0.24822436  0.50178656  1
  Co  Co123  1  0.87506566  0.37805541  0.62468325  1
  Co  Co124  1  0.37765686  0.37621319  0.12935528  1
  Co  Co125  1  0.50287406  0.50307920  0.25210967  1
  Co  Co126  1  0.12610206  0.62360851  0.12237977  1
  Co  Co127  1  0.24986908  0.75258863  0.50106995  1
