# generated using pymatgen
data_Fe45Co19
_symmetry_space_group_name_H-M   'P 1'
_cell_length_a   11.41398253
_cell_length_b   11.41384490
_cell_length_c   11.41562550
_cell_angle_alpha   89.99704637
_cell_angle_beta   90.00268060
_cell_angle_gamma   90.00167930
_symmetry_Int_Tables_number   1
_chemical_formula_structural   Fe45Co19
_chemical_formula_sum   'Fe90 Co38'
_cell_volume   1487.19830517
_cell_formula_units_Z   2
loop_
 _symmetry_equiv_pos_site_id
 _symmetry_equiv_pos_as_xyz
  1  'x, y, z'
loop_
 _atom_site_type_symbol
 _atom_site_label
 _atom_site_symmetry_multiplicity
 _atom_site_fract_x
 _atom_site_fract_y
 _atom_site_fract_z
 _atom_site_occupancy
  Fe  Fe0  1  0.37656410  0.37442683  0.87511229  1
  Fe  Fe1  1  0.12392949  0.62848091  0.37195025  1
  Fe  Fe2  1  0.87398187  0.62419787  0.37322258  1
  Fe  Fe3  1  0.12619774  0.37297438  0.12530934  1
  Fe  Fe4  1  0.87278346  0.12293927  0.12426952  1
  Fe  Fe5  1  0.12473877  0.87407984  0.12655810  1
  Fe  Fe6  1  0.62330009  0.12718161  0.87563251  1
  Fe  Fe7  1  0.75033780  0.75087732  0.74994178  1
  Fe  Fe8  1  0.49961736  0.75190275  0.25048972  1
  Fe  Fe9  1  -0.00215281  0.24848562  0.75105815  1
  Fe  Fe10  1  0.50223985  0.49849695  -0.00009342  1
  Fe  Fe11  1  0.50277502  0.50068611  0.24994694  1
  Fe  Fe12  1  0.62864757  0.62777295  0.12516242  1
  Fe  Fe13  1  0.87262038  0.62636882  0.88091971  1
  Fe  Fe14  1  0.37550403  0.62545846  0.12449975  1
  Fe  Fe15  1  -0.00167813  0.24829433  0.49830667  1
  Fe  Fe16  1  0.74785050  -0.00056245  -0.00150647  1
  Fe  Fe17  1  0.62505549  0.62405342  0.87488375  1
  Fe  Fe18  1  0.62654907  0.12462195  0.37456816  1
  Fe  Fe19  1  0.37345098  0.37304157  0.12662726  1
  Fe  Fe20  1  0.24851351  0.75256773  0.50109463  1
  Fe  Fe21  1  0.12488715  0.87460031  0.87365036  1
  Fe  Fe22  1  -0.00083563  0.24926802  0.25098239  1
  Fe  Fe23  1  0.12349153  0.62408682  0.62738255  1
  Fe  Fe24  1  0.37780782  0.87507253  0.37864120  1
  Fe  Fe25  1  0.62429290  0.87547405  0.87394519  1
  Fe  Fe26  1  0.87621534  0.87582164  0.87730877  1
  Fe  Fe27  1  0.12446217  0.12432748  0.62535973  1
  Fe  Fe28  1  0.00007966  0.24710604  -0.00066573  1
  Fe  Fe29  1  0.49978979  -0.00039788  0.74742011  1
  Fe  Fe30  1  0.49933482  0.74956474  0.74877141  1
  Fe  Fe31  1  0.62515537  0.37603965  0.62697358  1
  Fe  Fe32  1  0.12128573  0.37667828  0.62638587  1
  Fe  Fe33  1  0.24906869  0.75168685  0.00059346  1
  Fe  Fe34  1  -0.00171238  0.74759543  0.75263610  1
  Fe  Fe35  1  0.62712557  0.12614478  0.62572280  1
  Fe  Fe36  1  0.24812220  0.49989861  0.25051053  1
  Fe  Fe37  1  0.25139041  0.75289060  0.74844443  1
  Fe  Fe38  1  0.37748615  0.37521462  0.37432901  1
  Fe  Fe39  1  0.49913562  0.25020826  0.75036382  1
  Fe  Fe40  1  0.12831387  0.12367844  0.87166538  1
  Fe  Fe41  1  0.00148349  0.50276691  -0.00008577  1
  Fe  Fe42  1  0.12469807  0.12247219  0.37611178  1
  Fe  Fe43  1  -0.00083009  0.75142791  0.50087297  1
  Fe  Fe44  1  0.75312500  0.00059174  0.50270450  1
  Fe  Fe45  1  0.00250273  0.00097898  0.00044667  1
  Fe  Fe46  1  0.74994554  0.49890578  0.75221491  1
  Fe  Fe47  1  0.87478063  0.37415929  0.87583864  1
  Fe  Fe48  1  0.37462344  0.12310917  0.37457982  1
  Fe  Fe49  1  0.12497357  0.62731821  0.12609798  1
  Fe  Fe50  1  0.37644611  0.37639897  0.62360067  1
  Fe  Fe51  1  -0.00145014  0.00033880  0.25019761  1
  Fe  Fe52  1  0.75223165  0.00142512  0.74897554  1
  Fe  Fe53  1  0.37497738  0.62541239  0.37365376  1
  Fe  Fe54  1  0.75138417  0.25005251  0.25074429  1
  Fe  Fe55  1  0.12503059  0.37529352  0.87448759  1
  Fe  Fe56  1  0.74951953  0.49963875  0.24969480  1
  Fe  Fe57  1  0.50155585  0.75146690  -0.00108095  1
  Fe  Fe58  1  0.24987952  0.49858417  0.75045228  1
  Fe  Fe59  1  0.37561758  0.62425591  0.62511158  1
  Fe  Fe60  1  0.25409345  0.24525269  -0.00147036  1
  Fe  Fe61  1  0.87581251  0.87638814  0.37796873  1
  Fe  Fe62  1  0.12817196  0.12593853  0.12728376  1
  Fe  Fe63  1  0.37620879  0.87863912  0.12289942  1
  Fe  Fe64  1  0.24930309  0.25162346  0.50009222  1
  Fe  Fe65  1  0.12310429  0.37585340  0.37388352  1
  Fe  Fe66  1  0.37248055  0.12446764  0.62686907  1
  Fe  Fe67  1  0.49975338  0.24554350  0.24747002  1
  Fe  Fe68  1  0.74678797  0.50197157  0.49810395  1
  Fe  Fe69  1  0.37505429  0.87921692  0.87604147  1
  Fe  Fe70  1  0.74945175  -0.00252774  0.25041089  1
  Fe  Fe71  1  0.62452873  0.87235998  0.62197053  1
  Fe  Fe72  1  0.87467006  0.62418246  0.62494952  1
  Fe  Fe73  1  0.62490866  0.37272666  0.12438312  1
  Fe  Fe74  1  0.37448791  0.62509631  0.87573956  1
  Fe  Fe75  1  0.62544054  0.87550151  0.12448829  1
  Fe  Fe76  1  0.87622017  0.37683865  0.12370112  1
  Fe  Fe77  1  0.87543937  0.37551849  0.62521038  1
  Fe  Fe78  1  0.25048404  -0.00228941  0.25102660  1
  Fe  Fe79  1  -0.00595971  0.75095796  0.24579821  1
  Fe  Fe80  1  0.24728978  0.50005081  0.49864646  1
  Fe  Fe81  1  0.62416361  0.87244966  0.37948723  1
  Fe  Fe82  1  0.50447192  0.50380778  0.49822843  1
  Fe  Fe83  1  0.24772159  -0.00460893  0.50315584  1
  Fe  Fe84  1  -0.00300703  0.00144349  0.74777929  1
  Fe  Fe85  1  0.75053785  0.25045047  0.49929763  1
  Fe  Fe86  1  0.50066377  0.24786865  0.49997564  1
  Fe  Fe87  1  0.87612615  0.37701624  0.37527952  1
  Fe  Fe88  1  0.24921348  0.50095870  0.00013344  1
  Fe  Fe89  1  0.74925877  0.24994994  -0.00156984  1
  Co  Co90  1  0.75345091  0.75449660  0.24886357  1
  Co  Co91  1  0.87114578  0.62386400  0.12154961  1
  Co  Co92  1  0.87535375  0.12740311  0.62422196  1
  Co  Co93  1  0.00051328  0.50084014  0.24771862  1
  Co  Co94  1  0.37954990  0.87396653  0.62233581  1
  Co  Co95  1  0.50081697  0.74451901  0.50058659  1
  Co  Co96  1  0.62846078  0.12469023  0.12496643  1
  Co  Co97  1  0.62707094  0.62974932  0.37049196  1
  Co  Co98  1  0.37344968  0.12086644  0.12677572  1
  Co  Co99  1  0.49708006  0.24784394  0.00217248  1
  Co  Co100  1  0.50274129  -0.00082897  0.25075859  1
  Co  Co101  1  0.87406204  0.12359035  0.87733094  1
  Co  Co102  1  0.74734942  0.49727670  -0.00106201  1
  Co  Co103  1  0.62319401  0.37235332  0.37410586  1
  Co  Co104  1  0.87462072  0.87855700  0.11990330  1
  Co  Co105  1  0.49936768  0.50045953  0.75085553  1
  Co  Co106  1  0.87510125  0.87340301  0.62607885  1
  Co  Co107  1  0.25024890  0.24974960  0.25305117  1
  Co  Co108  1  0.24748465  0.00080631  0.00024735  1
  Co  Co109  1  0.25016836  0.25252748  0.74961212  1
  Co  Co110  1  0.37534818  0.12142336  0.87189266  1
  Co  Co111  1  0.87387556  0.12359335  0.37446154  1
  Co  Co112  1  0.75120249  0.24945060  0.75168045  1
  Co  Co113  1  0.50204615  0.00238267  0.00089235  1
  Co  Co114  1  0.25391176  0.75224562  0.24922865  1
  Co  Co115  1  0.00114319  0.74978076  0.00136440  1
  Co  Co116  1  -0.00254013  0.50163318  0.75386427  1
  Co  Co117  1  -0.00073616  -0.00050575  0.50153215  1
  Co  Co118  1  0.12007805  0.87390676  0.62792739  1
  Co  Co119  1  0.75146325  0.74772806  0.50075806  1
  Co  Co120  1  0.25115565  -0.00386170  0.74644242  1
  Co  Co121  1  0.50066606  0.00363113  0.50130995  1
  Co  Co122  1  0.62578561  0.62532493  0.62830406  1
  Co  Co123  1  0.00060342  0.50219693  0.49890369  1
  Co  Co124  1  0.74847872  0.75371495  -0.00017637  1
  Co  Co125  1  0.62306518  0.37298007  0.87389869  1
  Co  Co126  1  0.12779600  0.62627400  0.87418772  1
  Co  Co127  1  0.12232744  0.87341806  0.37273654  1
