# generated using pymatgen
data_Fe45Co19
_symmetry_space_group_name_H-M   'P 1'
_cell_length_a   11.41537213
_cell_length_b   11.41454381
_cell_length_c   11.41497004
_cell_angle_alpha   90.00255673
_cell_angle_beta   89.99727469
_cell_angle_gamma   90.00331162
_symmetry_Int_Tables_number   1
_chemical_formula_structural   Fe45Co19
_chemical_formula_sum   'Fe90 Co38'
_cell_volume   1487.38503371
_cell_formula_units_Z   2
loop_
 _symmetry_equiv_pos_site_id
 _symmetry_equiv_pos_as_xyz
  1  'x, y, z'
loop_
 _atom_site_type_symbol
 _atom_site_label
 _atom_site_symmetry_multiplicity
 _atom_site_fract_x
 _atom_site_fract_y
 _atom_site_fract_z
 _atom_site_occupancy
  Fe  Fe0  1  0.87640323  0.62809096  0.62904299  1
  Fe  Fe1  1  0.62358100  0.87535235  0.87798848  1
  Fe  Fe2  1  0.24725277  0.24947247  0.75121827  1
  Fe  Fe3  1  0.62443059  0.12446644  0.37446336  1
  Fe  Fe4  1  0.49853186  0.49777428  0.24941795  1
  Fe  Fe5  1  0.00053785  0.49850480  0.24921545  1
  Fe  Fe6  1  0.37747943  0.12651710  0.62641442  1
  Fe  Fe7  1  0.75243807  0.24491871  0.00138722  1
  Fe  Fe8  1  0.12663261  0.87837021  0.87443192  1
  Fe  Fe9  1  -0.00054164  0.75365671  -0.00206452  1
  Fe  Fe10  1  0.74896405  0.74899472  0.50193101  1
  Fe  Fe11  1  0.12316101  0.62531017  0.37602120  1
  Fe  Fe12  1  0.37365131  0.87514209  0.62622996  1
  Fe  Fe13  1  0.87251069  0.87731748  0.86908271  1
  Fe  Fe14  1  0.24949981  0.00032406  0.25097857  1
  Fe  Fe15  1  0.62335638  0.12478796  0.87682523  1
  Fe  Fe16  1  0.37605823  0.37627792  0.62657259  1
  Fe  Fe17  1  0.62560000  0.87509411  0.37503901  1
  Fe  Fe18  1  0.37364146  0.37406914  0.87403353  1
  Fe  Fe19  1  0.49870163  0.75318641  0.24845350  1
  Fe  Fe20  1  0.62645272  0.37708622  0.62377431  1
  Fe  Fe21  1  0.24810714  0.24913246  0.50154941  1
  Fe  Fe22  1  0.25713116  0.00241658  -0.00422486  1
  Fe  Fe23  1  0.87605651  0.37241987  0.37568555  1
  Fe  Fe24  1  0.12173394  0.12366392  0.62513325  1
  Fe  Fe25  1  0.75104345  0.74874681  0.00172453  1
  Fe  Fe26  1  0.12629510  0.37448906  0.12276138  1
  Fe  Fe27  1  0.25076522  0.00212154  0.75139934  1
  Fe  Fe28  1  0.49787254  0.24740348  0.00288998  1
  Fe  Fe29  1  -0.00076296  0.75595677  0.50495966  1
  Fe  Fe30  1  0.25010653  0.49972969  0.50073792  1
  Fe  Fe31  1  0.37153891  0.37446905  0.37348068  1
  Fe  Fe32  1  0.25150313  0.75003983  0.50013521  1
  Fe  Fe33  1  0.12548519  0.87596497  0.37787921  1
  Fe  Fe34  1  0.25190916  0.75110696  -0.00178504  1
  Fe  Fe35  1  -0.00027644  0.49843629  -0.00227794  1
  Fe  Fe36  1  0.50312144  0.74953709  0.74927852  1
  Fe  Fe37  1  0.25065741  0.24669891  -0.00173979  1
  Fe  Fe38  1  0.49893165  0.49978508  0.00039963  1
  Fe  Fe39  1  0.12289972  0.62322495  0.87220424  1
  Fe  Fe40  1  0.37998061  0.62211736  0.62425129  1
  Fe  Fe41  1  0.00182608  0.75230598  0.24851975  1
  Fe  Fe42  1  0.87700794  0.62636279  0.87398347  1
  Fe  Fe43  1  0.87946044  0.12530579  0.37408980  1
  Fe  Fe44  1  0.75172172  0.00174232  0.50004946  1
  Fe  Fe45  1  -0.00078672  0.24629951  -0.00188902  1
  Fe  Fe46  1  0.74936362  0.24792508  0.75017095  1
  Fe  Fe47  1  0.24968765  0.00192481  0.49957982  1
  Fe  Fe48  1  0.25084972  0.50037535  -0.00073909  1
  Fe  Fe49  1  0.50036467  0.25190690  0.49900438  1
  Fe  Fe50  1  -0.00082862  0.25302169  0.75383286  1
  Fe  Fe51  1  0.75096548  0.24670451  0.24790445  1
  Fe  Fe52  1  0.87473046  0.87657860  0.12614261  1
  Fe  Fe53  1  0.75204344  0.50243610  0.24762422  1
  Fe  Fe54  1  0.37485705  0.12497885  0.37500463  1
  Fe  Fe55  1  0.87699198  0.12255683  0.62819834  1
  Fe  Fe56  1  0.62263598  0.62554846  0.37566041  1
  Fe  Fe57  1  0.12689497  0.87826817  0.12105588  1
  Fe  Fe58  1  0.62799361  0.37442235  0.87757958  1
  Fe  Fe59  1  0.87717786  0.62749778  0.37412393  1
  Fe  Fe60  1  -0.00241560  0.49808615  0.50207230  1
  Fe  Fe61  1  0.62799313  0.37443324  0.37442079  1
  Fe  Fe62  1  0.12234625  0.62380349  0.62742435  1
  Fe  Fe63  1  0.75235172  0.00260193  -0.00015951  1
  Fe  Fe64  1  0.24622814  0.24782647  0.24839776  1
  Fe  Fe65  1  0.62457764  0.62506742  0.87675191  1
  Fe  Fe66  1  0.75064692  0.24701542  0.50141022  1
  Fe  Fe67  1  0.37616467  0.62536707  0.87326844  1
  Fe  Fe68  1  0.12391287  0.37363680  0.37578858  1
  Fe  Fe69  1  0.50298960  0.25194679  0.74970519  1
  Fe  Fe70  1  0.24989057  0.75165084  0.25053609  1
  Fe  Fe71  1  0.87428304  0.87515342  0.37427270  1
  Fe  Fe72  1  0.74949911  0.74863261  0.24682381  1
  Fe  Fe73  1  0.49958553  0.24918607  0.24800066  1
  Fe  Fe74  1  0.00240281  0.00153076  0.24920676  1
  Fe  Fe75  1  0.62518094  0.37437952  0.12481180  1
  Fe  Fe76  1  0.49979182  -0.00129438  0.50091172  1
  Fe  Fe77  1  0.37428408  0.62571554  0.12594368  1
  Fe  Fe78  1  0.62321051  0.87754006  0.12164887  1
  Fe  Fe79  1  0.87592893  0.37367786  0.12393844  1
  Fe  Fe80  1  0.49947906  -0.00017760  0.24784822  1
  Fe  Fe81  1  0.24894141  0.74867927  0.74973043  1
  Fe  Fe82  1  0.37675806  0.62543905  0.37622808  1
  Fe  Fe83  1  0.75081781  0.50297427  0.00346045  1
  Fe  Fe84  1  0.12383747  0.62578681  0.12427958  1
  Fe  Fe85  1  0.12336728  0.37728496  0.62779486  1
  Fe  Fe86  1  0.62848233  0.87533607  0.62568481  1
  Fe  Fe87  1  0.50172180  0.00051150  0.75103880  1
  Fe  Fe88  1  0.75084070  0.50067821  0.75036252  1
  Fe  Fe89  1  0.75093254  0.50213072  0.50047223  1
  Co  Co90  1  0.62509989  0.12229129  0.12422355  1
  Co  Co91  1  0.50057691  0.75376674  0.50212663  1
  Co  Co92  1  0.37441642  0.87530678  0.12309683  1
  Co  Co93  1  0.00311458  0.24899209  0.24707754  1
  Co  Co94  1  0.74463137  0.00398491  0.75092856  1
  Co  Co95  1  0.12652396  0.12130802  0.11971226  1
  Co  Co96  1  0.37720701  0.12871690  0.86989253  1
  Co  Co97  1  0.12314258  0.12186919  0.87556049  1
  Co  Co98  1  0.62207266  0.62566076  0.12587800  1
  Co  Co99  1  0.00253159  -0.00494563  0.74799493  1
  Co  Co100  1  0.62242448  0.12553873  0.62341255  1
  Co  Co101  1  0.00275383  0.75603804  0.74996998  1
  Co  Co102  1  0.87979192  0.62623392  0.12450661  1
  Co  Co103  1  0.37308594  0.37440362  0.12461215  1
  Co  Co104  1  -0.00321661  0.49595038  0.75234560  1
  Co  Co105  1  0.87632097  0.12336254  0.12726703  1
  Co  Co106  1  0.50135311  0.49787282  0.75367572  1
  Co  Co107  1  0.49548113  0.00299142  -0.00194950  1
  Co  Co108  1  0.13055529  0.87641708  0.62449731  1
  Co  Co109  1  0.62209513  0.62185390  0.62338810  1
  Co  Co110  1  0.12712106  0.37536449  0.87540953  1
  Co  Co111  1  0.24804615  0.50091714  0.25046330  1
  Co  Co112  1  0.12268262  0.12510290  0.37767679  1
  Co  Co113  1  0.49832450  0.74859428  -0.00013786  1
  Co  Co114  1  0.37685803  0.87265488  0.87168636  1
  Co  Co115  1  0.50005143  0.49528104  0.49673460  1
  Co  Co116  1  0.74981445  0.00079678  0.25048200  1
  Co  Co117  1  0.87082801  0.37419686  0.87792802  1
  Co  Co118  1  -0.00459751  0.00015310  -0.00113547  1
  Co  Co119  1  -0.00172715  -0.00370894  0.50247769  1
  Co  Co120  1  0.74625665  0.74720600  0.75149594  1
  Co  Co121  1  0.87656165  0.12224462  0.87053856  1
  Co  Co122  1  0.37464863  0.87626332  0.37602029  1
  Co  Co123  1  0.25111370  0.50064650  0.75010703  1
  Co  Co124  1  0.87242830  0.37306236  0.62507891  1
  Co  Co125  1  0.37321577  0.12416122  0.12735523  1
  Co  Co126  1  0.86859073  0.87607890  0.63001566  1
  Co  Co127  1  0.00038996  0.25043389  0.50271625  1
