# generated using pymatgen
data_Fe45Co19
_symmetry_space_group_name_H-M   'P 1'
_cell_length_a   11.41508426
_cell_length_b   11.41572415
_cell_length_c   11.41481773
_cell_angle_alpha   90.00724075
_cell_angle_beta   89.99972083
_cell_angle_gamma   89.99866635
_symmetry_Int_Tables_number   1
_chemical_formula_structural   Fe45Co19
_chemical_formula_sum   'Fe90 Co38'
_cell_volume   1487.48147368
_cell_formula_units_Z   2
loop_
 _symmetry_equiv_pos_site_id
 _symmetry_equiv_pos_as_xyz
  1  'x, y, z'
loop_
 _atom_site_type_symbol
 _atom_site_label
 _atom_site_symmetry_multiplicity
 _atom_site_fract_x
 _atom_site_fract_y
 _atom_site_fract_z
 _atom_site_occupancy
  Fe  Fe0  1  0.87378053  0.12609500  0.12485144  1
  Fe  Fe1  1  0.12576646  0.87633469  0.12695711  1
  Fe  Fe2  1  0.74952349  0.25269087  0.25275860  1
  Fe  Fe3  1  0.75504160  0.49819518  0.74592966  1
  Fe  Fe4  1  0.12221556  0.37465948  0.62404622  1
  Fe  Fe5  1  0.00698992  0.74996069  0.49844961  1
  Fe  Fe6  1  0.37212634  0.87270777  0.62077167  1
  Fe  Fe7  1  -0.00170097  -0.00267585  0.74865018  1
  Fe  Fe8  1  0.00199604  0.25028896  -0.00016345  1
  Fe  Fe9  1  0.62391120  0.62382983  0.62785479  1
  Fe  Fe10  1  0.62769857  0.62419407  0.12498850  1
  Fe  Fe11  1  0.12480543  0.12374959  0.87324530  1
  Fe  Fe12  1  0.87647765  0.62661790  0.37816593  1
  Fe  Fe13  1  0.75198208  0.75006559  0.74956726  1
  Fe  Fe14  1  0.37619203  0.37460350  0.12310482  1
  Fe  Fe15  1  0.74661268  0.24978892  -0.00341469  1
  Fe  Fe16  1  0.12603341  0.87589011  0.87240420  1
  Fe  Fe17  1  0.25504702  0.49833442  0.74836558  1
  Fe  Fe18  1  0.62368238  0.87236004  0.62480128  1
  Fe  Fe19  1  0.37493908  0.87572904  0.12314686  1
  Fe  Fe20  1  0.50291658  0.25328184  0.49819541  1
  Fe  Fe21  1  0.50070637  0.00170213  0.50023738  1
  Fe  Fe22  1  0.49992833  0.25092540  0.25388691  1
  Fe  Fe23  1  0.37480353  0.62423309  0.12304574  1
  Fe  Fe24  1  0.00117619  0.25231623  0.25105007  1
  Fe  Fe25  1  0.00090736  -0.00092273  -0.00008494  1
  Fe  Fe26  1  0.25240278  0.74940108  0.74817261  1
  Fe  Fe27  1  0.24798357  0.75035368  0.00108391  1
  Fe  Fe28  1  0.87470592  0.37421981  0.12233907  1
  Fe  Fe29  1  0.74703203  -0.00249684  0.49929855  1
  Fe  Fe30  1  0.49864431  0.74808386  0.25198711  1
  Fe  Fe31  1  0.00003471  0.75145033  0.25203663  1
  Fe  Fe32  1  0.12657782  0.12381063  0.37399503  1
  Fe  Fe33  1  0.87642009  0.87128099  0.62174787  1
  Fe  Fe34  1  0.50194264  0.24808927  -0.00261037  1
  Fe  Fe35  1  0.74867522  0.74971369  -0.00254749  1
  Fe  Fe36  1  0.74965233  0.00025709  0.74846584  1
  Fe  Fe37  1  0.87390698  0.62461288  0.12319869  1
  Fe  Fe38  1  0.37581092  0.87642737  0.87691073  1
  Fe  Fe39  1  0.49846164  0.50009251  0.25050958  1
  Fe  Fe40  1  0.75005474  -0.00215598  0.25371114  1
  Fe  Fe41  1  0.62339214  0.37619610  0.86782756  1
  Fe  Fe42  1  0.62585579  0.62265549  0.37581287  1
  Fe  Fe43  1  -0.00163003  0.25090614  0.74912210  1
  Fe  Fe44  1  0.50235879  0.50315255  -0.00455970  1
  Fe  Fe45  1  0.62455602  0.87356049  0.12772901  1
  Fe  Fe46  1  0.87475655  0.12644700  0.62352759  1
  Fe  Fe47  1  0.49650247  0.74661443  0.75080392  1
  Fe  Fe48  1  0.24693420  0.25093834  0.49777118  1
  Fe  Fe49  1  0.74956534  0.75099344  0.25446477  1
  Fe  Fe50  1  0.12388751  0.62197718  0.12923157  1
  Fe  Fe51  1  0.00071059  0.49938533  0.00023399  1
  Fe  Fe52  1  0.24724401  0.50110762  0.49955485  1
  Fe  Fe53  1  0.74671080  0.00120085  -0.00085747  1
  Fe  Fe54  1  0.37870920  0.12057773  0.87647811  1
  Fe  Fe55  1  0.25410398  0.25125024  0.75092401  1
  Fe  Fe56  1  0.00386165  -0.00084528  0.49996426  1
  Fe  Fe57  1  0.12340236  0.62534230  0.62951407  1
  Fe  Fe58  1  0.87367604  0.12523753  0.37703401  1
  Fe  Fe59  1  0.37303830  0.62240000  0.37756716  1
  Fe  Fe60  1  0.37185711  0.87564694  0.37901480  1
  Fe  Fe61  1  0.62282823  0.87708701  0.87270714  1
  Fe  Fe62  1  0.12643004  0.37560021  0.87420561  1
  Fe  Fe63  1  0.62495558  0.37706504  0.12548531  1
  Fe  Fe64  1  0.37533798  0.12814166  0.62205154  1
  Fe  Fe65  1  0.12529319  0.12509756  0.62712592  1
  Fe  Fe66  1  0.50197276  0.74794475  -0.00201873  1
  Fe  Fe67  1  0.62373518  0.12948418  0.62866620  1
  Fe  Fe68  1  0.74763218  0.25329120  0.50208024  1
  Fe  Fe69  1  0.50153031  0.49717351  0.50287570  1
  Fe  Fe70  1  0.24948771  0.50008437  0.00205017  1
  Fe  Fe71  1  0.25059685  0.24790659  -0.00090960  1
  Fe  Fe72  1  0.87918058  0.37489967  0.38066259  1
  Fe  Fe73  1  0.87446631  0.12405478  0.87515060  1
  Fe  Fe74  1  0.25312053  -0.00011659  0.74763535  1
  Fe  Fe75  1  0.25348609  0.00244326  0.24951383  1
  Fe  Fe76  1  0.00064053  0.75078486  -0.00220109  1
  Fe  Fe77  1  -0.00161833  -0.00086787  0.25163766  1
  Fe  Fe78  1  0.12599269  0.62368163  0.87242704  1
  Fe  Fe79  1  0.25056187  0.25448257  0.25182086  1
  Fe  Fe80  1  0.49842105  0.00247768  0.25181514  1
  Fe  Fe81  1  0.25074920  0.74784008  0.25204128  1
  Fe  Fe82  1  0.75332452  0.49906964  0.25113964  1
  Fe  Fe83  1  0.87535638  0.62424299  0.87393790  1
  Fe  Fe84  1  0.62518961  0.12606134  0.12773635  1
  Fe  Fe85  1  0.87389638  0.87466980  0.12431307  1
  Fe  Fe86  1  0.87602502  0.37474791  0.87479151  1
  Fe  Fe87  1  0.50091559  0.74826632  0.49889333  1
  Fe  Fe88  1  0.75151003  0.49957498  0.50463734  1
  Fe  Fe89  1  0.12593125  0.12572862  0.12514015  1
  Co  Co90  1  0.24400079  0.74578105  0.49859561  1
  Co  Co91  1  0.87613959  0.87394470  0.37918327  1
  Co  Co92  1  0.62138952  0.87513525  0.37489291  1
  Co  Co93  1  0.62203764  0.12376384  0.86947974  1
  Co  Co94  1  0.25281675  0.49702502  0.24959022  1
  Co  Co95  1  0.12427877  0.62024327  0.36896181  1
  Co  Co96  1  0.37427858  0.12706516  0.37779576  1
  Co  Co97  1  0.37437675  0.37658664  0.87856272  1
  Co  Co98  1  0.62239931  0.37462075  0.63164352  1
  Co  Co99  1  0.49320993  0.25151895  0.75139717  1
  Co  Co100  1  0.37458081  0.62482771  0.62073991  1
  Co  Co101  1  0.74634871  0.74889015  0.49916491  1
  Co  Co102  1  0.50242343  0.00009019  0.00366158  1
  Co  Co103  1  0.74878830  0.49784764  -0.00211411  1
  Co  Co104  1  -0.00464210  0.49718005  0.24848537  1
  Co  Co105  1  0.49293031  0.50242805  0.75053947  1
  Co  Co106  1  -0.00091075  0.75156978  0.75240375  1
  Co  Co107  1  0.12590618  0.37554680  0.12445156  1
  Co  Co108  1  0.75404795  0.25028219  0.74976476  1
  Co  Co109  1  0.37516425  0.37649888  0.37746268  1
  Co  Co110  1  0.24885404  0.00102430  0.00007820  1
  Co  Co111  1  0.00345019  0.24559008  0.49973482  1
  Co  Co112  1  0.00047975  0.50458914  0.50303928  1
  Co  Co113  1  0.62779661  0.62310875  0.86973747  1
  Co  Co114  1  0.37099141  0.62585406  0.87712633  1
  Co  Co115  1  0.12958245  0.87754511  0.37346714  1
  Co  Co116  1  0.37568275  0.12783318  0.12455264  1
  Co  Co117  1  0.12639343  0.87439360  0.62694351  1
  Co  Co118  1  0.87772944  0.63062912  0.62430188  1
  Co  Co119  1  -0.00157191  0.49805891  0.74928931  1
  Co  Co120  1  0.88014184  0.37206103  0.62129881  1
  Co  Co121  1  0.24806329  0.00283785  0.50281397  1
  Co  Co122  1  0.62651499  0.12537864  0.37564759  1
  Co  Co123  1  0.62603854  0.37846671  0.37477253  1
  Co  Co124  1  0.37479561  0.37391129  0.62092100  1
  Co  Co125  1  0.49822099  -0.00121278  0.74411175  1
  Co  Co126  1  0.87340898  0.87650097  0.87537856  1
  Co  Co127  1  0.12155616  0.37882562  0.37644158  1
