# generated using pymatgen
data_Fe45Co19
_symmetry_space_group_name_H-M   'P 1'
_cell_length_a   11.41583577
_cell_length_b   11.41508411
_cell_length_c   11.41624132
_cell_angle_alpha   89.99307748
_cell_angle_beta   90.00046387
_cell_angle_gamma   89.99605956
_symmetry_Int_Tables_number   1
_chemical_formula_structural   Fe45Co19
_chemical_formula_sum   'Fe90 Co38'
_cell_volume   1487.68150653
_cell_formula_units_Z   2
loop_
 _symmetry_equiv_pos_site_id
 _symmetry_equiv_pos_as_xyz
  1  'x, y, z'
loop_
 _atom_site_type_symbol
 _atom_site_label
 _atom_site_symmetry_multiplicity
 _atom_site_fract_x
 _atom_site_fract_y
 _atom_site_fract_z
 _atom_site_occupancy
  Fe  Fe0  1  -0.00144908  0.49774583  0.49911482  1
  Fe  Fe1  1  0.87283985  0.62566240  0.12862704  1
  Fe  Fe2  1  0.50039232  0.75109618  0.00109880  1
  Fe  Fe3  1  0.74942845  0.74893635  0.49728297  1
  Fe  Fe4  1  0.37472407  0.62482611  0.62225728  1
  Fe  Fe5  1  0.12902260  0.37365475  0.37157368  1
  Fe  Fe6  1  0.00030522  0.74984484  0.00122638  1
  Fe  Fe7  1  0.74846736  0.00103113  0.00029572  1
  Fe  Fe8  1  0.12472820  0.12647590  0.62539174  1
  Fe  Fe9  1  0.00280761  0.25204873  0.50207627  1
  Fe  Fe10  1  0.49870282  0.24815521  0.24549232  1
  Fe  Fe11  1  0.12436998  0.12749335  0.87717786  1
  Fe  Fe12  1  0.25140664  0.74714466  0.75195470  1
  Fe  Fe13  1  0.62287813  0.87687108  0.87285217  1
  Fe  Fe14  1  0.62393295  0.37481884  0.37298959  1
  Fe  Fe15  1  0.87521123  0.37613588  0.12409257  1
  Fe  Fe16  1  0.12439943  0.87342760  0.87262643  1
  Fe  Fe17  1  0.12407195  0.37392586  0.87411082  1
  Fe  Fe18  1  0.12667948  0.62252432  0.12304852  1
  Fe  Fe19  1  0.37205851  0.87429826  0.12559526  1
  Fe  Fe20  1  0.37311407  0.12902671  0.37514448  1
  Fe  Fe21  1  0.12924483  0.37409072  0.62685378  1
  Fe  Fe22  1  0.62510969  0.62155828  0.12618832  1
  Fe  Fe23  1  0.00069103  0.50188004  0.25160287  1
  Fe  Fe24  1  0.24998419  0.50042874  -0.00217049  1
  Fe  Fe25  1  0.49847672  0.00376409  0.24657248  1
  Fe  Fe26  1  0.37816494  0.87785627  0.87602623  1
  Fe  Fe27  1  0.62759716  0.37643528  0.87315039  1
  Fe  Fe28  1  0.37390743  0.87486279  0.37356064  1
  Fe  Fe29  1  -0.00114552  0.50044315  -0.00072266  1
  Fe  Fe30  1  0.87319417  0.37364003  0.62730273  1
  Fe  Fe31  1  0.62473945  0.12555587  0.37421045  1
  Fe  Fe32  1  0.25031915  0.74910620  -0.00348035  1
  Fe  Fe33  1  0.87454127  0.62418710  0.62078442  1
  Fe  Fe34  1  0.49743047  0.25368268  0.50152267  1
  Fe  Fe35  1  0.74873115  0.74872019  -0.00007902  1
  Fe  Fe36  1  0.87762497  0.12635478  0.37673252  1
  Fe  Fe37  1  0.74930414  0.74777550  0.75061328  1
  Fe  Fe38  1  0.75191293  0.24896029  0.25015161  1
  Fe  Fe39  1  0.75046609  0.25057238  -0.00130793  1
  Fe  Fe40  1  0.62559925  0.87644979  0.62561341  1
  Fe  Fe41  1  0.62316719  0.62241152  0.87601724  1
  Fe  Fe42  1  0.00177362  -0.00456758  0.50120692  1
  Fe  Fe43  1  0.49753133  0.49415207  0.49947619  1
  Fe  Fe44  1  0.62440828  0.62031109  0.37401659  1
  Fe  Fe45  1  -0.00232907  0.00330774  0.74993056  1
  Fe  Fe46  1  0.61908949  0.12441320  0.87799892  1
  Fe  Fe47  1  0.24797903  -0.00182670  0.50004680  1
  Fe  Fe48  1  0.49950109  0.74927221  0.74949748  1
  Fe  Fe49  1  0.74982925  0.25222054  0.49966489  1
  Fe  Fe50  1  0.00306643  0.25068628  0.24701095  1
  Fe  Fe51  1  0.49896015  0.49815583  0.74847130  1
  Fe  Fe52  1  -0.00063281  -0.00090054  0.24949152  1
  Fe  Fe53  1  0.25429204  0.49849905  0.49405371  1
  Fe  Fe54  1  0.37233595  0.37284517  0.87529415  1
  Fe  Fe55  1  0.49920118  0.49707696  0.00164779  1
  Fe  Fe56  1  0.12421108  0.12530147  0.37520008  1
  Fe  Fe57  1  0.62531148  0.12672847  0.62360173  1
  Fe  Fe58  1  0.87422360  0.87502065  0.87482135  1
  Fe  Fe59  1  0.12680787  0.62574801  0.62108994  1
  Fe  Fe60  1  0.87300857  0.87304059  0.12730572  1
  Fe  Fe61  1  0.62803325  0.37581797  0.12648695  1
  Fe  Fe62  1  0.87515427  0.37483017  0.37443200  1
  Fe  Fe63  1  0.49607586  0.24971899  0.74953390  1
  Fe  Fe64  1  0.62768522  0.87676028  0.12834018  1
  Fe  Fe65  1  0.36935754  0.37521787  0.12903716  1
  Fe  Fe66  1  0.49995233  0.75129695  0.49928690  1
  Fe  Fe67  1  0.75086193  0.00425800  0.75048948  1
  Fe  Fe68  1  0.75426641  0.24730323  0.75182076  1
  Fe  Fe69  1  0.87523437  0.12436644  0.12379989  1
  Fe  Fe70  1  0.25300831  0.00417888  0.75377581  1
  Fe  Fe71  1  0.87409438  0.87571550  0.62653070  1
  Fe  Fe72  1  0.37347861  0.87435817  0.62540585  1
  Fe  Fe73  1  -0.00023652  0.74810692  0.74813132  1
  Fe  Fe74  1  0.49839920  0.00061749  0.50127075  1
  Fe  Fe75  1  0.37513851  0.62404563  0.12573447  1
  Fe  Fe76  1  0.25050048  0.00546513  0.24699803  1
  Fe  Fe77  1  -0.00001041  0.49968573  0.74959221  1
  Fe  Fe78  1  0.24728419  0.74487256  0.25458037  1
  Fe  Fe79  1  0.00183459  0.25237958  0.00118690  1
  Fe  Fe80  1  0.00104310  -0.00294927  -0.00017003  1
  Fe  Fe81  1  0.50140519  0.74936476  0.25008227  1
  Fe  Fe82  1  0.87500511  0.62310665  0.87509707  1
  Fe  Fe83  1  0.12719173  0.87523437  0.12629924  1
  Fe  Fe84  1  0.87695784  0.86977339  0.37164470  1
  Fe  Fe85  1  0.75187381  0.00001054  0.49761715  1
  Fe  Fe86  1  0.25020806  0.50237911  0.75226823  1
  Fe  Fe87  1  0.62374782  0.87833229  0.37348507  1
  Fe  Fe88  1  0.37311101  0.12746100  0.62349595  1
  Fe  Fe89  1  0.62533627  0.62170062  0.62355411  1
  Co  Co90  1  0.37604576  0.12641411  0.11626454  1
  Co  Co91  1  0.24916580  0.25108490  0.49995081  1
  Co  Co92  1  0.24837141  -0.00077849  -0.00122303  1
  Co  Co93  1  0.12087816  0.12174269  0.12270772  1
  Co  Co94  1  0.00520375  0.74735005  0.24790351  1
  Co  Co95  1  0.75159189  0.50151174  0.74927692  1
  Co  Co96  1  0.75206213  0.00203021  0.25191885  1
  Co  Co97  1  0.75229895  0.49860094  0.25154523  1
  Co  Co98  1  0.62697705  0.37350446  0.62765636  1
  Co  Co99  1  0.87736434  0.12489102  0.87983681  1
  Co  Co100  1  0.00304188  0.75513149  0.50238526  1
  Co  Co101  1  0.12263009  0.62518870  0.87573682  1
  Co  Co102  1  0.12068945  0.62513697  0.38116073  1
  Co  Co103  1  0.37065303  0.37557817  0.62675643  1
  Co  Co104  1  0.37895852  0.12597533  0.88355692  1
  Co  Co105  1  0.50177376  -0.00370858  0.00591189  1
  Co  Co106  1  0.62711032  0.12632052  0.12477389  1
  Co  Co107  1  0.24932985  0.50523027  0.25511920  1
  Co  Co108  1  0.12595221  0.38110504  0.12610138  1
  Co  Co109  1  0.87600594  0.12607683  0.62008991  1
  Co  Co110  1  0.49824348  0.49802755  0.24948366  1
  Co  Co111  1  0.24559836  0.25105550  0.00411439  1
  Co  Co112  1  0.24841396  0.75301853  0.49795255  1
  Co  Co113  1  0.49792583  0.00271328  0.74672979  1
  Co  Co114  1  0.87598316  0.37675546  0.87486385  1
  Co  Co115  1  0.87683464  0.62752864  0.37508679  1
  Co  Co116  1  0.75074162  0.49733606  0.49842750  1
  Co  Co117  1  0.12639550  0.87638280  0.37070127  1
  Co  Co118  1  0.37930135  0.62684389  0.37545780  1
  Co  Co119  1  0.37282085  0.36942604  0.36877633  1
  Co  Co120  1  0.74617136  0.74827883  0.25183296  1
  Co  Co121  1  0.50118647  0.25688250  0.00243851  1
  Co  Co122  1  0.37884756  0.62352342  0.87621576  1
  Co  Co123  1  0.75087436  0.50050938  0.00051898  1
  Co  Co124  1  0.25180219  0.24673079  0.75226895  1
  Co  Co125  1  0.24570729  0.24480687  0.24417027  1
  Co  Co126  1  0.12710815  0.87533283  0.63142433  1
  Co  Co127  1  -0.00177388  0.24968806  0.74930015  1
