# generated using pymatgen
data_Fe45Co19
_symmetry_space_group_name_H-M   'P 1'
_cell_length_a   11.41623873
_cell_length_b   11.41482135
_cell_length_c   11.41528620
_cell_angle_alpha   90.01439644
_cell_angle_beta   90.00192155
_cell_angle_gamma   89.99989480
_symmetry_Int_Tables_number   1
_chemical_formula_structural   Fe45Co19
_chemical_formula_sum   'Fe90 Co38'
_cell_volume   1487.57527322
_cell_formula_units_Z   2
loop_
 _symmetry_equiv_pos_site_id
 _symmetry_equiv_pos_as_xyz
  1  'x, y, z'
loop_
 _atom_site_type_symbol
 _atom_site_label
 _atom_site_symmetry_multiplicity
 _atom_site_fract_x
 _atom_site_fract_y
 _atom_site_fract_z
 _atom_site_occupancy
  Fe  Fe0  1  0.00097823  0.75211205  0.25332538  1
  Fe  Fe1  1  0.25040977  0.24759844  0.75154418  1
  Fe  Fe2  1  0.37534848  0.87359892  0.87493702  1
  Fe  Fe3  1  0.37664864  0.62625961  0.87418246  1
  Fe  Fe4  1  0.87559673  0.62563142  0.12446976  1
  Fe  Fe5  1  -0.00040106  0.25128435  0.00114537  1
  Fe  Fe6  1  0.87364103  0.12225204  0.87460459  1
  Fe  Fe7  1  0.24893656  0.50332751  0.74882178  1
  Fe  Fe8  1  0.25151658  0.49862898  0.25033992  1
  Fe  Fe9  1  0.25194211  0.49835617  0.00166371  1
  Fe  Fe10  1  0.25047482  0.74976807  0.25413680  1
  Fe  Fe11  1  0.87768104  0.62314688  0.37600113  1
  Fe  Fe12  1  0.62276644  0.62458236  0.87674790  1
  Fe  Fe13  1  -0.00073887  0.00077287  0.74936901  1
  Fe  Fe14  1  0.49932780  -0.00084104  0.50027574  1
  Fe  Fe15  1  0.12700675  0.37445405  0.62541334  1
  Fe  Fe16  1  0.00106401  0.49761076  0.00281940  1
  Fe  Fe17  1  0.25000018  -0.00077622  0.75032025  1
  Fe  Fe18  1  0.87600983  0.12528295  0.37429817  1
  Fe  Fe19  1  0.49475759  0.00249429  0.00447046  1
  Fe  Fe20  1  0.12646712  0.37571926  0.87486963  1
  Fe  Fe21  1  0.49981712  -0.00236539  0.74917551  1
  Fe  Fe22  1  -0.00027152  0.25085308  0.50117251  1
  Fe  Fe23  1  0.62741990  0.37776227  0.62627429  1
  Fe  Fe24  1  0.37627432  0.12532852  0.62515253  1
  Fe  Fe25  1  0.49733789  0.00305685  0.24704945  1
  Fe  Fe26  1  0.74869268  0.75008226  0.75337784  1
  Fe  Fe27  1  0.62443687  0.12424022  0.62592739  1
  Fe  Fe28  1  0.62186562  0.37150348  0.12677099  1
  Fe  Fe29  1  0.62314198  0.62567240  0.12363461  1
  Fe  Fe30  1  0.62526023  0.62415569  0.62372251  1
  Fe  Fe31  1  0.62464614  0.87630584  0.37399738  1
  Fe  Fe32  1  0.12697788  0.12452258  0.87669555  1
  Fe  Fe33  1  0.37654241  0.62590487  0.12485370  1
  Fe  Fe34  1  0.37891908  0.62596232  0.37604028  1
  Fe  Fe35  1  -0.00028252  -0.00084652  0.00193784  1
  Fe  Fe36  1  0.74990180  0.24709388  0.75007438  1
  Fe  Fe37  1  0.62645790  0.87419714  0.62385862  1
  Fe  Fe38  1  0.12511907  0.37587579  0.37487255  1
  Fe  Fe39  1  0.87208162  0.87606045  0.62589676  1
  Fe  Fe40  1  0.00117088  0.49696053  0.24707121  1
  Fe  Fe41  1  0.25166663  0.00145112  0.49666313  1
  Fe  Fe42  1  0.00196228  0.25175058  0.24748003  1
  Fe  Fe43  1  0.87481560  0.37529690  0.37376707  1
  Fe  Fe44  1  0.50015132  0.75128711  0.24903693  1
  Fe  Fe45  1  0.00027839  0.49938992  0.74903352  1
  Fe  Fe46  1  0.87175771  0.37674241  0.62539845  1
  Fe  Fe47  1  0.87335020  0.87228231  0.12407777  1
  Fe  Fe48  1  0.38014446  0.37190106  0.37319038  1
  Fe  Fe49  1  -0.00044496  0.24915671  0.74914061  1
  Fe  Fe50  1  0.12558435  0.62514225  0.12675810  1
  Fe  Fe51  1  0.87526240  0.62374211  0.62166368  1
  Fe  Fe52  1  0.74886420  0.74859675  0.24979663  1
  Fe  Fe53  1  0.12426508  0.62558468  0.87644155  1
  Fe  Fe54  1  0.25048760  0.24789368  0.49694575  1
  Fe  Fe55  1  0.74916737  0.00246691  0.24744629  1
  Fe  Fe56  1  0.74838488  0.49887588  0.25021216  1
  Fe  Fe57  1  0.87271123  0.37602744  0.87512382  1
  Fe  Fe58  1  0.12985499  0.12635238  0.12467971  1
  Fe  Fe59  1  0.74857533  0.24984210  0.49857481  1
  Fe  Fe60  1  0.49962068  0.25064636  0.75281226  1
  Fe  Fe61  1  0.62254970  0.62363343  0.37620146  1
  Fe  Fe62  1  -0.00038278  -0.00081189  0.24955923  1
  Fe  Fe63  1  0.37648443  0.62967425  0.62497225  1
  Fe  Fe64  1  0.25188799  0.50115348  0.49852370  1
  Fe  Fe65  1  0.25580429  0.25246089  -0.00159604  1
  Fe  Fe66  1  0.61995969  0.37413478  0.37328355  1
  Fe  Fe67  1  0.12461574  0.12413954  0.62272862  1
  Fe  Fe68  1  0.74877820  0.49950122  0.00132854  1
  Fe  Fe69  1  0.37439576  0.37391814  0.62619584  1
  Fe  Fe70  1  0.74860312  0.25012469  0.00107433  1
  Fe  Fe71  1  0.62506697  0.87525490  0.12321917  1
  Fe  Fe72  1  0.00015966  0.75028416  0.74918279  1
  Fe  Fe73  1  0.62556920  0.87714551  0.87903091  1
  Fe  Fe74  1  0.62385577  0.12311989  0.87799995  1
  Fe  Fe75  1  0.75041133  0.74940997  0.49732276  1
  Fe  Fe76  1  0.37436109  0.87070634  0.62275353  1
  Fe  Fe77  1  0.25004848  0.75125794  0.00006601  1
  Fe  Fe78  1  -0.00154595  -0.00254879  0.49843313  1
  Fe  Fe79  1  0.75004521  0.00240878  0.49964856  1
  Fe  Fe80  1  0.50047598  0.49962855  0.74914200  1
  Fe  Fe81  1  0.12742318  0.87294367  0.62196589  1
  Fe  Fe82  1  0.87638005  0.62695788  0.87820250  1
  Fe  Fe83  1  0.49839807  0.49558676  -0.00004325  1
  Fe  Fe84  1  0.25301364  0.00386620  0.25457585  1
  Fe  Fe85  1  0.12890541  0.87582282  0.12734914  1
  Fe  Fe86  1  0.12425237  0.62746387  0.61982145  1
  Fe  Fe87  1  0.87272302  0.12740601  0.12615048  1
  Fe  Fe88  1  0.12361579  0.87458649  0.87526268  1
  Fe  Fe89  1  0.62216838  0.12587949  0.37429537  1
  Co  Co90  1  0.75125612  0.50394103  0.75212594  1
  Co  Co91  1  0.50225065  0.75048001  0.49898573  1
  Co  Co92  1  0.37695206  0.37353763  0.12906764  1
  Co  Co93  1  0.24951156  0.74817231  0.49433759  1
  Co  Co94  1  0.49859956  0.49950976  0.50225702  1
  Co  Co95  1  0.75337698  -0.00052020  0.00236465  1
  Co  Co96  1  0.12925656  0.37320254  0.12396814  1
  Co  Co97  1  0.62607071  0.12654045  0.12188676  1
  Co  Co98  1  0.50167832  0.25119391  0.50368221  1
  Co  Co99  1  0.12715284  0.87711518  0.37488940  1
  Co  Co100  1  0.50018181  0.50238893  0.24924943  1
  Co  Co101  1  0.12178396  0.62251269  0.37517441  1
  Co  Co102  1  0.24880967  0.75010344  0.75184506  1
  Co  Co103  1  0.00105357  0.49668640  0.50156903  1
  Co  Co104  1  0.00293496  0.75229695  0.00278818  1
  Co  Co105  1  0.62732738  0.37471631  0.87393016  1
  Co  Co106  1  0.87479862  0.12385397  0.62387250  1
  Co  Co107  1  -0.00135643  0.75422018  0.49678322  1
  Co  Co108  1  0.87148744  0.37473034  0.12499441  1
  Co  Co109  1  0.49836130  0.75175017  0.00139769  1
  Co  Co110  1  0.25094784  -0.00285036  -0.00179436  1
  Co  Co111  1  0.50293825  0.75205203  0.75076071  1
  Co  Co112  1  0.37982009  0.12680150  0.37778771  1
  Co  Co113  1  0.87570139  0.87454575  0.87497429  1
  Co  Co114  1  0.87057743  0.87681816  0.37323325  1
  Co  Co115  1  0.74903412  0.74991716  -0.00013482  1
  Co  Co116  1  0.37788423  0.87487084  0.37511856  1
  Co  Co117  1  0.36877194  0.12711122  0.12420700  1
  Co  Co118  1  0.12077096  0.12429418  0.37522686  1
  Co  Co119  1  0.37371440  0.37804097  0.87085585  1
  Co  Co120  1  0.37259723  0.87438514  0.12772087  1
  Co  Co121  1  0.74842772  0.25019054  0.25193428  1
  Co  Co122  1  0.74859575  0.49875843  0.49617362  1
  Co  Co123  1  0.49650796  0.25112279  -0.00225890  1
  Co  Co124  1  0.37529623  0.12214973  0.87348109  1
  Co  Co125  1  0.74873061  0.00003535  0.75084156  1
  Co  Co126  1  0.49899184  0.24328155  0.24610647  1
  Co  Co127  1  0.24977776  0.24891540  0.25439183  1
