# generated using pymatgen
data_Fe45Co19
_symmetry_space_group_name_H-M   'P 1'
_cell_length_a   11.41565156
_cell_length_b   11.41564710
_cell_length_c   11.41597598
_cell_angle_alpha   90.00169470
_cell_angle_beta   90.00175260
_cell_angle_gamma   90.00150757
_symmetry_Int_Tables_number   1
_chemical_formula_structural   Fe45Co19
_chemical_formula_sum   'Fe90 Co38'
_cell_volume   1487.69630728
_cell_formula_units_Z   2
loop_
 _symmetry_equiv_pos_site_id
 _symmetry_equiv_pos_as_xyz
  1  'x, y, z'
loop_
 _atom_site_type_symbol
 _atom_site_label
 _atom_site_symmetry_multiplicity
 _atom_site_fract_x
 _atom_site_fract_y
 _atom_site_fract_z
 _atom_site_occupancy
  Fe  Fe0  1  -0.00639794  0.24922875  0.50314875  1
  Fe  Fe1  1  0.74689572  0.00120469  0.75139067  1
  Fe  Fe2  1  0.62322049  0.62737031  0.62481361  1
  Fe  Fe3  1  0.62506043  0.62651742  0.87435275  1
  Fe  Fe4  1  0.62878638  0.12450408  0.12171276  1
  Fe  Fe5  1  0.12662625  0.87841368  0.62616537  1
  Fe  Fe6  1  0.24976347  0.25208981  0.00137783  1
  Fe  Fe7  1  0.62297058  0.37811970  0.12510026  1
  Fe  Fe8  1  0.00064270  0.50014726  -0.00090119  1
  Fe  Fe9  1  0.87497390  0.62451302  0.62381834  1
  Fe  Fe10  1  0.74971459  0.50031209  0.00026531  1
  Fe  Fe11  1  0.37854940  0.37564799  0.37723891  1
  Fe  Fe12  1  0.12850183  0.87351760  0.12839617  1
  Fe  Fe13  1  -0.00109871  0.74823866  0.25316055  1
  Fe  Fe14  1  0.75152638  0.24790583  0.74503277  1
  Fe  Fe15  1  0.12712287  0.62508046  0.62467966  1
  Fe  Fe16  1  0.00126128  0.49825965  0.74637233  1
  Fe  Fe17  1  0.12409567  0.12653650  0.12414908  1
  Fe  Fe18  1  0.49781349  0.50024420  0.74728674  1
  Fe  Fe19  1  0.37456763  0.87711210  0.62617995  1
  Fe  Fe20  1  0.75071898  0.74787317  0.24802287  1
  Fe  Fe21  1  0.12930193  0.87622099  0.37356983  1
  Fe  Fe22  1  0.37453870  0.62168423  0.12245757  1
  Fe  Fe23  1  0.62570311  0.87253654  0.87533488  1
  Fe  Fe24  1  0.50367353  -0.00036590  0.24882295  1
  Fe  Fe25  1  0.37206013  0.87548658  0.87407560  1
  Fe  Fe26  1  -0.00220196  0.24970409  -0.00073540  1
  Fe  Fe27  1  0.50124823  0.24691731  0.75163967  1
  Fe  Fe28  1  0.00124539  0.00381651  0.75231443  1
  Fe  Fe29  1  0.87550374  0.62577702  0.87363083  1
  Fe  Fe30  1  0.87393189  0.87968942  0.62412727  1
  Fe  Fe31  1  0.37753588  0.12358713  0.62519745  1
  Fe  Fe32  1  -0.00162664  0.50243100  0.25324965  1
  Fe  Fe33  1  0.25273050  0.49671528  0.50554195  1
  Fe  Fe34  1  0.87456265  0.87655664  0.12627417  1
  Fe  Fe35  1  0.12857673  0.62422987  0.87277395  1
  Fe  Fe36  1  0.62422942  0.87557244  0.62580145  1
  Fe  Fe37  1  0.24960565  -0.00072176  0.00166525  1
  Fe  Fe38  1  0.25345409  0.24866979  0.50035658  1
  Fe  Fe39  1  0.37075467  0.62356070  0.87381273  1
  Fe  Fe40  1  0.12299333  0.37500163  0.12680672  1
  Fe  Fe41  1  0.75051954  0.74955048  0.00173876  1
  Fe  Fe42  1  0.12327820  0.37403211  0.37901402  1
  Fe  Fe43  1  0.12560197  0.62543185  0.12579601  1
  Fe  Fe44  1  0.50396197  0.00103802  0.49679150  1
  Fe  Fe45  1  0.50216285  -0.00106001  -0.00000427  1
  Fe  Fe46  1  0.25017306  0.24994402  0.25115408  1
  Fe  Fe47  1  0.75007524  0.75200704  0.50153815  1
  Fe  Fe48  1  0.49846621  0.75091870  0.00223389  1
  Fe  Fe49  1  -0.00093696  0.00011560  -0.00014622  1
  Fe  Fe50  1  0.00200053  0.00327042  0.25296959  1
  Fe  Fe51  1  0.62579521  0.37361210  0.87384708  1
  Fe  Fe52  1  0.74845705  0.49989992  0.50038588  1
  Fe  Fe53  1  0.50018868  0.25002117  0.24939572  1
  Fe  Fe54  1  0.00147334  0.75093692  -0.00015938  1
  Fe  Fe55  1  0.12800140  0.87602678  0.87308732  1
  Fe  Fe56  1  0.62181517  0.37062165  0.62181408  1
  Fe  Fe57  1  0.37691522  0.37755839  0.12389042  1
  Fe  Fe58  1  0.12367389  0.12435667  0.62205822  1
  Fe  Fe59  1  0.62397074  0.62614728  0.37439405  1
  Fe  Fe60  1  0.87678147  0.37667023  0.12532905  1
  Fe  Fe61  1  -0.00228517  0.24695513  0.25216226  1
  Fe  Fe62  1  0.37525463  0.12422257  0.12436940  1
  Fe  Fe63  1  0.37368044  0.87758877  0.37128539  1
  Fe  Fe64  1  -0.00017158  0.75165011  0.50000551  1
  Fe  Fe65  1  0.12487736  0.37327284  0.87204480  1
  Fe  Fe66  1  0.12602705  0.62351136  0.37815507  1
  Fe  Fe67  1  0.37522024  0.12285717  0.37261844  1
  Fe  Fe68  1  0.87335151  0.87679188  0.37695343  1
  Fe  Fe69  1  0.74818335  0.00104299  0.25297902  1
  Fe  Fe70  1  0.74830979  0.50094855  0.74792245  1
  Fe  Fe71  1  0.50200674  0.25094192  -0.00062359  1
  Fe  Fe72  1  0.49777861  0.74992971  0.74992583  1
  Fe  Fe73  1  0.50221061  0.00217079  0.75278232  1
  Fe  Fe74  1  0.87460910  0.37659599  0.37796217  1
  Fe  Fe75  1  0.37334781  0.37587237  0.87374209  1
  Fe  Fe76  1  0.49827803  0.74986725  0.24716473  1
  Fe  Fe77  1  0.37589540  0.62299144  0.37787880  1
  Fe  Fe78  1  0.24826566  0.24802110  0.74867182  1
  Fe  Fe79  1  0.37365969  0.12480558  0.87669792  1
  Fe  Fe80  1  0.25145628  0.75262548  0.50065589  1
  Fe  Fe81  1  0.75274822  0.24935825  0.24958141  1
  Fe  Fe82  1  0.62322436  0.37223815  0.37748701  1
  Fe  Fe83  1  0.87432517  0.87333535  0.87286177  1
  Fe  Fe84  1  0.87495726  0.37405180  0.87155555  1
  Fe  Fe85  1  0.00060307  0.75070676  0.74800995  1
  Fe  Fe86  1  0.25065599  0.49861126  0.25081748  1
  Fe  Fe87  1  0.75065885  0.50208036  0.24994440  1
  Fe  Fe88  1  0.87193876  0.12716003  0.87669284  1
  Fe  Fe89  1  0.49933135  0.75144736  0.49979147  1
  Co  Co90  1  0.87737592  0.62512790  0.12363871  1
  Co  Co91  1  0.00279070  -0.00197515  0.49713585  1
  Co  Co92  1  0.49781084  0.24578092  0.49714542  1
  Co  Co93  1  -0.00134081  0.24662301  0.74809441  1
  Co  Co94  1  0.62465909  0.87051342  0.37297335  1
  Co  Co95  1  0.50056082  0.49946873  -0.00427322  1
  Co  Co96  1  0.24691590  0.00537274  0.25000520  1
  Co  Co97  1  0.37430516  0.62780502  0.62518012  1
  Co  Co98  1  0.25120837  0.00065315  0.49956569  1
  Co  Co99  1  0.62303781  0.62324086  0.12519309  1
  Co  Co100  1  0.75058143  0.25467760  0.00235212  1
  Co  Co101  1  0.37909537  0.37009279  0.62579287  1
  Co  Co102  1  0.62663078  0.87515757  0.12464561  1
  Co  Co103  1  0.50090644  0.50073153  0.50297453  1
  Co  Co104  1  0.75347458  0.24796178  0.50184268  1
  Co  Co105  1  0.87336714  0.12289256  0.12444450  1
  Co  Co106  1  0.37247564  0.87692810  0.12799206  1
  Co  Co107  1  0.24950376  0.75071410  0.00007522  1
  Co  Co108  1  0.25303654  0.74600708  0.25111235  1
  Co  Co109  1  0.87428198  0.11731979  0.62308480  1
  Co  Co110  1  0.87430848  0.37760261  0.62564011  1
  Co  Co111  1  0.24989195  0.75183208  0.74888330  1
  Co  Co112  1  0.24984854  0.00309834  0.74955869  1
  Co  Co113  1  0.75086472  -0.00314307  -0.00321832  1
  Co  Co114  1  0.24788247  0.49777940  0.00054850  1
  Co  Co115  1  0.62585815  0.12997962  0.37411278  1
  Co  Co116  1  0.25095577  0.49671876  0.74496217  1
  Co  Co117  1  0.12618029  0.12584348  0.87809081  1
  Co  Co118  1  0.12296536  0.37128477  0.62309094  1
  Co  Co119  1  0.49941100  0.49975445  0.25259533  1
  Co  Co120  1  0.75105149  0.75034454  0.74778021  1
  Co  Co121  1  0.74326451  0.00042891  0.49760676  1
  Co  Co122  1  -0.00102466  0.50089105  0.50173425  1
  Co  Co123  1  0.62325101  0.12615102  0.62331101  1
  Co  Co124  1  0.62812254  0.12743478  0.87745321  1
  Co  Co125  1  0.12447501  0.12851839  0.37926221  1
  Co  Co126  1  0.87443471  0.12214184  0.37784761  1
  Co  Co127  1  0.87367149  0.62558737  0.37806044  1
