# generated using pymatgen
data_Fe45Co19
_symmetry_space_group_name_H-M   'P 1'
_cell_length_a   11.41565120
_cell_length_b   11.41514749
_cell_length_c   11.41493434
_cell_angle_alpha   90.00594318
_cell_angle_beta   89.99743642
_cell_angle_gamma   90.00047510
_symmetry_Int_Tables_number   1
_chemical_formula_structural   Fe45Co19
_chemical_formula_sum   'Fe90 Co38'
_cell_volume   1487.49540578
_cell_formula_units_Z   2
loop_
 _symmetry_equiv_pos_site_id
 _symmetry_equiv_pos_as_xyz
  1  'x, y, z'
loop_
 _atom_site_type_symbol
 _atom_site_label
 _atom_site_symmetry_multiplicity
 _atom_site_fract_x
 _atom_site_fract_y
 _atom_site_fract_z
 _atom_site_occupancy
  Fe  Fe0  1  0.00212860  0.25185873  0.75050152  1
  Fe  Fe1  1  0.24478447  -0.00216925  0.75610399  1
  Fe  Fe2  1  0.24779205  0.50265966  -0.00122227  1
  Fe  Fe3  1  0.87318477  0.87854546  0.12439631  1
  Fe  Fe4  1  0.25040751  0.74858007  0.24712809  1
  Fe  Fe5  1  0.62579062  0.87552118  0.37364063  1
  Fe  Fe6  1  0.37492178  0.12567216  0.87563987  1
  Fe  Fe7  1  0.62479287  0.87402501  0.87478792  1
  Fe  Fe8  1  0.37386550  0.12174332  0.62769541  1
  Fe  Fe9  1  0.87443540  0.37644351  0.62740899  1
  Fe  Fe10  1  0.87962957  0.12969442  0.37783304  1
  Fe  Fe11  1  0.74850340  0.49671564  0.25447599  1
  Fe  Fe12  1  0.87892835  0.12514292  0.87674041  1
  Fe  Fe13  1  0.50334179  0.50002922  -0.00437842  1
  Fe  Fe14  1  0.75126515  0.00087957  0.75308032  1
  Fe  Fe15  1  0.88026653  0.87548809  0.87570620  1
  Fe  Fe16  1  0.00215788  0.25422126  -0.00066348  1
  Fe  Fe17  1  0.62575232  0.87754100  0.62876040  1
  Fe  Fe18  1  0.62661353  0.37483649  0.62754444  1
  Fe  Fe19  1  0.74993310  0.74981176  0.24885251  1
  Fe  Fe20  1  0.25244605  0.00167999  0.24887996  1
  Fe  Fe21  1  0.12770075  0.12507670  0.12143882  1
  Fe  Fe22  1  0.00020535  0.00109170  0.24856310  1
  Fe  Fe23  1  0.49751055  0.24739422  0.24842611  1
  Fe  Fe24  1  0.74906857  0.49564835  0.49527828  1
  Fe  Fe25  1  0.62610815  0.12728531  0.37774481  1
  Fe  Fe26  1  0.75341667  0.74967051  -0.00090811  1
  Fe  Fe27  1  0.37429467  0.62438630  0.12376984  1
  Fe  Fe28  1  0.62278220  0.12421469  0.87506593  1
  Fe  Fe29  1  0.37505145  0.62665669  0.37673535  1
  Fe  Fe30  1  0.50071557  0.25028760  0.74991115  1
  Fe  Fe31  1  0.12335339  0.12268532  0.62542924  1
  Fe  Fe32  1  0.00002547  0.49884775  0.50089432  1
  Fe  Fe33  1  0.24855790  0.50117288  0.49897089  1
  Fe  Fe34  1  0.37447591  0.37902407  0.62736876  1
  Fe  Fe35  1  0.87753609  0.12320061  0.62374111  1
  Fe  Fe36  1  0.75117717  0.00236225  0.25102007  1
  Fe  Fe37  1  0.49783364  0.74643936  0.75016014  1
  Fe  Fe38  1  -0.00437994  0.75272993  0.50208955  1
  Fe  Fe39  1  0.62463177  0.37380625  0.12357372  1
  Fe  Fe40  1  0.49705975  0.00222129  0.24867271  1
  Fe  Fe41  1  0.87439837  0.37623530  0.12382955  1
  Fe  Fe42  1  0.24850932  0.25037317  0.50180575  1
  Fe  Fe43  1  -0.00123427  0.74877024  0.24475551  1
  Fe  Fe44  1  0.12342887  0.62750079  0.37517077  1
  Fe  Fe45  1  0.12241211  0.12679920  0.37612053  1
  Fe  Fe46  1  0.62819722  0.62422037  0.12311191  1
  Fe  Fe47  1  0.49994277  0.24780807  0.50440047  1
  Fe  Fe48  1  0.37431057  0.87530761  0.37387651  1
  Fe  Fe49  1  0.24860015  0.50809410  0.74953136  1
  Fe  Fe50  1  0.75200613  0.75287409  0.50139210  1
  Fe  Fe51  1  0.62492058  0.12522014  0.12229660  1
  Fe  Fe52  1  0.75147279  0.50011502  -0.00506047  1
  Fe  Fe53  1  0.12191650  0.37214366  0.37340999  1
  Fe  Fe54  1  0.24834154  -0.00049945  0.49972818  1
  Fe  Fe55  1  0.74948390  0.24695400  0.74989421  1
  Fe  Fe56  1  0.75098766  0.50202967  0.75472781  1
  Fe  Fe57  1  0.12357976  0.87517794  0.62714085  1
  Fe  Fe58  1  0.12607644  0.37840854  0.62863201  1
  Fe  Fe59  1  0.25049278  0.49986217  0.25177563  1
  Fe  Fe60  1  0.12832133  0.87518469  0.12003054  1
  Fe  Fe61  1  0.75319755  -0.00121592  0.49948303  1
  Fe  Fe62  1  0.62686840  0.62490654  0.62585890  1
  Fe  Fe63  1  0.37110047  0.87074106  0.87569446  1
  Fe  Fe64  1  0.50187595  0.50144577  0.25159958  1
  Fe  Fe65  1  0.25143530  0.24970608  0.24985419  1
  Fe  Fe66  1  0.11903398  0.62759591  0.87779091  1
  Fe  Fe67  1  0.24857820  0.24949108  0.75096864  1
  Fe  Fe68  1  0.49907111  0.74873069  0.00011306  1
  Fe  Fe69  1  0.62567122  0.87635482  0.12406942  1
  Fe  Fe70  1  0.75335545  0.74921222  0.75023896  1
  Fe  Fe71  1  0.37655800  0.37540186  0.12290104  1
  Fe  Fe72  1  -0.00204967  0.74802430  0.74543296  1
  Fe  Fe73  1  0.24991873  0.74946527  0.50333345  1
  Fe  Fe74  1  0.25024095  0.25219459  -0.00244888  1
  Fe  Fe75  1  0.12353104  0.87440956  0.37385044  1
  Fe  Fe76  1  0.49766075  -0.00092129  0.00007699  1
  Fe  Fe77  1  0.87385622  0.62601079  0.37463439  1
  Fe  Fe78  1  0.49941336  -0.00005173  0.50112142  1
  Fe  Fe79  1  0.50073669  0.74891968  0.24885424  1
  Fe  Fe80  1  0.12517211  0.37674785  0.12466487  1
  Fe  Fe81  1  0.50256433  0.50088374  0.49958920  1
  Fe  Fe82  1  0.74868961  0.25045586  -0.00254025  1
  Fe  Fe83  1  0.37323099  0.87516140  0.62865288  1
  Fe  Fe84  1  0.37481591  0.37836842  0.87267205  1
  Fe  Fe85  1  0.37654124  0.37274440  0.37638709  1
  Fe  Fe86  1  0.87486456  0.12490115  0.12163440  1
  Fe  Fe87  1  -0.00044884  0.50106382  0.24799296  1
  Fe  Fe88  1  0.50099500  0.75095371  0.50120750  1
  Fe  Fe89  1  0.75199325  0.25184811  0.25226786  1
  Co  Co90  1  0.37708233  0.62383551  0.62309311  1
  Co  Co91  1  0.00268888  0.00092036  0.75255605  1
  Co  Co92  1  -0.00073083  0.50031735  0.75136792  1
  Co  Co93  1  0.24880313  0.74598127  0.74918923  1
  Co  Co94  1  0.00263729  0.25358591  0.50588504  1
  Co  Co95  1  0.00001575  0.24888070  0.24439908  1
  Co  Co96  1  0.74980365  -0.00073680  -0.00292900  1
  Co  Co97  1  0.62597879  0.12134766  0.62560238  1
  Co  Co98  1  0.87944668  0.62687051  0.87492965  1
  Co  Co99  1  0.12062880  0.86716416  0.87697965  1
  Co  Co100  1  0.87039280  0.62078856  0.12615949  1
  Co  Co101  1  0.87521027  0.37288891  0.87374356  1
  Co  Co102  1  0.37355400  0.87409330  0.12434316  1
  Co  Co103  1  0.24963997  -0.00106302  -0.00468189  1
  Co  Co104  1  0.00209419  -0.00077609  0.00009287  1
  Co  Co105  1  0.62686526  0.62772331  0.37580361  1
  Co  Co106  1  0.62663662  0.37303206  0.87294121  1
  Co  Co107  1  -0.00064644  -0.00379437  0.49869527  1
  Co  Co108  1  -0.00149797  0.49871395  -0.00023365  1
  Co  Co109  1  0.49853552  -0.00138910  0.75314318  1
  Co  Co110  1  0.12293868  0.12708703  0.87764178  1
  Co  Co111  1  0.62034911  0.36939310  0.37444094  1
  Co  Co112  1  0.50009349  0.25145346  -0.00315011  1
  Co  Co113  1  0.24984603  0.74667408  -0.00022247  1
  Co  Co114  1  0.88103434  0.37246692  0.37441240  1
  Co  Co115  1  0.37339627  0.12541058  0.37770423  1
  Co  Co116  1  0.12647037  0.37805753  0.87290265  1
  Co  Co117  1  0.50295520  0.50219748  0.75167501  1
  Co  Co118  1  0.87549242  0.87354616  0.37060087  1
  Co  Co119  1  0.62704828  0.62813418  0.87473024  1
  Co  Co120  1  -0.00419139  0.74772989  0.00800133  1
  Co  Co121  1  0.87483581  0.87942765  0.62883857  1
  Co  Co122  1  0.37536886  0.62347659  0.87607017  1
  Co  Co123  1  0.12158932  0.62532889  0.62302202  1
  Co  Co124  1  0.12638001  0.62271749  0.12458953  1
  Co  Co125  1  0.75145952  0.25278115  0.50078290  1
  Co  Co126  1  0.87221656  0.62059076  0.62300705  1
  Co  Co127  1  0.37287580  0.12589187  0.12048980  1
