# generated using pymatgen
data_Fe45Co19
_symmetry_space_group_name_H-M   'P 1'
_cell_length_a   11.41548808
_cell_length_b   11.41350986
_cell_length_c   11.41604284
_cell_angle_alpha   90.00441595
_cell_angle_beta   90.00361294
_cell_angle_gamma   90.00268476
_symmetry_Int_Tables_number   1
_chemical_formula_structural   Fe45Co19
_chemical_formula_sum   'Fe90 Co38'
_cell_volume   1487.40518266
_cell_formula_units_Z   2
loop_
 _symmetry_equiv_pos_site_id
 _symmetry_equiv_pos_as_xyz
  1  'x, y, z'
loop_
 _atom_site_type_symbol
 _atom_site_label
 _atom_site_symmetry_multiplicity
 _atom_site_fract_x
 _atom_site_fract_y
 _atom_site_fract_z
 _atom_site_occupancy
  Fe  Fe0  1  0.49966908  0.24975707  0.50258546  1
  Fe  Fe1  1  0.49615362  -0.00175573  -0.00104699  1
  Fe  Fe2  1  0.36883506  0.87797373  0.12928766  1
  Fe  Fe3  1  0.25175730  0.24885164  0.49790130  1
  Fe  Fe4  1  0.50066534  0.00157011  0.50263478  1
  Fe  Fe5  1  0.62494244  0.62291495  0.62276770  1
  Fe  Fe6  1  0.62531358  0.12453959  0.12215219  1
  Fe  Fe7  1  0.37401450  0.12366321  0.12527156  1
  Fe  Fe8  1  0.00154234  0.75243917  0.24597301  1
  Fe  Fe9  1  0.87758760  0.62374088  0.37520576  1
  Fe  Fe10  1  0.87282525  0.12545888  0.62358501  1
  Fe  Fe11  1  0.12434506  0.87476703  0.37390863  1
  Fe  Fe12  1  0.12381946  0.12624210  0.87662246  1
  Fe  Fe13  1  0.24856143  0.24490992  0.25291706  1
  Fe  Fe14  1  0.49623343  0.75018052  0.00180175  1
  Fe  Fe15  1  0.12263432  0.62473263  0.37610412  1
  Fe  Fe16  1  0.12860219  0.62565393  0.12425062  1
  Fe  Fe17  1  0.50094091  0.50103743  0.24879249  1
  Fe  Fe18  1  0.74931823  0.00055808  0.25121434  1
  Fe  Fe19  1  0.75231832  0.49635668  0.49807474  1
  Fe  Fe20  1  0.62383504  0.87294402  0.87312619  1
  Fe  Fe21  1  0.87686947  0.62201767  0.62581905  1
  Fe  Fe22  1  0.62607996  0.87490731  0.62755994  1
  Fe  Fe23  1  0.24945757  0.50037775  0.25038265  1
  Fe  Fe24  1  0.24975723  0.49921230  0.49869767  1
  Fe  Fe25  1  0.00003828  0.75182981  0.50195782  1
  Fe  Fe26  1  0.37642496  0.62441119  0.37549589  1
  Fe  Fe27  1  0.75070769  0.00185662  0.75187154  1
  Fe  Fe28  1  0.00081143  0.75296872  0.00248141  1
  Fe  Fe29  1  0.00293298  -0.00011577  0.24661809  1
  Fe  Fe30  1  -0.00433175  0.25654484  0.50209209  1
  Fe  Fe31  1  0.12443463  0.61972721  0.87822132  1
  Fe  Fe32  1  0.12759442  0.87622764  0.62744462  1
  Fe  Fe33  1  0.75088122  0.24811030  0.25143653  1
  Fe  Fe34  1  0.25078250  0.74424807  0.75050539  1
  Fe  Fe35  1  0.62669964  0.87525270  0.12449997  1
  Fe  Fe36  1  0.25050251  0.74983322  0.49905406  1
  Fe  Fe37  1  0.75197339  0.00071650  -0.00396241  1
  Fe  Fe38  1  0.49953039  0.49894086  0.00064882  1
  Fe  Fe39  1  0.37251316  0.37752520  0.62741530  1
  Fe  Fe40  1  0.37282544  0.37522729  0.12793494  1
  Fe  Fe41  1  0.12613453  0.87611027  0.87582036  1
  Fe  Fe42  1  0.74970091  0.74963494  0.24954435  1
  Fe  Fe43  1  0.62265036  0.12678676  0.87567152  1
  Fe  Fe44  1  0.37457459  0.87825926  0.37219037  1
  Fe  Fe45  1  0.87352675  0.62475037  0.12339566  1
  Fe  Fe46  1  0.74841144  0.50007437  0.75363206  1
  Fe  Fe47  1  0.87764285  0.12382831  0.37800133  1
  Fe  Fe48  1  0.49732901  0.74529572  0.74872169  1
  Fe  Fe49  1  0.00161293  0.49929386  0.24672468  1
  Fe  Fe50  1  0.12573901  0.12373543  0.12137624  1
  Fe  Fe51  1  0.74848847  0.50135385  0.24882945  1
  Fe  Fe52  1  0.62392124  0.12546273  0.37719371  1
  Fe  Fe53  1  0.49690841  0.00303533  0.75084551  1
  Fe  Fe54  1  0.25268246  0.74958380  -0.00078334  1
  Fe  Fe55  1  0.37228060  0.37788671  0.87109960  1
  Fe  Fe56  1  -0.00043789  0.00156121  0.75055114  1
  Fe  Fe57  1  0.62599049  0.37510565  0.62593327  1
  Fe  Fe58  1  0.87561289  0.87376085  0.87397018  1
  Fe  Fe59  1  0.87404232  0.37516255  0.12618287  1
  Fe  Fe60  1  0.49824540  0.24901270  0.74861245  1
  Fe  Fe61  1  0.49889098  0.74880359  0.24758426  1
  Fe  Fe62  1  0.49871219  0.25289895  0.00039209  1
  Fe  Fe63  1  0.37668873  0.37365318  0.37338049  1
  Fe  Fe64  1  0.75027228  0.25129860  -0.00215664  1
  Fe  Fe65  1  0.87776106  0.62230407  0.87596923  1
  Fe  Fe66  1  0.00310424  0.25371800  0.74819141  1
  Fe  Fe67  1  0.62369430  0.62512397  0.87755277  1
  Fe  Fe68  1  0.62376813  0.62470541  0.37644258  1
  Fe  Fe69  1  0.00149073  0.74836693  0.75029794  1
  Fe  Fe70  1  0.62490208  0.37404960  0.37467796  1
  Fe  Fe71  1  0.00152912  0.25382833  0.00113728  1
  Fe  Fe72  1  0.87798216  0.37664219  0.87490793  1
  Fe  Fe73  1  0.24927109  0.00316463  0.49636646  1
  Fe  Fe74  1  0.12189339  0.37307676  0.37332126  1
  Fe  Fe75  1  0.24965875  0.25315415  -0.00165101  1
  Fe  Fe76  1  0.37250947  0.87542730  0.62724151  1
  Fe  Fe77  1  0.12598205  0.12648689  0.62291883  1
  Fe  Fe78  1  0.62395117  0.87479482  0.37471758  1
  Fe  Fe79  1  0.74959778  0.25015271  0.75216436  1
  Fe  Fe80  1  0.75091812  0.74985589  -0.00054303  1
  Fe  Fe81  1  0.75120293  0.75075591  0.50129084  1
  Fe  Fe82  1  0.49793097  0.75009922  0.50170232  1
  Fe  Fe83  1  0.62718032  0.37568619  0.12409562  1
  Fe  Fe84  1  0.87428775  0.87497054  0.62681911  1
  Fe  Fe85  1  0.25256980  0.00434452  0.75427908  1
  Fe  Fe86  1  0.12362650  0.62255294  0.62200614  1
  Fe  Fe87  1  0.87560166  0.12356297  0.12241894  1
  Fe  Fe88  1  0.87654584  0.87610345  0.37545054  1
  Fe  Fe89  1  0.50144674  0.24863314  0.24814606  1
  Co  Co90  1  0.74995375  0.49832970  -0.00205441  1
  Co  Co91  1  0.62507846  0.62516501  0.12251440  1
  Co  Co92  1  0.87677793  0.37618863  0.36913427  1
  Co  Co93  1  0.87276050  0.87638605  0.12432912  1
  Co  Co94  1  0.50211482  0.00083852  0.24739648  1
  Co  Co95  1  0.12626881  0.37788609  0.87436318  1
  Co  Co96  1  0.24675751  0.50331923  0.74809600  1
  Co  Co97  1  0.24956829  0.49637228  0.00240292  1
  Co  Co98  1  0.37626749  0.12990095  0.87680270  1
  Co  Co99  1  0.37301307  0.62304761  0.12519426  1
  Co  Co100  1  0.62776695  0.12635420  0.62603233  1
  Co  Co101  1  0.87823629  0.12905025  0.87486812  1
  Co  Co102  1  -0.00079841  -0.00231068  -0.00072699  1
  Co  Co103  1  0.75039163  0.74676167  0.74974620  1
  Co  Co104  1  0.49942064  0.49680582  0.49979981  1
  Co  Co105  1  0.24806901  0.24917345  0.75147591  1
  Co  Co106  1  0.37444932  0.87162871  0.87171162  1
  Co  Co107  1  0.37413321  0.62094931  0.87650751  1
  Co  Co108  1  0.12744199  0.37247590  0.12889984  1
  Co  Co109  1  -0.00114762  0.49558218  0.50095228  1
  Co  Co110  1  0.00099040  -0.00297081  0.50360896  1
  Co  Co111  1  0.87175067  0.37678122  0.62944201  1
  Co  Co112  1  0.25004393  0.74814531  0.25221752  1
  Co  Co113  1  0.25310167  0.00075675  -0.00455768  1
  Co  Co114  1  0.75211484  0.25267314  0.49776209  1
  Co  Co115  1  0.12944676  0.37475680  0.62327725  1
  Co  Co116  1  0.00172126  0.49692505  0.00465443  1
  Co  Co117  1  0.24501267  0.00684005  0.25516084  1
  Co  Co118  1  -0.00071589  0.24760650  0.24727697  1
  Co  Co119  1  0.13117593  0.87683521  0.12369952  1
  Co  Co120  1  0.00326273  0.49800628  0.74834161  1
  Co  Co121  1  0.37200959  0.12514193  0.62437285  1
  Co  Co122  1  0.74862454  -0.00137428  0.50022328  1
  Co  Co123  1  0.37439549  0.62236172  0.62231945  1
  Co  Co124  1  0.38079315  0.12483544  0.37443150  1
  Co  Co125  1  0.11722388  0.12876897  0.38008511  1
  Co  Co126  1  0.62282837  0.37364503  0.87429848  1
  Co  Co127  1  0.50126970  0.50209602  0.75000069  1
