# generated using pymatgen
data_Fe45Co19
_symmetry_space_group_name_H-M   'P 1'
_cell_length_a   11.41533403
_cell_length_b   11.41598564
_cell_length_c   11.41531312
_cell_angle_alpha   89.99880435
_cell_angle_beta   89.99543702
_cell_angle_gamma   90.00354107
_symmetry_Int_Tables_number   1
_chemical_formula_structural   Fe45Co19
_chemical_formula_sum   'Fe90 Co38'
_cell_volume   1487.61265527
_cell_formula_units_Z   2
loop_
 _symmetry_equiv_pos_site_id
 _symmetry_equiv_pos_as_xyz
  1  'x, y, z'
loop_
 _atom_site_type_symbol
 _atom_site_label
 _atom_site_symmetry_multiplicity
 _atom_site_fract_x
 _atom_site_fract_y
 _atom_site_fract_z
 _atom_site_occupancy
  Fe  Fe0  1  -0.00212113  0.00327747  0.50398274  1
  Fe  Fe1  1  0.87489355  0.37732387  0.37291117  1
  Fe  Fe2  1  0.37252707  0.12354569  0.87607687  1
  Fe  Fe3  1  0.74948224  0.25282326  0.75233849  1
  Fe  Fe4  1  0.50067691  0.00017479  0.74938611  1
  Fe  Fe5  1  0.12160071  0.87410513  0.87751130  1
  Fe  Fe6  1  0.62377200  0.87527537  0.12517619  1
  Fe  Fe7  1  0.62830202  0.12430203  0.62382576  1
  Fe  Fe8  1  0.87527793  0.37698973  0.62890779  1
  Fe  Fe9  1  0.49819834  0.24771799  0.24841582  1
  Fe  Fe10  1  0.24911734  -0.00087320  0.25019446  1
  Fe  Fe11  1  0.87400747  0.62534805  0.12456836  1
  Fe  Fe12  1  -0.00027416  0.24866792  0.24922287  1
  Fe  Fe13  1  0.75044778  0.49837788  -0.00238483  1
  Fe  Fe14  1  0.00098618  0.50019041  0.24785744  1
  Fe  Fe15  1  0.37390930  0.62518524  0.37362344  1
  Fe  Fe16  1  0.49658858  0.24675683  0.00118930  1
  Fe  Fe17  1  0.12389037  0.62571052  0.87800925  1
  Fe  Fe18  1  0.25089175  0.49858009  0.00065650  1
  Fe  Fe19  1  0.49838735  0.24729649  0.74895865  1
  Fe  Fe20  1  0.00097937  0.00070239  0.24837012  1
  Fe  Fe21  1  0.87445277  0.62244310  0.62739914  1
  Fe  Fe22  1  0.25028794  0.49638439  0.49874664  1
  Fe  Fe23  1  0.87431415  0.62279894  0.37414900  1
  Fe  Fe24  1  0.37541780  0.12291648  0.37625906  1
  Fe  Fe25  1  0.87601513  0.87591521  0.37670243  1
  Fe  Fe26  1  0.37435735  0.37318917  0.87294001  1
  Fe  Fe27  1  0.75135010  0.25167110  0.50044440  1
  Fe  Fe28  1  0.37287300  0.62373256  0.62657008  1
  Fe  Fe29  1  0.37362764  0.62602261  0.87405418  1
  Fe  Fe30  1  0.87855968  0.87710438  0.87416268  1
  Fe  Fe31  1  0.37564716  0.87654290  0.87515750  1
  Fe  Fe32  1  0.24947847  0.75118479  0.75076678  1
  Fe  Fe33  1  -0.00033456  0.74874636  0.74924788  1
  Fe  Fe34  1  0.12184540  0.87492258  0.37702995  1
  Fe  Fe35  1  0.50035017  0.50018182  0.50056883  1
  Fe  Fe36  1  0.12274226  0.87326042  0.12123822  1
  Fe  Fe37  1  0.37384382  0.87686967  0.62493687  1
  Fe  Fe38  1  0.49880866  0.74905110  0.50239563  1
  Fe  Fe39  1  0.37906739  0.87603394  0.37531745  1
  Fe  Fe40  1  0.62411877  0.37484563  0.12364350  1
  Fe  Fe41  1  0.62550529  0.62944685  0.87246274  1
  Fe  Fe42  1  -0.00077397  0.25055308  0.50022295  1
  Fe  Fe43  1  -0.00134050  0.75036227  0.24917612  1
  Fe  Fe44  1  0.62709457  0.62683974  0.62870898  1
  Fe  Fe45  1  0.25082955  0.25337332  0.50074912  1
  Fe  Fe46  1  0.62577198  0.12333733  0.87459472  1
  Fe  Fe47  1  0.87310942  0.12467293  0.37542712  1
  Fe  Fe48  1  0.49899301  0.50115243  -0.00101625  1
  Fe  Fe49  1  0.49825306  0.75109978  -0.00113507  1
  Fe  Fe50  1  0.50108007  0.50092816  0.75048126  1
  Fe  Fe51  1  0.00450062  0.25082392  0.75048722  1
  Fe  Fe52  1  0.12517823  0.12673559  0.87874305  1
  Fe  Fe53  1  0.62323990  0.37295191  0.87598678  1
  Fe  Fe54  1  0.75287841  0.24980125  -0.00160276  1
  Fe  Fe55  1  0.12592171  0.62817079  0.12245379  1
  Fe  Fe56  1  0.74977984  -0.00139360  -0.00168758  1
  Fe  Fe57  1  0.37113570  0.12302381  0.62432370  1
  Fe  Fe58  1  0.75016064  0.75133189  0.25065828  1
  Fe  Fe59  1  0.12575429  0.12565257  0.37699753  1
  Fe  Fe60  1  0.49859195  0.24992178  0.50189388  1
  Fe  Fe61  1  0.12618334  0.62503172  0.62366134  1
  Fe  Fe62  1  0.12589827  0.62551521  0.37394158  1
  Fe  Fe63  1  0.62644997  0.62566407  0.37424348  1
  Fe  Fe64  1  0.25192209  0.75169944  0.24858628  1
  Fe  Fe65  1  0.87316629  0.12181142  0.12599753  1
  Fe  Fe66  1  0.75218012  0.75289635  -0.00201946  1
  Fe  Fe67  1  0.75239713  0.74963086  0.50102745  1
  Fe  Fe68  1  0.49970678  0.50158044  0.24931674  1
  Fe  Fe69  1  0.25037985  0.49763248  0.24899610  1
  Fe  Fe70  1  0.74539805  -0.00087005  0.25508599  1
  Fe  Fe71  1  0.62537414  0.37524273  0.37415346  1
  Fe  Fe72  1  0.87628286  0.62141601  0.87344910  1
  Fe  Fe73  1  0.62474241  0.12366065  0.12453039  1
  Fe  Fe74  1  0.24570865  0.00066675  0.75048611  1
  Fe  Fe75  1  0.24959281  0.75187604  0.49907023  1
  Fe  Fe76  1  0.62522869  0.62618380  0.12422343  1
  Fe  Fe77  1  0.12267709  0.87493228  0.62371173  1
  Fe  Fe78  1  0.25247183  0.25101946  0.24902524  1
  Fe  Fe79  1  0.87665559  0.12441903  0.87276455  1
  Fe  Fe80  1  0.24670487  0.49615441  0.75036807  1
  Fe  Fe81  1  0.62676683  0.87363604  0.62630736  1
  Fe  Fe82  1  0.62418468  0.37568815  0.62651351  1
  Fe  Fe83  1  0.00066811  0.49967532  0.49999267  1
  Fe  Fe84  1  0.74938449  0.25064502  0.24971461  1
  Fe  Fe85  1  0.37764610  0.87866078  0.12440131  1
  Fe  Fe86  1  0.87491455  0.37521935  0.12385688  1
  Fe  Fe87  1  0.75296033  -0.00189618  0.74756014  1
  Fe  Fe88  1  0.12407187  0.37215903  0.12230636  1
  Fe  Fe89  1  0.12687904  0.12583898  0.12199537  1
  Co  Co90  1  0.74916879  0.49956427  0.24813310  1
  Co  Co91  1  0.87804598  0.87402357  0.62380331  1
  Co  Co92  1  -0.00429010  0.74988003  0.00025237  1
  Co  Co93  1  0.50323075  0.00217698  0.25354364  1
  Co  Co94  1  0.87366826  0.87787090  0.12672987  1
  Co  Co95  1  -0.00426809  0.24805549  0.00065458  1
  Co  Co96  1  0.25314983  0.75149780  -0.00048573  1
  Co  Co97  1  -0.00022473  0.74645230  0.49988392  1
  Co  Co98  1  0.37683831  0.37676347  0.12485774  1
  Co  Co99  1  0.62489266  0.87441127  0.87183981  1
  Co  Co100  1  0.49651320  0.75103280  0.74930311  1
  Co  Co101  1  0.12510529  0.37448382  0.62307655  1
  Co  Co102  1  0.75485580  0.75131319  0.75140236  1
  Co  Co103  1  0.37693670  0.37512481  0.37429970  1
  Co  Co104  1  0.74913815  0.49938715  0.50131796  1
  Co  Co105  1  -0.00047857  0.50013307  0.00198410  1
  Co  Co106  1  0.24875868  -0.00257453  0.49864551  1
  Co  Co107  1  0.12372715  0.37393927  0.37384022  1
  Co  Co108  1  0.24758984  0.25017865  0.74990641  1
  Co  Co109  1  0.62347894  0.87095476  0.37779352  1
  Co  Co110  1  0.25415540  0.25061846  0.00114188  1
  Co  Co111  1  0.37433755  0.11985038  0.12510740  1
  Co  Co112  1  0.87388076  0.12894391  0.62778830  1
  Co  Co113  1  0.75066659  0.00000652  0.50037876  1
  Co  Co114  1  0.12442307  0.37366086  0.87980516  1
  Co  Co115  1  0.37413715  0.62460431  0.12463240  1
  Co  Co116  1  0.74664656  0.49844397  0.75254811  1
  Co  Co117  1  0.00245562  0.00231293  0.74774255  1
  Co  Co118  1  0.50301647  0.00045561  0.50066738  1
  Co  Co119  1  0.49937677  0.74877672  0.24880734  1
  Co  Co120  1  0.24811259  -0.00147123  -0.00049387  1
  Co  Co121  1  -0.00039531  0.00179886  0.00175603  1
  Co  Co122  1  0.50194249  0.00046596  -0.00228203  1
  Co  Co123  1  0.87799424  0.37645533  0.87282005  1
  Co  Co124  1  0.37547818  0.37578424  0.62744140  1
  Co  Co125  1  0.62539065  0.12928626  0.37805754  1
  Co  Co126  1  0.00458461  0.49977284  0.74975163  1
  Co  Co127  1  0.12733508  0.12569450  0.62182678  1
