# generated using pymatgen
data_Fe45Co19
_symmetry_space_group_name_H-M   'P 1'
_cell_length_a   11.41665866
_cell_length_b   11.41567544
_cell_length_c   11.41403407
_cell_angle_alpha   89.98683123
_cell_angle_beta   89.99316248
_cell_angle_gamma   90.00048443
_symmetry_Int_Tables_number   1
_chemical_formula_structural   Fe45Co19
_chemical_formula_sum   'Fe90 Co38'
_cell_volume   1487.57811054
_cell_formula_units_Z   2
loop_
 _symmetry_equiv_pos_site_id
 _symmetry_equiv_pos_as_xyz
  1  'x, y, z'
loop_
 _atom_site_type_symbol
 _atom_site_label
 _atom_site_symmetry_multiplicity
 _atom_site_fract_x
 _atom_site_fract_y
 _atom_site_fract_z
 _atom_site_occupancy
  Fe  Fe0  1  0.50162448  0.74701742  -0.00095561  1
  Fe  Fe1  1  0.25090110  0.50022350  0.49958858  1
  Fe  Fe2  1  0.87697522  0.62722063  0.12046343  1
  Fe  Fe3  1  0.87767584  0.87284438  0.37441444  1
  Fe  Fe4  1  0.12344079  0.12596325  0.37507041  1
  Fe  Fe5  1  0.24847683  0.25070139  0.74972565  1
  Fe  Fe6  1  0.62609285  0.87495247  0.62535328  1
  Fe  Fe7  1  0.37543161  0.62616047  0.37492810  1
  Fe  Fe8  1  0.87339018  0.62319552  0.62713166  1
  Fe  Fe9  1  0.25157250  0.50016634  -0.00472818  1
  Fe  Fe10  1  0.62484780  0.62221969  0.37712073  1
  Fe  Fe11  1  0.87417631  0.86996372  0.88052752  1
  Fe  Fe12  1  0.12454391  0.87469216  0.87773705  1
  Fe  Fe13  1  0.37414726  0.37736219  0.62791548  1
  Fe  Fe14  1  0.62469089  0.12584308  0.37604954  1
  Fe  Fe15  1  0.49962034  0.75050017  0.50170432  1
  Fe  Fe16  1  0.75275436  0.49983927  0.24977819  1
  Fe  Fe17  1  0.24917356  0.75014474  0.50106397  1
  Fe  Fe18  1  0.87697023  0.37085882  0.12147981  1
  Fe  Fe19  1  0.12494896  0.37597988  0.12339742  1
  Fe  Fe20  1  0.12301760  0.62537279  0.37366726  1
  Fe  Fe21  1  0.62153192  0.37579993  0.87936337  1
  Fe  Fe22  1  0.50006459  0.00126658  -0.00127294  1
  Fe  Fe23  1  0.25099264  0.25046436  0.50192722  1
  Fe  Fe24  1  0.87696457  0.62697201  0.37327918  1
  Fe  Fe25  1  0.62796334  0.12426302  0.12327419  1
  Fe  Fe26  1  0.75129724  -0.00160635  0.24977050  1
  Fe  Fe27  1  0.49872542  -0.00027637  0.75003596  1
  Fe  Fe28  1  0.62600178  0.12261633  0.62459110  1
  Fe  Fe29  1  -0.00236490  0.50238617  0.50008507  1
  Fe  Fe30  1  0.24960284  0.74781647  0.75132528  1
  Fe  Fe31  1  0.24963322  -0.00092080  0.25028616  1
  Fe  Fe32  1  0.50202965  0.25038338  0.74830943  1
  Fe  Fe33  1  0.12540593  0.12431049  0.87598597  1
  Fe  Fe34  1  -0.00212076  0.50060898  0.75556102  1
  Fe  Fe35  1  0.25108261  0.25089954  -0.00140167  1
  Fe  Fe36  1  0.12245337  0.87472119  0.37546397  1
  Fe  Fe37  1  0.37528119  0.87177993  0.87482018  1
  Fe  Fe38  1  0.75436798  0.49868602  -0.00292434  1
  Fe  Fe39  1  0.12511958  0.62283716  0.62757309  1
  Fe  Fe40  1  0.25239245  -0.00130331  0.50074755  1
  Fe  Fe41  1  0.25241961  -0.00038410  0.74982450  1
  Fe  Fe42  1  0.74821318  0.74974839  0.24845391  1
  Fe  Fe43  1  0.62591609  0.38164002  0.62269273  1
  Fe  Fe44  1  0.12408869  0.12237179  0.62605307  1
  Fe  Fe45  1  0.24745729  0.75026100  0.24649270  1
  Fe  Fe46  1  0.87662069  0.37382989  0.37547986  1
  Fe  Fe47  1  0.24889126  0.49987505  0.25152565  1
  Fe  Fe48  1  0.75302982  -0.00013284  0.49910640  1
  Fe  Fe49  1  0.50173070  0.74605975  0.74944360  1
  Fe  Fe50  1  0.49720800  -0.00298531  0.50021011  1
  Fe  Fe51  1  -0.00238801  0.24822212  0.50455766  1
  Fe  Fe52  1  0.37660114  0.12808291  0.87345542  1
  Fe  Fe53  1  -0.00043769  0.74916623  0.75155339  1
  Fe  Fe54  1  0.12198635  0.37508735  0.87440748  1
  Fe  Fe55  1  -0.00219783  0.00066122  0.75237561  1
  Fe  Fe56  1  0.49936979  0.25210249  0.50160863  1
  Fe  Fe57  1  0.37538847  0.87385588  0.12444911  1
  Fe  Fe58  1  0.49909370  0.49771700  0.24839657  1
  Fe  Fe59  1  0.75173166  0.25180354  0.50439489  1
  Fe  Fe60  1  0.25225448  -0.00091278  -0.00026557  1
  Fe  Fe61  1  0.87583325  0.12708717  0.37349236  1
  Fe  Fe62  1  0.50147972  0.25292527  0.24503880  1
  Fe  Fe63  1  0.87673660  0.87554596  0.62457462  1
  Fe  Fe64  1  0.62629726  0.37741621  0.37551198  1
  Fe  Fe65  1  0.12197276  0.37418518  0.37596013  1
  Fe  Fe66  1  -0.00010609  0.49905530  0.24775290  1
  Fe  Fe67  1  0.62538191  0.12769412  0.87612720  1
  Fe  Fe68  1  0.62617808  0.87446160  0.87646693  1
  Fe  Fe69  1  -0.00156880  0.00219240  0.24569694  1
  Fe  Fe70  1  0.74876255  0.25237171  0.24839909  1
  Fe  Fe71  1  -0.00433961  0.00373363  0.00211836  1
  Fe  Fe72  1  0.37341897  0.62421752  0.12323323  1
  Fe  Fe73  1  0.50165335  -0.00217827  0.25099889  1
  Fe  Fe74  1  0.12264455  0.87580758  0.62544202  1
  Fe  Fe75  1  0.50244415  0.75109446  0.24981921  1
  Fe  Fe76  1  0.74828588  0.74800765  0.75169183  1
  Fe  Fe77  1  0.00312175  0.75053042  0.24377687  1
  Fe  Fe78  1  0.62829394  0.87670307  0.12179027  1
  Fe  Fe79  1  0.24823438  0.25076036  0.24974683  1
  Fe  Fe80  1  0.37662378  0.12580013  0.37426448  1
  Fe  Fe81  1  0.75071025  0.74837067  0.49996483  1
  Fe  Fe82  1  0.12301346  0.37797630  0.62570964  1
  Fe  Fe83  1  0.37528753  0.37427999  0.37348650  1
  Fe  Fe84  1  0.62544014  0.61996469  0.12210008  1
  Fe  Fe85  1  0.49803874  0.50405674  0.75188597  1
  Fe  Fe86  1  0.75176557  0.49884066  0.75469274  1
  Fe  Fe87  1  0.75068102  -0.00051918  0.75302361  1
  Fe  Fe88  1  0.37396335  0.12555981  0.12536812  1
  Fe  Fe89  1  0.87241737  0.13333216  0.87233864  1
  Co  Co90  1  0.87252999  0.87228515  0.12222834  1
  Co  Co91  1  0.62690363  0.62157515  0.62316576  1
  Co  Co92  1  0.37786279  0.37286509  0.87257543  1
  Co  Co93  1  0.00372579  0.24901015  0.74804048  1
  Co  Co94  1  0.12760104  0.12523265  0.12412638  1
  Co  Co95  1  0.25010441  0.49952347  0.75344750  1
  Co  Co96  1  0.12434488  0.62561387  0.87593904  1
  Co  Co97  1  -0.00258586  0.49866727  -0.00316217  1
  Co  Co98  1  0.00191353  0.25019847  0.24744588  1
  Co  Co99  1  0.12472952  0.88007163  0.12277135  1
  Co  Co100  1  0.12551328  0.61896153  0.12212787  1
  Co  Co101  1  0.87192995  0.12962819  0.12510303  1
  Co  Co102  1  0.62652539  0.87472707  0.37647492  1
  Co  Co103  1  0.00573795  0.74995444  0.00212652  1
  Co  Co104  1  0.24713446  0.75047803  0.00193073  1
  Co  Co105  1  0.74643062  0.25179456  -0.00047081  1
  Co  Co106  1  0.87564531  0.62953139  0.87801842  1
  Co  Co107  1  0.37537985  0.12569130  0.62646424  1
  Co  Co108  1  0.00053247  0.74740672  0.50244152  1
  Co  Co109  1  0.87345335  0.12435021  0.63040421  1
  Co  Co110  1  0.37480140  0.87313154  0.62787349  1
  Co  Co111  1  0.49942982  0.25095060  0.00460934  1
  Co  Co112  1  0.49637109  0.49941770  0.49859710  1
  Co  Co113  1  0.87693818  0.36763308  0.87440838  1
  Co  Co114  1  0.74549825  0.74778107  0.00024612  1
  Co  Co115  1  0.37326117  0.62697784  0.87570194  1
  Co  Co116  1  -0.00123308  0.00178301  0.50031331  1
  Co  Co117  1  0.75487221  0.50053346  0.49758414  1
  Co  Co118  1  0.75291769  0.00276456  -0.00260267  1
  Co  Co119  1  0.87634097  0.37729313  0.62856189  1
  Co  Co120  1  0.74487677  0.25435961  0.74701444  1
  Co  Co121  1  0.37057026  0.37641809  0.12493081  1
  Co  Co122  1  0.00305038  0.24736512  0.00037729  1
  Co  Co123  1  0.37401335  0.87310484  0.37317285  1
  Co  Co124  1  0.62594374  0.62181644  0.87708135  1
  Co  Co125  1  0.49542295  0.49941937  0.00041748  1
  Co  Co126  1  0.62750915  0.37966724  0.12238414  1
  Co  Co127  1  0.37346287  0.62374745  0.62520787  1
