# generated using pymatgen
data_Fe45Co19
_symmetry_space_group_name_H-M   'P 1'
_cell_length_a   11.41514950
_cell_length_b   11.41520454
_cell_length_c   11.41503043
_cell_angle_alpha   89.99177411
_cell_angle_beta   89.99934707
_cell_angle_gamma   89.98760044
_symmetry_Int_Tables_number   1
_chemical_formula_structural   Fe45Co19
_chemical_formula_sum   'Fe90 Co38'
_cell_volume   1487.44994606
_cell_formula_units_Z   2
loop_
 _symmetry_equiv_pos_site_id
 _symmetry_equiv_pos_as_xyz
  1  'x, y, z'
loop_
 _atom_site_type_symbol
 _atom_site_label
 _atom_site_symmetry_multiplicity
 _atom_site_fract_x
 _atom_site_fract_y
 _atom_site_fract_z
 _atom_site_occupancy
  Fe  Fe0  1  0.50325006  -0.00436916  0.24867481  1
  Fe  Fe1  1  0.12664597  0.37388868  0.36930333  1
  Fe  Fe2  1  -0.00074113  0.75093103  0.74951034  1
  Fe  Fe3  1  0.75091547  0.24679289  0.74987305  1
  Fe  Fe4  1  0.87516630  0.37372310  0.87411804  1
  Fe  Fe5  1  0.87335656  0.87873887  0.87354413  1
  Fe  Fe6  1  -0.00215082  0.75172674  0.00035488  1
  Fe  Fe7  1  0.37627578  0.12030693  0.12569947  1
  Fe  Fe8  1  0.50014572  0.49878274  -0.00173243  1
  Fe  Fe9  1  0.37696167  0.37357373  0.62699904  1
  Fe  Fe10  1  0.24954871  0.50033852  0.75032686  1
  Fe  Fe11  1  0.12505360  0.12750627  0.37169083  1
  Fe  Fe12  1  0.24849614  0.24691508  0.75007905  1
  Fe  Fe13  1  0.62301087  0.12547955  0.88051386  1
  Fe  Fe14  1  0.37644910  0.37335846  0.87488585  1
  Fe  Fe15  1  0.75080470  0.75142264  0.50209273  1
  Fe  Fe16  1  0.87340815  0.87650894  0.37496245  1
  Fe  Fe17  1  0.37657688  0.12463449  0.62378006  1
  Fe  Fe18  1  0.50012770  0.75112563  0.50205615  1
  Fe  Fe19  1  0.00140709  -0.00082585  0.24947049  1
  Fe  Fe20  1  0.37607656  0.62578328  0.12353042  1
  Fe  Fe21  1  0.87514330  0.62312755  0.62593909  1
  Fe  Fe22  1  0.74946796  0.74883377  0.24924817  1
  Fe  Fe23  1  0.37531625  0.62649461  0.87397980  1
  Fe  Fe24  1  0.37625894  0.12269918  0.37299660  1
  Fe  Fe25  1  0.24936336  0.49923437  0.00235133  1
  Fe  Fe26  1  0.87155298  0.87388125  0.12455865  1
  Fe  Fe27  1  0.62900929  0.87558665  0.87644661  1
  Fe  Fe28  1  -0.00134285  0.49830059  0.00235460  1
  Fe  Fe29  1  0.37582949  0.87431461  0.37380790  1
  Fe  Fe30  1  0.50282321  -0.00168318  0.49804982  1
  Fe  Fe31  1  0.25141360  0.25190066  0.00673056  1
  Fe  Fe32  1  0.12443525  0.62583295  0.87597051  1
  Fe  Fe33  1  0.49618452  0.75648476  -0.00184785  1
  Fe  Fe34  1  0.74766260  0.50012538  0.74913905  1
  Fe  Fe35  1  0.75185511  0.50085920  0.00118765  1
  Fe  Fe36  1  0.12340102  0.87676576  0.62397331  1
  Fe  Fe37  1  0.37776748  0.62488292  0.62747727  1
  Fe  Fe38  1  0.62544254  0.12680468  0.37698317  1
  Fe  Fe39  1  0.25079125  0.74724282  0.25094655  1
  Fe  Fe40  1  0.87277061  0.12287454  0.37591729  1
  Fe  Fe41  1  0.00231735  0.50008914  0.74948888  1
  Fe  Fe42  1  0.24878227  0.74922071  0.74955493  1
  Fe  Fe43  1  0.00033357  0.49852705  0.50054887  1
  Fe  Fe44  1  0.62476567  0.62829107  0.87331566  1
  Fe  Fe45  1  0.37357366  0.37790446  0.36983138  1
  Fe  Fe46  1  -0.00119386  0.75049335  0.50030341  1
  Fe  Fe47  1  0.62589270  0.62597182  0.37739840  1
  Fe  Fe48  1  0.25053154  0.74819954  0.50052180  1
  Fe  Fe49  1  0.12734063  0.87435555  0.12601336  1
  Fe  Fe50  1  0.87525435  0.12422176  0.12396974  1
  Fe  Fe51  1  0.62629209  0.37377008  0.12328930  1
  Fe  Fe52  1  0.75061936  0.24980215  0.24879474  1
  Fe  Fe53  1  0.12294650  0.62647877  0.12435198  1
  Fe  Fe54  1  0.25004287  0.50195296  0.49958598  1
  Fe  Fe55  1  0.24847785  0.00065699  0.49788473  1
  Fe  Fe56  1  0.87432241  0.62472570  0.37332317  1
  Fe  Fe57  1  0.12440093  0.37340891  0.62482891  1
  Fe  Fe58  1  0.87639600  0.12097383  0.62223947  1
  Fe  Fe59  1  0.62639190  0.37344222  0.37498020  1
  Fe  Fe60  1  0.37439092  0.87759121  0.62783441  1
  Fe  Fe61  1  0.49842579  0.25064359  0.24844300  1
  Fe  Fe62  1  0.25261947  0.25024646  0.49756229  1
  Fe  Fe63  1  0.87319646  0.37526299  0.37158256  1
  Fe  Fe64  1  0.87519430  0.62481871  0.87438148  1
  Fe  Fe65  1  0.74666385  -0.00102601  0.24946020  1
  Fe  Fe66  1  0.62302805  0.37129584  0.62515573  1
  Fe  Fe67  1  0.50040374  0.75103103  0.24871546  1
  Fe  Fe68  1  0.62375855  0.12445208  0.12154284  1
  Fe  Fe69  1  0.75024938  0.49757516  0.50195815  1
  Fe  Fe70  1  0.87817831  0.12215357  0.87766035  1
  Fe  Fe71  1  -0.00252135  0.25090529  0.49824181  1
  Fe  Fe72  1  0.12550482  0.87600864  0.87585979  1
  Fe  Fe73  1  0.12516522  0.37289190  0.87623892  1
  Fe  Fe74  1  0.49996920  0.49950032  0.50039907  1
  Fe  Fe75  1  0.12502712  0.87350822  0.37452362  1
  Fe  Fe76  1  0.24447093  0.00449100  0.74999750  1
  Fe  Fe77  1  0.50121203  0.00058208  0.75285402  1
  Fe  Fe78  1  0.62444895  0.37103275  0.87607133  1
  Fe  Fe79  1  0.62720792  0.87488437  0.62767917  1
  Fe  Fe80  1  0.12275951  0.62506863  0.37444528  1
  Fe  Fe81  1  0.87547969  0.88113706  0.62631302  1
  Fe  Fe82  1  0.00245334  0.24576560  0.74991135  1
  Fe  Fe83  1  0.50237123  0.50237438  0.25000215  1
  Fe  Fe84  1  0.00060012  0.25125421  0.00491673  1
  Fe  Fe85  1  0.62399766  0.12770262  0.62147233  1
  Fe  Fe86  1  -0.00239777  0.50000589  0.24692120  1
  Fe  Fe87  1  0.24979364  -0.00200688  0.00166556  1
  Fe  Fe88  1  0.62588396  0.62774030  0.12201822  1
  Fe  Fe89  1  0.37515416  0.12445758  0.87768682  1
  Co  Co90  1  0.25068832  0.75005871  -0.00015131  1
  Co  Co91  1  0.49601359  0.25142919  0.49645048  1
  Co  Co92  1  0.37035637  0.87746595  0.87098218  1
  Co  Co93  1  0.00231887  0.00006701  0.49589090  1
  Co  Co94  1  0.24803136  -0.00065370  0.25243764  1
  Co  Co95  1  0.49981909  0.24734920  0.75214233  1
  Co  Co96  1  0.12545885  0.12377648  0.12581642  1
  Co  Co97  1  0.50039123  0.75330472  0.75210515  1
  Co  Co98  1  0.37753877  0.62568214  0.37570612  1
  Co  Co99  1  0.75210651  0.24904940  -0.00075686  1
  Co  Co100  1  0.75070359  0.00116339  0.00054063  1
  Co  Co101  1  0.00039101  -0.00340275  0.00318499  1
  Co  Co102  1  0.75288578  0.74834773  -0.00162072  1
  Co  Co103  1  0.74773750  0.00459409  0.75098495  1
  Co  Co104  1  0.62394293  0.62563191  0.62497273  1
  Co  Co105  1  0.49628288  0.25113169  0.00292555  1
  Co  Co106  1  0.12515047  0.12620456  0.88268651  1
  Co  Co107  1  0.12492943  0.37503691  0.12978465  1
  Co  Co108  1  -0.00296457  0.24786483  0.24862818  1
  Co  Co109  1  0.49856397  -0.00574875  -0.00049474  1
  Co  Co110  1  0.62792457  0.87345135  0.12186320  1
  Co  Co111  1  0.00470070  0.00274622  0.75152541  1
  Co  Co112  1  0.87223711  0.37420593  0.12499556  1
  Co  Co113  1  0.25401671  0.24864096  0.24644436  1
  Co  Co114  1  0.24964293  0.50557786  0.24828586  1
  Co  Co115  1  0.50158651  0.49888915  0.75168401  1
  Co  Co116  1  0.62534809  0.87184604  0.37398782  1
  Co  Co117  1  0.74618091  -0.00146666  0.49904245  1
  Co  Co118  1  0.75359856  0.25142914  0.50077005  1
  Co  Co119  1  0.37211881  0.87534567  0.12834805  1
  Co  Co120  1  0.37674348  0.37999088  0.12781374  1
  Co  Co121  1  0.12379752  0.62490474  0.62514154  1
  Co  Co122  1  -0.00073008  0.75223311  0.24940912  1
  Co  Co123  1  0.87483423  0.62643634  0.12603574  1
  Co  Co124  1  0.74857763  0.50128076  0.24776330  1
  Co  Co125  1  0.12368982  0.12675987  0.61947773  1
  Co  Co126  1  0.75218586  0.74970719  0.74872943  1
  Co  Co127  1  0.87709278  0.37492850  0.62878406  1
