# generated using pymatgen
data_Fe45Co19
_symmetry_space_group_name_H-M   'P 1'
_cell_length_a   11.41432389
_cell_length_b   11.41393808
_cell_length_c   11.41621164
_cell_angle_alpha   90.00398313
_cell_angle_beta   90.01607364
_cell_angle_gamma   90.00219844
_symmetry_Int_Tables_number   1
_chemical_formula_structural   Fe45Co19
_chemical_formula_sum   'Fe90 Co38'
_cell_volume   1487.33122893
_cell_formula_units_Z   2
loop_
 _symmetry_equiv_pos_site_id
 _symmetry_equiv_pos_as_xyz
  1  'x, y, z'
loop_
 _atom_site_type_symbol
 _atom_site_label
 _atom_site_symmetry_multiplicity
 _atom_site_fract_x
 _atom_site_fract_y
 _atom_site_fract_z
 _atom_site_occupancy
  Fe  Fe0  1  0.50602632  0.74994608  0.25439083  1
  Fe  Fe1  1  0.75134566  0.00235074  0.50073378  1
  Fe  Fe2  1  0.12555528  0.37587340  0.62358027  1
  Fe  Fe3  1  0.25265113  -0.00154674  0.00004822  1
  Fe  Fe4  1  0.74869011  0.74636065  0.49654450  1
  Fe  Fe5  1  0.12596207  0.12542388  0.87436851  1
  Fe  Fe6  1  0.75206426  0.24546631  0.00013600  1
  Fe  Fe7  1  0.50235549  0.25212774  0.25078205  1
  Fe  Fe8  1  0.75122217  0.00185892  -0.00370339  1
  Fe  Fe9  1  0.49963014  0.25132439  0.74913964  1
  Fe  Fe10  1  0.62612528  0.37591779  0.12278833  1
  Fe  Fe11  1  0.24819159  -0.00542362  0.25118094  1
  Fe  Fe12  1  0.87403391  0.87410467  0.37580898  1
  Fe  Fe13  1  0.25058028  -0.00234269  0.74956412  1
  Fe  Fe14  1  0.49934365  0.24938860  -0.00057113  1
  Fe  Fe15  1  -0.00119563  0.25090876  0.24783949  1
  Fe  Fe16  1  0.62474300  0.12368084  0.12314260  1
  Fe  Fe17  1  0.37324513  0.37600462  0.87663469  1
  Fe  Fe18  1  0.50399142  0.74671808  -0.00105569  1
  Fe  Fe19  1  0.12646822  0.87275802  0.87709509  1
  Fe  Fe20  1  0.24802119  0.50209632  0.49842435  1
  Fe  Fe21  1  0.12412877  0.62502576  0.62594550  1
  Fe  Fe22  1  0.37573958  0.12375512  0.12645578  1
  Fe  Fe23  1  0.12556367  0.12357561  0.62496006  1
  Fe  Fe24  1  0.62740431  0.87376772  0.12324561  1
  Fe  Fe25  1  -0.00269508  0.49876469  0.74810605  1
  Fe  Fe26  1  0.87450103  0.62655165  0.87220535  1
  Fe  Fe27  1  0.00099321  0.25189355  0.74989365  1
  Fe  Fe28  1  0.87439943  0.12603499  0.37178912  1
  Fe  Fe29  1  0.87452163  0.37498255  0.37593525  1
  Fe  Fe30  1  0.87595952  0.12469160  0.62777409  1
  Fe  Fe31  1  0.62169461  0.12513049  0.62392512  1
  Fe  Fe32  1  0.74897507  0.50161799  0.25046614  1
  Fe  Fe33  1  0.74814907  -0.00089962  0.25109610  1
  Fe  Fe34  1  0.12553352  0.12371115  0.37558443  1
  Fe  Fe35  1  0.50049000  0.50287122  0.75018319  1
  Fe  Fe36  1  0.37568046  0.87137396  0.12383284  1
  Fe  Fe37  1  -0.00062968  0.74995243  0.00043899  1
  Fe  Fe38  1  0.12432105  0.37449741  0.37558852  1
  Fe  Fe39  1  0.25430711  0.00238679  0.49919618  1
  Fe  Fe40  1  0.37499837  0.37483583  0.37522658  1
  Fe  Fe41  1  0.62720715  0.37573197  0.62371453  1
  Fe  Fe42  1  0.12432844  0.87684020  0.62027728  1
  Fe  Fe43  1  0.75608285  0.50348183  0.50372562  1
  Fe  Fe44  1  0.25199918  0.74858369  0.50041632  1
  Fe  Fe45  1  0.74981577  0.75120406  0.75004957  1
  Fe  Fe46  1  0.62222484  0.12611900  0.37768271  1
  Fe  Fe47  1  0.25430938  0.24734927  0.50155140  1
  Fe  Fe48  1  0.24977125  0.50568698  -0.00134538  1
  Fe  Fe49  1  0.24996696  0.24974108  0.24876769  1
  Fe  Fe50  1  0.37400605  0.37630722  0.12273200  1
  Fe  Fe51  1  0.50171533  0.49886302  0.24865880  1
  Fe  Fe52  1  0.87163391  0.87351143  0.12467733  1
  Fe  Fe53  1  0.74814960  0.50515743  -0.00132701  1
  Fe  Fe54  1  0.37531610  0.12552973  0.87340364  1
  Fe  Fe55  1  0.00014751  0.75407582  0.74836807  1
  Fe  Fe56  1  -0.00174594  -0.00360709  0.74967496  1
  Fe  Fe57  1  0.12234095  0.62788449  0.37291424  1
  Fe  Fe58  1  0.74990714  -0.00150236  0.75091198  1
  Fe  Fe59  1  0.37257491  0.37672023  0.62607850  1
  Fe  Fe60  1  0.62721300  0.37537106  0.37908151  1
  Fe  Fe61  1  0.74967891  0.25039510  0.74950361  1
  Fe  Fe62  1  -0.00274642  -0.00022658  -0.00129748  1
  Fe  Fe63  1  -0.00052948  0.50015926  0.24978591  1
  Fe  Fe64  1  0.62640585  0.37640886  0.87574375  1
  Fe  Fe65  1  0.49940407  0.50173559  0.50306405  1
  Fe  Fe66  1  0.37717642  0.62513451  0.37526443  1
  Fe  Fe67  1  0.12452282  0.12249814  0.12474726  1
  Fe  Fe68  1  -0.00185169  0.24903724  0.50067624  1
  Fe  Fe69  1  0.37818294  0.87423143  0.37671103  1
  Fe  Fe70  1  0.37697718  0.62656676  0.12624668  1
  Fe  Fe71  1  0.12566642  0.62962844  0.12865420  1
  Fe  Fe72  1  0.37664434  0.87378811  0.62363116  1
  Fe  Fe73  1  0.87212505  0.37479272  0.12522655  1
  Fe  Fe74  1  0.12569411  0.37533608  0.87726947  1
  Fe  Fe75  1  0.62457311  0.87429840  0.62001726  1
  Fe  Fe76  1  0.24951345  0.50339420  0.75214663  1
  Fe  Fe77  1  -0.00319741  0.74868555  0.50000234  1
  Fe  Fe78  1  0.87391222  0.37507417  0.87577289  1
  Fe  Fe79  1  0.50109708  -0.00177077  0.75095861  1
  Fe  Fe80  1  0.87141093  0.62982010  0.12926873  1
  Fe  Fe81  1  0.24987079  0.50166503  0.25069599  1
  Fe  Fe82  1  0.50184346  -0.00218864  0.25005845  1
  Fe  Fe83  1  0.00266248  -0.00534901  0.25122302  1
  Fe  Fe84  1  -0.00168606  0.24831902  0.00147418  1
  Fe  Fe85  1  0.37473137  0.87023991  0.87507518  1
  Fe  Fe86  1  0.62506492  0.87431877  0.87654688  1
  Fe  Fe87  1  0.50021916  0.74714237  0.74637168  1
  Fe  Fe88  1  0.12659011  0.37606590  0.12369908  1
  Fe  Fe89  1  -0.00056163  0.50359648  0.00152214  1
  Co  Co90  1  0.74549480  0.75067227  0.25534849  1
  Co  Co91  1  0.62542346  0.62443361  0.87064330  1
  Co  Co92  1  0.24995705  0.24824559  0.00053503  1
  Co  Co93  1  0.74743314  0.24987583  0.25007703  1
  Co  Co94  1  0.87511469  0.62806924  0.62872549  1
  Co  Co95  1  0.37350208  0.62406272  0.62487011  1
  Co  Co96  1  0.87733330  0.62531080  0.37151437  1
  Co  Co97  1  -0.00127353  0.50147910  0.50049426  1
  Co  Co98  1  0.25037344  0.75317717  0.25237048  1
  Co  Co99  1  0.62412352  0.87857407  0.38004926  1
  Co  Co100  1  0.75154967  0.24754469  0.50138500  1
  Co  Co101  1  0.12198229  0.62698851  0.87151068  1
  Co  Co102  1  0.24854646  0.75105687  0.74751246  1
  Co  Co103  1  0.87282403  0.87433526  0.62224757  1
  Co  Co104  1  0.37640247  0.62788313  0.87388063  1
  Co  Co105  1  0.49675747  0.25105085  0.50129494  1
  Co  Co106  1  0.49709729  0.00175883  0.50088508  1
  Co  Co107  1  -0.00409615  0.00179700  0.49896384  1
  Co  Co108  1  0.87588059  0.12515928  0.87075273  1
  Co  Co109  1  0.74799228  0.74749003  -0.00184996  1
  Co  Co110  1  0.62372452  0.12470785  0.87460573  1
  Co  Co111  1  0.37710869  0.12448023  0.37031447  1
  Co  Co112  1  0.62397603  0.61928545  0.37705797  1
  Co  Co113  1  0.12468916  0.87342473  0.38165055  1
  Co  Co114  1  0.24882074  0.74619494  -0.00113952  1
  Co  Co115  1  0.75209309  0.49876254  0.74898522  1
  Co  Co116  1  0.62544687  0.62587664  0.12724975  1
  Co  Co117  1  0.49872558  -0.00189083  -0.00151615  1
  Co  Co118  1  0.87541323  0.12200065  0.12824942  1
  Co  Co119  1  0.00039491  0.75575339  0.24982197  1
  Co  Co120  1  0.50125578  0.50244620  -0.00119615  1
  Co  Co121  1  0.87556802  0.37335137  0.62406659  1
  Co  Co122  1  0.37723696  0.12368274  0.62985279  1
  Co  Co123  1  0.24967588  0.25035594  0.74932959  1
  Co  Co124  1  0.12603031  0.87330060  0.12094885  1
  Co  Co125  1  0.87407240  0.87377912  0.87591819  1
  Co  Co126  1  0.50198617  0.74707806  0.50008594  1
  Co  Co127  1  0.62791813  0.62508167  0.62570953  1
