# generated using pymatgen
data_Fe45Co19
_symmetry_space_group_name_H-M   'P 1'
_cell_length_a   11.41584060
_cell_length_b   11.41469772
_cell_length_c   11.41535165
_cell_angle_alpha   89.99710691
_cell_angle_beta   90.00073149
_cell_angle_gamma   89.99557021
_symmetry_Int_Tables_number   1
_chemical_formula_structural   Fe45Co19
_chemical_formula_sum   'Fe90 Co38'
_cell_volume   1487.51585602
_cell_formula_units_Z   2
loop_
 _symmetry_equiv_pos_site_id
 _symmetry_equiv_pos_as_xyz
  1  'x, y, z'
loop_
 _atom_site_type_symbol
 _atom_site_label
 _atom_site_symmetry_multiplicity
 _atom_site_fract_x
 _atom_site_fract_y
 _atom_site_fract_z
 _atom_site_occupancy
  Fe  Fe0  1  0.62315740  0.87676867  0.12879117  1
  Fe  Fe1  1  0.87367512  0.62330504  0.62622312  1
  Fe  Fe2  1  -0.00025842  0.74972403  0.00111851  1
  Fe  Fe3  1  0.87382487  0.87567410  0.62396474  1
  Fe  Fe4  1  0.37510093  0.62464772  0.12365763  1
  Fe  Fe5  1  0.12524023  0.87159842  0.37304011  1
  Fe  Fe6  1  0.62603330  0.37435006  0.12556345  1
  Fe  Fe7  1  0.87341693  0.62474386  0.12428876  1
  Fe  Fe8  1  0.12644752  0.62748973  0.12806251  1
  Fe  Fe9  1  0.00082455  0.00210254  0.50236729  1
  Fe  Fe10  1  0.12417497  0.62317534  0.87512491  1
  Fe  Fe11  1  0.00222847  0.50016340  0.24736691  1
  Fe  Fe12  1  0.00040695  0.24750967  0.00127317  1
  Fe  Fe13  1  0.12240449  0.12614883  0.37383054  1
  Fe  Fe14  1  0.37540708  0.87579592  0.62443944  1
  Fe  Fe15  1  0.87194078  0.12416762  0.12687778  1
  Fe  Fe16  1  0.74961029  0.49879921  -0.00162084  1
  Fe  Fe17  1  0.49721228  0.49568189  0.25086998  1
  Fe  Fe18  1  0.87644428  0.87796451  0.87675516  1
  Fe  Fe19  1  0.62791253  0.37494105  0.62468119  1
  Fe  Fe20  1  0.24858716  0.25015429  0.49818448  1
  Fe  Fe21  1  0.87349863  0.12141049  0.87761428  1
  Fe  Fe22  1  0.12168280  0.37056454  0.62745777  1
  Fe  Fe23  1  0.50110102  0.24926297  0.74929755  1
  Fe  Fe24  1  0.25236613  0.74994569  0.75194061  1
  Fe  Fe25  1  0.49782769  0.75080525  0.75162596  1
  Fe  Fe26  1  0.62680106  0.12563517  0.12932205  1
  Fe  Fe27  1  0.37590645  0.87561318  0.37492808  1
  Fe  Fe28  1  0.75105156  0.49766819  0.49849133  1
  Fe  Fe29  1  0.62536990  0.62572540  0.62464374  1
  Fe  Fe30  1  0.24903281  0.49968001  0.00084995  1
  Fe  Fe31  1  0.62473610  0.12780359  0.37065409  1
  Fe  Fe32  1  -0.00019085  0.00128190  0.24790049  1
  Fe  Fe33  1  0.75166692  0.25071601  0.75262362  1
  Fe  Fe34  1  0.24828018  0.49899400  0.74898441  1
  Fe  Fe35  1  0.25285169  0.75131335  -0.00112038  1
  Fe  Fe36  1  0.50122722  0.00153737  0.00066708  1
  Fe  Fe37  1  0.49729597  0.75035307  0.25070126  1
  Fe  Fe38  1  0.00225584  0.74754332  0.49991485  1
  Fe  Fe39  1  0.50117406  0.49867253  0.74941587  1
  Fe  Fe40  1  -0.00039647  0.74867691  0.74964884  1
  Fe  Fe41  1  0.74795247  0.75118592  0.49868832  1
  Fe  Fe42  1  0.87499850  0.37421140  0.12567751  1
  Fe  Fe43  1  0.24999150  0.00175524  0.74821492  1
  Fe  Fe44  1  0.87693537  0.62187836  0.87613101  1
  Fe  Fe45  1  0.62391393  0.88030278  0.87159066  1
  Fe  Fe46  1  0.24995550  0.24970164  0.75197330  1
  Fe  Fe47  1  0.37062469  0.62366152  0.37494588  1
  Fe  Fe48  1  -0.00114072  0.00395736  0.74616756  1
  Fe  Fe49  1  0.75251908  0.25256751  0.49521305  1
  Fe  Fe50  1  0.74747514  -0.00145640  0.49754460  1
  Fe  Fe51  1  0.12311899  0.37393330  0.37255540  1
  Fe  Fe52  1  0.37627910  0.12371921  0.87510986  1
  Fe  Fe53  1  0.12142083  0.37470904  0.87480101  1
  Fe  Fe54  1  0.62385481  0.62377570  0.12539535  1
  Fe  Fe55  1  0.62269923  0.62173842  0.87704806  1
  Fe  Fe56  1  0.37339033  0.12706992  0.12523946  1
  Fe  Fe57  1  0.12388463  0.87714572  0.87533879  1
  Fe  Fe58  1  0.12781681  0.36905885  0.12611216  1
  Fe  Fe59  1  0.37510486  0.37320543  0.62215859  1
  Fe  Fe60  1  0.24961543  0.00030927  0.00122785  1
  Fe  Fe61  1  0.74820472  0.75198479  -0.00088414  1
  Fe  Fe62  1  0.74964127  0.75003969  0.75136893  1
  Fe  Fe63  1  0.00197833  0.50177447  0.50315027  1
  Fe  Fe64  1  0.12620827  0.87398286  0.62483499  1
  Fe  Fe65  1  0.62873954  0.12429649  0.62729423  1
  Fe  Fe66  1  0.37369409  0.12646804  0.62269591  1
  Fe  Fe67  1  0.87732689  0.62333706  0.37372843  1
  Fe  Fe68  1  -0.00340755  0.24836872  0.50077939  1
  Fe  Fe69  1  0.24631847  0.50025605  0.49954602  1
  Fe  Fe70  1  0.37901057  0.12919317  0.37669083  1
  Fe  Fe71  1  0.37640653  0.37643858  0.87622554  1
  Fe  Fe72  1  0.12445106  0.12437405  0.87580150  1
  Fe  Fe73  1  0.37343214  0.62461302  0.62496496  1
  Fe  Fe74  1  0.75172195  0.75170723  0.25070948  1
  Fe  Fe75  1  0.12578916  0.87465013  0.12591291  1
  Fe  Fe76  1  0.49815714  0.75176907  -0.00202904  1
  Fe  Fe77  1  0.87622857  0.87585158  0.37568306  1
  Fe  Fe78  1  0.50031864  0.49847182  0.49875440  1
  Fe  Fe79  1  0.37141372  0.37185608  0.12444645  1
  Fe  Fe80  1  0.50367205  0.00028426  0.50064105  1
  Fe  Fe81  1  0.74836294  0.24959138  -0.00171016  1
  Fe  Fe82  1  0.50036909  0.75089557  0.49928198  1
  Fe  Fe83  1  0.87426583  0.87683044  0.12306468  1
  Fe  Fe84  1  0.62500152  0.62474921  0.37369780  1
  Fe  Fe85  1  0.75003361  0.49682573  0.25254737  1
  Fe  Fe86  1  0.87864230  0.37791895  0.87305873  1
  Fe  Fe87  1  0.25199684  0.00181931  0.25044382  1
  Fe  Fe88  1  0.24873263  0.00035640  0.49888175  1
  Fe  Fe89  1  0.50183200  0.24991225  -0.00072059  1
  Co  Co90  1  0.25036986  0.75039947  0.49907728  1
  Co  Co91  1  0.37547978  0.62095854  0.87596315  1
  Co  Co92  1  0.25048195  0.49752303  0.25051717  1
  Co  Co93  1  0.50407245  0.24919300  0.50291238  1
  Co  Co94  1  0.62476699  0.87455375  0.62723048  1
  Co  Co95  1  0.75121394  -0.00223386  0.25172976  1
  Co  Co96  1  0.88041642  0.37678557  0.37436470  1
  Co  Co97  1  0.00179520  0.49964114  0.00466943  1
  Co  Co98  1  0.87531201  0.37473334  0.62710470  1
  Co  Co99  1  -0.00366804  0.75080471  0.24862367  1
  Co  Co100  1  0.12839450  0.12767530  0.12555951  1
  Co  Co101  1  0.25178674  0.24810600  0.25472423  1
  Co  Co102  1  -0.00251611  0.24410812  0.75090711  1
  Co  Co103  1  0.75239097  0.25307478  0.25315052  1
  Co  Co104  1  0.37528200  0.37279441  0.37923986  1
  Co  Co105  1  0.62521813  0.12297063  0.87294226  1
  Co  Co106  1  0.75355450  -0.00072832  0.74934372  1
  Co  Co107  1  -0.00156131  0.24768964  0.24777820  1
  Co  Co108  1  0.49809348  0.25369596  0.24818559  1
  Co  Co109  1  0.24961416  0.24931962  -0.00447772  1
  Co  Co110  1  0.87086947  0.12581249  0.62160687  1
  Co  Co111  1  0.00183442  0.50208624  0.74607041  1
  Co  Co112  1  0.62352342  0.37561736  0.87574789  1
  Co  Co113  1  0.12713749  0.12778929  0.62417242  1
  Co  Co114  1  0.49918929  0.49706418  0.00279527  1
  Co  Co115  1  0.74850916  0.50034975  0.75137753  1
  Co  Co116  1  0.87566805  0.12333252  0.37420780  1
  Co  Co117  1  0.37466278  0.87940930  0.87516625  1
  Co  Co118  1  0.12547531  0.62752684  0.37155076  1
  Co  Co119  1  0.49728579  0.00190347  0.25086325  1
  Co  Co120  1  0.12769075  0.62842178  0.62601963  1
  Co  Co121  1  0.25352369  0.75208915  0.24896578  1
  Co  Co122  1  0.49798477  0.00265935  0.74657291  1
  Co  Co123  1  0.00126715  0.00219117  0.00307420  1
  Co  Co124  1  0.74674987  -0.00080593  0.00146650  1
  Co  Co125  1  0.62315486  0.87383154  0.37157223  1
  Co  Co126  1  0.62231875  0.37357195  0.37485606  1
  Co  Co127  1  0.37637412  0.87692929  0.12395280  1
