# generated using pymatgen
data_Fe45Co19
_symmetry_space_group_name_H-M   'P 1'
_cell_length_a   11.41533464
_cell_length_b   11.41551381
_cell_length_c   11.41498939
_cell_angle_alpha   90.00716991
_cell_angle_beta   89.99155457
_cell_angle_gamma   89.99745457
_symmetry_Int_Tables_number   1
_chemical_formula_structural   Fe45Co19
_chemical_formula_sum   'Fe90 Co38'
_cell_volume   1487.50904255
_cell_formula_units_Z   2
loop_
 _symmetry_equiv_pos_site_id
 _symmetry_equiv_pos_as_xyz
  1  'x, y, z'
loop_
 _atom_site_type_symbol
 _atom_site_label
 _atom_site_symmetry_multiplicity
 _atom_site_fract_x
 _atom_site_fract_y
 _atom_site_fract_z
 _atom_site_occupancy
  Fe  Fe0  1  0.24848455  0.50024538  0.74939987  1
  Fe  Fe1  1  0.62523340  0.62976035  0.37745604  1
  Fe  Fe2  1  0.12209168  0.37258477  0.87481130  1
  Fe  Fe3  1  0.37535919  0.87597575  0.86929099  1
  Fe  Fe4  1  0.50364701  0.00048469  0.50161147  1
  Fe  Fe5  1  0.62495485  0.62588029  0.12378914  1
  Fe  Fe6  1  0.25135243  0.25012628  0.00198794  1
  Fe  Fe7  1  0.87422951  0.12078914  0.62145469  1
  Fe  Fe8  1  0.00415576  -0.00079265  0.74810089  1
  Fe  Fe9  1  0.12371945  0.62770420  0.62289921  1
  Fe  Fe10  1  0.87352345  0.37769986  0.62474222  1
  Fe  Fe11  1  0.12479898  0.62732130  0.87380172  1
  Fe  Fe12  1  0.25339926  0.25156083  0.24995186  1
  Fe  Fe13  1  0.75070247  0.24950599  0.25081038  1
  Fe  Fe14  1  0.12534189  0.12722319  0.37525005  1
  Fe  Fe15  1  0.75343924  0.25054109  0.00034311  1
  Fe  Fe16  1  0.50141411  -0.00010939  0.25181710  1
  Fe  Fe17  1  0.00564660  -0.00519602  0.50111255  1
  Fe  Fe18  1  0.74833619  0.50069330  0.74969602  1
  Fe  Fe19  1  0.37664135  0.12693472  0.87144326  1
  Fe  Fe20  1  0.87651766  0.62319441  0.12556620  1
  Fe  Fe21  1  0.25207437  0.00015013  -0.00241416  1
  Fe  Fe22  1  0.37532609  0.62304974  0.12534524  1
  Fe  Fe23  1  0.87500343  0.87685683  0.87305867  1
  Fe  Fe24  1  0.75081374  0.75347683  0.00154879  1
  Fe  Fe25  1  0.24876354  0.49984723  -0.00077194  1
  Fe  Fe26  1  0.37555205  0.37410394  0.87369682  1
  Fe  Fe27  1  0.24966694  0.49748729  0.25179782  1
  Fe  Fe28  1  0.37285716  0.87866440  0.37905985  1
  Fe  Fe29  1  0.49957068  0.75129343  0.25029418  1
  Fe  Fe30  1  -0.00056230  0.75068193  -0.00042861  1
  Fe  Fe31  1  0.12304978  0.12730865  0.87591921  1
  Fe  Fe32  1  0.24976353  0.24832213  0.74690628  1
  Fe  Fe33  1  0.25222235  0.75022550  0.25088246  1
  Fe  Fe34  1  -0.00140210  0.25158718  0.50072343  1
  Fe  Fe35  1  0.50400536  0.00413132  0.74810761  1
  Fe  Fe36  1  -0.00043792  0.74965711  0.25165409  1
  Fe  Fe37  1  0.50401535  0.49832979  0.49861075  1
  Fe  Fe38  1  0.49860501  0.24854057  0.00082868  1
  Fe  Fe39  1  -0.00175829  0.25034883  0.25096852  1
  Fe  Fe40  1  0.37622213  0.62362198  0.87326935  1
  Fe  Fe41  1  0.49490094  0.75242853  0.50509923  1
  Fe  Fe42  1  0.12481686  0.87521946  0.12586884  1
  Fe  Fe43  1  0.74815011  0.75360700  0.24791964  1
  Fe  Fe44  1  0.12528267  0.62932533  0.37752624  1
  Fe  Fe45  1  0.87282687  0.37663645  0.37515553  1
  Fe  Fe46  1  -0.00291579  0.75134323  0.74533827  1
  Fe  Fe47  1  0.50267005  0.50008868  0.75081676  1
  Fe  Fe48  1  -0.00059669  -0.00027746  -0.00008729  1
  Fe  Fe49  1  0.87467670  0.87585339  0.37533127  1
  Fe  Fe50  1  0.62697488  0.12618372  0.37765817  1
  Fe  Fe51  1  0.75002824  0.75047460  0.74822272  1
  Fe  Fe52  1  0.62466220  0.62743813  0.62523293  1
  Fe  Fe53  1  0.12557908  0.12525506  0.12453377  1
  Fe  Fe54  1  0.62609397  0.37206836  0.87478899  1
  Fe  Fe55  1  0.12716564  0.87313594  0.87187542  1
  Fe  Fe56  1  0.50052400  0.50042132  -0.00156781  1
  Fe  Fe57  1  0.49944063  0.74977793  -0.00209451  1
  Fe  Fe58  1  0.74811929  0.50004782  0.25238351  1
  Fe  Fe59  1  0.25101474  0.24790084  0.50173060  1
  Fe  Fe60  1  0.49832896  0.24921102  0.50011172  1
  Fe  Fe61  1  0.87348235  0.62563099  0.37855160  1
  Fe  Fe62  1  0.74618958  0.00267347  0.74825482  1
  Fe  Fe63  1  0.25574565  0.74773388  0.74441624  1
  Fe  Fe64  1  0.74906860  0.24720805  0.74835769  1
  Fe  Fe65  1  0.50121421  0.49891402  0.25253751  1
  Fe  Fe66  1  0.00056663  0.50058434  0.75040389  1
  Fe  Fe67  1  0.12264275  0.62330163  0.12529201  1
  Fe  Fe68  1  0.00181622  -0.00075504  0.25087595  1
  Fe  Fe69  1  0.62451993  0.12077542  0.12143288  1
  Fe  Fe70  1  0.11991262  0.37664556  0.12497202  1
  Fe  Fe71  1  0.75280241  0.75357857  0.50397664  1
  Fe  Fe72  1  0.87418029  0.12114131  0.37804040  1
  Fe  Fe73  1  0.24954014  0.00048012  0.25226159  1
  Fe  Fe74  1  0.37508165  0.37583740  0.62537375  1
  Fe  Fe75  1  0.62431032  0.37444297  0.12625102  1
  Fe  Fe76  1  0.87484907  0.12463546  0.87457432  1
  Fe  Fe77  1  0.24799122  0.49916533  0.50002589  1
  Fe  Fe78  1  0.75315012  0.49742123  -0.00052639  1
  Fe  Fe79  1  -0.00135974  0.24925538  0.74756435  1
  Fe  Fe80  1  0.74740246  -0.00347878  0.24986000  1
  Fe  Fe81  1  0.87367520  0.62493721  0.87345378  1
  Fe  Fe82  1  0.62454100  0.87604815  0.87581093  1
  Fe  Fe83  1  0.62688716  0.37139992  0.62296299  1
  Fe  Fe84  1  0.00107792  0.49944408  0.49897856  1
  Fe  Fe85  1  0.87470627  0.12297773  0.12533120  1
  Fe  Fe86  1  0.49743338  0.24886455  0.25065008  1
  Fe  Fe87  1  0.37665342  0.87730282  0.12476260  1
  Fe  Fe88  1  0.37525088  0.62310694  0.37693684  1
  Fe  Fe89  1  0.25152919  0.75042641  0.00031950  1
  Co  Co90  1  0.87364368  0.88046518  0.62641712  1
  Co  Co91  1  0.37635982  0.37667609  0.12493613  1
  Co  Co92  1  0.87811707  0.87546229  0.12691414  1
  Co  Co93  1  0.37253081  0.88297071  0.62622546  1
  Co  Co94  1  0.37537271  0.12197277  0.62490564  1
  Co  Co95  1  0.74615084  -0.00296432  0.49986011  1
  Co  Co96  1  0.62589260  0.12565235  0.87891469  1
  Co  Co97  1  0.75355430  0.25021296  0.49892997  1
  Co  Co98  1  -0.00388693  0.24951163  0.00108313  1
  Co  Co99  1  0.12530195  0.37139924  0.37544560  1
  Co  Co100  1  0.24414908  0.00255066  0.50068490  1
  Co  Co101  1  0.12270171  0.12661129  0.62414088  1
  Co  Co102  1  0.62131293  0.87712633  0.12137910  1
  Co  Co103  1  0.87493198  0.37350844  0.87037564  1
  Co  Co104  1  0.37512463  0.37525444  0.37678783  1
  Co  Co105  1  0.62662437  0.12822065  0.62035261  1
  Co  Co106  1  -0.00185623  0.50013651  -0.00429479  1
  Co  Co107  1  0.50186362  0.24894100  0.74789329  1
  Co  Co108  1  -0.00283330  0.75403491  0.50295096  1
  Co  Co109  1  0.12482238  0.37417466  0.62557504  1
  Co  Co110  1  0.13076009  0.87173793  0.62635293  1
  Co  Co111  1  0.25500457  0.74955958  0.50232210  1
  Co  Co112  1  0.24642546  0.00517801  0.75068574  1
  Co  Co113  1  0.62531971  0.37103913  0.37442076  1
  Co  Co114  1  0.37719617  0.61852017  0.62408044  1
  Co  Co115  1  0.62721882  0.62617288  0.87574928  1
  Co  Co116  1  0.87724281  0.37672496  0.12882560  1
  Co  Co117  1  0.49863594  0.74897103  0.74873569  1
  Co  Co118  1  0.37471039  0.12293313  0.12627827  1
  Co  Co119  1  0.62407118  0.87142085  0.37750813  1
  Co  Co120  1  0.62427609  0.87319976  0.62676533  1
  Co  Co121  1  0.37432676  0.12330167  0.37682086  1
  Co  Co122  1  0.00001534  0.50114437  0.25601895  1
  Co  Co123  1  0.74603628  0.49979913  0.49892907  1
  Co  Co124  1  0.87450271  0.62175653  0.62395592  1
  Co  Co125  1  0.12694295  0.87139594  0.37478273  1
  Co  Co126  1  0.49503897  0.00116382  -0.00382327  1
  Co  Co127  1  0.75345352  -0.00158747  0.00017429  1
