# generated using pymatgen
data_Fe45Co19
_symmetry_space_group_name_H-M   'P 1'
_cell_length_a   11.41455280
_cell_length_b   11.41612399
_cell_length_c   11.41562494
_cell_angle_alpha   89.99535832
_cell_angle_beta   90.00519273
_cell_angle_gamma   90.00579541
_symmetry_Int_Tables_number   1
_chemical_formula_structural   Fe45Co19
_chemical_formula_sum   'Fe90 Co38'
_cell_volume   1487.56949639
_cell_formula_units_Z   2
loop_
 _symmetry_equiv_pos_site_id
 _symmetry_equiv_pos_as_xyz
  1  'x, y, z'
loop_
 _atom_site_type_symbol
 _atom_site_label
 _atom_site_symmetry_multiplicity
 _atom_site_fract_x
 _atom_site_fract_y
 _atom_site_fract_z
 _atom_site_occupancy
  Fe  Fe0  1  0.37104844  0.37396250  0.37526224  1
  Fe  Fe1  1  0.49973293  0.00107962  0.74786680  1
  Fe  Fe2  1  0.87630852  0.12532630  0.12431638  1
  Fe  Fe3  1  0.74887234  0.74950010  0.75078779  1
  Fe  Fe4  1  0.00428087  0.75142878  -0.00283551  1
  Fe  Fe5  1  0.74699998  0.25201260  0.24789740  1
  Fe  Fe6  1  0.75133998  0.00223307  0.50197016  1
  Fe  Fe7  1  0.00033563  -0.00081082  0.49918438  1
  Fe  Fe8  1  0.87725441  0.62409667  0.87446809  1
  Fe  Fe9  1  0.00079468  0.25176021  0.25270490  1
  Fe  Fe10  1  0.12384614  0.87295806  0.62596252  1
  Fe  Fe11  1  0.74901780  0.74792807  -0.00138112  1
  Fe  Fe12  1  0.36871519  0.62038514  0.87609834  1
  Fe  Fe13  1  0.37451570  0.87037499  0.12431935  1
  Fe  Fe14  1  0.37432690  0.87169356  0.62450560  1
  Fe  Fe15  1  0.24822301  0.50239390  0.50114283  1
  Fe  Fe16  1  0.62322850  0.12579822  0.87526409  1
  Fe  Fe17  1  -0.00040786  0.49952962  0.49945364  1
  Fe  Fe18  1  0.12184264  0.62764647  0.37216680  1
  Fe  Fe19  1  0.62407907  0.37403152  0.62461280  1
  Fe  Fe20  1  0.37589645  0.37180783  0.12730412  1
  Fe  Fe21  1  0.87500819  0.87429975  0.37501221  1
  Fe  Fe22  1  0.49714589  0.49943681  0.00135815  1
  Fe  Fe23  1  0.62467516  0.87605543  0.87686883  1
  Fe  Fe24  1  0.37508434  0.37224641  0.62361911  1
  Fe  Fe25  1  0.49862354  -0.00076520  0.49951761  1
  Fe  Fe26  1  0.37231732  0.37504762  0.87532155  1
  Fe  Fe27  1  0.38058691  0.12939447  0.13064100  1
  Fe  Fe28  1  0.12947281  0.87452087  0.12483631  1
  Fe  Fe29  1  0.24736307  0.24878443  0.49716475  1
  Fe  Fe30  1  0.62473973  0.37573946  0.87674094  1
  Fe  Fe31  1  0.12903430  0.88154551  0.87611750  1
  Fe  Fe32  1  0.37698572  0.62662512  0.37733301  1
  Fe  Fe33  1  0.75256296  0.50121079  0.50166604  1
  Fe  Fe34  1  0.12164982  0.62717931  0.62852498  1
  Fe  Fe35  1  0.62417923  0.62350637  0.12454287  1
  Fe  Fe36  1  0.37661090  0.62767011  0.62251995  1
  Fe  Fe37  1  0.74741247  0.75032591  0.25110873  1
  Fe  Fe38  1  0.87631922  0.12257813  0.87680896  1
  Fe  Fe39  1  0.87651571  0.37602074  0.37562213  1
  Fe  Fe40  1  0.74989133  0.25008769  0.74897676  1
  Fe  Fe41  1  0.24887318  0.00005685  0.50115119  1
  Fe  Fe42  1  0.87890024  0.12939217  0.62581099  1
  Fe  Fe43  1  0.00020846  -0.00334409  0.24770176  1
  Fe  Fe44  1  0.74644982  0.24920760  0.00316807  1
  Fe  Fe45  1  0.12570778  0.12359556  0.37200163  1
  Fe  Fe46  1  0.12550113  0.37277735  0.12816384  1
  Fe  Fe47  1  0.49721046  0.49836535  0.74893990  1
  Fe  Fe48  1  0.25241211  0.00166253  0.24857472  1
  Fe  Fe49  1  0.87848075  0.62805017  0.62697257  1
  Fe  Fe50  1  0.75249343  0.49851608  0.74798572  1
  Fe  Fe51  1  0.62502410  0.62176031  0.87487825  1
  Fe  Fe52  1  0.24986874  0.24702835  0.00264829  1
  Fe  Fe53  1  0.87655454  0.62591240  0.12480350  1
  Fe  Fe54  1  0.87798087  0.62644658  0.37214352  1
  Fe  Fe55  1  0.12154618  0.12655146  0.62657736  1
  Fe  Fe56  1  0.87401993  0.87799236  0.87655466  1
  Fe  Fe57  1  0.87651345  0.87248033  0.62577129  1
  Fe  Fe58  1  0.87587911  0.37524311  0.12398899  1
  Fe  Fe59  1  0.74673053  -0.00255624  0.24466576  1
  Fe  Fe60  1  0.25016859  0.50188973  0.24917147  1
  Fe  Fe61  1  0.00175135  0.50048122  0.00106250  1
  Fe  Fe62  1  0.87455673  0.37556893  0.87623663  1
  Fe  Fe63  1  0.75101537  0.50022600  0.24821931  1
  Fe  Fe64  1  0.49742124  0.74737144  -0.00220313  1
  Fe  Fe65  1  0.49883928  0.74932619  0.75222968  1
  Fe  Fe66  1  0.37150741  0.87382621  0.37681610  1
  Fe  Fe67  1  0.37494087  0.12466663  0.87437632  1
  Fe  Fe68  1  0.24879475  0.74940397  0.75291573  1
  Fe  Fe69  1  0.12844842  0.37969817  0.87423978  1
  Fe  Fe70  1  0.24938134  0.24887548  0.75025592  1
  Fe  Fe71  1  0.62200911  0.62438331  0.62300535  1
  Fe  Fe72  1  0.37271852  0.87902682  0.87554521  1
  Fe  Fe73  1  0.50005955  0.00135615  0.00334620  1
  Fe  Fe74  1  0.12074093  0.37306602  0.62514741  1
  Fe  Fe75  1  0.00285814  0.24863104  -0.00142734  1
  Fe  Fe76  1  0.50316840  0.75188088  0.25355876  1
  Fe  Fe77  1  0.62302342  0.12069701  0.37194711  1
  Fe  Fe78  1  0.50116700  0.24954762  0.49616446  1
  Fe  Fe79  1  0.87299137  0.87441033  0.12096756  1
  Fe  Fe80  1  0.12767493  0.62815622  0.12438929  1
  Fe  Fe81  1  0.37633416  0.12746709  0.62413319  1
  Fe  Fe82  1  0.62529847  0.87503723  0.62420896  1
  Fe  Fe83  1  0.74796066  0.74847647  0.49726450  1
  Fe  Fe84  1  0.12626356  0.11978478  0.87505102  1
  Fe  Fe85  1  0.62646823  0.37887972  0.37613734  1
  Fe  Fe86  1  0.74977111  0.24821155  0.49881829  1
  Fe  Fe87  1  0.74978415  0.00171843  0.74914298  1
  Fe  Fe88  1  0.49902056  0.49943861  0.25064193  1
  Fe  Fe89  1  0.87458177  0.12380346  0.37195004  1
  Co  Co90  1  0.12666472  0.87567080  0.37276707  1
  Co  Co91  1  0.00130194  0.25046024  0.75579068  1
  Co  Co92  1  0.25384431  0.00484602  0.00717935  1
  Co  Co93  1  0.24987695  0.75010006  -0.00431991  1
  Co  Co94  1  0.00262318  0.75207887  0.75643114  1
  Co  Co95  1  0.49754755  0.49694386  0.50008262  1
  Co  Co96  1  0.62390184  0.87165398  0.12050247  1
  Co  Co97  1  0.25166146  0.00107167  0.74499752  1
  Co  Co98  1  0.50293538  0.75301326  0.49680009  1
  Co  Co99  1  0.00137568  -0.00075673  0.00308172  1
  Co  Co100  1  0.24883956  0.24876381  0.25064576  1
  Co  Co101  1  0.50409633  0.25454438  0.25449572  1
  Co  Co102  1  0.12233638  0.12619162  0.12824472  1
  Co  Co103  1  0.62099664  0.12550152  0.12880028  1
  Co  Co104  1  0.49833884  -0.00604907  0.24916908  1
  Co  Co105  1  0.75179193  0.50090434  0.00043440  1
  Co  Co106  1  0.12639036  0.37671849  0.37404120  1
  Co  Co107  1  0.00042191  0.75161875  0.49758573  1
  Co  Co108  1  0.49995185  0.25079198  -0.00028127  1
  Co  Co109  1  0.24677170  0.74823508  0.49979002  1
  Co  Co110  1  0.00096328  0.49948989  0.24810538  1
  Co  Co111  1  0.25107132  0.74823377  0.25286243  1
  Co  Co112  1  -0.00172392  -0.00079353  0.74867069  1
  Co  Co113  1  0.49926520  0.25104403  0.75072409  1
  Co  Co114  1  0.62301743  0.12590008  0.62413004  1
  Co  Co115  1  0.37531523  0.62834657  0.12628367  1
  Co  Co116  1  0.74674891  0.00329014  0.00172192  1
  Co  Co117  1  0.37531655  0.12517854  0.37394587  1
  Co  Co118  1  0.25104954  0.49785828  0.00787014  1
  Co  Co119  1  0.62389168  0.62141886  0.37576330  1
  Co  Co120  1  0.00088156  0.24878162  0.49352582  1
  Co  Co121  1  -0.00046082  0.75423399  0.24709478  1
  Co  Co122  1  0.12859777  0.61849550  0.87499542  1
  Co  Co123  1  0.87818923  0.37016837  0.62301505  1
  Co  Co124  1  0.62804262  0.87950844  0.37736360  1
  Co  Co125  1  -0.00282004  0.49784437  0.75021253  1
  Co  Co126  1  0.62383153  0.37818696  0.12306265  1
  Co  Co127  1  0.25165022  0.49942014  0.74322664  1
