# generated using pymatgen
data_Fe45Co19
_symmetry_space_group_name_H-M   'P 1'
_cell_length_a   11.41480218
_cell_length_b   11.41357193
_cell_length_c   11.41488406
_cell_angle_alpha   89.99895950
_cell_angle_beta   89.99225026
_cell_angle_gamma   90.00428509
_symmetry_Int_Tables_number   1
_chemical_formula_structural   Fe45Co19
_chemical_formula_sum   'Fe90 Co38'
_cell_volume   1487.17292150
_cell_formula_units_Z   2
loop_
 _symmetry_equiv_pos_site_id
 _symmetry_equiv_pos_as_xyz
  1  'x, y, z'
loop_
 _atom_site_type_symbol
 _atom_site_label
 _atom_site_symmetry_multiplicity
 _atom_site_fract_x
 _atom_site_fract_y
 _atom_site_fract_z
 _atom_site_occupancy
  Fe  Fe0  1  0.74998510  0.49729924  0.74735353  1
  Fe  Fe1  1  -0.00244322  0.75058524  0.24979163  1
  Fe  Fe2  1  0.50009686  0.00262005  0.49926588  1
  Fe  Fe3  1  0.24679113  0.74694297  0.75209802  1
  Fe  Fe4  1  0.37245181  0.62106762  0.62858477  1
  Fe  Fe5  1  0.37498421  0.62547908  0.12338393  1
  Fe  Fe6  1  0.37723775  0.37612626  0.12301845  1
  Fe  Fe7  1  0.24941102  0.00016301  0.50013262  1
  Fe  Fe8  1  0.62564790  0.12627372  0.87468793  1
  Fe  Fe9  1  0.87289871  0.62285424  0.37227835  1
  Fe  Fe10  1  0.87741259  0.37563714  0.12328438  1
  Fe  Fe11  1  0.62509470  0.12763832  0.62590279  1
  Fe  Fe12  1  0.75304725  -0.00612372  0.25185246  1
  Fe  Fe13  1  0.62810907  0.62581282  0.12843661  1
  Fe  Fe14  1  0.25154122  0.00043646  0.75165716  1
  Fe  Fe15  1  0.25101513  -0.00087674  0.24964130  1
  Fe  Fe16  1  0.25040043  0.25044432  -0.00071632  1
  Fe  Fe17  1  -0.00068535  0.00032020  0.75088613  1
  Fe  Fe18  1  0.74999246  -0.00142925  0.49915239  1
  Fe  Fe19  1  0.00035946  0.00038144  -0.00151318  1
  Fe  Fe20  1  0.49886798  0.25285235  0.74984425  1
  Fe  Fe21  1  0.24848681  0.75066383  -0.00126705  1
  Fe  Fe22  1  0.12576985  0.12298428  0.12429930  1
  Fe  Fe23  1  0.12391812  0.62231981  0.12458951  1
  Fe  Fe24  1  0.37348686  0.13020763  0.62329360  1
  Fe  Fe25  1  0.12457806  0.87438997  0.62676693  1
  Fe  Fe26  1  0.50190498  0.74836795  0.75052080  1
  Fe  Fe27  1  -0.00089563  0.50098017  0.49975104  1
  Fe  Fe28  1  -0.00166077  0.74591936  -0.00294125  1
  Fe  Fe29  1  0.37850562  0.87480958  0.37275683  1
  Fe  Fe30  1  0.62543483  0.62237950  0.62496803  1
  Fe  Fe31  1  0.12441662  0.12532680  0.37339168  1
  Fe  Fe32  1  0.74813845  -0.00287888  -0.00165261  1
  Fe  Fe33  1  0.87322410  0.12430830  0.12372575  1
  Fe  Fe34  1  0.12543891  0.12452933  0.87529691  1
  Fe  Fe35  1  0.24940473  0.25273381  0.24850028  1
  Fe  Fe36  1  0.25153956  0.49781263  0.49956064  1
  Fe  Fe37  1  0.00185323  0.25200357  0.24563262  1
  Fe  Fe38  1  0.50052220  0.00018927  -0.00126721  1
  Fe  Fe39  1  0.12282343  0.87585959  0.12426378  1
  Fe  Fe40  1  0.87339980  0.62414355  0.62565831  1
  Fe  Fe41  1  0.37377580  0.12864084  0.37676850  1
  Fe  Fe42  1  0.49833328  0.74784059  0.49922666  1
  Fe  Fe43  1  0.62664068  0.62468577  0.37256047  1
  Fe  Fe44  1  0.62393653  0.87533837  0.62393249  1
  Fe  Fe45  1  0.74935320  0.75088983  0.49799098  1
  Fe  Fe46  1  0.87518588  0.12735911  0.62734284  1
  Fe  Fe47  1  0.12528862  0.62421969  0.37416125  1
  Fe  Fe48  1  0.00148409  0.00253394  0.50209902  1
  Fe  Fe49  1  0.00188005  0.24941530  0.50299342  1
  Fe  Fe50  1  0.62279666  0.87367353  0.12880886  1
  Fe  Fe51  1  0.12459953  0.37607281  0.37310174  1
  Fe  Fe52  1  0.49840345  0.49731581  0.50138026  1
  Fe  Fe53  1  0.75009924  0.25401718  0.24712743  1
  Fe  Fe54  1  0.25166774  0.74899507  0.25060187  1
  Fe  Fe55  1  0.87424824  0.12823588  0.87623954  1
  Fe  Fe56  1  0.00088321  0.74744349  0.50124843  1
  Fe  Fe57  1  0.87525509  0.87326286  0.62500992  1
  Fe  Fe58  1  0.25127674  0.49990278  0.25032935  1
  Fe  Fe59  1  0.37691361  0.87542265  0.12554476  1
  Fe  Fe60  1  0.49999582  0.24902485  -0.00034479  1
  Fe  Fe61  1  0.12193607  0.37697197  0.87968717  1
  Fe  Fe62  1  0.24952603  0.25291645  0.75207342  1
  Fe  Fe63  1  0.37496961  0.87389040  0.62613009  1
  Fe  Fe64  1  0.75096610  0.25351590  0.75009881  1
  Fe  Fe65  1  0.74991490  0.25278592  0.50251162  1
  Fe  Fe66  1  0.12254868  0.87513134  0.37397529  1
  Fe  Fe67  1  0.49876345  0.50066208  0.24924300  1
  Fe  Fe68  1  0.74920527  0.49784227  0.00239509  1
  Fe  Fe69  1  0.00108050  0.74548442  0.75203268  1
  Fe  Fe70  1  0.00104405  0.50283990  0.75205402  1
  Fe  Fe71  1  0.62531036  0.37638670  0.37496008  1
  Fe  Fe72  1  0.87188679  0.87066375  0.87493129  1
  Fe  Fe73  1  0.74911421  -0.00174282  0.75014645  1
  Fe  Fe74  1  0.87523909  0.37576689  0.37573402  1
  Fe  Fe75  1  0.37416220  0.12381669  0.12313656  1
  Fe  Fe76  1  0.12418946  0.37671156  0.62621775  1
  Fe  Fe77  1  0.62779343  0.12553979  0.12516499  1
  Fe  Fe78  1  0.25104021  0.74953214  0.49914698  1
  Fe  Fe79  1  0.62268892  0.37591209  0.87753636  1
  Fe  Fe80  1  0.87246062  0.62461329  0.12681771  1
  Fe  Fe81  1  0.50034998  0.24909950  0.25026472  1
  Fe  Fe82  1  0.62735900  0.12499522  0.37373949  1
  Fe  Fe83  1  0.25292603  0.50118992  -0.00320234  1
  Fe  Fe84  1  0.87582537  0.12567950  0.37370872  1
  Fe  Fe85  1  0.87819387  0.37440310  0.87639930  1
  Fe  Fe86  1  0.50246958  0.74757720  -0.00123240  1
  Fe  Fe87  1  0.37532149  0.87389327  0.87590251  1
  Fe  Fe88  1  0.62851069  0.62488632  0.87397958  1
  Fe  Fe89  1  0.49917822  0.00052564  0.75065847  1
  Co  Co90  1  0.24845751  0.49796492  0.75377387  1
  Co  Co91  1  0.61994065  0.37473514  0.12360747  1
  Co  Co92  1  0.37559537  0.37291823  0.37445334  1
  Co  Co93  1  0.87744676  0.87473277  0.12027139  1
  Co  Co94  1  0.50310448  0.25115075  0.49877180  1
  Co  Co95  1  0.00136271  0.24827889  0.00330214  1
  Co  Co96  1  0.12636864  0.62243156  0.87829965  1
  Co  Co97  1  0.74833579  0.75036344  0.00247688  1
  Co  Co98  1  0.62514828  0.87397392  0.87374991  1
  Co  Co99  1  0.12719948  0.12443600  0.62750259  1
  Co  Co100  1  0.12761751  0.62308476  0.62336407  1
  Co  Co101  1  0.74981030  0.25322390  0.00019553  1
  Co  Co102  1  0.86855473  0.62435065  0.87409718  1
  Co  Co103  1  0.87779705  0.37567304  0.62510416  1
  Co  Co104  1  0.74792404  0.75047701  0.74638590  1
  Co  Co105  1  0.25010303  -0.00139084  -0.00076011  1
  Co  Co106  1  0.12446793  0.87482619  0.87435539  1
  Co  Co107  1  -0.00002755  0.49874186  0.24918768  1
  Co  Co108  1  0.50158105  0.50512289  -0.00045038  1
  Co  Co109  1  0.37484566  0.62658840  0.87297002  1
  Co  Co110  1  0.37522997  0.12510268  0.87551284  1
  Co  Co111  1  0.37390489  0.37403461  0.62539340  1
  Co  Co112  1  -0.00184454  0.00036521  0.24861451  1
  Co  Co113  1  0.62422031  0.37499817  0.62446835  1
  Co  Co114  1  0.00189545  0.25027437  0.75032832  1
  Co  Co115  1  0.87955183  0.87578384  0.37914984  1
  Co  Co116  1  0.37787380  0.37731760  0.87646281  1
  Co  Co117  1  0.74976423  0.49581658  0.24816403  1
  Co  Co118  1  0.24575148  0.25250811  0.50009253  1
  Co  Co119  1  0.12692920  0.37966763  0.12154576  1
  Co  Co120  1  -0.00352922  0.50354533  0.00017534  1
  Co  Co121  1  0.37478959  0.62286422  0.37606338  1
  Co  Co122  1  0.50071356  0.49968819  0.75080982  1
  Co  Co123  1  0.62002830  0.87384531  0.37369006  1
  Co  Co124  1  0.49737997  0.74566331  0.25019812  1
  Co  Co125  1  0.49926637  0.00446988  0.25012496  1
  Co  Co126  1  0.75060158  0.49957580  0.50112105  1
  Co  Co127  1  0.75334219  0.75546011  0.25222096  1
