# generated using pymatgen
data_Fe45Co19
_symmetry_space_group_name_H-M   'P 1'
_cell_length_a   11.41516659
_cell_length_b   11.41367722
_cell_length_c   11.41453299
_cell_angle_alpha   90.00239243
_cell_angle_beta   90.00520173
_cell_angle_gamma   89.99448193
_symmetry_Int_Tables_number   1
_chemical_formula_structural   Fe45Co19
_chemical_formula_sum   'Fe90 Co38'
_cell_volume   1487.18838290
_cell_formula_units_Z   2
loop_
 _symmetry_equiv_pos_site_id
 _symmetry_equiv_pos_as_xyz
  1  'x, y, z'
loop_
 _atom_site_type_symbol
 _atom_site_label
 _atom_site_symmetry_multiplicity
 _atom_site_fract_x
 _atom_site_fract_y
 _atom_site_fract_z
 _atom_site_occupancy
  Fe  Fe0  1  0.62371473  0.12511401  0.12535315  1
  Fe  Fe1  1  0.87486594  0.12433396  0.12499813  1
  Fe  Fe2  1  0.87318623  0.87677634  0.12486011  1
  Fe  Fe3  1  0.50207821  0.24964873  0.75060804  1
  Fe  Fe4  1  0.87123387  0.87840620  0.87707331  1
  Fe  Fe5  1  0.37629660  0.37528150  0.87443568  1
  Fe  Fe6  1  0.50312897  0.75165066  0.25271423  1
  Fe  Fe7  1  0.87551899  0.12180150  0.62480149  1
  Fe  Fe8  1  0.25114831  0.74764820  0.25022732  1
  Fe  Fe9  1  0.74622938  -0.00208569  0.25091310  1
  Fe  Fe10  1  0.12499604  0.87449502  0.12221879  1
  Fe  Fe11  1  0.74626794  0.50083791  0.25147408  1
  Fe  Fe12  1  0.37653560  0.12622612  0.12414234  1
  Fe  Fe13  1  0.37929730  0.62425997  0.12631062  1
  Fe  Fe14  1  0.75020078  0.24828988  0.74728237  1
  Fe  Fe15  1  0.62666427  0.12407910  0.87304971  1
  Fe  Fe16  1  0.62226370  0.12214789  0.37775167  1
  Fe  Fe17  1  0.37607682  0.37750448  0.62661288  1
  Fe  Fe18  1  0.12410676  0.62535886  0.12467897  1
  Fe  Fe19  1  -0.00003296  0.49940504  0.74798658  1
  Fe  Fe20  1  0.50212486  0.75227491  0.75062417  1
  Fe  Fe21  1  0.12598227  0.87602366  0.87732678  1
  Fe  Fe22  1  0.50372767  0.49956210  -0.00145273  1
  Fe  Fe23  1  0.25222937  0.74849245  0.00061157  1
  Fe  Fe24  1  0.74956508  0.24720494  0.50127711  1
  Fe  Fe25  1  0.49926954  0.25006672  0.25160319  1
  Fe  Fe26  1  0.25020705  0.49974648  -0.00093019  1
  Fe  Fe27  1  0.62569414  0.37369336  0.62468897  1
  Fe  Fe28  1  0.49929601  0.25005074  0.50076064  1
  Fe  Fe29  1  0.24972026  0.74693997  0.74729374  1
  Fe  Fe30  1  0.50454481  0.50071024  0.75012714  1
  Fe  Fe31  1  0.12861083  0.37332629  0.37694713  1
  Fe  Fe32  1  0.25196012  0.00065691  0.50238783  1
  Fe  Fe33  1  -0.00120686  0.74885397  0.49659397  1
  Fe  Fe34  1  0.62527431  0.37274812  0.12535207  1
  Fe  Fe35  1  0.12667918  0.87370489  0.37579904  1
  Fe  Fe36  1  0.37446807  0.87450729  0.87382857  1
  Fe  Fe37  1  0.74679528  0.75151634  0.25214568  1
  Fe  Fe38  1  0.75162904  0.75445532  0.49731715  1
  Fe  Fe39  1  0.24971334  0.50009229  0.24987262  1
  Fe  Fe40  1  -0.00361282  0.25111034  -0.00115603  1
  Fe  Fe41  1  0.12389915  0.37384945  0.12475154  1
  Fe  Fe42  1  0.12833728  0.12649345  0.37654193  1
  Fe  Fe43  1  0.87204032  0.62314731  0.12603873  1
  Fe  Fe44  1  0.74974693  0.75178664  0.74722572  1
  Fe  Fe45  1  -0.00295076  0.75003370  -0.00065900  1
  Fe  Fe46  1  0.37546766  0.62456776  0.87206641  1
  Fe  Fe47  1  -0.00180605  0.74928089  0.25182538  1
  Fe  Fe48  1  0.12657197  0.37553441  0.62457131  1
  Fe  Fe49  1  0.00013639  0.49974150  0.25219370  1
  Fe  Fe50  1  -0.00247688  0.49819654  0.00024902  1
  Fe  Fe51  1  0.75020453  0.24874256  0.25192857  1
  Fe  Fe52  1  0.00242523  -0.00005118  0.25039093  1
  Fe  Fe53  1  0.12476011  0.87459655  0.62423573  1
  Fe  Fe54  1  0.87564148  0.12134019  0.37583051  1
  Fe  Fe55  1  -0.00058308  0.25065149  0.74877562  1
  Fe  Fe56  1  0.74766770  0.49904714  0.49933853  1
  Fe  Fe57  1  0.24887215  0.25095964  0.74958001  1
  Fe  Fe58  1  0.62231241  0.62691747  0.61994774  1
  Fe  Fe59  1  -0.00021575  0.50151437  0.49842228  1
  Fe  Fe60  1  0.12518550  0.12531264  0.12179320  1
  Fe  Fe61  1  0.25028394  0.00130156  0.24761850  1
  Fe  Fe62  1  0.25241903  0.50511110  0.50225471  1
  Fe  Fe63  1  0.37329256  0.37428837  0.37573713  1
  Fe  Fe64  1  -0.00195543  0.75068687  0.75113217  1
  Fe  Fe65  1  0.87424376  0.62450010  0.62363468  1
  Fe  Fe66  1  0.25346919  0.74667703  0.50147602  1
  Fe  Fe67  1  0.00076344  0.24849504  0.50140588  1
  Fe  Fe68  1  0.62801262  0.87544800  0.87903817  1
  Fe  Fe69  1  0.62182740  0.88110680  0.62185809  1
  Fe  Fe70  1  0.62861731  0.62635688  0.87781969  1
  Fe  Fe71  1  0.25017902  0.00071743  0.75003400  1
  Fe  Fe72  1  0.50441026  0.49984471  0.25419336  1
  Fe  Fe73  1  0.12422785  0.12420705  0.87660461  1
  Fe  Fe74  1  0.37787531  0.87468639  0.12568921  1
  Fe  Fe75  1  0.49482620  0.75410327  0.49740585  1
  Fe  Fe76  1  0.37780337  0.12308724  0.62792658  1
  Fe  Fe77  1  0.50038154  -0.00003010  -0.00007654  1
  Fe  Fe78  1  0.87106651  0.62315517  0.87393252  1
  Fe  Fe79  1  0.87693565  0.87838257  0.62264282  1
  Fe  Fe80  1  0.25074556  0.25169280  -0.00003282  1
  Fe  Fe81  1  0.00105906  0.24986277  0.25130663  1
  Fe  Fe82  1  0.12461635  0.62396009  0.87424833  1
  Fe  Fe83  1  0.75025544  0.25093264  -0.00027584  1
  Fe  Fe84  1  0.87071928  0.37699033  0.87215405  1
  Fe  Fe85  1  0.37405121  0.12541332  0.37362693  1
  Fe  Fe86  1  0.87352494  0.37428386  0.37546406  1
  Fe  Fe87  1  0.37593634  0.12543231  0.87575534  1
  Fe  Fe88  1  -0.00051459  -0.00002022  0.75111770  1
  Fe  Fe89  1  0.37789776  0.37442792  0.12439578  1
  Co  Co90  1  0.49394245  0.00011138  0.49873287  1
  Co  Co91  1  0.25223046  0.24832472  0.50464101  1
  Co  Co92  1  0.12631071  0.62628516  0.37393486  1
  Co  Co93  1  0.50083977  -0.00013364  0.24904961  1
  Co  Co94  1  -0.00227603  -0.00038958  0.00022632  1
  Co  Co95  1  0.62399882  0.87341456  0.12161573  1
  Co  Co96  1  0.50091457  0.49634679  0.49809166  1
  Co  Co97  1  0.74836266  0.49784155  0.00225030  1
  Co  Co98  1  0.62422513  0.62793136  0.37954694  1
  Co  Co99  1  0.75081016  0.00020951  0.49969503  1
  Co  Co100  1  0.12396272  0.37475578  0.87448813  1
  Co  Co101  1  0.38046892  0.62447423  0.62708087  1
  Co  Co102  1  0.50270725  0.24973558  -0.00107988  1
  Co  Co103  1  0.87162774  0.62403896  0.37465532  1
  Co  Co104  1  0.62394266  0.62714338  0.12365338  1
  Co  Co105  1  0.87338389  0.37434262  0.12837789  1
  Co  Co106  1  0.37218840  0.87623594  0.37205717  1
  Co  Co107  1  0.74619862  0.50312538  0.74578967  1
  Co  Co108  1  0.87365933  0.12446564  0.87356881  1
  Co  Co109  1  0.62790068  0.37375856  0.87305783  1
  Co  Co110  1  0.74896058  0.00304472  0.00194396  1
  Co  Co111  1  0.12432888  0.12390707  0.62726958  1
  Co  Co112  1  0.87363778  0.37571859  0.62402318  1
  Co  Co113  1  0.50130834  -0.00155631  0.75345206  1
  Co  Co114  1  0.62688150  0.37083140  0.37565667  1
  Co  Co115  1  0.24919018  0.50036215  0.74904393  1
  Co  Co116  1  0.87594227  0.87822058  0.37357848  1
  Co  Co117  1  0.12198756  0.62648108  0.62572190  1
  Co  Co118  1  0.75279746  0.74897656  0.00140537  1
  Co  Co119  1  0.74951041  -0.00160734  0.74742090  1
  Co  Co120  1  0.00248345  0.00098049  0.49873060  1
  Co  Co121  1  0.62266856  0.12183808  0.62431858  1
  Co  Co122  1  0.25044107  0.25044585  0.24724659  1
  Co  Co123  1  0.62298934  0.87809418  0.37789996  1
  Co  Co124  1  0.25279146  -0.00066960  0.00101553  1
  Co  Co125  1  0.49783958  0.74965071  -0.00232684  1
  Co  Co126  1  0.37760583  0.62439547  0.37374225  1
  Co  Co127  1  0.37458058  0.87518760  0.62877731  1
