# generated using pymatgen
data_Fe45Co19
_symmetry_space_group_name_H-M   'P 1'
_cell_length_a   11.41570126
_cell_length_b   11.41660955
_cell_length_c   11.41500564
_cell_angle_alpha   89.99934962
_cell_angle_beta   90.01627004
_cell_angle_gamma   89.99908982
_symmetry_Int_Tables_number   1
_chemical_formula_structural   Fe45Co19
_chemical_formula_sum   'Fe90 Co38'
_cell_volume   1487.70168898
_cell_formula_units_Z   2
loop_
 _symmetry_equiv_pos_site_id
 _symmetry_equiv_pos_as_xyz
  1  'x, y, z'
loop_
 _atom_site_type_symbol
 _atom_site_label
 _atom_site_symmetry_multiplicity
 _atom_site_fract_x
 _atom_site_fract_y
 _atom_site_fract_z
 _atom_site_occupancy
  Fe  Fe0  1  0.62143247  0.12389570  0.62714868  1
  Fe  Fe1  1  0.25159119  0.75081061  0.74925859  1
  Fe  Fe2  1  0.37595093  0.87925079  0.12700041  1
  Fe  Fe3  1  0.00284947  0.49991918  0.24939483  1
  Fe  Fe4  1  0.87361209  0.87534930  0.37397946  1
  Fe  Fe5  1  0.87198863  0.62076410  0.12192755  1
  Fe  Fe6  1  0.24895006  0.25052037  0.74743652  1
  Fe  Fe7  1  0.00008696  0.00011315  0.75198367  1
  Fe  Fe8  1  0.25149181  0.00019394  -0.00153017  1
  Fe  Fe9  1  0.37682155  0.36987945  0.87572278  1
  Fe  Fe10  1  0.37323211  0.37265959  0.37280369  1
  Fe  Fe11  1  0.87486529  0.62375226  0.37605355  1
  Fe  Fe12  1  0.12599687  0.87600852  0.62441606  1
  Fe  Fe13  1  0.74952011  0.49891937  0.49892735  1
  Fe  Fe14  1  0.25189676  0.75222571  0.50002909  1
  Fe  Fe15  1  0.62547517  0.12527515  0.12522352  1
  Fe  Fe16  1  0.12512344  0.87347735  0.87560979  1
  Fe  Fe17  1  0.24644068  0.00017264  0.25378743  1
  Fe  Fe18  1  0.37419269  0.62384319  0.62461864  1
  Fe  Fe19  1  0.00023104  0.24849501  0.74921614  1
  Fe  Fe20  1  0.12389678  0.62814581  0.37717253  1
  Fe  Fe21  1  0.87773588  0.12561121  0.37657362  1
  Fe  Fe22  1  0.75175773  -0.00085053  -0.00027226  1
  Fe  Fe23  1  0.75101620  0.75114573  0.24686248  1
  Fe  Fe24  1  -0.00069894  0.74870721  0.24651056  1
  Fe  Fe25  1  0.25321833  -0.00113166  0.75242835  1
  Fe  Fe26  1  0.62689709  0.62178241  0.12389288  1
  Fe  Fe27  1  0.12794680  0.61882338  0.12080058  1
  Fe  Fe28  1  0.49702286  0.25086463  0.24499132  1
  Fe  Fe29  1  0.62038253  0.87901093  0.62430819  1
  Fe  Fe30  1  0.12527712  0.37142626  0.37469050  1
  Fe  Fe31  1  0.74853830  0.49768026  0.24993945  1
  Fe  Fe32  1  0.25159767  0.75052099  0.00202985  1
  Fe  Fe33  1  0.12308703  0.37752920  0.62400353  1
  Fe  Fe34  1  0.75104332  0.49944402  0.75323212  1
  Fe  Fe35  1  0.87716122  0.37442043  0.37501181  1
  Fe  Fe36  1  0.62435734  0.62374988  0.62583436  1
  Fe  Fe37  1  0.12249853  0.37346936  0.87945432  1
  Fe  Fe38  1  0.24861276  -0.00095998  0.49575809  1
  Fe  Fe39  1  0.37743532  0.12246667  0.62468696  1
  Fe  Fe40  1  0.74959198  0.75144752  0.74894555  1
  Fe  Fe41  1  0.24851756  0.50034283  0.49753734  1
  Fe  Fe42  1  0.12407968  0.12372845  0.12416846  1
  Fe  Fe43  1  0.87368152  0.87800496  0.62479637  1
  Fe  Fe44  1  0.62446208  0.37036735  0.37402306  1
  Fe  Fe45  1  0.62405147  0.37434855  0.62572913  1
  Fe  Fe46  1  0.62603913  0.87834267  0.12649187  1
  Fe  Fe47  1  0.49777679  0.00324332  -0.00436903  1
  Fe  Fe48  1  0.62515459  0.62714562  0.37520090  1
  Fe  Fe49  1  0.62390115  0.37066790  0.87506312  1
  Fe  Fe50  1  0.50057664  0.75033528  0.24877759  1
  Fe  Fe51  1  0.87660451  0.12236910  0.12404062  1
  Fe  Fe52  1  0.37593078  0.62683045  0.37494116  1
  Fe  Fe53  1  0.75310749  0.25359768  0.00160616  1
  Fe  Fe54  1  0.75260841  0.24948677  0.24778299  1
  Fe  Fe55  1  0.00280038  0.25114613  0.24672070  1
  Fe  Fe56  1  0.49797898  0.75251128  0.74868644  1
  Fe  Fe57  1  -0.00027605  0.74712502  0.74839890  1
  Fe  Fe58  1  0.00111369  0.50545418  0.75316483  1
  Fe  Fe59  1  0.37362622  0.62039674  0.12519065  1
  Fe  Fe60  1  0.50092749  0.49930153  0.25072029  1
  Fe  Fe61  1  0.37451804  0.37518090  0.62426900  1
  Fe  Fe62  1  0.74592846  0.00228398  0.49652572  1
  Fe  Fe63  1  0.87581117  0.87437654  0.87567454  1
  Fe  Fe64  1  0.12366055  0.87668185  0.12436966  1
  Fe  Fe65  1  0.62389024  0.87609999  0.87452162  1
  Fe  Fe66  1  0.87597827  0.12330136  0.62450680  1
  Fe  Fe67  1  0.25369196  0.24976390  0.00668318  1
  Fe  Fe68  1  0.50072774  0.49689149  0.00082298  1
  Fe  Fe69  1  0.50472271  -0.00034675  0.25575027  1
  Fe  Fe70  1  0.50012981  0.75093555  0.00277137  1
  Fe  Fe71  1  0.50026194  0.49895358  0.49869146  1
  Fe  Fe72  1  0.74919360  0.74878729  0.50216306  1
  Fe  Fe73  1  0.12648718  0.12717302  0.87688846  1
  Fe  Fe74  1  0.62564354  0.12866198  0.87274225  1
  Fe  Fe75  1  0.24901711  0.50019438  0.75374751  1
  Fe  Fe76  1  0.12358833  0.12293612  0.62279138  1
  Fe  Fe77  1  0.24886002  0.24844172  0.50015605  1
  Fe  Fe78  1  0.87766064  0.37808134  0.62632381  1
  Fe  Fe79  1  0.74941369  0.75198545  0.00169845  1
  Fe  Fe80  1  -0.00080132  0.74855433  0.00118491  1
  Fe  Fe81  1  0.00015719  -0.00153938  0.25141483  1
  Fe  Fe82  1  0.37561070  0.12682499  0.37389901  1
  Fe  Fe83  1  0.87437800  0.12654631  0.87414946  1
  Fe  Fe84  1  0.62582340  0.62522397  0.87568887  1
  Fe  Fe85  1  0.24950451  0.74985231  0.24854483  1
  Fe  Fe86  1  0.37584333  0.62696612  0.87581062  1
  Fe  Fe87  1  -0.00161348  0.74954791  0.50287130  1
  Fe  Fe88  1  0.75078259  0.25030972  0.50249048  1
  Fe  Fe89  1  0.49871890  0.49827910  0.75090164  1
  Co  Co90  1  0.74977564  -0.00043943  0.75051657  1
  Co  Co91  1  0.37547524  0.87375625  0.37309468  1
  Co  Co92  1  0.75145022  0.25069192  0.74692336  1
  Co  Co93  1  0.37712810  0.87968575  0.62208438  1
  Co  Co94  1  0.12661612  0.62716413  0.87733233  1
  Co  Co95  1  0.75020313  0.00191494  0.25191683  1
  Co  Co96  1  0.62839147  0.87010618  0.37422017  1
  Co  Co97  1  0.50297114  0.00098134  0.49318592  1
  Co  Co98  1  0.49600383  0.00067821  0.75592792  1
  Co  Co99  1  0.12148282  0.12749187  0.37669303  1
  Co  Co100  1  0.62451782  0.13312400  0.37295574  1
  Co  Co101  1  0.24724368  0.50182322  0.25469874  1
  Co  Co102  1  0.12765370  0.62469977  0.62427196  1
  Co  Co103  1  0.37262857  0.13105530  0.87347115  1
  Co  Co104  1  0.12775294  0.37856777  0.12288964  1
  Co  Co105  1  0.74961679  0.49489588  -0.00221429  1
  Co  Co106  1  0.49715857  0.24882545  0.00450724  1
  Co  Co107  1  0.87664364  0.37751001  0.12626397  1
  Co  Co108  1  0.24882774  0.24695270  0.24706571  1
  Co  Co109  1  -0.00105118  0.24990100  0.00254325  1
  Co  Co110  1  0.49901988  0.24945678  0.74756781  1
  Co  Co111  1  -0.00054779  0.25101422  0.50268571  1
  Co  Co112  1  0.62549571  0.37364565  0.12599607  1
  Co  Co113  1  0.87317130  0.62219326  0.62531182  1
  Co  Co114  1  0.49879169  0.25085509  0.50195721  1
  Co  Co115  1  0.87829708  0.37368829  0.87271273  1
  Co  Co116  1  0.25332021  0.49821906  -0.00581083  1
  Co  Co117  1  0.37431789  0.87227217  0.87758086  1
  Co  Co118  1  0.37140316  0.38015194  0.12842137  1
  Co  Co119  1  0.00127931  0.50097739  0.49850889  1
  Co  Co120  1  -0.00296641  0.50018675  -0.00150258  1
  Co  Co121  1  0.87591967  0.87779025  0.12473699  1
  Co  Co122  1  0.87146813  0.62767636  0.87640430  1
  Co  Co123  1  0.00086711  -0.00237858  0.49919919  1
  Co  Co124  1  0.50000773  0.74981415  0.50083280  1
  Co  Co125  1  0.00048904  0.00059287  -0.00295369  1
  Co  Co126  1  0.37628238  0.11846478  0.12873602  1
  Co  Co127  1  0.12251753  0.87146930  0.37467962  1
