# generated using pymatgen
data_Fe45Co19
_symmetry_space_group_name_H-M   'P 1'
_cell_length_a   11.41613520
_cell_length_b   11.41503469
_cell_length_c   11.41641441
_cell_angle_alpha   89.99133299
_cell_angle_beta   90.00290380
_cell_angle_gamma   89.99707297
_symmetry_Int_Tables_number   1
_chemical_formula_structural   Fe45Co19
_chemical_formula_sum   'Fe90 Co38'
_cell_volume   1487.73663743
_cell_formula_units_Z   2
loop_
 _symmetry_equiv_pos_site_id
 _symmetry_equiv_pos_as_xyz
  1  'x, y, z'
loop_
 _atom_site_type_symbol
 _atom_site_label
 _atom_site_symmetry_multiplicity
 _atom_site_fract_x
 _atom_site_fract_y
 _atom_site_fract_z
 _atom_site_occupancy
  Fe  Fe0  1  0.74866902  0.75044745  0.49894512  1
  Fe  Fe1  1  0.62440283  0.12784033  0.12839794  1
  Fe  Fe2  1  0.24910321  0.25169011  0.74788846  1
  Fe  Fe3  1  0.24926842  0.50129882  0.50171060  1
  Fe  Fe4  1  0.25098427  0.24882549  0.25347265  1
  Fe  Fe5  1  0.37278458  0.63018062  0.62425644  1
  Fe  Fe6  1  0.00073182  0.74765695  0.25211664  1
  Fe  Fe7  1  0.49868069  0.49815513  0.74836824  1
  Fe  Fe8  1  -0.00003525  0.49795715  0.74495167  1
  Fe  Fe9  1  0.75106598  0.25478090  0.75327329  1
  Fe  Fe10  1  0.25343873  -0.00364107  0.50182877  1
  Fe  Fe11  1  0.37315241  0.62258233  0.87419184  1
  Fe  Fe12  1  0.12283253  0.87509800  0.87390570  1
  Fe  Fe13  1  0.24764436  0.25000803  -0.00086636  1
  Fe  Fe14  1  0.87439354  0.12741111  0.62458081  1
  Fe  Fe15  1  0.87043924  0.62595614  0.62656634  1
  Fe  Fe16  1  0.24782151  -0.00054602  0.00113480  1
  Fe  Fe17  1  0.12400595  0.12503595  0.87352184  1
  Fe  Fe18  1  0.37753700  0.12681571  0.62550385  1
  Fe  Fe19  1  0.12519986  0.37589820  0.37711302  1
  Fe  Fe20  1  0.87664808  0.87518013  0.12557972  1
  Fe  Fe21  1  0.75005468  0.00054889  -0.00046014  1
  Fe  Fe22  1  0.37162973  0.37537432  0.12424139  1
  Fe  Fe23  1  0.62257715  0.12645403  0.87297680  1
  Fe  Fe24  1  0.50009754  0.75013589  0.75192218  1
  Fe  Fe25  1  0.87769762  0.12280997  0.37500924  1
  Fe  Fe26  1  0.87607152  0.12638768  0.12458247  1
  Fe  Fe27  1  0.37330281  0.62720511  0.37633537  1
  Fe  Fe28  1  0.37501694  0.12440882  0.87331499  1
  Fe  Fe29  1  0.62527293  0.62463010  0.37455316  1
  Fe  Fe30  1  0.75063230  0.75034934  0.25150598  1
  Fe  Fe31  1  0.62630417  0.62342622  0.87353930  1
  Fe  Fe32  1  0.87564019  0.87263432  0.62622894  1
  Fe  Fe33  1  0.62695082  0.37347804  0.12581312  1
  Fe  Fe34  1  0.74913293  0.50021264  0.49925014  1
  Fe  Fe35  1  0.12593467  0.62429001  0.12601432  1
  Fe  Fe36  1  0.00057815  0.50179344  0.50187516  1
  Fe  Fe37  1  0.62314592  0.87592907  0.87734901  1
  Fe  Fe38  1  0.12547144  0.37604978  0.87405431  1
  Fe  Fe39  1  0.37511196  0.37469574  0.37757670  1
  Fe  Fe40  1  0.62330755  0.37286912  0.37247138  1
  Fe  Fe41  1  0.00110823  0.49598133  0.00389262  1
  Fe  Fe42  1  0.00168277  0.74845197  0.49960412  1
  Fe  Fe43  1  0.25107787  -0.00384915  0.74665727  1
  Fe  Fe44  1  0.87439298  0.62314522  0.87156943  1
  Fe  Fe45  1  0.49985350  0.74934212  0.25059536  1
  Fe  Fe46  1  0.49855714  0.24929493  0.00034442  1
  Fe  Fe47  1  0.37401950  0.37585258  0.87587142  1
  Fe  Fe48  1  0.75005982  -0.00179591  0.75069937  1
  Fe  Fe49  1  0.12303856  0.87791410  0.37598139  1
  Fe  Fe50  1  -0.00020539  0.25201843  0.24934085  1
  Fe  Fe51  1  0.87666163  0.87559666  0.37496539  1
  Fe  Fe52  1  0.00024141  -0.00101165  0.74707902  1
  Fe  Fe53  1  0.50047200  0.50103799  0.50060841  1
  Fe  Fe54  1  0.62283741  0.87366383  0.12246202  1
  Fe  Fe55  1  0.37770186  0.87735178  0.87700362  1
  Fe  Fe56  1  0.74885866  0.00103969  0.25057754  1
  Fe  Fe57  1  0.87498834  0.62370795  0.12664631  1
  Fe  Fe58  1  0.75171683  0.50089070  0.25048810  1
  Fe  Fe59  1  0.75253645  0.75047142  -0.00259731  1
  Fe  Fe60  1  0.49876060  0.50203797  0.00272638  1
  Fe  Fe61  1  0.37678996  0.87394808  0.12306808  1
  Fe  Fe62  1  0.75223376  0.25249004  -0.00261411  1
  Fe  Fe63  1  0.00072759  0.25280061  0.74614426  1
  Fe  Fe64  1  0.12492856  0.12519116  0.62147529  1
  Fe  Fe65  1  0.12924201  0.62926657  0.62733011  1
  Fe  Fe66  1  0.37486134  0.12385662  0.12519694  1
  Fe  Fe67  1  0.25067056  -0.00193329  0.24992124  1
  Fe  Fe68  1  0.62321483  0.12644634  0.62596550  1
  Fe  Fe69  1  0.62170587  0.87752810  0.37611061  1
  Fe  Fe70  1  0.87614248  0.37747403  0.37522045  1
  Fe  Fe71  1  -0.00081780  0.74966894  -0.00155085  1
  Fe  Fe72  1  0.00126443  0.00009486  0.00209358  1
  Fe  Fe73  1  0.62717796  0.62511635  0.62696351  1
  Fe  Fe74  1  0.12293971  0.12233536  0.37746803  1
  Fe  Fe75  1  0.49863455  0.50037889  0.24897259  1
  Fe  Fe76  1  0.87816439  0.12559281  0.87513892  1
  Fe  Fe77  1  0.24986236  0.74830140  -0.00130980  1
  Fe  Fe78  1  0.24867319  0.75121548  0.25149882  1
  Fe  Fe79  1  0.12546907  0.12588823  0.12621526  1
  Fe  Fe80  1  0.74965435  0.00157228  0.49935810  1
  Fe  Fe81  1  0.38042839  0.12376181  0.37517771  1
  Fe  Fe82  1  0.74887039  0.24859971  0.49606200  1
  Fe  Fe83  1  0.12590276  0.62275019  0.87244763  1
  Fe  Fe84  1  0.24958053  0.50115323  0.24974382  1
  Fe  Fe85  1  0.62595167  0.37429841  0.62567268  1
  Fe  Fe86  1  0.62155399  0.87465866  0.62450913  1
  Fe  Fe87  1  0.75093701  0.49809953  -0.00229552  1
  Fe  Fe88  1  0.62576714  0.62630147  0.12475764  1
  Fe  Fe89  1  0.37328347  0.37291909  0.62275379  1
  Co  Co90  1  0.49839361  0.00121950  0.50236473  1
  Co  Co91  1  -0.00091781  0.25070255  0.49907865  1
  Co  Co92  1  0.12451533  0.87264447  0.12480697  1
  Co  Co93  1  0.61978786  0.12456455  0.37307008  1
  Co  Co94  1  0.12432501  0.87262323  0.62569596  1
  Co  Co95  1  0.37301772  0.62647543  0.12742639  1
  Co  Co96  1  0.75265798  0.24792919  0.25355869  1
  Co  Co97  1  0.87729257  0.87773619  0.87465135  1
  Co  Co98  1  -0.00060255  0.74870907  0.75095377  1
  Co  Co99  1  0.49863139  0.25261652  0.74990562  1
  Co  Co100  1  0.50015223  -0.00176594  0.24761258  1
  Co  Co101  1  0.37814558  0.86948535  0.62353173  1
  Co  Co102  1  0.49945367  -0.00048091  0.74973436  1
  Co  Co103  1  0.12948228  0.37440362  0.12773700  1
  Co  Co104  1  0.49894545  0.74568994  -0.00114827  1
  Co  Co105  1  0.75015329  0.49566980  0.75214877  1
  Co  Co106  1  0.62078382  0.37596129  0.87669795  1
  Co  Co107  1  0.49683981  0.25232827  0.24866627  1
  Co  Co108  1  0.50202342  0.74734805  0.49819448  1
  Co  Co109  1  -0.00203613  -0.00097503  0.50358270  1
  Co  Co110  1  0.12762000  0.37313829  0.62083117  1
  Co  Co111  1  0.24741659  0.75394042  0.49787629  1
  Co  Co112  1  0.87183162  0.37475120  0.12607321  1
  Co  Co113  1  0.87999133  0.37548117  0.87448269  1
  Co  Co114  1  0.12663699  0.62306206  0.37538237  1
  Co  Co115  1  0.00038294  0.49959204  0.24935441  1
  Co  Co116  1  0.24905919  0.50162977  0.00062700  1
  Co  Co117  1  0.50135988  0.00458427  0.00083044  1
  Co  Co118  1  0.25082449  0.49796636  0.74765662  1
  Co  Co119  1  0.25097461  0.24687116  0.49804581  1
  Co  Co120  1  0.87402067  0.62455104  0.37603906  1
  Co  Co121  1  0.00062960  0.00076044  0.24718162  1
  Co  Co122  1  0.25159718  0.75337339  0.75402005  1
  Co  Co123  1  0.74902588  0.75324043  0.75229925  1
  Co  Co124  1  0.87186461  0.37436180  0.62219787  1
  Co  Co125  1  0.00226383  0.25226121  0.00270339  1
  Co  Co126  1  0.50142818  0.25078141  0.50030398  1
  Co  Co127  1  0.37715334  0.87353745  0.37521866  1
