# generated using pymatgen
data_Fe45Co19
_symmetry_space_group_name_H-M   'P 1'
_cell_length_a   11.41492830
_cell_length_b   11.41604620
_cell_length_c   11.41641821
_cell_angle_alpha   90.00200457
_cell_angle_beta   89.99690981
_cell_angle_gamma   89.99666154
_symmetry_Int_Tables_number   1
_chemical_formula_structural   Fe45Co19
_chemical_formula_sum   'Fe90 Co38'
_cell_volume   1487.71168232
_cell_formula_units_Z   2
loop_
 _symmetry_equiv_pos_site_id
 _symmetry_equiv_pos_as_xyz
  1  'x, y, z'
loop_
 _atom_site_type_symbol
 _atom_site_label
 _atom_site_symmetry_multiplicity
 _atom_site_fract_x
 _atom_site_fract_y
 _atom_site_fract_z
 _atom_site_occupancy
  Fe  Fe0  1  0.62283460  0.87739735  0.87605963  1
  Fe  Fe1  1  0.11963454  0.12186425  0.87410149  1
  Fe  Fe2  1  0.00124112  0.74865502  0.50003730  1
  Fe  Fe3  1  0.37220367  0.87582650  0.62645436  1
  Fe  Fe4  1  0.62644575  0.87456723  0.62348124  1
  Fe  Fe5  1  0.87577262  0.37194409  0.87666561  1
  Fe  Fe6  1  -0.00073801  0.00156900  0.24810328  1
  Fe  Fe7  1  0.62482654  0.87410940  0.37457910  1
  Fe  Fe8  1  0.37412830  0.87532232  0.12330158  1
  Fe  Fe9  1  0.62637590  0.37445025  0.12172704  1
  Fe  Fe10  1  0.37503483  0.87564420  0.37614421  1
  Fe  Fe11  1  0.50041072  0.24903295  0.00049998  1
  Fe  Fe12  1  0.62404069  0.62126948  0.87812947  1
  Fe  Fe13  1  0.37667455  0.62573947  0.87675610  1
  Fe  Fe14  1  0.12721521  0.87708447  0.62720860  1
  Fe  Fe15  1  0.62631471  0.12763444  0.37608932  1
  Fe  Fe16  1  0.62262374  0.62535996  0.37532086  1
  Fe  Fe17  1  0.62609170  0.37364675  0.37411918  1
  Fe  Fe18  1  0.12401855  0.87651783  0.37420241  1
  Fe  Fe19  1  0.74799173  0.25045183  0.75290938  1
  Fe  Fe20  1  0.12297959  0.61961213  0.37264164  1
  Fe  Fe21  1  0.49642848  0.50038824  0.24677221  1
  Fe  Fe22  1  0.62564770  0.12443422  0.62570477  1
  Fe  Fe23  1  0.12704486  0.12623796  0.12382764  1
  Fe  Fe24  1  0.74875567  0.49893593  0.75380694  1
  Fe  Fe25  1  0.49784839  0.00225592  0.24896909  1
  Fe  Fe26  1  0.62462285  0.37544043  0.62794448  1
  Fe  Fe27  1  0.00020833  0.00033764  0.50109550  1
  Fe  Fe28  1  0.87194191  0.37125953  0.12248313  1
  Fe  Fe29  1  0.25010439  0.25110169  0.49797709  1
  Fe  Fe30  1  0.00094727  0.49803383  0.74983286  1
  Fe  Fe31  1  0.25043887  0.74873328  0.25065154  1
  Fe  Fe32  1  0.87587587  0.62609887  0.87833515  1
  Fe  Fe33  1  0.87558805  0.62470889  0.62674993  1
  Fe  Fe34  1  0.50111333  0.75014754  0.00245078  1
  Fe  Fe35  1  0.12356566  0.37548266  0.87477467  1
  Fe  Fe36  1  0.75143839  0.74836564  0.49751782  1
  Fe  Fe37  1  0.49831568  0.24903987  0.24874888  1
  Fe  Fe38  1  0.12481232  0.12566175  0.37514962  1
  Fe  Fe39  1  0.00010869  0.25356052  0.25034852  1
  Fe  Fe40  1  -0.00008751  0.74901079  0.24668527  1
  Fe  Fe41  1  0.24988822  0.50084761  0.75212576  1
  Fe  Fe42  1  0.12662619  0.87809385  0.12383568  1
  Fe  Fe43  1  0.62719297  0.87622590  0.12580289  1
  Fe  Fe44  1  0.75231002  0.00148688  0.49808365  1
  Fe  Fe45  1  0.87895709  0.61968910  0.37447485  1
  Fe  Fe46  1  0.75123336  0.00036965  0.75049087  1
  Fe  Fe47  1  0.25383662  0.49810599  0.24761650  1
  Fe  Fe48  1  0.24711071  0.75060872  0.75518781  1
  Fe  Fe49  1  0.12536967  0.62289590  0.12402251  1
  Fe  Fe50  1  0.00137541  0.25543862  0.49891644  1
  Fe  Fe51  1  0.37445690  0.37566770  0.62675392  1
  Fe  Fe52  1  0.87395944  0.37466223  0.62557441  1
  Fe  Fe53  1  0.75185064  0.00008731  -0.00005842  1
  Fe  Fe54  1  0.62536462  0.12462470  0.12419304  1
  Fe  Fe55  1  -0.00001498  0.75403393  0.00121940  1
  Fe  Fe56  1  0.50088916  0.74938527  0.74849313  1
  Fe  Fe57  1  0.49942981  0.24998531  0.50173364  1
  Fe  Fe58  1  0.25036384  0.24884154  -0.00311255  1
  Fe  Fe59  1  0.62051491  0.12374664  0.87353935  1
  Fe  Fe60  1  0.75210013  0.00345959  0.25159853  1
  Fe  Fe61  1  0.12428633  0.62353648  0.62684608  1
  Fe  Fe62  1  0.24818901  0.49855295  0.49982609  1
  Fe  Fe63  1  0.12565015  0.12520578  0.62699901  1
  Fe  Fe64  1  0.87558617  0.12815686  0.62450622  1
  Fe  Fe65  1  0.37323464  0.12278324  0.62708495  1
  Fe  Fe66  1  0.74860981  0.74974054  0.75385391  1
  Fe  Fe67  1  0.25189378  0.00185970  0.25137838  1
  Fe  Fe68  1  0.24994252  0.24866615  0.75261477  1
  Fe  Fe69  1  0.74991959  0.49948084  0.50032685  1
  Fe  Fe70  1  0.87852743  0.12434581  0.87482871  1
  Fe  Fe71  1  0.49948090  0.50072618  0.50045586  1
  Fe  Fe72  1  0.24880336  0.74950588  0.49754140  1
  Fe  Fe73  1  0.25437301  0.00171975  -0.00495108  1
  Fe  Fe74  1  0.75218682  0.74739606  0.24964237  1
  Fe  Fe75  1  0.62750301  0.62427822  0.12229604  1
  Fe  Fe76  1  0.62560288  0.62589366  0.62406713  1
  Fe  Fe77  1  0.00214550  0.75142009  0.75344358  1
  Fe  Fe78  1  0.87459682  0.12788752  0.12411315  1
  Fe  Fe79  1  0.25193610  0.49830751  0.00039553  1
  Fe  Fe80  1  0.37419355  0.62597511  0.62411124  1
  Fe  Fe81  1  0.37983332  0.37491693  0.87398113  1
  Fe  Fe82  1  0.24744787  0.75127387  -0.00279159  1
  Fe  Fe83  1  0.75196156  0.49963809  0.24721180  1
  Fe  Fe84  1  0.87364087  0.87279094  0.62656502  1
  Fe  Fe85  1  0.25229667  0.25142226  0.25166844  1
  Fe  Fe86  1  0.49765890  0.74809136  0.24936493  1
  Fe  Fe87  1  0.49912278  0.00003260  0.50045879  1
  Fe  Fe88  1  0.87625346  0.87545794  0.37311466  1
  Fe  Fe89  1  -0.00040424  0.49700286  0.00343981  1
  Co  Co90  1  0.12126081  0.88094378  0.87584272  1
  Co  Co91  1  0.00165830  0.49646910  0.50377395  1
  Co  Co92  1  0.74902917  0.25150452  0.50179553  1
  Co  Co93  1  0.24868329  0.00070816  0.49843429  1
  Co  Co94  1  0.37857234  0.87225951  0.87508131  1
  Co  Co95  1  0.37578249  0.12559008  0.37561153  1
  Co  Co96  1  0.49785247  0.00049806  0.00210470  1
  Co  Co97  1  -0.00115361  -0.00082401  0.74539807  1
  Co  Co98  1  0.87623171  0.87628231  0.87435890  1
  Co  Co99  1  0.25127653  0.00095234  0.75576743  1
  Co  Co100  1  0.37252635  0.62705299  0.12238054  1
  Co  Co101  1  0.38096828  0.12674901  0.87317921  1
  Co  Co102  1  0.74989900  0.24967746  0.24869348  1
  Co  Co103  1  0.87270150  0.37654463  0.37515290  1
  Co  Co104  1  0.49990347  0.50252664  0.74849825  1
  Co  Co105  1  0.37692036  0.37484645  0.37579309  1
  Co  Co106  1  0.00077055  0.25160263  0.75009112  1
  Co  Co107  1  -0.00285803  0.49589860  0.24367697  1
  Co  Co108  1  0.12783534  0.37368122  0.62831661  1
  Co  Co109  1  0.87140016  0.87476972  0.12691763  1
  Co  Co110  1  -0.00271578  -0.00073952  0.00500073  1
  Co  Co111  1  0.37486990  0.37112849  0.12290129  1
  Co  Co112  1  0.37298249  0.12640323  0.12419553  1
  Co  Co113  1  0.87462672  0.62622446  0.12057087  1
  Co  Co114  1  0.12832442  0.37336769  0.12418908  1
  Co  Co115  1  0.12581568  0.37819513  0.37232421  1
  Co  Co116  1  0.00226067  0.25028567  0.00143031  1
  Co  Co117  1  0.75064236  0.49698237  -0.00149124  1
  Co  Co118  1  0.74899446  0.75241810  -0.00152004  1
  Co  Co119  1  0.74758046  0.24774463  -0.00402647  1
  Co  Co120  1  0.12251400  0.62197047  0.87792222  1
  Co  Co121  1  0.37476499  0.62381292  0.37595587  1
  Co  Co122  1  0.49877302  -0.00228068  0.74806267  1
  Co  Co123  1  0.49875462  0.75103545  0.50043544  1
  Co  Co124  1  0.49786939  0.49988895  0.00314170  1
  Co  Co125  1  0.61983883  0.37572942  0.87546630  1
  Co  Co126  1  0.50075849  0.25002013  0.74704555  1
  Co  Co127  1  0.87595727  0.12882411  0.37628548  1
