# generated using pymatgen
data_Fe45Co19
_symmetry_space_group_name_H-M   'P 1'
_cell_length_a   11.41509638
_cell_length_b   11.41452977
_cell_length_c   11.41434588
_cell_angle_alpha   90.00609099
_cell_angle_beta   90.00654716
_cell_angle_gamma   89.99474698
_symmetry_Int_Tables_number   1
_chemical_formula_structural   Fe45Co19
_chemical_formula_sum   'Fe90 Co38'
_cell_volume   1487.26593013
_cell_formula_units_Z   2
loop_
 _symmetry_equiv_pos_site_id
 _symmetry_equiv_pos_as_xyz
  1  'x, y, z'
loop_
 _atom_site_type_symbol
 _atom_site_label
 _atom_site_symmetry_multiplicity
 _atom_site_fract_x
 _atom_site_fract_y
 _atom_site_fract_z
 _atom_site_occupancy
  Fe  Fe0  1  -0.00161431  0.50180454  0.49944332  1
  Fe  Fe1  1  0.25079187  -0.00038021  0.50125652  1
  Fe  Fe2  1  0.49983998  0.00264348  0.49890380  1
  Fe  Fe3  1  0.74717295  0.50067175  0.24575630  1
  Fe  Fe4  1  0.62609221  0.37545657  0.87704228  1
  Fe  Fe5  1  0.74981090  -0.00113367  0.24894171  1
  Fe  Fe6  1  0.38035229  0.62969401  0.12861574  1
  Fe  Fe7  1  0.88142462  0.12323184  0.86914453  1
  Fe  Fe8  1  0.75260423  0.00195007  -0.00070668  1
  Fe  Fe9  1  0.12676593  0.37830840  0.87789080  1
  Fe  Fe10  1  0.12630409  0.37359218  0.62187743  1
  Fe  Fe11  1  0.62303464  0.62729069  0.62553726  1
  Fe  Fe12  1  0.00314770  0.75083874  0.25573394  1
  Fe  Fe13  1  0.62747842  0.87740518  0.37779272  1
  Fe  Fe14  1  0.74689452  0.75297176  0.75024617  1
  Fe  Fe15  1  0.25135476  0.49925442  0.24672905  1
  Fe  Fe16  1  0.74790343  0.24669396  0.49838924  1
  Fe  Fe17  1  0.24840649  0.25077858  0.00184732  1
  Fe  Fe18  1  0.25144054  0.74874992  0.00135053  1
  Fe  Fe19  1  0.37091880  0.87495865  0.37252411  1
  Fe  Fe20  1  0.24615429  0.24920112  0.75159181  1
  Fe  Fe21  1  0.87355062  0.62411276  0.87365131  1
  Fe  Fe22  1  0.87521573  0.87271151  0.12586385  1
  Fe  Fe23  1  0.74951382  0.24960332  0.25239006  1
  Fe  Fe24  1  0.74633963  0.75066302  0.24791840  1
  Fe  Fe25  1  0.87455212  0.62665366  0.62609271  1
  Fe  Fe26  1  0.12581467  0.37696457  0.37539235  1
  Fe  Fe27  1  0.50047409  -0.00354567  0.24762741  1
  Fe  Fe28  1  0.75010995  0.74642508  0.00264890  1
  Fe  Fe29  1  0.62496151  0.12516242  0.87335753  1
  Fe  Fe30  1  0.49809345  0.74985705  0.49764769  1
  Fe  Fe31  1  0.49900282  0.49843944  0.00423138  1
  Fe  Fe32  1  0.49919936  0.50025240  0.49910789  1
  Fe  Fe33  1  0.75071293  0.75137040  0.50046721  1
  Fe  Fe34  1  0.50126502  -0.00021327  0.75125331  1
  Fe  Fe35  1  0.50281463  0.25175583  0.25398598  1
  Fe  Fe36  1  0.37367800  0.62103382  0.87450427  1
  Fe  Fe37  1  0.00266113  0.49976656  0.74741310  1
  Fe  Fe38  1  0.87365932  0.62615261  0.37419465  1
  Fe  Fe39  1  0.24556475  0.00186916  0.74845828  1
  Fe  Fe40  1  0.75312763  0.24911609  -0.00283317  1
  Fe  Fe41  1  0.12462778  0.87440878  0.12416637  1
  Fe  Fe42  1  0.37625251  0.37248308  0.62544816  1
  Fe  Fe43  1  0.37514945  0.87732060  0.87780840  1
  Fe  Fe44  1  0.87787528  0.12551536  0.12466239  1
  Fe  Fe45  1  0.62302285  0.37135914  0.62448211  1
  Fe  Fe46  1  0.87418021  0.37430216  0.12491758  1
  Fe  Fe47  1  0.62497646  0.12561876  0.12500946  1
  Fe  Fe48  1  -0.00179214  0.24836395  0.50001795  1
  Fe  Fe49  1  0.62574280  0.62296270  0.87722820  1
  Fe  Fe50  1  0.12094270  0.12655642  0.12238828  1
  Fe  Fe51  1  0.25232384  0.74850266  0.74967194  1
  Fe  Fe52  1  0.87624113  0.37642639  0.87273806  1
  Fe  Fe53  1  0.25323866  0.50305300  0.50140800  1
  Fe  Fe54  1  0.37620053  0.87378827  0.62578666  1
  Fe  Fe55  1  0.87476535  0.37175163  0.62662157  1
  Fe  Fe56  1  0.00010304  0.25106393  0.25192771  1
  Fe  Fe57  1  0.12712454  0.62277658  0.87572775  1
  Fe  Fe58  1  0.00056923  -0.00279735  0.50258214  1
  Fe  Fe59  1  0.37613827  0.37383500  0.37426978  1
  Fe  Fe60  1  0.37281751  0.12406475  0.87440779  1
  Fe  Fe61  1  0.87312814  0.87743667  0.62611860  1
  Fe  Fe62  1  0.37534580  0.12737449  0.62583133  1
  Fe  Fe63  1  0.49973647  0.49863429  0.74900340  1
  Fe  Fe64  1  -0.00028901  0.75019850  -0.00088448  1
  Fe  Fe65  1  0.62368081  0.62339494  0.37288173  1
  Fe  Fe66  1  0.12306067  0.62399397  0.12573527  1
  Fe  Fe67  1  -0.00242662  0.50062081  0.00121876  1
  Fe  Fe68  1  0.62369914  0.87630030  0.88024544  1
  Fe  Fe69  1  0.12503200  0.12305354  0.37624504  1
  Fe  Fe70  1  0.49878742  0.24875064  -0.00213127  1
  Fe  Fe71  1  0.37530462  0.62706194  0.37026747  1
  Fe  Fe72  1  0.74853603  0.49870820  0.74864389  1
  Fe  Fe73  1  0.62551373  0.12585135  0.62781680  1
  Fe  Fe74  1  0.00039408  0.75103597  0.74944193  1
  Fe  Fe75  1  0.37655713  0.12648417  0.12706445  1
  Fe  Fe76  1  0.12470180  0.87680212  0.87435927  1
  Fe  Fe77  1  0.25276987  0.24802743  0.49633937  1
  Fe  Fe78  1  0.87213746  0.37619864  0.37579146  1
  Fe  Fe79  1  0.25006881  0.00065152  0.00242396  1
  Fe  Fe80  1  0.12528143  0.62907663  0.62172487  1
  Fe  Fe81  1  0.74940782  0.50059750  0.50204923  1
  Fe  Fe82  1  0.24898335  -0.00035773  0.24745333  1
  Fe  Fe83  1  0.87661079  0.87690771  0.87328767  1
  Fe  Fe84  1  0.24741382  0.24995258  0.24985633  1
  Fe  Fe85  1  0.37143001  0.37745002  0.87485016  1
  Fe  Fe86  1  0.87443448  0.12116544  0.37658932  1
  Fe  Fe87  1  -0.00053551  0.49993708  0.25180712  1
  Fe  Fe88  1  0.50025315  0.75049380  0.75296775  1
  Fe  Fe89  1  0.00042145  -0.00195119  0.25066449  1
  Co  Co90  1  0.74676474  -0.00225272  0.75190220  1
  Co  Co91  1  0.12181838  0.12324796  0.88012368  1
  Co  Co92  1  0.62495100  0.12138661  0.37188733  1
  Co  Co93  1  0.61937858  0.62608655  0.12579322  1
  Co  Co94  1  0.12761472  0.86961722  0.62412194  1
  Co  Co95  1  0.25357997  0.74866325  0.49945389  1
  Co  Co96  1  0.50369271  0.75707578  0.25205526  1
  Co  Co97  1  0.87796425  0.62722542  0.12720454  1
  Co  Co98  1  0.37775544  0.62651742  0.62676558  1
  Co  Co99  1  0.49827050  0.74885922  -0.00277491  1
  Co  Co100  1  0.87251515  0.87592862  0.37399635  1
  Co  Co101  1  0.12253665  0.37579548  0.12521443  1
  Co  Co102  1  0.12866728  0.87584057  0.37709563  1
  Co  Co103  1  -0.00190995  -0.00290045  0.00148441  1
  Co  Co104  1  0.50049225  0.49554526  0.24907703  1
  Co  Co105  1  0.50151906  0.24698386  0.49658992  1
  Co  Co106  1  0.62602679  0.37106641  0.12283436  1
  Co  Co107  1  -0.00180351  0.25287675  -0.00078662  1
  Co  Co108  1  0.62210956  0.87440918  0.62299227  1
  Co  Co109  1  0.37452288  0.12340132  0.37158515  1
  Co  Co110  1  0.00601441  0.00166924  0.74452111  1
  Co  Co111  1  0.37715343  0.37001992  0.12608060  1
  Co  Co112  1  0.75067070  0.25064654  0.75226284  1
  Co  Co113  1  0.62672670  0.37731633  0.37620711  1
  Co  Co114  1  -0.00269694  0.75251836  0.49708704  1
  Co  Co115  1  0.12743371  0.62333040  0.37697967  1
  Co  Co116  1  0.37577624  0.87353361  0.12307605  1
  Co  Co117  1  0.87231254  0.12389776  0.62773293  1
  Co  Co118  1  0.49868235  0.00409384  0.00057016  1
  Co  Co119  1  0.49801875  0.25031441  0.75308045  1
  Co  Co120  1  0.75131769  0.50166573  0.00353318  1
  Co  Co121  1  0.24838125  0.50068204  0.74499790  1
  Co  Co122  1  0.62528729  0.87635289  0.11870955  1
  Co  Co123  1  0.00538934  0.24969259  0.74907777  1
  Co  Co124  1  0.24720798  0.75040219  0.24796253  1
  Co  Co125  1  0.74883435  0.00179324  0.50128801  1
  Co  Co126  1  0.12745986  0.12756283  0.62039066  1
  Co  Co127  1  0.25303525  0.50179448  0.00761278  1
