# generated using pymatgen
data_Fe45Co19
_symmetry_space_group_name_H-M   'P 1'
_cell_length_a   11.41465755
_cell_length_b   11.41425846
_cell_length_c   11.41590024
_cell_angle_alpha   89.99937486
_cell_angle_beta   89.99367866
_cell_angle_gamma   89.99689751
_symmetry_Int_Tables_number   1
_chemical_formula_structural   Fe45Co19
_chemical_formula_sum   'Fe90 Co38'
_cell_volume   1487.37593548
_cell_formula_units_Z   2
loop_
 _symmetry_equiv_pos_site_id
 _symmetry_equiv_pos_as_xyz
  1  'x, y, z'
loop_
 _atom_site_type_symbol
 _atom_site_label
 _atom_site_symmetry_multiplicity
 _atom_site_fract_x
 _atom_site_fract_y
 _atom_site_fract_z
 _atom_site_occupancy
  Fe  Fe0  1  -0.00586426  0.24812910  0.50073766  1
  Fe  Fe1  1  0.12450321  0.87526569  0.62495108  1
  Fe  Fe2  1  0.49980478  0.50288704  0.00408633  1
  Fe  Fe3  1  0.75261107  0.24734018  0.50130204  1
  Fe  Fe4  1  0.62512185  0.12619487  0.37522052  1
  Fe  Fe5  1  0.37579028  0.12296461  0.87618300  1
  Fe  Fe6  1  0.24991924  0.75055804  -0.00232510  1
  Fe  Fe7  1  0.62517334  0.37263808  0.62381516  1
  Fe  Fe8  1  0.62650636  0.87230013  0.12068480  1
  Fe  Fe9  1  -0.00196210  0.74780796  0.75116063  1
  Fe  Fe10  1  0.62450015  0.12552870  0.88098264  1
  Fe  Fe11  1  0.74918378  0.50198707  0.00184904  1
  Fe  Fe12  1  -0.00108511  0.25162018  0.00050605  1
  Fe  Fe13  1  0.87316433  0.62333201  0.62643014  1
  Fe  Fe14  1  0.25092543  0.74995249  0.25208106  1
  Fe  Fe15  1  0.25334560  0.75147574  0.49902269  1
  Fe  Fe16  1  0.37865663  0.62388346  0.62577145  1
  Fe  Fe17  1  0.50047511  0.74991139  0.24807811  1
  Fe  Fe18  1  0.62455683  0.12759052  0.11912097  1
  Fe  Fe19  1  0.12368743  0.12394348  0.62417578  1
  Fe  Fe20  1  0.50251932  0.49783949  0.49537875  1
  Fe  Fe21  1  -0.00097709  0.50327742  0.00036839  1
  Fe  Fe22  1  0.12638387  0.62312474  0.87300219  1
  Fe  Fe23  1  0.87113145  0.37640928  0.37396726  1
  Fe  Fe24  1  0.74759707  0.50180268  0.75006186  1
  Fe  Fe25  1  0.75258889  0.74664894  -0.00216673  1
  Fe  Fe26  1  0.37751651  0.12509600  0.37420840  1
  Fe  Fe27  1  0.12530550  0.37656867  0.87352239  1
  Fe  Fe28  1  0.37645614  0.87559604  0.62761583  1
  Fe  Fe29  1  0.12574375  0.62463210  0.62543424  1
  Fe  Fe30  1  0.62399102  0.87221442  0.37582820  1
  Fe  Fe31  1  0.62394003  0.12591135  0.62542148  1
  Fe  Fe32  1  0.25254808  0.74840832  0.75104658  1
  Fe  Fe33  1  0.37836634  0.37378134  0.62555565  1
  Fe  Fe34  1  0.87486299  0.37823604  0.87365999  1
  Fe  Fe35  1  0.37812954  0.37601329  0.12981241  1
  Fe  Fe36  1  -0.00085021  0.74969119  0.49939633  1
  Fe  Fe37  1  0.25279153  0.25081210  0.50016460  1
  Fe  Fe38  1  0.12444570  0.62429300  0.37643144  1
  Fe  Fe39  1  0.37846625  0.12507661  0.62629837  1
  Fe  Fe40  1  0.74355694  0.50478452  0.24947860  1
  Fe  Fe41  1  0.87457427  0.87338870  0.87590341  1
  Fe  Fe42  1  0.00390532  -0.00176021  0.00037009  1
  Fe  Fe43  1  0.49645948  0.75019123  -0.00298492  1
  Fe  Fe44  1  0.25200007  -0.00255515  0.49833918  1
  Fe  Fe45  1  -0.00075577  0.25131129  0.24961722  1
  Fe  Fe46  1  0.75121597  0.00138871  0.49968739  1
  Fe  Fe47  1  -0.00232809  0.25097987  0.74862682  1
  Fe  Fe48  1  0.87424205  0.87597309  0.37536931  1
  Fe  Fe49  1  0.74698887  0.50245409  0.49866996  1
  Fe  Fe50  1  0.87466273  0.87690785  0.62512262  1
  Fe  Fe51  1  0.62360000  0.37417429  0.87966369  1
  Fe  Fe52  1  0.25229128  0.49949080  0.50052011  1
  Fe  Fe53  1  0.37455610  0.12361297  0.12433121  1
  Fe  Fe54  1  0.50179364  -0.00039044  0.24713271  1
  Fe  Fe55  1  0.74918790  0.24965368  0.75181039  1
  Fe  Fe56  1  0.62524202  0.87328746  0.62508246  1
  Fe  Fe57  1  0.50175614  0.49986326  0.75103699  1
  Fe  Fe58  1  0.75015126  0.74839278  0.50064831  1
  Fe  Fe59  1  0.50305418  -0.00156613  0.75440998  1
  Fe  Fe60  1  0.12545017  0.62720182  0.12491896  1
  Fe  Fe61  1  0.12461054  0.87638352  0.37399201  1
  Fe  Fe62  1  0.87310561  0.37792842  0.12607778  1
  Fe  Fe63  1  0.25165727  0.50083073  0.00162458  1
  Fe  Fe64  1  0.37582094  0.37710814  0.87435911  1
  Fe  Fe65  1  0.37178853  0.87615047  0.12531007  1
  Fe  Fe66  1  0.87605908  0.87201540  0.12302749  1
  Fe  Fe67  1  0.12393520  0.37539687  0.62528297  1
  Fe  Fe68  1  0.00138619  -0.00054988  0.75114856  1
  Fe  Fe69  1  0.50241515  0.75068691  0.75345916  1
  Fe  Fe70  1  0.74810580  0.24958309  0.24684319  1
  Fe  Fe71  1  0.74851055  -0.00202352  0.24688949  1
  Fe  Fe72  1  -0.00240671  0.74793353  0.25021421  1
  Fe  Fe73  1  0.25026210  0.50166373  0.25036953  1
  Fe  Fe74  1  0.87522312  0.12487384  0.12406939  1
  Fe  Fe75  1  0.25061287  0.25102599  0.00009681  1
  Fe  Fe76  1  0.49982723  -0.00165954  0.49983914  1
  Fe  Fe77  1  0.00082421  -0.00011166  0.24836020  1
  Fe  Fe78  1  0.12541270  0.37504565  0.37598205  1
  Fe  Fe79  1  0.00000067  0.50177679  0.24968591  1
  Fe  Fe80  1  0.74796446  -0.00157580  0.75294708  1
  Fe  Fe81  1  0.24464139  -0.00184589  -0.00025615  1
  Fe  Fe82  1  0.87508686  0.12399280  0.87598466  1
  Fe  Fe83  1  0.24985658  0.24904532  0.25010304  1
  Fe  Fe84  1  0.12508425  0.37494650  0.12508114  1
  Fe  Fe85  1  0.37902157  0.62457872  0.37378341  1
  Fe  Fe86  1  0.24791808  0.00033929  0.75153896  1
  Fe  Fe87  1  0.25149810  0.25067188  0.75005020  1
  Fe  Fe88  1  0.12398560  0.12448736  0.37504246  1
  Fe  Fe89  1  -0.00181723  0.49970184  0.50064552  1
  Co  Co90  1  0.12455725  0.87233066  0.87250346  1
  Co  Co91  1  0.00037579  0.50066844  0.74856108  1
  Co  Co92  1  0.75176794  -0.00033519  0.00125581  1
  Co  Co93  1  -0.00133258  0.00148540  0.49869660  1
  Co  Co94  1  0.75122522  0.75075811  0.25061514  1
  Co  Co95  1  0.12463594  0.12697514  0.12457769  1
  Co  Co96  1  0.37542869  0.37534246  0.37086951  1
  Co  Co97  1  0.87326119  0.62523168  0.12614221  1
  Co  Co98  1  0.62432721  0.62506733  0.87624536  1
  Co  Co99  1  0.62412918  0.37375202  0.12275660  1
  Co  Co100  1  0.49624884  0.25119738  0.00067527  1
  Co  Co101  1  0.37803662  0.87544537  0.37176347  1
  Co  Co102  1  0.62272210  0.63108947  0.37554117  1
  Co  Co103  1  0.87321449  0.62358393  0.87330837  1
  Co  Co104  1  0.75386199  0.25200241  -0.00025088  1
  Co  Co105  1  0.87173696  0.37696748  0.62544066  1
  Co  Co106  1  0.12423949  0.12821611  0.87502845  1
  Co  Co107  1  0.37528558  0.62263390  0.87411299  1
  Co  Co108  1  0.25099658  0.49895454  0.74718177  1
  Co  Co109  1  0.62748537  0.87315239  0.87908405  1
  Co  Co110  1  0.50537147  0.50100379  0.25028856  1
  Co  Co111  1  0.49793858  0.75150893  0.50191657  1
  Co  Co112  1  0.62746599  0.37146200  0.37461818  1
  Co  Co113  1  0.50151204  0.24981852  0.75315587  1
  Co  Co114  1  0.74883585  0.74994497  0.74947236  1
  Co  Co115  1  0.50222262  0.24857987  0.24901285  1
  Co  Co116  1  0.49980074  0.25132860  0.49868347  1
  Co  Co117  1  0.37350705  0.87764076  0.87441007  1
  Co  Co118  1  0.49995691  -0.00246789  0.00072203  1
  Co  Co119  1  0.12575205  0.87163894  0.12759248  1
  Co  Co120  1  0.87373425  0.62392999  0.37495470  1
  Co  Co121  1  0.37479703  0.62656639  0.12628168  1
  Co  Co122  1  0.87313507  0.12400439  0.37049665  1
  Co  Co123  1  0.00078318  0.74687748  -0.00152906  1
  Co  Co124  1  0.87385130  0.12149482  0.62871373  1
  Co  Co125  1  0.62256979  0.62544428  0.62495992  1
  Co  Co126  1  0.62484958  0.62954214  0.12325085  1
  Co  Co127  1  0.24974678  0.00123426  0.25074218  1
