# generated using pymatgen
data_Fe45Co19
_symmetry_space_group_name_H-M   'P 1'
_cell_length_a   11.41501905
_cell_length_b   11.41598629
_cell_length_c   11.41469955
_cell_angle_alpha   90.00558211
_cell_angle_beta   89.99626309
_cell_angle_gamma   89.99810502
_symmetry_Int_Tables_number   1
_chemical_formula_structural   Fe45Co19
_chemical_formula_sum   'Fe90 Co38'
_cell_volume   1487.49173360
_cell_formula_units_Z   2
loop_
 _symmetry_equiv_pos_site_id
 _symmetry_equiv_pos_as_xyz
  1  'x, y, z'
loop_
 _atom_site_type_symbol
 _atom_site_label
 _atom_site_symmetry_multiplicity
 _atom_site_fract_x
 _atom_site_fract_y
 _atom_site_fract_z
 _atom_site_occupancy
  Fe  Fe0  1  0.75220477  0.49851320  0.74803752  1
  Fe  Fe1  1  0.50096302  0.50217984  0.50006605  1
  Fe  Fe2  1  0.00166309  0.75156243  0.25282366  1
  Fe  Fe3  1  0.00182873  0.74953224  -0.00014291  1
  Fe  Fe4  1  -0.00061520  0.74873791  0.74766765  1
  Fe  Fe5  1  0.25033043  0.24834396  0.49676038  1
  Fe  Fe6  1  0.37276756  0.12634167  0.12551374  1
  Fe  Fe7  1  0.49797965  0.50162169  0.74884189  1
  Fe  Fe8  1  -0.00249048  0.24897112  0.75130194  1
  Fe  Fe9  1  0.12652417  0.12475444  0.62675411  1
  Fe  Fe10  1  0.74932725  0.24880723  0.50133347  1
  Fe  Fe11  1  0.49930391  0.24831340  0.24944916  1
  Fe  Fe12  1  0.62476878  0.37444709  0.37272379  1
  Fe  Fe13  1  0.50268019  0.50036504  0.00112432  1
  Fe  Fe14  1  0.12168911  0.37311296  0.37467112  1
  Fe  Fe15  1  0.12646308  0.62528159  0.12980517  1
  Fe  Fe16  1  0.87619748  0.87412635  0.12488651  1
  Fe  Fe17  1  0.50232281  0.00139480  0.49852790  1
  Fe  Fe18  1  0.87820778  0.37435023  0.62235335  1
  Fe  Fe19  1  0.62889585  0.12291868  0.12015904  1
  Fe  Fe20  1  0.87687209  0.37206170  0.37681454  1
  Fe  Fe21  1  0.87192243  0.12408766  0.12225912  1
  Fe  Fe22  1  0.25200826  0.25098106  0.74973589  1
  Fe  Fe23  1  -0.00085184  0.50184799  0.74818020  1
  Fe  Fe24  1  0.62445292  0.12673201  0.62826361  1
  Fe  Fe25  1  0.12268106  0.37541049  0.87452445  1
  Fe  Fe26  1  0.49961689  0.50088303  0.24968392  1
  Fe  Fe27  1  0.62097911  0.87692538  0.87897768  1
  Fe  Fe28  1  0.75048599  0.25077581  0.24848278  1
  Fe  Fe29  1  0.62273028  0.37245990  0.62777453  1
  Fe  Fe30  1  0.12639566  0.62363478  0.62295077  1
  Fe  Fe31  1  0.00233958  0.74924079  0.50038440  1
  Fe  Fe32  1  0.37717945  0.37317859  0.37463258  1
  Fe  Fe33  1  0.25079901  0.00054387  0.49907969  1
  Fe  Fe34  1  0.37780958  0.87436738  0.12330150  1
  Fe  Fe35  1  0.49727148  0.00380737  0.75348934  1
  Fe  Fe36  1  0.74978208  0.49879325  0.50016974  1
  Fe  Fe37  1  0.50106673  0.74824798  0.50291596  1
  Fe  Fe38  1  0.74963583  -0.00359320  0.75031731  1
  Fe  Fe39  1  0.24886266  -0.00304788  -0.00042770  1
  Fe  Fe40  1  0.87320848  0.12323730  0.62599174  1
  Fe  Fe41  1  0.12638739  0.12473419  0.37066168  1
  Fe  Fe42  1  0.87273959  0.62542495  0.87376195  1
  Fe  Fe43  1  0.87266252  0.62554191  0.12683136  1
  Fe  Fe44  1  0.37263257  0.62505842  0.12709714  1
  Fe  Fe45  1  0.87240196  0.87555149  0.37903882  1
  Fe  Fe46  1  0.87267243  0.12461712  0.37424688  1
  Fe  Fe47  1  0.12626887  0.12446891  0.87423456  1
  Fe  Fe48  1  0.37202608  0.12621773  0.87706699  1
  Fe  Fe49  1  0.50129905  -0.00078808  0.24938779  1
  Fe  Fe50  1  0.25030179  0.75074391  0.74786536  1
  Fe  Fe51  1  -0.00024367  -0.00120926  0.25078702  1
  Fe  Fe52  1  0.62850891  0.62470021  0.12815868  1
  Fe  Fe53  1  0.62525087  0.12435932  0.37502143  1
  Fe  Fe54  1  0.00072284  0.50170920  0.00086202  1
  Fe  Fe55  1  0.87169998  0.62779743  0.37720011  1
  Fe  Fe56  1  0.74785520  0.49605178  0.00016625  1
  Fe  Fe57  1  0.37560585  0.87315242  0.87636771  1
  Fe  Fe58  1  0.00060508  0.00032760  0.75179057  1
  Fe  Fe59  1  0.37611008  0.87529604  0.62471337  1
  Fe  Fe60  1  0.50517621  0.24958541  -0.00243203  1
  Fe  Fe61  1  0.12519553  0.87757514  0.62495691  1
  Fe  Fe62  1  0.37682278  0.37392518  0.62287466  1
  Fe  Fe63  1  0.12279857  0.37390375  0.62238964  1
  Fe  Fe64  1  0.62808106  0.62735630  0.37473187  1
  Fe  Fe65  1  0.37679389  0.37550483  0.87708646  1
  Fe  Fe66  1  0.24972426  0.50097258  0.49789689  1
  Fe  Fe67  1  0.74717317  0.75406708  0.50690203  1
  Fe  Fe68  1  0.50184642  0.74811420  0.74868062  1
  Fe  Fe69  1  0.12601729  0.12412448  0.12725985  1
  Fe  Fe70  1  0.12596433  0.62533529  0.87428960  1
  Fe  Fe71  1  0.24845907  0.25251768  0.00092776  1
  Fe  Fe72  1  0.00046377  -0.00076355  -0.00218420  1
  Fe  Fe73  1  -0.00194754  0.50127310  0.25326884  1
  Fe  Fe74  1  0.25051058  0.49872923  0.74923566  1
  Fe  Fe75  1  0.74835327  0.75227475  0.00081762  1
  Fe  Fe76  1  0.37388102  0.62526310  0.87523828  1
  Fe  Fe77  1  0.37612739  0.12662086  0.62262051  1
  Fe  Fe78  1  0.87684125  0.87306565  0.87333497  1
  Fe  Fe79  1  -0.00044112  0.00285261  0.49919610  1
  Fe  Fe80  1  0.87409666  0.37538966  0.12462625  1
  Fe  Fe81  1  0.37455262  0.87467068  0.37537301  1
  Fe  Fe82  1  0.62716099  0.62474862  0.87284628  1
  Fe  Fe83  1  0.24820847  0.75112513  0.00150173  1
  Fe  Fe84  1  0.74735730  -0.00541649  0.24988201  1
  Fe  Fe85  1  0.24955258  0.49909536  0.00214524  1
  Fe  Fe86  1  0.12455397  0.37372935  0.12817286  1
  Fe  Fe87  1  0.37072047  0.62800441  0.37373975  1
  Fe  Fe88  1  0.50314033  0.75151054  0.24870288  1
  Fe  Fe89  1  -0.00304791  0.24888973  -0.00115265  1
  Co  Co90  1  0.63019932  0.12313318  0.87554522  1
  Co  Co91  1  0.49684284  0.00456262  -0.00071443  1
  Co  Co92  1  0.37628666  0.12294935  0.37447972  1
  Co  Co93  1  0.25123180  0.49534845  0.25052910  1
  Co  Co94  1  -0.00020713  0.24415795  0.50007717  1
  Co  Co95  1  0.74704889  0.75492026  0.74866228  1
  Co  Co96  1  0.62334237  0.37492036  0.86974093  1
  Co  Co97  1  0.75399930  0.25122491  0.75179524  1
  Co  Co98  1  0.25221647  0.25106602  0.25165016  1
  Co  Co99  1  -0.00019279  0.50378645  0.49804945  1
  Co  Co100  1  0.62459746  0.87333684  0.37773450  1
  Co  Co101  1  0.24799192  0.75610926  0.24864698  1
  Co  Co102  1  0.25158131  -0.00261443  0.24878263  1
  Co  Co103  1  0.87208771  0.12287068  0.87629804  1
  Co  Co104  1  0.12195912  0.87674647  0.12456781  1
  Co  Co105  1  0.25313253  0.00035245  0.75061573  1
  Co  Co106  1  0.74774643  0.00157011  0.50116358  1
  Co  Co107  1  0.62465506  0.37471882  0.12855029  1
  Co  Co108  1  0.74882123  0.75513971  0.24826488  1
  Co  Co109  1  0.62655155  0.62276717  0.62582548  1
  Co  Co110  1  0.12578282  0.87738601  0.37722768  1
  Co  Co111  1  0.87764027  0.37867412  0.87557991  1
  Co  Co112  1  0.50188556  0.24967390  0.49850111  1
  Co  Co113  1  0.75267250  -0.00562061  -0.00091277  1
  Co  Co114  1  0.37821164  0.37321474  0.12306149  1
  Co  Co115  1  -0.00253387  0.24863191  0.24824937  1
  Co  Co116  1  0.75295743  0.49852440  0.25263755  1
  Co  Co117  1  0.62173694  0.87682888  0.12093917  1
  Co  Co118  1  0.87751053  0.87706467  0.62372053  1
  Co  Co119  1  0.12886821  0.62564511  0.37249882  1
  Co  Co120  1  0.12521688  0.87411417  0.87303531  1
  Co  Co121  1  0.62073058  0.87910911  0.62575820  1
  Co  Co122  1  0.37405620  0.62444548  0.62428550  1
  Co  Co123  1  0.74961047  0.25490876  -0.00310209  1
  Co  Co124  1  0.87271936  0.62606748  0.62458408  1
  Co  Co125  1  0.50142613  0.74470698  0.00078529  1
  Co  Co126  1  0.24898699  0.75088621  0.50173363  1
  Co  Co127  1  0.49672551  0.24662096  0.75280344  1
