# generated using pymatgen
data_Fe45Co19
_symmetry_space_group_name_H-M   'P 1'
_cell_length_a   11.41532408
_cell_length_b   11.41452751
_cell_length_c   11.41443792
_cell_angle_alpha   89.99113064
_cell_angle_beta   89.99379939
_cell_angle_gamma   90.00093663
_symmetry_Int_Tables_number   1
_chemical_formula_structural   Fe45Co19
_chemical_formula_sum   'Fe90 Co38'
_cell_volume   1487.30729320
_cell_formula_units_Z   2
loop_
 _symmetry_equiv_pos_site_id
 _symmetry_equiv_pos_as_xyz
  1  'x, y, z'
loop_
 _atom_site_type_symbol
 _atom_site_label
 _atom_site_symmetry_multiplicity
 _atom_site_fract_x
 _atom_site_fract_y
 _atom_site_fract_z
 _atom_site_occupancy
  Fe  Fe0  1  0.87490283  0.37435379  0.87502997  1
  Fe  Fe1  1  0.12344009  0.62645731  0.62702202  1
  Fe  Fe2  1  0.37624098  0.12486977  0.37405592  1
  Fe  Fe3  1  -0.00095769  -0.00029496  0.75011327  1
  Fe  Fe4  1  0.37632613  0.37684373  0.37342390  1
  Fe  Fe5  1  0.25007965  0.25002503  0.25054058  1
  Fe  Fe6  1  0.12801159  0.12776441  0.12048332  1
  Fe  Fe7  1  0.62360347  0.37469085  0.62548949  1
  Fe  Fe8  1  0.49871227  0.00189283  0.75123518  1
  Fe  Fe9  1  0.00261133  0.00160847  0.24872745  1
  Fe  Fe10  1  0.37263681  0.12623488  0.87586178  1
  Fe  Fe11  1  0.50002179  0.50431525  0.24944802  1
  Fe  Fe12  1  0.00092517  0.00270012  0.00138641  1
  Fe  Fe13  1  -0.00141583  0.74974015  0.24987219  1
  Fe  Fe14  1  0.12578332  0.12401310  0.62527316  1
  Fe  Fe15  1  0.75319054  -0.00281565  0.75204724  1
  Fe  Fe16  1  -0.00134771  0.00060058  0.50006662  1
  Fe  Fe17  1  0.37448477  0.87428014  0.62828090  1
  Fe  Fe18  1  0.12548941  0.37436309  0.62511302  1
  Fe  Fe19  1  0.62463289  0.12430886  0.12391903  1
  Fe  Fe20  1  0.87429157  0.37401582  0.12656751  1
  Fe  Fe21  1  0.12350713  0.87333839  0.37614832  1
  Fe  Fe22  1  0.87395993  0.12302210  0.37266912  1
  Fe  Fe23  1  0.62403583  0.37665449  0.12351962  1
  Fe  Fe24  1  0.00040401  0.24793618  0.75037138  1
  Fe  Fe25  1  0.87411438  0.37557790  0.62529496  1
  Fe  Fe26  1  0.49991520  0.24819087  0.50072596  1
  Fe  Fe27  1  0.24843199  -0.00116758  0.25060486  1
  Fe  Fe28  1  0.87587881  0.62536998  0.87428844  1
  Fe  Fe29  1  0.74890193  -0.00365412  0.49741409  1
  Fe  Fe30  1  0.37635985  0.87347353  0.87764085  1
  Fe  Fe31  1  0.24917835  0.00170774  0.75168810  1
  Fe  Fe32  1  0.00257954  0.74855404  -0.00037906  1
  Fe  Fe33  1  0.87511273  0.12432856  0.87725705  1
  Fe  Fe34  1  0.74826447  0.24999765  0.75032985  1
  Fe  Fe35  1  0.62523233  0.12374345  0.62507439  1
  Fe  Fe36  1  0.87537028  0.87644630  0.12383832  1
  Fe  Fe37  1  0.62320161  0.37849667  0.87731167  1
  Fe  Fe38  1  0.24895351  0.50248320  -0.00169938  1
  Fe  Fe39  1  -0.00655193  0.74784394  0.50048055  1
  Fe  Fe40  1  0.12430481  0.87335960  0.62489212  1
  Fe  Fe41  1  0.37480037  0.37689296  0.12700924  1
  Fe  Fe42  1  0.62431890  0.63417245  0.37541015  1
  Fe  Fe43  1  0.62561861  0.87348344  0.62559656  1
  Fe  Fe44  1  0.74678027  -0.00353105  0.25125156  1
  Fe  Fe45  1  0.75135648  0.25017367  0.00118262  1
  Fe  Fe46  1  0.25157617  0.24825912  0.50179513  1
  Fe  Fe47  1  0.62935953  0.62848275  0.62520383  1
  Fe  Fe48  1  0.62572744  0.12280023  0.87721585  1
  Fe  Fe49  1  0.75054111  0.50280982  0.49838058  1
  Fe  Fe50  1  -0.00199543  0.24824259  0.50005007  1
  Fe  Fe51  1  0.37568994  0.37819158  0.86978392  1
  Fe  Fe52  1  0.75067849  0.24975612  0.49954477  1
  Fe  Fe53  1  0.50269781  0.74722078  0.75412464  1
  Fe  Fe54  1  0.12662136  0.37529463  0.12384726  1
  Fe  Fe55  1  0.12763938  0.87274805  0.12317194  1
  Fe  Fe56  1  0.37349244  0.62653105  0.12066247  1
  Fe  Fe57  1  0.25204170  0.74947672  0.50007626  1
  Fe  Fe58  1  0.37847258  0.87068536  0.37414541  1
  Fe  Fe59  1  0.49806508  0.25100748  0.00006376  1
  Fe  Fe60  1  0.12335092  0.87546066  0.87628085  1
  Fe  Fe61  1  0.50026172  0.50434615  0.50155624  1
  Fe  Fe62  1  0.74860229  0.49906591  0.75112389  1
  Fe  Fe63  1  0.25105610  0.74853129  0.24972911  1
  Fe  Fe64  1  0.87488215  0.37647130  0.37370395  1
  Fe  Fe65  1  0.37716746  0.37456991  0.62947928  1
  Fe  Fe66  1  0.75193938  0.75317725  0.75390196  1
  Fe  Fe67  1  0.50192052  -0.00185579  0.25128242  1
  Fe  Fe68  1  0.62206773  0.87559220  0.12077544  1
  Fe  Fe69  1  0.12665164  0.37578999  0.37520748  1
  Fe  Fe70  1  0.74810257  0.75334380  -0.00307227  1
  Fe  Fe71  1  0.50079248  -0.00281777  0.49922478  1
  Fe  Fe72  1  0.74787819  0.50194220  0.24994099  1
  Fe  Fe73  1  0.24760313  0.74791242  0.75489727  1
  Fe  Fe74  1  0.37490779  0.87381699  0.12069036  1
  Fe  Fe75  1  0.37404309  0.62492809  0.62929477  1
  Fe  Fe76  1  -0.00087538  0.49968267  0.00111461  1
  Fe  Fe77  1  0.87366123  0.62587975  0.12476769  1
  Fe  Fe78  1  0.00107312  0.49959821  0.75001335  1
  Fe  Fe79  1  0.12585242  0.62461844  0.37385078  1
  Fe  Fe80  1  0.00129845  0.24834686  0.24909932  1
  Fe  Fe81  1  0.62214396  0.37456731  0.37421128  1
  Fe  Fe82  1  -0.00291722  0.50252544  0.49988930  1
  Fe  Fe83  1  0.25177286  0.50120051  0.50096731  1
  Fe  Fe84  1  0.62569643  0.62462011  0.11997117  1
  Fe  Fe85  1  0.25166113  -0.00089291  0.49932869  1
  Fe  Fe86  1  0.74787202  0.24947542  0.25055156  1
  Fe  Fe87  1  0.12666295  0.37297939  0.87530362  1
  Fe  Fe88  1  0.37431811  0.12408494  0.12419249  1
  Fe  Fe89  1  0.00127091  0.50066602  0.24893153  1
  Co  Co90  1  0.12491182  0.12601715  0.87738684  1
  Co  Co91  1  -0.00264674  0.25048126  0.00066823  1
  Co  Co92  1  0.49818796  0.00168649  -0.00061965  1
  Co  Co93  1  0.50225983  0.24801877  0.75191018  1
  Co  Co94  1  0.49924461  0.74876310  0.24377349  1
  Co  Co95  1  0.62409447  0.12600325  0.37540173  1
  Co  Co96  1  0.87283501  0.62471985  0.36998750  1
  Co  Co97  1  0.24714020  0.50141711  0.74896257  1
  Co  Co98  1  0.50234144  0.74917869  -0.00370406  1
  Co  Co99  1  0.25094458  0.50235582  0.24982022  1
  Co  Co100  1  0.50008376  0.24978869  0.24789287  1
  Co  Co101  1  0.87637447  0.87669332  0.37230867  1
  Co  Co102  1  0.49713138  0.49919601  0.00061165  1
  Co  Co103  1  0.87268657  0.12357835  0.12632195  1
  Co  Co104  1  0.24809313  0.74781470  -0.00369605  1
  Co  Co105  1  0.87356884  0.62313268  0.63048226  1
  Co  Co106  1  0.37665999  0.62668525  0.37484823  1
  Co  Co107  1  0.74933188  0.75337834  0.24582052  1
  Co  Co108  1  0.87556656  0.87582802  0.62477779  1
  Co  Co109  1  0.24926109  0.24784810  0.74860738  1
  Co  Co110  1  0.87277692  0.12465212  0.62576066  1
  Co  Co111  1  0.62710549  0.62094883  0.87795641  1
  Co  Co112  1  0.62234542  0.87919749  0.87446614  1
  Co  Co113  1  0.37660378  0.12413833  0.62495604  1
  Co  Co114  1  -0.00113891  0.75202378  0.74976329  1
  Co  Co115  1  0.50398895  0.50330730  0.74766727  1
  Co  Co116  1  0.12599678  0.12517090  0.37627887  1
  Co  Co117  1  0.12573800  0.62496894  0.12598342  1
  Co  Co118  1  0.37654992  0.62255899  0.87470641  1
  Co  Co119  1  0.12155278  0.62361739  0.87440480  1
  Co  Co120  1  0.75471255  0.49857550  0.00020849  1
  Co  Co121  1  0.75064035  -0.00177996  -0.00005506  1
  Co  Co122  1  0.62268208  0.86627334  0.37699344  1
  Co  Co123  1  0.25369012  0.25306935  -0.00116656  1
  Co  Co124  1  0.87863297  0.87553311  0.87897652  1
  Co  Co125  1  0.49665026  0.74983043  0.50566222  1
  Co  Co126  1  0.75702680  0.75095352  0.50057617  1
  Co  Co127  1  0.24935634  -0.00161926  -0.00085430  1
