# generated using pymatgen
data_Fe45Co19
_symmetry_space_group_name_H-M   'P 1'
_cell_length_a   11.41544089
_cell_length_b   11.41468090
_cell_length_c   11.41607121
_cell_angle_alpha   89.99592458
_cell_angle_beta   89.99333267
_cell_angle_gamma   89.99730403
_symmetry_Int_Tables_number   1
_chemical_formula_structural   Fe45Co19
_chemical_formula_sum   'Fe90 Co38'
_cell_volume   1487.55533366
_cell_formula_units_Z   2
loop_
 _symmetry_equiv_pos_site_id
 _symmetry_equiv_pos_as_xyz
  1  'x, y, z'
loop_
 _atom_site_type_symbol
 _atom_site_label
 _atom_site_symmetry_multiplicity
 _atom_site_fract_x
 _atom_site_fract_y
 _atom_site_fract_z
 _atom_site_occupancy
  Fe  Fe0  1  0.87811175  0.62461553  0.11997179  1
  Fe  Fe1  1  0.87332293  0.37417880  0.12473691  1
  Fe  Fe2  1  0.62471134  0.12582734  0.37742388  1
  Fe  Fe3  1  0.87718342  0.12444859  0.37560506  1
  Fe  Fe4  1  0.49955313  -0.00225871  0.00098710  1
  Fe  Fe5  1  0.37332353  0.12366646  0.37833224  1
  Fe  Fe6  1  0.75205175  0.25199212  0.50022811  1
  Fe  Fe7  1  -0.00115622  0.49901760  0.75437573  1
  Fe  Fe8  1  0.13079825  0.87167957  0.63157254  1
  Fe  Fe9  1  0.87600186  0.37515753  0.37368099  1
  Fe  Fe10  1  0.87281977  0.87609672  0.12376351  1
  Fe  Fe11  1  0.74759123  0.24687887  -0.00095113  1
  Fe  Fe12  1  0.12237789  0.62923159  0.88015101  1
  Fe  Fe13  1  0.00206250  -0.00412213  -0.00368314  1
  Fe  Fe14  1  0.37222549  0.87308084  0.37868579  1
  Fe  Fe15  1  0.00093959  0.74914702  0.24557438  1
  Fe  Fe16  1  0.00114212  0.50104069  0.50152463  1
  Fe  Fe17  1  0.74925619  0.00149834  0.25004706  1
  Fe  Fe18  1  0.12496675  0.12395684  0.87197952  1
  Fe  Fe19  1  0.75147334  0.50238769  0.25106802  1
  Fe  Fe20  1  0.12453891  0.12662448  0.37722213  1
  Fe  Fe21  1  0.37327916  0.12454979  0.62160681  1
  Fe  Fe22  1  0.62217263  0.37686576  0.87192805  1
  Fe  Fe23  1  0.49956317  0.25029480  0.24993684  1
  Fe  Fe24  1  0.24606288  0.50306029  0.49984593  1
  Fe  Fe25  1  0.74861664  0.74655074  0.50073691  1
  Fe  Fe26  1  0.37525628  0.62533643  0.62195800  1
  Fe  Fe27  1  0.87635027  0.12368873  0.62746068  1
  Fe  Fe28  1  0.12609881  0.87127265  0.37477824  1
  Fe  Fe29  1  0.37427294  0.62594641  0.37838326  1
  Fe  Fe30  1  0.37211839  0.87355825  0.62335130  1
  Fe  Fe31  1  0.62438549  0.87402004  0.12564242  1
  Fe  Fe32  1  0.12610285  0.12488389  0.12290406  1
  Fe  Fe33  1  0.24989123  0.24955213  0.25086583  1
  Fe  Fe34  1  0.62610060  0.38087517  0.62456774  1
  Fe  Fe35  1  0.62713376  0.37427146  0.12759051  1
  Fe  Fe36  1  0.37513071  0.12485066  0.12483574  1
  Fe  Fe37  1  0.37959818  0.62363372  0.87962230  1
  Fe  Fe38  1  0.49854388  0.25304431  0.50064102  1
  Fe  Fe39  1  -0.00383065  0.75473035  0.75467340  1
  Fe  Fe40  1  0.24924830  0.74583109  0.24656543  1
  Fe  Fe41  1  0.00380886  -0.00180712  0.50399549  1
  Fe  Fe42  1  0.00044917  0.25071885  -0.00156525  1
  Fe  Fe43  1  0.00368182  0.74946639  0.50372678  1
  Fe  Fe44  1  0.62449727  0.87407126  0.37594467  1
  Fe  Fe45  1  0.49942312  -0.00076958  0.25120622  1
  Fe  Fe46  1  0.49933548  0.25063691  0.74700688  1
  Fe  Fe47  1  0.87572098  0.37636911  0.62703443  1
  Fe  Fe48  1  0.62211949  0.62271272  0.87377210  1
  Fe  Fe49  1  0.62616651  0.37765996  0.37558817  1
  Fe  Fe50  1  0.37120851  0.37760639  0.62679190  1
  Fe  Fe51  1  0.74606246  0.00306440  0.00000325  1
  Fe  Fe52  1  0.87497933  0.12121056  0.87166793  1
  Fe  Fe53  1  0.37384536  0.87337099  0.87225667  1
  Fe  Fe54  1  0.49821719  0.74986592  0.24912259  1
  Fe  Fe55  1  0.25177835  -0.00216152  -0.00233209  1
  Fe  Fe56  1  0.49984074  0.74738922  0.74746240  1
  Fe  Fe57  1  0.37277078  0.37729409  0.37422910  1
  Fe  Fe58  1  0.12770149  0.87327266  0.12262575  1
  Fe  Fe59  1  0.00263753  0.50164108  0.24710302  1
  Fe  Fe60  1  0.74960556  0.50073130  -0.00240697  1
  Fe  Fe61  1  0.74778943  0.24846140  0.74999494  1
  Fe  Fe62  1  0.50018293  0.00122029  0.74688208  1
  Fe  Fe63  1  0.25068964  0.50399703  0.75412190  1
  Fe  Fe64  1  0.87898194  0.62619235  0.37595221  1
  Fe  Fe65  1  0.12678906  0.37283193  0.87297051  1
  Fe  Fe66  1  0.00113016  -0.00130326  0.24958790  1
  Fe  Fe67  1  0.25235733  0.25265337  -0.00290627  1
  Fe  Fe68  1  0.75050301  0.74931497  0.75070896  1
  Fe  Fe69  1  0.62472805  0.87618280  0.87338614  1
  Fe  Fe70  1  0.74908351  -0.00015618  0.50262259  1
  Fe  Fe71  1  0.37786351  0.12694569  0.87478155  1
  Fe  Fe72  1  0.75053589  0.74939629  -0.00276722  1
  Fe  Fe73  1  0.49838178  0.50016225  0.24859860  1
  Fe  Fe74  1  0.62465085  0.87399977  0.62416135  1
  Fe  Fe75  1  0.75090880  0.74870769  0.25060858  1
  Fe  Fe76  1  0.00088492  0.25047835  0.24880929  1
  Fe  Fe77  1  0.12486078  0.37561441  0.37543645  1
  Fe  Fe78  1  0.37419177  0.62186280  0.12001479  1
  Fe  Fe79  1  0.12569031  0.37418508  0.62747094  1
  Fe  Fe80  1  0.87346909  0.37413768  0.87506177  1
  Fe  Fe81  1  0.12921366  0.37799771  0.12424827  1
  Fe  Fe82  1  0.87677608  0.87408800  0.37753469  1
  Fe  Fe83  1  0.62276013  0.62317507  0.37765494  1
  Fe  Fe84  1  0.24928726  -0.00034599  0.25069760  1
  Fe  Fe85  1  0.12614255  0.12821702  0.62765577  1
  Fe  Fe86  1  0.87589177  0.12521456  0.12511272  1
  Fe  Fe87  1  0.49959494  0.25353447  0.00190614  1
  Fe  Fe88  1  0.87554745  0.62471900  0.62778702  1
  Fe  Fe89  1  0.62356873  0.62547000  0.12302905  1
  Co  Co90  1  0.12201519  0.62524033  0.63147286  1
  Co  Co91  1  0.37885509  0.37587099  0.87175467  1
  Co  Co92  1  0.62168212  0.12554906  0.12555415  1
  Co  Co93  1  0.24605802  0.74686212  0.50184695  1
  Co  Co94  1  0.62391429  0.12717713  0.62303892  1
  Co  Co95  1  0.86958306  0.88110771  0.87439998  1
  Co  Co96  1  0.62085507  0.12495369  0.87359274  1
  Co  Co97  1  0.24977328  0.50434338  0.25135559  1
  Co  Co98  1  0.25247629  0.00338788  0.75019553  1
  Co  Co99  1  0.25477084  0.74299926  0.75220388  1
  Co  Co100  1  0.62694214  0.62124321  0.62555764  1
  Co  Co101  1  0.74633356  0.00117596  0.74667217  1
  Co  Co102  1  -0.00004865  0.49519672  -0.00243790  1
  Co  Co103  1  0.25247277  0.24883877  0.75146596  1
  Co  Co104  1  -0.00078160  0.25079169  0.50133149  1
  Co  Co105  1  0.12472975  0.62409318  0.11759172  1
  Co  Co106  1  0.87771116  0.62491668  0.87606246  1
  Co  Co107  1  0.12297474  0.62635561  0.37355898  1
  Co  Co108  1  0.75034528  0.24786153  0.25143225  1
  Co  Co109  1  -0.00131877  0.25035052  0.75155792  1
  Co  Co110  1  0.13133488  0.87219320  0.87170101  1
  Co  Co111  1  0.25353724  0.75140279  0.00020771  1
  Co  Co112  1  0.75221243  0.50072110  0.75246333  1
  Co  Co113  1  0.24982658  0.25176557  0.50007799  1
  Co  Co114  1  0.24606031  -0.00115382  0.50152911  1
  Co  Co115  1  0.87294482  0.87406589  0.62387243  1
  Co  Co116  1  0.50130217  0.49540251  0.00242909  1
  Co  Co117  1  0.50173879  0.74958403  0.50153471  1
  Co  Co118  1  0.37146537  0.37620127  0.12700926  1
  Co  Co119  1  -0.00245323  0.75707816  -0.00243180  1
  Co  Co120  1  0.75375835  0.50172707  0.49893655  1
  Co  Co121  1  0.50028886  0.75264484  0.00034460  1
  Co  Co122  1  0.00207480  -0.00434017  0.74912609  1
  Co  Co123  1  0.49736266  0.50267823  0.74726087  1
  Co  Co124  1  0.37476422  0.87609139  0.12695851  1
  Co  Co125  1  0.49995976  -0.00167704  0.50078674  1
  Co  Co126  1  0.49780679  0.49935510  0.50099009  1
  Co  Co127  1  0.25097515  0.49768386  -0.00555124  1
