# generated using pymatgen
data_Fe45Co19
_symmetry_space_group_name_H-M   'P 1'
_cell_length_a   11.41632615
_cell_length_b   11.41537137
_cell_length_c   11.41377049
_cell_angle_alpha   89.99305496
_cell_angle_beta   90.00070181
_cell_angle_gamma   90.00078956
_symmetry_Int_Tables_number   1
_chemical_formula_structural   Fe45Co19
_chemical_formula_sum   'Fe90 Co38'
_cell_volume   1487.46085184
_cell_formula_units_Z   2
loop_
 _symmetry_equiv_pos_site_id
 _symmetry_equiv_pos_as_xyz
  1  'x, y, z'
loop_
 _atom_site_type_symbol
 _atom_site_label
 _atom_site_symmetry_multiplicity
 _atom_site_fract_x
 _atom_site_fract_y
 _atom_site_fract_z
 _atom_site_occupancy
  Fe  Fe0  1  0.25055146  0.74920392  0.50003792  1
  Fe  Fe1  1  0.37389366  0.12476917  0.87460910  1
  Fe  Fe2  1  0.37090094  0.87619710  0.87571063  1
  Fe  Fe3  1  0.36925005  0.37427666  0.36688769  1
  Fe  Fe4  1  0.49904246  0.74946520  0.24952571  1
  Fe  Fe5  1  0.75075513  0.00015759  0.00066907  1
  Fe  Fe6  1  0.62422753  0.87550127  0.12648707  1
  Fe  Fe7  1  0.75022018  0.24825287  0.74947917  1
  Fe  Fe8  1  0.00357784  0.49606500  0.49565706  1
  Fe  Fe9  1  0.74964069  0.50019888  -0.00004396  1
  Fe  Fe10  1  0.62350019  0.62445253  0.12422148  1
  Fe  Fe11  1  0.87216879  0.37532217  0.12928550  1
  Fe  Fe12  1  0.87404620  0.37391951  0.87397940  1
  Fe  Fe13  1  0.62805574  0.37442741  0.12896253  1
  Fe  Fe14  1  0.62179183  0.62449970  0.62353259  1
  Fe  Fe15  1  0.62443110  0.12609768  0.12684467  1
  Fe  Fe16  1  0.87664090  0.87345681  0.37567680  1
  Fe  Fe17  1  0.00228011  -0.00134757  0.49890980  1
  Fe  Fe18  1  0.00238478  0.50073916  0.74984878  1
  Fe  Fe19  1  -0.00045277  0.49731614  0.00081106  1
  Fe  Fe20  1  0.87578457  0.12520596  0.12574593  1
  Fe  Fe21  1  0.24809209  0.74468922  0.24669511  1
  Fe  Fe22  1  0.00119298  0.25362442  0.49626107  1
  Fe  Fe23  1  0.49793774  -0.00210571  0.00173212  1
  Fe  Fe24  1  0.12740143  0.37794230  0.13073451  1
  Fe  Fe25  1  0.74857178  0.50208765  0.74974172  1
  Fe  Fe26  1  0.75122576  0.24967966  0.49780213  1
  Fe  Fe27  1  0.87503469  0.87608547  0.87261077  1
  Fe  Fe28  1  0.87606114  0.37556016  0.62427940  1
  Fe  Fe29  1  0.75025927  0.75111756  0.00067251  1
  Fe  Fe30  1  0.12829358  0.12592367  0.62251468  1
  Fe  Fe31  1  0.37210772  0.12574846  0.62413287  1
  Fe  Fe32  1  0.62767559  0.37557135  0.37196560  1
  Fe  Fe33  1  0.74996546  -0.00093026  0.49974869  1
  Fe  Fe34  1  0.62303784  0.37478435  0.62395192  1
  Fe  Fe35  1  0.49862446  0.74846637  0.75029518  1
  Fe  Fe36  1  0.00210552  0.24924610  0.74943621  1
  Fe  Fe37  1  0.49944640  0.25310459  0.00274644  1
  Fe  Fe38  1  0.24997809  0.24981698  0.00316688  1
  Fe  Fe39  1  0.49609066  0.25259099  0.49728816  1
  Fe  Fe40  1  0.62429139  0.87608567  0.87356861  1
  Fe  Fe41  1  0.49731879  0.75014381  -0.00071054  1
  Fe  Fe42  1  0.00385344  0.75120049  0.74921171  1
  Fe  Fe43  1  0.37423017  0.87352693  0.37168457  1
  Fe  Fe44  1  0.62615678  0.37424883  0.87434835  1
  Fe  Fe45  1  0.12523337  0.12346635  0.87665527  1
  Fe  Fe46  1  0.49704533  -0.00055183  0.49878336  1
  Fe  Fe47  1  0.25096995  0.49766941  0.49961868  1
  Fe  Fe48  1  0.00077651  0.75254558  0.00220466  1
  Fe  Fe49  1  0.12135147  0.12320703  0.12558519  1
  Fe  Fe50  1  0.87668335  0.12359126  0.62431841  1
  Fe  Fe51  1  0.49847386  0.75042081  0.50043097  1
  Fe  Fe52  1  0.24989405  0.00097134  0.24780563  1
  Fe  Fe53  1  0.13004792  0.87631056  0.87958865  1
  Fe  Fe54  1  -0.00020999  0.25278457  0.00170700  1
  Fe  Fe55  1  0.49473674  0.49780401  0.49827572  1
  Fe  Fe56  1  0.12633209  0.62448984  0.62214305  1
  Fe  Fe57  1  0.62296391  0.12495386  0.37428883  1
  Fe  Fe58  1  0.37308873  0.62241579  0.87074052  1
  Fe  Fe59  1  0.75023303  0.50230837  0.49886001  1
  Fe  Fe60  1  0.12578866  0.62575339  0.87737297  1
  Fe  Fe61  1  0.12606749  0.87394111  0.37302754  1
  Fe  Fe62  1  0.87733438  0.62438973  0.12450326  1
  Fe  Fe63  1  0.12616376  0.37431111  0.87359223  1
  Fe  Fe64  1  0.37352422  0.12613692  0.37394737  1
  Fe  Fe65  1  0.74991802  0.74757030  0.25131329  1
  Fe  Fe66  1  0.12669594  0.12639616  0.37570270  1
  Fe  Fe67  1  0.62136631  0.62434155  0.37562137  1
  Fe  Fe68  1  0.87744330  0.62610098  0.62250416  1
  Fe  Fe69  1  0.37681256  0.62251422  0.12567268  1
  Fe  Fe70  1  0.50077371  0.49825531  -0.00038329  1
  Fe  Fe71  1  0.24965225  0.50013350  0.00110180  1
  Fe  Fe72  1  0.62483313  0.87631801  0.62591579  1
  Fe  Fe73  1  0.87865515  0.62675941  0.37692713  1
  Fe  Fe74  1  0.49856044  0.25012156  0.74942728  1
  Fe  Fe75  1  0.87505074  0.87492081  0.62495870  1
  Fe  Fe76  1  0.37335013  0.37581962  0.87206059  1
  Fe  Fe77  1  0.37843245  0.12545344  0.12678897  1
  Fe  Fe78  1  0.75224978  0.00115391  0.25157180  1
  Fe  Fe79  1  -0.00197355  0.25145239  0.25368312  1
  Fe  Fe80  1  0.62416678  0.12387983  0.87459402  1
  Fe  Fe81  1  0.12797333  0.87689346  0.62460231  1
  Fe  Fe82  1  0.62300030  0.12418065  0.62466558  1
  Fe  Fe83  1  0.87657257  0.12432449  0.87476464  1
  Fe  Fe84  1  0.00344318  0.74980421  0.24727760  1
  Fe  Fe85  1  0.87587868  0.62561284  0.87615522  1
  Fe  Fe86  1  0.62393344  0.87514355  0.37455684  1
  Fe  Fe87  1  0.37299930  0.87562661  0.62641794  1
  Fe  Fe88  1  0.74924918  0.74828991  0.74910256  1
  Fe  Fe89  1  -0.00078245  -0.00320630  0.00276315  1
  Co  Co90  1  0.75040986  0.24892536  0.00000850  1
  Co  Co91  1  0.50008138  0.25210036  0.24991330  1
  Co  Co92  1  0.37437407  0.62335214  0.62571487  1
  Co  Co93  1  0.12187999  0.62265769  0.12129189  1
  Co  Co94  1  0.75037085  0.50546215  0.25113894  1
  Co  Co95  1  0.25189990  0.25482699  0.50089522  1
  Co  Co96  1  0.37141709  0.37770207  0.12766444  1
  Co  Co97  1  0.49970682  0.49894480  0.25055156  1
  Co  Co98  1  0.24893656  0.00110395  0.75022364  1
  Co  Co99  1  0.50297414  0.50089198  0.75049019  1
  Co  Co100  1  0.37561470  0.62679360  0.37579080  1
  Co  Co101  1  0.49714653  0.00006446  0.74929231  1
  Co  Co102  1  0.24977168  0.24457283  0.24463769  1
  Co  Co103  1  0.25237360  0.00447670  0.00408255  1
  Co  Co104  1  0.24863999  0.24911785  0.75052698  1
  Co  Co105  1  0.25098263  -0.00199240  0.49773181  1
  Co  Co106  1  0.12914440  0.87512008  0.12284958  1
  Co  Co107  1  0.24579857  0.49967289  0.74785953  1
  Co  Co108  1  0.87391397  0.87455118  0.12754144  1
  Co  Co109  1  0.24773694  0.75018681  0.74914859  1
  Co  Co110  1  0.87756770  0.12287260  0.37807819  1
  Co  Co111  1  0.12409154  0.37326959  0.62484468  1
  Co  Co112  1  0.00305277  0.75284954  0.50177509  1
  Co  Co113  1  0.00097646  0.50015543  0.25301325  1
  Co  Co114  1  0.75179863  0.24651548  0.25332131  1
  Co  Co115  1  0.00379335  -0.00095706  0.74921186  1
  Co  Co116  1  0.62496489  0.62637078  0.87686721  1
  Co  Co117  1  0.75005820  0.00135113  0.74975092  1
  Co  Co118  1  0.12401709  0.62607768  0.37831286  1
  Co  Co119  1  0.13088127  0.37309237  0.36972174  1
  Co  Co120  1  0.37519527  0.37622720  0.62944557  1
  Co  Co121  1  0.74816399  0.74952963  0.49940638  1
  Co  Co122  1  0.87214259  0.37739971  0.37472985  1
  Co  Co123  1  0.49854022  -0.00038045  0.25082049  1
  Co  Co124  1  0.25265212  0.74560695  0.00270962  1
  Co  Co125  1  0.00106225  -0.00180662  0.25092442  1
  Co  Co126  1  0.37320430  0.87383953  0.12668222  1
  Co  Co127  1  0.24826606  0.50828916  0.25109851  1
