# generated using pymatgen
data_Fe45Co19
_symmetry_space_group_name_H-M   'P 1'
_cell_length_a   11.41399974
_cell_length_b   11.41344167
_cell_length_c   11.41454988
_cell_angle_alpha   89.99326706
_cell_angle_beta   90.00391457
_cell_angle_gamma   89.99084045
_symmetry_Int_Tables_number   1
_chemical_formula_structural   Fe45Co19
_chemical_formula_sum   'Fe90 Co38'
_cell_volume   1487.00785573
_cell_formula_units_Z   2
loop_
 _symmetry_equiv_pos_site_id
 _symmetry_equiv_pos_as_xyz
  1  'x, y, z'
loop_
 _atom_site_type_symbol
 _atom_site_label
 _atom_site_symmetry_multiplicity
 _atom_site_fract_x
 _atom_site_fract_y
 _atom_site_fract_z
 _atom_site_occupancy
  Fe  Fe0  1  0.25313504  0.00247297  0.74804781  1
  Fe  Fe1  1  0.37683497  0.87608885  0.37405964  1
  Fe  Fe2  1  0.50001695  0.00018233  0.50071296  1
  Fe  Fe3  1  -0.00413506  0.50044892  0.24987326  1
  Fe  Fe4  1  -0.00389809  0.49497500  0.00198166  1
  Fe  Fe5  1  -0.00273292  -0.00010067  -0.00046693  1
  Fe  Fe6  1  0.12372690  0.62338966  0.62145968  1
  Fe  Fe7  1  0.24986930  0.49871190  0.00003973  1
  Fe  Fe8  1  0.25074518  0.49926904  0.74845039  1
  Fe  Fe9  1  0.75130573  0.00583834  0.24982981  1
  Fe  Fe10  1  -0.00047822  0.24781070  0.75115784  1
  Fe  Fe11  1  0.37883792  0.87595707  0.62593596  1
  Fe  Fe12  1  0.50528759  0.75234538  0.00136553  1
  Fe  Fe13  1  0.62632554  0.12784727  0.37927513  1
  Fe  Fe14  1  0.50155700  0.74748634  0.25029506  1
  Fe  Fe15  1  0.62588691  0.12333141  0.62276393  1
  Fe  Fe16  1  0.24809106  0.24998084  0.49747287  1
  Fe  Fe17  1  0.37644779  0.87581368  0.87422031  1
  Fe  Fe18  1  0.37680453  0.37239453  0.87582998  1
  Fe  Fe19  1  0.25131075  0.50135913  0.24983095  1
  Fe  Fe20  1  0.49910295  0.24938798  0.24625108  1
  Fe  Fe21  1  0.50213308  0.00182863  -0.00360781  1
  Fe  Fe22  1  0.25222481  0.00273613  0.25115877  1
  Fe  Fe23  1  0.12400020  0.87654870  0.62511142  1
  Fe  Fe24  1  0.12533258  0.12440078  0.62211323  1
  Fe  Fe25  1  0.12226717  0.12469858  0.12434158  1
  Fe  Fe26  1  0.50212649  0.00391719  0.25206235  1
  Fe  Fe27  1  0.62620624  0.62012270  0.12753608  1
  Fe  Fe28  1  0.37698217  0.62431239  0.12360567  1
  Fe  Fe29  1  0.50436548  0.75017066  0.74954799  1
  Fe  Fe30  1  0.12448009  0.87796546  0.37467661  1
  Fe  Fe31  1  -0.00447344  0.00270940  0.75048713  1
  Fe  Fe32  1  0.37468891  0.37331999  0.37395703  1
  Fe  Fe33  1  0.12266596  0.62444153  0.12464397  1
  Fe  Fe34  1  0.62322205  0.37484050  0.62803563  1
  Fe  Fe35  1  -0.00072120  0.75201663  0.00061027  1
  Fe  Fe36  1  0.12447050  0.62426847  0.37728039  1
  Fe  Fe37  1  0.37929307  0.87772696  0.12626066  1
  Fe  Fe38  1  0.12224328  0.37304322  0.12875690  1
  Fe  Fe39  1  -0.00071192  0.74952573  0.25071736  1
  Fe  Fe40  1  0.74856915  0.75175595  0.50245085  1
  Fe  Fe41  1  0.37746521  0.62518038  0.87702594  1
  Fe  Fe42  1  0.87199460  0.36798771  0.36904580  1
  Fe  Fe43  1  0.62639362  0.62162013  0.87695619  1
  Fe  Fe44  1  0.25039188  -0.00133493  0.00108388  1
  Fe  Fe45  1  0.12334670  0.87707354  0.12752773  1
  Fe  Fe46  1  0.50105143  0.49325982  0.00311677  1
  Fe  Fe47  1  0.74869071  0.74773612  0.24827177  1
  Fe  Fe48  1  0.87081837  0.12653740  0.87934554  1
  Fe  Fe49  1  0.87174157  0.87439708  0.12527128  1
  Fe  Fe50  1  0.25038997  0.74893510  0.75030400  1
  Fe  Fe51  1  -0.00266854  -0.00061018  0.49878518  1
  Fe  Fe52  1  0.00275058  0.25161032  0.49576516  1
  Fe  Fe53  1  0.49921703  0.49985087  0.75014254  1
  Fe  Fe54  1  0.24934995  0.24623646  0.25118940  1
  Fe  Fe55  1  0.25055101  0.24925548  0.74906603  1
  Fe  Fe56  1  0.12405599  0.87586835  0.87250920  1
  Fe  Fe57  1  0.62497302  0.62459748  0.62151721  1
  Fe  Fe58  1  -0.00337276  0.74761668  0.74777110  1
  Fe  Fe59  1  0.62424465  0.12443336  0.12028825  1
  Fe  Fe60  1  0.12387203  0.37424865  0.87297473  1
  Fe  Fe61  1  0.87233367  0.12708119  0.61901679  1
  Fe  Fe62  1  -0.00004486  0.50061209  0.74920313  1
  Fe  Fe63  1  0.87170970  0.87527416  0.62581728  1
  Fe  Fe64  1  0.62525027  0.87409797  0.37477275  1
  Fe  Fe65  1  0.74945087  0.24926248  0.74912954  1
  Fe  Fe66  1  0.74727686  0.25636397  0.00133948  1
  Fe  Fe67  1  -0.00058151  0.49574101  0.49789360  1
  Fe  Fe68  1  0.74919256  0.49556368  0.49808592  1
  Fe  Fe69  1  0.87428679  0.62682589  0.37851412  1
  Fe  Fe70  1  0.37687483  0.62536277  0.62294819  1
  Fe  Fe71  1  0.37548463  0.62511793  0.37736431  1
  Fe  Fe72  1  0.87291529  0.87538130  0.37434064  1
  Fe  Fe73  1  0.62747181  0.37462053  0.36719642  1
  Fe  Fe74  1  0.75300734  0.49428893  0.00371668  1
  Fe  Fe75  1  -0.00575917  0.00594179  0.25080388  1
  Fe  Fe76  1  0.24985608  0.75169220  0.00145095  1
  Fe  Fe77  1  0.50157421  0.49742099  0.49618527  1
  Fe  Fe78  1  0.86987648  0.87321045  0.87423708  1
  Fe  Fe79  1  0.25009564  0.75018871  0.24871738  1
  Fe  Fe80  1  0.87205874  0.62590709  0.87731924  1
  Fe  Fe81  1  0.25106271  0.24972073  0.00220847  1
  Fe  Fe82  1  0.24990818  0.75208017  0.49964980  1
  Fe  Fe83  1  0.12379911  0.62479701  0.87620783  1
  Fe  Fe84  1  0.75030043  0.50058249  0.74932223  1
  Fe  Fe85  1  0.62972013  0.87905130  0.87009658  1
  Fe  Fe86  1  0.50092861  0.24458442  0.75331728  1
  Fe  Fe87  1  0.87617670  0.37437315  0.62644820  1
  Fe  Fe88  1  0.12585798  0.12395639  0.87552407  1
  Fe  Fe89  1  0.37676165  0.37215825  0.62347099  1
  Co  Co90  1  0.62419970  0.37511452  0.87235395  1
  Co  Co91  1  0.62793198  0.37804390  0.13238134  1
  Co  Co92  1  0.74446902  0.75105710  0.00238107  1
  Co  Co93  1  0.87447695  0.37441704  0.87060770  1
  Co  Co94  1  0.12527265  0.11927711  0.37733272  1
  Co  Co95  1  0.49729415  0.50062840  0.25266052  1
  Co  Co96  1  0.12635100  0.37742301  0.37134567  1
  Co  Co97  1  0.75227150  0.00497479  0.74830493  1
  Co  Co98  1  0.74658229  0.25579698  0.50195414  1
  Co  Co99  1  0.50425685  0.25328709  0.49862971  1
  Co  Co100  1  0.49987030  0.00472474  0.75104141  1
  Co  Co101  1  0.50079366  0.75125523  0.49965061  1
  Co  Co102  1  0.75628388  0.50351164  0.24976751  1
  Co  Co103  1  0.75031930  -0.00236847  0.00296104  1
  Co  Co104  1  0.37318272  0.12568179  0.87787587  1
  Co  Co105  1  0.74893118  -0.00187041  0.49832807  1
  Co  Co106  1  0.87408296  0.62202325  0.62064505  1
  Co  Co107  1  0.87478119  0.62792826  0.12222705  1
  Co  Co108  1  -0.00031917  0.75296409  0.50047521  1
  Co  Co109  1  0.87652920  0.36749196  0.13196232  1
  Co  Co110  1  0.12356913  0.37363633  0.62545326  1
  Co  Co111  1  0.62541987  0.87823361  0.62677034  1
  Co  Co112  1  0.37743999  0.12699492  0.37749672  1
  Co  Co113  1  0.37642809  0.12829167  0.62100442  1
  Co  Co114  1  0.37302665  0.37489401  0.12710507  1
  Co  Co115  1  0.87609449  0.13052793  0.12030222  1
  Co  Co116  1  0.25164915  0.49746721  0.50158502  1
  Co  Co117  1  0.87082111  0.12887328  0.38068448  1
  Co  Co118  1  0.74837417  0.74645958  0.74751087  1
  Co  Co119  1  0.00300715  0.24337003  0.25514153  1
  Co  Co120  1  0.62937715  0.12598300  0.87804574  1
  Co  Co121  1  0.50141495  0.25309436  0.00201725  1
  Co  Co122  1  0.62703197  0.62534430  0.37577562  1
  Co  Co123  1  0.37702156  0.12296711  0.12386636  1
  Co  Co124  1  0.74716169  0.24119048  0.24695300  1
  Co  Co125  1  0.25365022  -0.00074698  0.50072972  1
  Co  Co126  1  0.00090680  0.25223532  -0.00299624  1
  Co  Co127  1  0.62453529  0.87872269  0.12928017  1
