# generated using pymatgen
data_Fe45Co19
_symmetry_space_group_name_H-M   'P 1'
_cell_length_a   11.41458370
_cell_length_b   11.41500184
_cell_length_c   11.41464192
_cell_angle_alpha   90.00177980
_cell_angle_beta   89.99342452
_cell_angle_gamma   89.99993381
_symmetry_Int_Tables_number   1
_chemical_formula_structural   Fe45Co19
_chemical_formula_sum   'Fe90 Co38'
_cell_volume   1487.29922528
_cell_formula_units_Z   2
loop_
 _symmetry_equiv_pos_site_id
 _symmetry_equiv_pos_as_xyz
  1  'x, y, z'
loop_
 _atom_site_type_symbol
 _atom_site_label
 _atom_site_symmetry_multiplicity
 _atom_site_fract_x
 _atom_site_fract_y
 _atom_site_fract_z
 _atom_site_occupancy
  Fe  Fe0  1  0.62274130  0.37902215  0.37087927  1
  Fe  Fe1  1  0.12714508  0.87092265  0.12622919  1
  Fe  Fe2  1  0.87335177  0.87293608  0.62279976  1
  Fe  Fe3  1  0.25063839  0.50144093  0.75125235  1
  Fe  Fe4  1  -0.00027197  -0.00052112  0.50141105  1
  Fe  Fe5  1  0.12576797  0.37608302  0.37563469  1
  Fe  Fe6  1  0.12355939  0.12140518  0.87632640  1
  Fe  Fe7  1  0.12472843  0.87591371  0.37499625  1
  Fe  Fe8  1  0.25300504  0.00003952  0.24747763  1
  Fe  Fe9  1  0.49990303  0.25064356  0.75177566  1
  Fe  Fe10  1  0.74883281  0.74914329  0.75224985  1
  Fe  Fe11  1  0.12365738  0.12467932  0.62529246  1
  Fe  Fe12  1  0.50165522  0.25082565  -0.00177264  1
  Fe  Fe13  1  0.87362006  0.62526429  0.62510970  1
  Fe  Fe14  1  0.25165703  -0.00431728  0.00089998  1
  Fe  Fe15  1  0.12286517  0.12279458  0.37280791  1
  Fe  Fe16  1  0.25099610  0.00141540  0.50156297  1
  Fe  Fe17  1  0.37798188  0.12522888  0.37423209  1
  Fe  Fe18  1  0.12552161  0.62899459  0.62703028  1
  Fe  Fe19  1  0.62393307  0.12429547  0.62417889  1
  Fe  Fe20  1  -0.00639650  -0.00539557  0.24583364  1
  Fe  Fe21  1  0.37386027  0.12256788  0.87610763  1
  Fe  Fe22  1  -0.00044124  0.75108536  0.00013710  1
  Fe  Fe23  1  0.74896709  0.25059480  0.25058408  1
  Fe  Fe24  1  0.49930761  0.75120726  0.75124394  1
  Fe  Fe25  1  0.62480303  0.37589775  0.12611651  1
  Fe  Fe26  1  0.74942392  0.50140833  0.00017900  1
  Fe  Fe27  1  -0.00069942  0.49922630  0.74892502  1
  Fe  Fe28  1  0.62470091  0.12256446  0.37501465  1
  Fe  Fe29  1  0.50036230  0.00112663  0.24633410  1
  Fe  Fe30  1  0.12670466  0.62895523  0.12613076  1
  Fe  Fe31  1  0.12616325  0.37378472  0.62399626  1
  Fe  Fe32  1  0.87269967  0.63005600  0.12836084  1
  Fe  Fe33  1  0.37692003  0.62431293  0.37552385  1
  Fe  Fe34  1  0.50107782  0.50084440  0.50114266  1
  Fe  Fe35  1  0.62767668  0.12564200  0.12401451  1
  Fe  Fe36  1  0.50104819  0.75003180  0.25086307  1
  Fe  Fe37  1  0.87627534  0.12663529  0.62513187  1
  Fe  Fe38  1  0.25090966  0.24726527  0.75066056  1
  Fe  Fe39  1  -0.00414547  -0.00309130  0.00400014  1
  Fe  Fe40  1  0.25171663  0.50072550  0.24917252  1
  Fe  Fe41  1  0.62837353  0.12221224  0.87590226  1
  Fe  Fe42  1  0.00222517  0.25155438  0.24942414  1
  Fe  Fe43  1  0.87625198  0.62521420  0.87401936  1
  Fe  Fe44  1  0.75023053  0.00125233  0.50077979  1
  Fe  Fe45  1  0.24798371  0.24913584  0.00102503  1
  Fe  Fe46  1  0.63150619  0.87263448  0.12510982  1
  Fe  Fe47  1  0.00082608  0.50192194  0.00112144  1
  Fe  Fe48  1  0.37375012  0.87773566  0.62655149  1
  Fe  Fe49  1  0.62603237  0.87502257  0.62546212  1
  Fe  Fe50  1  0.37338190  0.37461705  0.62479404  1
  Fe  Fe51  1  0.50087753  0.00072022  0.74971312  1
  Fe  Fe52  1  0.00079650  -0.00491671  0.74928796  1
  Fe  Fe53  1  0.87633869  0.37599599  0.37726264  1
  Fe  Fe54  1  0.24992352  0.24769298  0.49869172  1
  Fe  Fe55  1  0.87499542  0.37304404  0.12335187  1
  Fe  Fe56  1  0.74995869  0.25045369  0.75070072  1
  Fe  Fe57  1  0.00071730  0.25002584  0.00012287  1
  Fe  Fe58  1  0.37383181  0.37022440  0.12602572  1
  Fe  Fe59  1  0.62551447  0.87849347  0.37451525  1
  Fe  Fe60  1  0.12353246  0.62450336  0.37375847  1
  Fe  Fe61  1  0.50117862  0.75240552  -0.00239929  1
  Fe  Fe62  1  0.00077905  0.49974301  0.50308237  1
  Fe  Fe63  1  0.50053119  -0.00324532  0.00161321  1
  Fe  Fe64  1  0.37684311  0.87620607  0.37384799  1
  Fe  Fe65  1  0.37346083  0.63034042  0.12385489  1
  Fe  Fe66  1  0.62711416  0.62536964  0.12942612  1
  Fe  Fe67  1  -0.00049815  0.25228550  0.74983513  1
  Fe  Fe68  1  -0.00036150  0.50005738  0.24737659  1
  Fe  Fe69  1  0.12422565  0.12403755  0.12576425  1
  Fe  Fe70  1  0.37537977  0.37451167  0.37342635  1
  Fe  Fe71  1  0.74981109  0.25058712  0.49953692  1
  Fe  Fe72  1  0.25083858  0.50118992  -0.00023181  1
  Fe  Fe73  1  0.12572782  0.62948217  0.87345255  1
  Fe  Fe74  1  0.50217840  0.74942481  0.49946724  1
  Fe  Fe75  1  0.25095864  0.74983899  0.49905640  1
  Fe  Fe76  1  0.74830971  0.50296848  0.49875180  1
  Fe  Fe77  1  0.12578539  0.37595514  0.87637220  1
  Fe  Fe78  1  0.87615276  0.12440047  0.37344241  1
  Fe  Fe79  1  0.49850519  0.49825556  0.75164291  1
  Fe  Fe80  1  0.74694254  0.74635594  0.49488820  1
  Fe  Fe81  1  0.87428684  0.12381064  0.87569840  1
  Fe  Fe82  1  0.50084125  0.25079920  0.49998592  1
  Fe  Fe83  1  0.87109860  0.87516440  0.87763452  1
  Fe  Fe84  1  -0.00068849  0.75017948  0.49796043  1
  Fe  Fe85  1  0.62737714  0.37765445  0.62731503  1
  Fe  Fe86  1  0.37498071  0.62506262  0.62542078  1
  Fe  Fe87  1  0.49816396  0.49896648  0.00074974  1
  Fe  Fe88  1  0.87318199  0.37575637  0.87605072  1
  Fe  Fe89  1  0.62226464  0.62212978  0.87324990  1
  Co  Co90  1  0.00079364  0.25008015  0.49988391  1
  Co  Co91  1  0.75347895  0.49924217  0.24914995  1
  Co  Co92  1  0.74661769  0.74572268  -0.00515724  1
  Co  Co93  1  0.12384727  0.87365959  0.87656999  1
  Co  Co94  1  0.12595240  0.37559535  0.12383383  1
  Co  Co95  1  0.87276265  0.37614045  0.62369187  1
  Co  Co96  1  0.75102009  0.50175317  0.75180656  1
  Co  Co97  1  0.75254772  0.00018054  0.24740175  1
  Co  Co98  1  0.75040358  0.74933776  0.25830119  1
  Co  Co99  1  0.25158936  0.75178737  0.75087349  1
  Co  Co100  1  0.24653684  -0.00039483  0.74922038  1
  Co  Co101  1  0.37316965  0.37377344  0.87612047  1
  Co  Co102  1  0.75278669  0.00170910  0.00333917  1
  Co  Co103  1  0.25032132  0.74941934  0.25424456  1
  Co  Co104  1  0.62182066  0.62036261  0.37036244  1
  Co  Co105  1  0.25189036  0.75302473  -0.00404376  1
  Co  Co106  1  -0.00267703  0.75365639  0.75048539  1
  Co  Co107  1  0.37602799  0.87723642  0.87292509  1
  Co  Co108  1  0.74930378  0.25021197  -0.00101435  1
  Co  Co109  1  0.62433631  0.62500520  0.62762214  1
  Co  Co110  1  0.49445745  0.50110356  0.24616156  1
  Co  Co111  1  -0.00112380  0.75320818  0.25142041  1
  Co  Co112  1  0.37703105  0.12468522  0.62527247  1
  Co  Co113  1  0.86787086  0.86688456  0.12315314  1
  Co  Co114  1  0.37607129  0.62566399  0.87562234  1
  Co  Co115  1  0.49966899  -0.00055673  0.50133785  1
  Co  Co116  1  0.50186691  0.24693095  0.24972274  1
  Co  Co117  1  0.37523096  0.87141332  0.12646804  1
  Co  Co118  1  0.37508027  0.12669779  0.12243619  1
  Co  Co119  1  0.12572108  0.87281971  0.62282933  1
  Co  Co120  1  0.62654707  0.37734728  0.87535050  1
  Co  Co121  1  0.24845745  0.24851574  0.25074551  1
  Co  Co122  1  0.87786243  0.62263572  0.37440331  1
  Co  Co123  1  0.87535447  0.12965710  0.12600794  1
  Co  Co124  1  0.62747210  0.87820888  0.87445519  1
  Co  Co125  1  0.87407105  0.87684984  0.37777440  1
  Co  Co126  1  0.24974591  0.50149610  0.49988688  1
  Co  Co127  1  0.75144385  0.00004890  0.74759728  1
