# generated using pymatgen
data_Fe45Co19
_symmetry_space_group_name_H-M   'P 1'
_cell_length_a   11.41623270
_cell_length_b   11.41524614
_cell_length_c   11.41509213
_cell_angle_alpha   89.99918714
_cell_angle_beta   90.00316770
_cell_angle_gamma   89.99978477
_symmetry_Int_Tables_number   1
_chemical_formula_structural   Fe45Co19
_chemical_formula_sum   'Fe90 Co38'
_cell_volume   1487.60460094
_cell_formula_units_Z   2
loop_
 _symmetry_equiv_pos_site_id
 _symmetry_equiv_pos_as_xyz
  1  'x, y, z'
loop_
 _atom_site_type_symbol
 _atom_site_label
 _atom_site_symmetry_multiplicity
 _atom_site_fract_x
 _atom_site_fract_y
 _atom_site_fract_z
 _atom_site_occupancy
  Fe  Fe0  1  0.87326252  0.87361867  0.62508829  1
  Fe  Fe1  1  0.87202999  0.87490459  0.11978276  1
  Fe  Fe2  1  0.12570466  0.12264893  0.87486643  1
  Fe  Fe3  1  0.00045533  0.24912534  0.75109008  1
  Fe  Fe4  1  0.12622612  0.37281864  0.62482719  1
  Fe  Fe5  1  0.12605235  0.12456432  0.12495938  1
  Fe  Fe6  1  0.62011567  0.62256072  0.87603845  1
  Fe  Fe7  1  0.37900344  0.87216228  0.12634908  1
  Fe  Fe8  1  0.50051369  0.50084530  0.24873638  1
  Fe  Fe9  1  0.62470061  0.37137403  0.12411549  1
  Fe  Fe10  1  0.49550797  0.74892621  0.49630458  1
  Fe  Fe11  1  0.74833305  0.50150774  0.00181354  1
  Fe  Fe12  1  0.50448017  -0.00077624  0.74597393  1
  Fe  Fe13  1  -0.00022502  0.75147841  0.75300861  1
  Fe  Fe14  1  0.37556986  0.37362602  0.12589717  1
  Fe  Fe15  1  0.37527014  0.11983760  0.37288524  1
  Fe  Fe16  1  0.62351520  0.37258892  0.62477129  1
  Fe  Fe17  1  0.87350567  0.87688382  0.37536932  1
  Fe  Fe18  1  0.62676280  0.87032529  0.62165327  1
  Fe  Fe19  1  0.62124022  0.63131987  0.12289376  1
  Fe  Fe20  1  0.74728261  0.49959507  0.24894276  1
  Fe  Fe21  1  0.87387495  0.37642934  0.37509964  1
  Fe  Fe22  1  0.50267206  -0.00032661  0.00213943  1
  Fe  Fe23  1  0.87572403  0.62700549  0.12692697  1
  Fe  Fe24  1  0.25162060  0.50360972  0.50144529  1
  Fe  Fe25  1  -0.00097435  0.24749851  -0.00018804  1
  Fe  Fe26  1  0.87351280  0.87782847  0.87924016  1
  Fe  Fe27  1  0.00233432  0.50118696  0.74864143  1
  Fe  Fe28  1  0.49946881  0.24572337  0.50172340  1
  Fe  Fe29  1  0.12529285  0.37408023  0.12469311  1
  Fe  Fe30  1  0.37866448  0.37715258  0.87153497  1
  Fe  Fe31  1  0.25356019  0.75251759  0.75669759  1
  Fe  Fe32  1  0.62259893  0.37747223  0.87465141  1
  Fe  Fe33  1  0.62682665  0.87556081  0.87861619  1
  Fe  Fe34  1  0.74959162  0.75023278  0.75241269  1
  Fe  Fe35  1  0.12419417  0.87033286  0.12273170  1
  Fe  Fe36  1  0.74823181  0.24912725  0.75036353  1
  Fe  Fe37  1  0.37531313  0.37690883  0.37726646  1
  Fe  Fe38  1  -0.00043347  0.74998299  0.49838825  1
  Fe  Fe39  1  0.87118346  0.12377256  0.37139532  1
  Fe  Fe40  1  0.12860648  0.62950449  0.62609070  1
  Fe  Fe41  1  0.12504195  0.63063041  0.12601507  1
  Fe  Fe42  1  0.87506990  0.37576283  0.62512059  1
  Fe  Fe43  1  0.87452221  0.62620403  0.62616570  1
  Fe  Fe44  1  0.12520902  0.37589691  0.87583812  1
  Fe  Fe45  1  0.62405077  0.37505004  0.37717188  1
  Fe  Fe46  1  0.49935602  0.24848892  -0.00122903  1
  Fe  Fe47  1  0.74733467  0.75390406  0.25180414  1
  Fe  Fe48  1  0.24782561  0.00014607  0.74686342  1
  Fe  Fe49  1  -0.00142468  -0.00201517  0.24693482  1
  Fe  Fe50  1  -0.00024092  -0.00136753  0.75020904  1
  Fe  Fe51  1  0.00025452  0.50226253  0.00203578  1
  Fe  Fe52  1  0.12663600  0.87360333  0.62276784  1
  Fe  Fe53  1  0.87376689  0.37720190  0.87514232  1
  Fe  Fe54  1  0.87511776  0.62413381  0.37261630  1
  Fe  Fe55  1  0.37730038  0.63052767  0.12496006  1
  Fe  Fe56  1  0.49983051  0.00121343  0.50211916  1
  Fe  Fe57  1  0.37593753  0.12171040  0.87157108  1
  Fe  Fe58  1  -0.00092722  0.24828427  0.49956748  1
  Fe  Fe59  1  0.12372603  0.62828333  0.37038687  1
  Fe  Fe60  1  0.25309967  0.49928720  0.74804374  1
  Fe  Fe61  1  0.62817081  0.12419672  0.37346293  1
  Fe  Fe62  1  0.37337100  0.87437044  0.62333838  1
  Fe  Fe63  1  0.50720936  -0.00498667  0.24918732  1
  Fe  Fe64  1  0.00067808  0.00028077  0.50123981  1
  Fe  Fe65  1  0.12688816  0.37526602  0.37539464  1
  Fe  Fe66  1  0.25310327  0.24900531  -0.00202959  1
  Fe  Fe67  1  0.49766439  0.74975354  0.75343472  1
  Fe  Fe68  1  0.87251983  0.12454933  0.62649176  1
  Fe  Fe69  1  0.74624837  0.50231002  0.74720820  1
  Fe  Fe70  1  0.25064865  0.50145734  0.24888048  1
  Fe  Fe71  1  0.87449003  0.37385470  0.12476955  1
  Fe  Fe72  1  0.87222405  0.12135624  0.87735246  1
  Fe  Fe73  1  0.00185312  0.50235018  0.49985793  1
  Fe  Fe74  1  0.74917831  -0.00029403  0.50184085  1
  Fe  Fe75  1  0.25031502  -0.00372333  0.00042647  1
  Fe  Fe76  1  0.12695834  0.62632789  0.87695762  1
  Fe  Fe77  1  -0.00016893  0.25039243  0.24999644  1
  Fe  Fe78  1  0.74883947  0.50184706  0.50271746  1
  Fe  Fe79  1  0.49900053  0.24997851  0.25192090  1
  Fe  Fe80  1  0.25158739  0.24925685  0.25110291  1
  Fe  Fe81  1  0.37596264  0.12256657  0.12680848  1
  Fe  Fe82  1  0.62490047  0.62630832  0.37681351  1
  Fe  Fe83  1  0.12519992  0.12160349  0.37385984  1
  Fe  Fe84  1  0.25235746  0.50099314  0.00207050  1
  Fe  Fe85  1  0.62622029  0.12315486  0.87429150  1
  Fe  Fe86  1  0.25178299  0.24463675  0.50175824  1
  Fe  Fe87  1  0.49768081  0.50382287  0.50549966  1
  Fe  Fe88  1  0.24907193  -0.00516284  0.25072667  1
  Fe  Fe89  1  0.87539177  0.62302268  0.87408322  1
  Co  Co90  1  0.25297831  0.75291227  0.25328856  1
  Co  Co91  1  0.87360853  0.12480048  0.12602213  1
  Co  Co92  1  0.37535860  0.37116229  0.62489025  1
  Co  Co93  1  0.50265302  0.24749237  0.74997997  1
  Co  Co94  1  0.74891431  0.24926293  -0.00173486  1
  Co  Co95  1  0.49938932  0.50299523  0.74258460  1
  Co  Co96  1  0.75042912  0.24980990  0.49992587  1
  Co  Co97  1  0.12296259  0.87597589  0.37645406  1
  Co  Co98  1  0.74983064  0.25223217  0.25032742  1
  Co  Co99  1  0.24955305  0.24971401  0.75161558  1
  Co  Co100  1  0.12342323  0.87619151  0.87549321  1
  Co  Co101  1  0.37722024  0.61909078  0.87636645  1
  Co  Co102  1  0.25467357  0.75326685  -0.00379527  1
  Co  Co103  1  0.37186880  0.63101620  0.62623089  1
  Co  Co104  1  0.62390833  0.12910628  0.12803994  1
  Co  Co105  1  0.37564939  0.12436477  0.62955080  1
  Co  Co106  1  0.62866399  0.12436081  0.62420019  1
  Co  Co107  1  0.37644828  0.87959385  0.37566467  1
  Co  Co108  1  0.75372696  0.74900069  0.49811797  1
  Co  Co109  1  0.50205251  0.75252494  0.25549347  1
  Co  Co110  1  0.62615217  0.87500899  0.38089863  1
  Co  Co111  1  0.74832258  -0.00321791  0.74851173  1
  Co  Co112  1  -0.00343012  0.75464340  0.25004692  1
  Co  Co113  1  0.37646708  0.88301040  0.87245961  1
  Co  Co114  1  0.74510856  0.00324695  0.00547430  1
  Co  Co115  1  0.62483849  0.63208528  0.62417237  1
  Co  Co116  1  0.49431087  0.75287545  -0.00651961  1
  Co  Co117  1  0.12286340  0.12485584  0.62607272  1
  Co  Co118  1  0.49958658  0.49809915  0.00474822  1
  Co  Co119  1  0.00109667  0.49803221  0.24945443  1
  Co  Co120  1  0.62379475  0.86746138  0.11920173  1
  Co  Co121  1  0.75085983  0.74628209  -0.00314035  1
  Co  Co122  1  -0.00088265  0.74908709  -0.00262764  1
  Co  Co123  1  0.37638907  0.62217548  0.37229572  1
  Co  Co124  1  0.00146931  0.00054996  0.00155247  1
  Co  Co125  1  0.25155819  0.75086533  0.49266970  1
  Co  Co126  1  0.25045440  0.00154955  0.50129590  1
  Co  Co127  1  0.74572331  -0.00472441  0.24591277  1
