# generated using pymatgen
data_Fe45Co19
_symmetry_space_group_name_H-M   'P 1'
_cell_length_a   11.41562395
_cell_length_b   11.41541755
_cell_length_c   11.41500193
_cell_angle_alpha   89.99670427
_cell_angle_beta   89.99283487
_cell_angle_gamma   90.00528535
_symmetry_Int_Tables_number   1
_chemical_formula_structural   Fe45Co19
_chemical_formula_sum   'Fe90 Co38'
_cell_volume   1487.53584144
_cell_formula_units_Z   2
loop_
 _symmetry_equiv_pos_site_id
 _symmetry_equiv_pos_as_xyz
  1  'x, y, z'
loop_
 _atom_site_type_symbol
 _atom_site_label
 _atom_site_symmetry_multiplicity
 _atom_site_fract_x
 _atom_site_fract_y
 _atom_site_fract_z
 _atom_site_occupancy
  Fe  Fe0  1  0.37637716  0.37505148  0.12655456  1
  Fe  Fe1  1  -0.00284819  0.50043199  0.75074982  1
  Fe  Fe2  1  0.75239076  0.74811003  0.75141547  1
  Fe  Fe3  1  0.49867681  0.74722093  0.75198041  1
  Fe  Fe4  1  0.37344911  0.37360762  0.87550325  1
  Fe  Fe5  1  0.37510546  0.87558397  0.37507046  1
  Fe  Fe6  1  0.49679461  0.75028020  0.24932984  1
  Fe  Fe7  1  0.24979221  0.00160073  0.25088132  1
  Fe  Fe8  1  0.12148777  0.87375464  0.86950683  1
  Fe  Fe9  1  0.00113417  0.74924893  0.24835403  1
  Fe  Fe10  1  0.62483226  0.62724113  0.37299295  1
  Fe  Fe11  1  -0.00355929  0.25084418  0.49849649  1
  Fe  Fe12  1  0.12847016  0.62648232  0.37687846  1
  Fe  Fe13  1  0.00056338  0.50181282  0.25107374  1
  Fe  Fe14  1  0.12414555  0.62513294  0.87538821  1
  Fe  Fe15  1  0.63147081  0.12353501  0.37321670  1
  Fe  Fe16  1  0.62382161  0.37568913  0.12767518  1
  Fe  Fe17  1  0.12291200  0.12437503  0.37612369  1
  Fe  Fe18  1  -0.00483079  0.24907072  0.25386286  1
  Fe  Fe19  1  0.74863050  0.75146289  0.49979365  1
  Fe  Fe20  1  0.62492181  0.62140064  0.62808641  1
  Fe  Fe21  1  0.62463331  0.62491378  0.12413620  1
  Fe  Fe22  1  0.12629063  0.87478520  0.12610463  1
  Fe  Fe23  1  -0.00003405  0.25107862  0.00080078  1
  Fe  Fe24  1  0.12664803  0.62485688  0.62383394  1
  Fe  Fe25  1  0.24802622  -0.00210535  0.50248655  1
  Fe  Fe26  1  0.37560017  0.87567095  0.87236749  1
  Fe  Fe27  1  0.87585666  0.37725511  0.12385992  1
  Fe  Fe28  1  0.87737259  0.87482458  0.12301033  1
  Fe  Fe29  1  0.50145644  0.00034188  -0.00300700  1
  Fe  Fe30  1  0.87300008  0.37969335  0.61979879  1
  Fe  Fe31  1  0.87495337  0.62427341  0.88154921  1
  Fe  Fe32  1  0.50080598  0.49970869  -0.00140637  1
  Fe  Fe33  1  0.24815412  0.74965505  -0.00124177  1
  Fe  Fe34  1  0.62546281  0.12446165  0.87282391  1
  Fe  Fe35  1  0.50075252  0.25053476  -0.00146755  1
  Fe  Fe36  1  0.87688726  0.62411222  0.11940309  1
  Fe  Fe37  1  0.24738562  0.49839801  0.00031890  1
  Fe  Fe38  1  0.12394818  0.37621101  0.37726455  1
  Fe  Fe39  1  0.12316843  0.87325761  0.63079418  1
  Fe  Fe40  1  0.74910672  -0.00250645  -0.00125393  1
  Fe  Fe41  1  0.37361227  0.12522146  0.37749275  1
  Fe  Fe42  1  0.62338452  0.87509830  0.12642257  1
  Fe  Fe43  1  0.12466981  0.37452376  0.12659335  1
  Fe  Fe44  1  0.87242631  0.12282236  0.62130488  1
  Fe  Fe45  1  0.37570812  0.12509776  0.12372701  1
  Fe  Fe46  1  0.12436837  0.12607443  0.62730506  1
  Fe  Fe47  1  0.37396189  0.62482596  0.62373110  1
  Fe  Fe48  1  0.75176840  0.75108798  0.24799947  1
  Fe  Fe49  1  0.87352034  0.62362504  0.62131772  1
  Fe  Fe50  1  0.00069644  0.75044392  0.50108430  1
  Fe  Fe51  1  0.75160421  0.25343949  0.74763095  1
  Fe  Fe52  1  0.75197563  -0.00162124  0.74982450  1
  Fe  Fe53  1  0.12567046  0.87394599  0.37361273  1
  Fe  Fe54  1  0.37421634  0.62386756  0.12346800  1
  Fe  Fe55  1  0.24748907  0.00455210  -0.00597350  1
  Fe  Fe56  1  0.49928861  0.25034840  0.74943160  1
  Fe  Fe57  1  0.37347331  0.62592929  0.37725557  1
  Fe  Fe58  1  0.87424354  0.12334608  0.12660075  1
  Fe  Fe59  1  0.62656125  0.37767240  0.87092308  1
  Fe  Fe60  1  0.75037656  0.50043498  0.24921489  1
  Fe  Fe61  1  0.87464968  0.87750706  0.37566580  1
  Fe  Fe62  1  0.12507335  0.37033344  0.87216073  1
  Fe  Fe63  1  0.25137357  0.50004574  0.74949864  1
  Fe  Fe64  1  0.25158357  0.50001799  0.25207963  1
  Fe  Fe65  1  0.87495419  0.12677249  0.87569187  1
  Fe  Fe66  1  0.62768313  0.37432083  0.37374751  1
  Fe  Fe67  1  0.24858224  0.25275243  0.50214440  1
  Fe  Fe68  1  0.50391890  -0.00091805  0.49943587  1
  Fe  Fe69  1  0.74860443  0.25230139  0.00101399  1
  Fe  Fe70  1  0.37406835  0.87610954  0.62874176  1
  Fe  Fe71  1  0.25013975  0.24999291  0.25096807  1
  Fe  Fe72  1  0.62570084  0.87367131  0.62817626  1
  Fe  Fe73  1  0.50342550  0.25087555  0.50004306  1
  Fe  Fe74  1  0.87435780  0.62334816  0.37706481  1
  Fe  Fe75  1  -0.00396160  0.25139433  0.74678937  1
  Fe  Fe76  1  0.62619547  0.12431360  0.12654001  1
  Fe  Fe77  1  0.37604856  0.37554480  0.62393216  1
  Fe  Fe78  1  0.50047930  0.75097879  0.50108567  1
  Fe  Fe79  1  0.50134670  0.75021509  -0.00222262  1
  Fe  Fe80  1  0.62707280  0.12532157  0.62586925  1
  Fe  Fe81  1  0.87748946  0.87251567  0.87408002  1
  Fe  Fe82  1  0.37551181  0.12325396  0.62548218  1
  Fe  Fe83  1  0.00174469  0.00120995  -0.00200778  1
  Fe  Fe84  1  -0.00060391  -0.00147279  0.50217424  1
  Fe  Fe85  1  0.37413550  0.87742517  0.12435288  1
  Fe  Fe86  1  0.12448533  0.12622034  0.12520906  1
  Fe  Fe87  1  0.49995361  0.24812268  0.25149913  1
  Fe  Fe88  1  0.62666495  0.62278985  0.87500617  1
  Fe  Fe89  1  0.50142849  0.49850671  0.49823514  1
  Co  Co90  1  0.62504921  0.37807933  0.62750098  1
  Co  Co91  1  0.24987582  0.75331321  0.50233688  1
  Co  Co92  1  0.62464442  0.87477744  0.87143746  1
  Co  Co93  1  0.75545318  0.50042046  0.75113874  1
  Co  Co94  1  0.75137860  0.25180533  0.49941316  1
  Co  Co95  1  -0.00233320  0.00353562  0.74960048  1
  Co  Co96  1  0.00376151  0.49716471  -0.00165130  1
  Co  Co97  1  0.87422065  0.38021572  0.37775954  1
  Co  Co98  1  0.37385216  0.62524992  0.87804561  1
  Co  Co99  1  -0.00309774  0.74388692  0.74889977  1
  Co  Co100  1  0.12340699  0.37580190  0.62679671  1
  Co  Co101  1  0.87509858  0.37335936  0.87697619  1
  Co  Co102  1  0.25169511  0.74961359  0.24907434  1
  Co  Co103  1  0.74808534  0.75245707  -0.00006495  1
  Co  Co104  1  0.37553140  0.37260001  0.37565916  1
  Co  Co105  1  0.00269032  0.50173241  0.50033107  1
  Co  Co106  1  0.25094890  0.49716983  0.50050645  1
  Co  Co107  1  0.49954973  0.50077836  0.25285920  1
  Co  Co108  1  0.75006065  -0.00310783  0.24774338  1
  Co  Co109  1  0.24805038  0.00364972  0.75234069  1
  Co  Co110  1  0.87266445  0.11938490  0.37578741  1
  Co  Co111  1  0.00397551  0.75055426  0.00142306  1
  Co  Co112  1  0.49578294  0.50092710  0.75137804  1
  Co  Co113  1  0.74751730  -0.00381703  0.50190887  1
  Co  Co114  1  0.75428616  0.25166197  0.24966769  1
  Co  Co115  1  0.25282114  0.24803027  0.74746839  1
  Co  Co116  1  0.87520185  0.87328750  0.62597627  1
  Co  Co117  1  0.25074177  0.24874404  0.00111046  1
  Co  Co118  1  0.25096574  0.74781454  0.75060419  1
  Co  Co119  1  0.12158427  0.13163831  0.87202250  1
  Co  Co120  1  0.12565232  0.62435627  0.12536103  1
  Co  Co121  1  0.62437306  0.87310757  0.37253030  1
  Co  Co122  1  0.74475111  0.50094016  0.49861214  1
  Co  Co123  1  0.37759711  0.12588971  0.87420931  1
  Co  Co124  1  0.00110965  -0.00001541  0.24914053  1
  Co  Co125  1  0.49969404  0.00186633  0.25176856  1
  Co  Co126  1  0.74814353  0.49665323  0.00068885  1
  Co  Co127  1  0.50088113  0.00090843  0.74910466  1
