# generated using pymatgen
data_Fe45Co19
_symmetry_space_group_name_H-M   'P 1'
_cell_length_a   11.41430242
_cell_length_b   11.41480173
_cell_length_c   11.41548540
_cell_angle_alpha   90.00571522
_cell_angle_beta   89.99483661
_cell_angle_gamma   90.00407009
_symmetry_Int_Tables_number   1
_chemical_formula_structural   Fe45Co19
_chemical_formula_sum   'Fe90 Co38'
_cell_volume   1487.34639454
_cell_formula_units_Z   2
loop_
 _symmetry_equiv_pos_site_id
 _symmetry_equiv_pos_as_xyz
  1  'x, y, z'
loop_
 _atom_site_type_symbol
 _atom_site_label
 _atom_site_symmetry_multiplicity
 _atom_site_fract_x
 _atom_site_fract_y
 _atom_site_fract_z
 _atom_site_occupancy
  Fe  Fe0  1  0.86721880  0.62603461  0.87989611  1
  Fe  Fe1  1  0.62692738  0.37705585  0.37407057  1
  Fe  Fe2  1  0.37753072  0.37312822  0.62386560  1
  Fe  Fe3  1  -0.00075684  0.50143633  0.24980172  1
  Fe  Fe4  1  0.12450239  0.12289828  0.62423687  1
  Fe  Fe5  1  0.12427993  0.37411995  0.12391135  1
  Fe  Fe6  1  0.50020260  0.50171804  0.49866726  1
  Fe  Fe7  1  0.62636150  0.87732077  0.63012995  1
  Fe  Fe8  1  0.12428958  0.87698680  0.87636871  1
  Fe  Fe9  1  0.25170208  0.50112836  0.24851778  1
  Fe  Fe10  1  0.24988189  0.50379545  0.50246892  1
  Fe  Fe11  1  0.74870779  0.25263931  0.50205622  1
  Fe  Fe12  1  -0.00138341  0.50197408  0.75354510  1
  Fe  Fe13  1  0.50477750  0.49741262  -0.00361153  1
  Fe  Fe14  1  0.12095867  0.87422875  0.62400183  1
  Fe  Fe15  1  0.87638752  0.37448168  0.62849649  1
  Fe  Fe16  1  0.62181343  0.37576673  0.62839594  1
  Fe  Fe17  1  0.12660782  0.37693797  0.37476222  1
  Fe  Fe18  1  0.24875840  0.75243395  0.24669306  1
  Fe  Fe19  1  0.74827353  0.50125280  0.75236218  1
  Fe  Fe20  1  0.74887861  -0.00068299  -0.00119467  1
  Fe  Fe21  1  0.61941709  0.87981124  0.12689904  1
  Fe  Fe22  1  0.50048124  0.50274954  0.25094271  1
  Fe  Fe23  1  -0.00344932  0.00002348  0.75090122  1
  Fe  Fe24  1  0.87708638  0.87640247  0.12688531  1
  Fe  Fe25  1  0.62381714  0.87508126  0.37318998  1
  Fe  Fe26  1  0.12676837  0.37402286  0.87458106  1
  Fe  Fe27  1  0.00051827  -0.00294224  0.25296868  1
  Fe  Fe28  1  -0.00036610  0.24923302  0.25148887  1
  Fe  Fe29  1  0.50190564  0.24940368  -0.00261243  1
  Fe  Fe30  1  0.37409254  0.37334443  0.37723380  1
  Fe  Fe31  1  0.87317346  0.12417651  0.37625635  1
  Fe  Fe32  1  -0.00182306  0.75209796  -0.00045604  1
  Fe  Fe33  1  0.37693480  0.62617601  0.12246660  1
  Fe  Fe34  1  0.37800769  0.12454870  0.12419222  1
  Fe  Fe35  1  0.37631114  0.62489193  0.87486502  1
  Fe  Fe36  1  -0.00303417  0.49764357  -0.00148426  1
  Fe  Fe37  1  0.74938030  0.49770027  0.24650395  1
  Fe  Fe38  1  0.50336634  0.74782314  0.75116585  1
  Fe  Fe39  1  0.62327134  0.62223924  0.62347962  1
  Fe  Fe40  1  -0.00186780  0.25109947  -0.00165949  1
  Fe  Fe41  1  0.86837444  0.87290194  0.87182814  1
  Fe  Fe42  1  0.87538964  0.62538137  0.62405411  1
  Fe  Fe43  1  0.87017955  0.62497045  0.37396216  1
  Fe  Fe44  1  0.62656911  0.62248485  0.12096448  1
  Fe  Fe45  1  0.25159362  0.24860639  0.74845240  1
  Fe  Fe46  1  0.25039994  0.75262905  0.00100379  1
  Fe  Fe47  1  0.12288300  0.12261157  0.12200634  1
  Fe  Fe48  1  0.62701714  0.12399847  0.37703355  1
  Fe  Fe49  1  0.74859046  0.75092653  0.50175147  1
  Fe  Fe50  1  0.37861104  0.87188323  0.37347712  1
  Fe  Fe51  1  0.49917022  -0.00122542  0.50071682  1
  Fe  Fe52  1  0.37515715  0.37523078  0.87449909  1
  Fe  Fe53  1  0.24938451  0.74875400  0.74956000  1
  Fe  Fe54  1  0.12623575  0.62506095  0.87568516  1
  Fe  Fe55  1  0.87165182  0.13011623  0.87338660  1
  Fe  Fe56  1  0.24834080  0.74780857  0.50202034  1
  Fe  Fe57  1  0.87652358  0.12635862  0.62467184  1
  Fe  Fe58  1  0.62561355  0.12709766  0.12598567  1
  Fe  Fe59  1  0.50127966  0.24831419  0.25415336  1
  Fe  Fe60  1  0.62216165  0.12426376  0.62681731  1
  Fe  Fe61  1  0.24987838  0.49980738  0.00092662  1
  Fe  Fe62  1  0.25159491  -0.00154153  0.50129482  1
  Fe  Fe63  1  0.74769599  0.75058178  0.24771216  1
  Fe  Fe64  1  0.74933484  0.00047344  0.25036448  1
  Fe  Fe65  1  -0.00105165  0.75035551  0.49491538  1
  Fe  Fe66  1  0.12655842  0.12267099  0.37666784  1
  Fe  Fe67  1  0.37416511  0.12733078  0.37934876  1
  Fe  Fe68  1  0.87363855  0.12651907  0.12553428  1
  Fe  Fe69  1  -0.00014432  0.50181992  0.49839163  1
  Fe  Fe70  1  0.12274003  0.62691645  0.12481037  1
  Fe  Fe71  1  0.75238898  -0.00222185  0.50320749  1
  Fe  Fe72  1  0.37788598  0.37358735  0.12426695  1
  Fe  Fe73  1  0.25154464  0.50331488  0.74705583  1
  Fe  Fe74  1  0.37684346  0.62895689  0.37639690  1
  Fe  Fe75  1  0.37493480  0.12309613  0.87509574  1
  Fe  Fe76  1  0.87338015  0.62524643  0.12272419  1
  Fe  Fe77  1  0.37738796  0.87201423  0.62524073  1
  Fe  Fe78  1  0.25199834  -0.00220306  0.00279429  1
  Fe  Fe79  1  0.50336076  0.75307808  -0.00107725  1
  Fe  Fe80  1  0.24970328  0.24971027  0.24829923  1
  Fe  Fe81  1  0.25251747  -0.00065348  0.74773958  1
  Fe  Fe82  1  0.25198258  -0.00217445  0.24776267  1
  Fe  Fe83  1  0.00164811  0.25019054  0.49983720  1
  Fe  Fe84  1  0.37791222  0.87595851  0.87545267  1
  Fe  Fe85  1  0.12373244  0.37657414  0.62611815  1
  Fe  Fe86  1  0.12587234  0.12384921  0.87645631  1
  Fe  Fe87  1  0.87321498  0.37496166  0.37462653  1
  Fe  Fe88  1  0.62667820  0.12494332  0.87128063  1
  Fe  Fe89  1  -0.00187785  0.74848615  0.75239521  1
  Co  Co90  1  -0.00077125  0.75060057  0.25236484  1
  Co  Co91  1  0.62771405  0.87647183  0.87006208  1
  Co  Co92  1  0.62208582  0.37209553  0.12842386  1
  Co  Co93  1  0.50359733  0.74567026  0.24869923  1
  Co  Co94  1  0.49836525  0.00457080  0.25380237  1
  Co  Co95  1  0.74824586  0.24989391  0.74519042  1
  Co  Co96  1  0.75434199  0.00223571  0.74850283  1
  Co  Co97  1  0.12715127  0.87555381  0.37625773  1
  Co  Co98  1  0.49652790  0.24773036  0.75079912  1
  Co  Co99  1  0.74780256  0.74528924  0.74579777  1
  Co  Co100  1  0.87590003  0.37234101  0.12690178  1
  Co  Co101  1  0.62568926  0.37087328  0.87025644  1
  Co  Co102  1  0.75005274  0.49730296  0.50329811  1
  Co  Co103  1  0.25103680  0.24927880  0.00065193  1
  Co  Co104  1  0.50330363  0.00099500  -0.00289349  1
  Co  Co105  1  0.49691109  0.00055573  0.74914032  1
  Co  Co106  1  0.12703801  0.62454198  0.37349719  1
  Co  Co107  1  0.12135724  0.87654619  0.12281179  1
  Co  Co108  1  0.87253642  0.37189227  0.87067227  1
  Co  Co109  1  0.50455340  0.25053978  0.49850920  1
  Co  Co110  1  0.24584046  0.25073547  0.50157877  1
  Co  Co111  1  0.37662747  0.12745102  0.62112814  1
  Co  Co112  1  0.62858996  0.62366756  0.37604226  1
  Co  Co113  1  0.38122733  0.87556449  0.12593122  1
  Co  Co114  1  0.87103689  0.87542498  0.37463434  1
  Co  Co115  1  0.62939318  0.62695908  0.87997593  1
  Co  Co116  1  0.50113420  0.50254365  0.75299199  1
  Co  Co117  1  0.74961598  0.25020111  0.25240904  1
  Co  Co118  1  0.12090671  0.62642280  0.62553786  1
  Co  Co119  1  0.74707090  0.75725763  0.00510651  1
  Co  Co120  1  0.37931818  0.62686376  0.62499421  1
  Co  Co121  1  0.50596271  0.75052649  0.50171668  1
  Co  Co122  1  0.00334559  0.24837586  0.75029050  1
  Co  Co123  1  -0.00241205  -0.00076111  0.49951375  1
  Co  Co124  1  0.74861779  0.25349418  0.00124109  1
  Co  Co125  1  -0.00618719  -0.00023937  -0.00426001  1
  Co  Co126  1  0.74912253  0.49071757  -0.00027355  1
  Co  Co127  1  0.87679300  0.87239983  0.62577661  1
