# generated using pymatgen
data_Fe45Co19
_symmetry_space_group_name_H-M   'P 1'
_cell_length_a   11.41511922
_cell_length_b   11.41542201
_cell_length_c   11.41570044
_cell_angle_alpha   89.99710059
_cell_angle_beta   89.99773690
_cell_angle_gamma   89.99520906
_symmetry_Int_Tables_number   1
_chemical_formula_structural   Fe45Co19
_chemical_formula_sum   'Fe90 Co38'
_cell_volume   1487.56168840
_cell_formula_units_Z   2
loop_
 _symmetry_equiv_pos_site_id
 _symmetry_equiv_pos_as_xyz
  1  'x, y, z'
loop_
 _atom_site_type_symbol
 _atom_site_label
 _atom_site_symmetry_multiplicity
 _atom_site_fract_x
 _atom_site_fract_y
 _atom_site_fract_z
 _atom_site_occupancy
  Fe  Fe0  1  0.25307132  0.74935595  0.24960397  1
  Fe  Fe1  1  0.49913146  -0.00182658  0.74894353  1
  Fe  Fe2  1  0.12648636  0.12673683  0.62670763  1
  Fe  Fe3  1  0.25010183  -0.00053349  0.75016552  1
  Fe  Fe4  1  0.37759048  0.37690622  0.37532615  1
  Fe  Fe5  1  0.75049200  0.74990725  0.49878804  1
  Fe  Fe6  1  0.25184131  -0.00006327  0.24692337  1
  Fe  Fe7  1  0.75472482  0.50322154  0.75173218  1
  Fe  Fe8  1  -0.00046709  0.50112103  0.50073014  1
  Fe  Fe9  1  0.49655567  -0.00120189  0.50355999  1
  Fe  Fe10  1  0.62960845  0.37628346  0.87691749  1
  Fe  Fe11  1  0.87363655  0.87724979  0.87558376  1
  Fe  Fe12  1  0.49746922  -0.00308063  0.24664026  1
  Fe  Fe13  1  0.75365137  0.24563959  -0.00170210  1
  Fe  Fe14  1  0.49996814  -0.00206579  0.00201894  1
  Fe  Fe15  1  -0.00066995  0.74927549  0.75226496  1
  Fe  Fe16  1  0.12316694  0.12304833  0.87391652  1
  Fe  Fe17  1  0.12733752  0.87570599  0.37530122  1
  Fe  Fe18  1  0.38022915  0.62960243  0.12410271  1
  Fe  Fe19  1  0.74759203  0.74945329  0.24892828  1
  Fe  Fe20  1  0.74960192  0.24750499  0.75052669  1
  Fe  Fe21  1  0.25087665  0.50492869  0.00207811  1
  Fe  Fe22  1  0.37482237  0.12726224  0.12338140  1
  Fe  Fe23  1  0.37620742  0.37197546  0.12241303  1
  Fe  Fe24  1  0.50149627  0.24967730  -0.00186587  1
  Fe  Fe25  1  -0.00070672  0.25181155  0.75285874  1
  Fe  Fe26  1  0.00314938  0.74780655  -0.00069986  1
  Fe  Fe27  1  0.00044091  -0.00187202  0.24948819  1
  Fe  Fe28  1  0.25062146  0.50101373  0.75090283  1
  Fe  Fe29  1  0.12341151  0.62505300  0.62710675  1
  Fe  Fe30  1  0.87422671  0.62501104  0.37276938  1
  Fe  Fe31  1  0.13023614  0.87396755  0.12004673  1
  Fe  Fe32  1  0.37637020  0.12535900  0.37601326  1
  Fe  Fe33  1  0.00051894  -0.00085049  0.49982134  1
  Fe  Fe34  1  0.87484802  0.12296153  0.62753035  1
  Fe  Fe35  1  0.74782858  0.50048109  0.50009122  1
  Fe  Fe36  1  0.25180283  -0.00093352  0.50344520  1
  Fe  Fe37  1  0.75020465  0.75053202  0.74912878  1
  Fe  Fe38  1  0.49976421  0.75091238  0.75478915  1
  Fe  Fe39  1  0.12517754  0.37517904  0.62688467  1
  Fe  Fe40  1  0.25151805  0.25098891  0.50016968  1
  Fe  Fe41  1  -0.00053066  0.74886622  0.49727657  1
  Fe  Fe42  1  -0.00195369  0.00210733  0.00058496  1
  Fe  Fe43  1  0.12185768  0.12894651  0.12625280  1
  Fe  Fe44  1  0.87386486  0.37595712  0.62594522  1
  Fe  Fe45  1  0.62443872  0.87649472  0.37435987  1
  Fe  Fe46  1  0.25289488  0.74878774  0.49779725  1
  Fe  Fe47  1  0.12677884  0.37704821  0.37413722  1
  Fe  Fe48  1  0.74789830  0.25062289  0.50050362  1
  Fe  Fe49  1  0.74986767  0.00000385  0.24854532  1
  Fe  Fe50  1  0.87562256  0.37213014  0.12191141  1
  Fe  Fe51  1  0.12618674  0.87236771  0.62618874  1
  Fe  Fe52  1  0.37679406  0.62537831  0.62651095  1
  Fe  Fe53  1  0.24973368  0.74773568  0.75618259  1
  Fe  Fe54  1  0.49663412  0.74955648  0.49632154  1
  Fe  Fe55  1  0.50058828  0.49822968  0.74893622  1
  Fe  Fe56  1  0.62493054  0.12583233  0.12472090  1
  Fe  Fe57  1  0.00121884  0.75149034  0.25025659  1
  Fe  Fe58  1  0.25053220  0.25214185  0.25011826  1
  Fe  Fe59  1  0.74847400  0.25084647  0.24972935  1
  Fe  Fe60  1  0.37430581  0.37552272  0.87519530  1
  Fe  Fe61  1  0.12329674  0.37909325  0.87567909  1
  Fe  Fe62  1  0.37512134  0.12567695  0.87342060  1
  Fe  Fe63  1  0.87586807  0.87487570  0.62446385  1
  Fe  Fe64  1  0.24763398  0.24909283  -0.00257112  1
  Fe  Fe65  1  0.75022141  -0.00033709  0.50053261  1
  Fe  Fe66  1  0.37048172  0.87462669  0.88101466  1
  Fe  Fe67  1  0.62217635  0.12634045  0.37570950  1
  Fe  Fe68  1  0.87291540  0.37576380  0.37483375  1
  Fe  Fe69  1  0.50160921  0.49671208  0.24727280  1
  Fe  Fe70  1  0.50150850  0.25200870  0.74826715  1
  Fe  Fe71  1  0.62638572  0.12151327  0.87417148  1
  Fe  Fe72  1  0.12722152  0.62292972  0.37115726  1
  Fe  Fe73  1  0.62429141  0.62526622  0.62521498  1
  Fe  Fe74  1  0.12504420  0.12510842  0.37382526  1
  Fe  Fe75  1  0.62272471  0.87360789  0.62413695  1
  Fe  Fe76  1  0.25210624  0.50153422  0.50097490  1
  Fe  Fe77  1  0.87656026  0.12497876  0.37256861  1
  Fe  Fe78  1  0.62845019  0.87792058  0.87783564  1
  Fe  Fe79  1  0.62598722  0.62336258  0.87691181  1
  Fe  Fe80  1  0.50204458  0.25475652  0.50540761  1
  Fe  Fe81  1  0.87331023  0.87424022  0.12492627  1
  Fe  Fe82  1  -0.00055380  0.25050042  0.49892592  1
  Fe  Fe83  1  0.50289908  0.49903724  0.00045288  1
  Fe  Fe84  1  -0.00410561  0.50373931  -0.00097674  1
  Fe  Fe85  1  0.12317645  0.37535020  0.12277335  1
  Fe  Fe86  1  0.62206909  0.62308100  0.37362579  1
  Fe  Fe87  1  -0.00084773  0.49838092  0.24934467  1
  Fe  Fe88  1  0.74748163  0.49966894  0.24441757  1
  Fe  Fe89  1  0.74757483  0.74733473  0.00246016  1
  Co  Co90  1  0.24805625  0.25093383  0.75432572  1
  Co  Co91  1  0.37180950  0.37496092  0.62765963  1
  Co  Co92  1  0.49953563  0.25017783  0.24840440  1
  Co  Co93  1  0.12173673  0.62036304  0.87306591  1
  Co  Co94  1  0.25350222  0.49852576  0.24565172  1
  Co  Co95  1  0.12346436  0.62409834  0.12794671  1
  Co  Co96  1  0.62360594  0.37488750  0.37307305  1
  Co  Co97  1  0.75033031  0.50300015  0.00383815  1
  Co  Co98  1  0.37284710  0.87845711  0.37454725  1
  Co  Co99  1  0.49868126  0.75488608  0.25334244  1
  Co  Co100  1  0.12657696  0.87649828  0.87851182  1
  Co  Co101  1  0.24692861  0.74098648  -0.00303821  1
  Co  Co102  1  0.87306911  0.37569513  0.87673733  1
  Co  Co103  1  0.62380206  0.12332726  0.62469820  1
  Co  Co104  1  -0.00478174  0.50087614  0.74940628  1
  Co  Co105  1  0.37431148  0.12803456  0.62742284  1
  Co  Co106  1  0.50279084  0.75253815  -0.00407337  1
  Co  Co107  1  0.75202558  0.00274480  0.00379127  1
  Co  Co108  1  0.63034391  0.37787232  0.62881407  1
  Co  Co109  1  0.87379239  0.62865425  0.87728490  1
  Co  Co110  1  0.50093183  0.49781789  0.50348473  1
  Co  Co111  1  0.00266711  -0.00261212  0.74916045  1
  Co  Co112  1  0.37413480  0.87089940  0.62793959  1
  Co  Co113  1  0.62530785  0.87410438  0.12489247  1
  Co  Co114  1  0.87767529  0.12718511  0.12899720  1
  Co  Co115  1  0.37172150  0.87104072  0.11865546  1
  Co  Co116  1  0.62580968  0.37110801  0.12123457  1
  Co  Co117  1  0.87688079  0.62723835  0.12639530  1
  Co  Co118  1  0.87488460  0.62632547  0.62300997  1
  Co  Co119  1  0.87450596  0.87470423  0.37381748  1
  Co  Co120  1  0.37877017  0.62217908  0.87602787  1
  Co  Co121  1  0.24914140  0.00604427  0.00031985  1
  Co  Co122  1  -0.00115448  0.24705926  -0.00502262  1
  Co  Co123  1  0.00134827  0.25418956  0.25294259  1
  Co  Co124  1  0.74748035  -0.00249755  0.74693280  1
  Co  Co125  1  0.37669705  0.62076030  0.37306792  1
  Co  Co126  1  0.87432809  0.11939267  0.87023453  1
  Co  Co127  1  0.61971623  0.62780669  0.12491551  1
