# generated using pymatgen
data_Fe45Co19
_symmetry_space_group_name_H-M   'P 1'
_cell_length_a   11.41565516
_cell_length_b   11.41535610
_cell_length_c   11.41545403
_cell_angle_alpha   89.99925566
_cell_angle_beta   90.00345183
_cell_angle_gamma   90.00496062
_symmetry_Int_Tables_number   1
_chemical_formula_structural   Fe45Co19
_chemical_formula_sum   'Fe90 Co38'
_cell_volume   1487.59082818
_cell_formula_units_Z   2
loop_
 _symmetry_equiv_pos_site_id
 _symmetry_equiv_pos_as_xyz
  1  'x, y, z'
loop_
 _atom_site_type_symbol
 _atom_site_label
 _atom_site_symmetry_multiplicity
 _atom_site_fract_x
 _atom_site_fract_y
 _atom_site_fract_z
 _atom_site_occupancy
  Fe  Fe0  1  0.74946707  -0.00294841  0.25070286  1
  Fe  Fe1  1  0.75128998  0.75338244  0.74930117  1
  Fe  Fe2  1  0.24986126  -0.00161345  -0.00184216  1
  Fe  Fe3  1  0.87479351  0.37562859  0.62541275  1
  Fe  Fe4  1  0.87725623  0.37468911  0.37703891  1
  Fe  Fe5  1  0.12599200  0.62365255  0.37643027  1
  Fe  Fe6  1  0.24985277  0.25058980  -0.00196106  1
  Fe  Fe7  1  0.62572702  0.12424181  0.87398929  1
  Fe  Fe8  1  0.00044230  0.50107964  0.25182403  1
  Fe  Fe9  1  0.50102401  -0.00146954  0.74793418  1
  Fe  Fe10  1  0.37254315  0.62341271  0.87410258  1
  Fe  Fe11  1  0.50048858  0.00082274  0.25122645  1
  Fe  Fe12  1  0.87637586  0.87336648  0.37641557  1
  Fe  Fe13  1  0.25531005  0.75377561  0.50197044  1
  Fe  Fe14  1  0.12068990  0.87685115  0.62596970  1
  Fe  Fe15  1  0.12477738  0.87583074  0.12560663  1
  Fe  Fe16  1  0.50103910  0.50199835  0.75005149  1
  Fe  Fe17  1  0.37588512  0.87365717  0.12593101  1
  Fe  Fe18  1  0.87333778  0.62619565  0.37410655  1
  Fe  Fe19  1  0.62260162  0.37578887  0.37648108  1
  Fe  Fe20  1  0.12537709  0.12427447  0.87339357  1
  Fe  Fe21  1  0.12592160  0.12187072  0.62306419  1
  Fe  Fe22  1  0.62368950  0.63056269  0.62509604  1
  Fe  Fe23  1  0.62823920  0.62317369  0.87526592  1
  Fe  Fe24  1  0.62709531  0.12676835  0.12453694  1
  Fe  Fe25  1  -0.00004211  0.74730159  0.50134432  1
  Fe  Fe26  1  0.12362891  0.87449883  0.37631640  1
  Fe  Fe27  1  0.49569689  0.49913203  0.24459134  1
  Fe  Fe28  1  0.00079088  0.24816387  0.74739648  1
  Fe  Fe29  1  0.62227962  0.87370569  0.37961068  1
  Fe  Fe30  1  0.75342368  -0.00619602  0.74782236  1
  Fe  Fe31  1  0.37633715  0.37765275  0.62434402  1
  Fe  Fe32  1  0.87347561  0.62724314  0.62418499  1
  Fe  Fe33  1  0.24732693  0.75071295  -0.00010162  1
  Fe  Fe34  1  0.24974542  -0.00087274  0.25241181  1
  Fe  Fe35  1  0.37585231  0.62451951  0.37440748  1
  Fe  Fe36  1  0.87257930  0.12667388  0.12723899  1
  Fe  Fe37  1  0.87255268  0.62768792  0.12429968  1
  Fe  Fe38  1  0.37395928  0.12464098  0.87253665  1
  Fe  Fe39  1  0.87592053  0.87256214  0.12205353  1
  Fe  Fe40  1  0.74951333  0.50201316  0.50047536  1
  Fe  Fe41  1  0.49909176  0.25156923  0.24950962  1
  Fe  Fe42  1  0.87447145  0.12501229  0.87329598  1
  Fe  Fe43  1  0.00109214  0.50439104  0.74631551  1
  Fe  Fe44  1  0.37192442  0.12085653  0.62484369  1
  Fe  Fe45  1  0.37326102  0.12679171  0.12525131  1
  Fe  Fe46  1  0.12752558  0.37665082  0.12703014  1
  Fe  Fe47  1  0.75272604  -0.00266074  0.50240688  1
  Fe  Fe48  1  0.50134981  0.74979469  0.24894293  1
  Fe  Fe49  1  0.62475671  0.37779104  0.87733849  1
  Fe  Fe50  1  0.12695359  0.12567671  0.12559111  1
  Fe  Fe51  1  0.12040182  0.87388024  0.87178468  1
  Fe  Fe52  1  0.50194485  0.50333694  0.50200084  1
  Fe  Fe53  1  0.75056808  0.49687622  0.24939429  1
  Fe  Fe54  1  0.00029235  0.24897633  0.25265710  1
  Fe  Fe55  1  0.12866922  0.62263937  0.12697985  1
  Fe  Fe56  1  0.62474995  0.62498872  0.37363906  1
  Fe  Fe57  1  0.25069556  0.49825313  0.49775422  1
  Fe  Fe58  1  0.12583519  0.12594723  0.37938043  1
  Fe  Fe59  1  0.75189429  0.24992597  0.49938054  1
  Fe  Fe60  1  0.74692329  0.75224170  0.24913363  1
  Fe  Fe61  1  0.62779459  0.12351929  0.62595683  1
  Fe  Fe62  1  0.37635615  0.87416439  0.87351875  1
  Fe  Fe63  1  0.74908144  0.25177391  0.75164457  1
  Fe  Fe64  1  0.25198117  0.75104171  0.74571021  1
  Fe  Fe65  1  0.62578031  0.37520199  0.62536007  1
  Fe  Fe66  1  0.37582520  0.37704342  0.87680386  1
  Fe  Fe67  1  0.24990809  0.25175743  0.74748875  1
  Fe  Fe68  1  0.62461605  0.37447428  0.12000796  1
  Fe  Fe69  1  -0.00001652  0.24961239  -0.00024816  1
  Fe  Fe70  1  0.12263794  0.37644480  0.62056467  1
  Fe  Fe71  1  0.00125936  0.74933817  0.24875359  1
  Fe  Fe72  1  0.50297148  0.74664833  0.00149128  1
  Fe  Fe73  1  0.00056172  0.50237968  0.00059708  1
  Fe  Fe74  1  0.25159309  0.25545887  0.25550875  1
  Fe  Fe75  1  0.87403013  0.62798348  0.87689974  1
  Fe  Fe76  1  0.75071861  -0.00167589  -0.00048367  1
  Fe  Fe77  1  0.00001004  0.00045472  0.25185393  1
  Fe  Fe78  1  0.12662027  0.62463183  0.87196518  1
  Fe  Fe79  1  0.00015741  0.00040024  -0.00079317  1
  Fe  Fe80  1  0.62743022  0.12532421  0.37544875  1
  Fe  Fe81  1  0.12408620  0.37656524  0.87371398  1
  Fe  Fe82  1  0.49971407  0.24727855  0.50238405  1
  Fe  Fe83  1  0.37397565  0.12420815  0.37794753  1
  Fe  Fe84  1  0.49853109  0.00160873  0.00045167  1
  Fe  Fe85  1  0.62437613  0.87483193  0.87509961  1
  Fe  Fe86  1  0.87493740  0.37274953  0.12415649  1
  Fe  Fe87  1  0.25025991  0.75050532  0.25170269  1
  Fe  Fe88  1  0.87536708  0.37752983  0.87302467  1
  Fe  Fe89  1  0.49991323  0.25006684  0.74980534  1
  Co  Co90  1  0.74962019  0.50203973  0.74752537  1
  Co  Co91  1  0.25182450  0.25253332  0.50052960  1
  Co  Co92  1  0.75028598  0.25071154  -0.00339215  1
  Co  Co93  1  0.62830652  0.62232103  0.12757040  1
  Co  Co94  1  0.62229448  0.87749931  0.12412458  1
  Co  Co95  1  0.50011111  0.00133433  0.50026932  1
  Co  Co96  1  0.24861274  0.50033246  -0.00076407  1
  Co  Co97  1  0.25066320  -0.00582115  0.49938506  1
  Co  Co98  1  0.49888354  0.74765691  0.75214827  1
  Co  Co99  1  0.37991736  0.87732196  0.62753131  1
  Co  Co100  1  -0.00295291  0.50419662  0.50084418  1
  Co  Co101  1  0.37061447  0.62755159  0.12474263  1
  Co  Co102  1  0.74786612  0.25418581  0.25140035  1
  Co  Co103  1  0.12014296  0.37556234  0.37867729  1
  Co  Co104  1  0.37740953  0.87591178  0.37179470  1
  Co  Co105  1  0.88030954  0.87292895  0.62382137  1
  Co  Co106  1  0.37235471  0.37361210  0.12115235  1
  Co  Co107  1  0.38070696  0.37619546  0.37921258  1
  Co  Co108  1  0.50016976  0.24743219  -0.00181102  1
  Co  Co109  1  0.24889758  -0.00273347  0.75120131  1
  Co  Co110  1  0.25223192  0.49704190  0.25445119  1
  Co  Co111  1  0.24882549  0.49777940  0.74868920  1
  Co  Co112  1  0.87165323  0.12537191  0.37195991  1
  Co  Co113  1  0.87821881  0.87032798  0.87817931  1
  Co  Co114  1  0.75058419  0.74978686  0.49973847  1
  Co  Co115  1  0.37457900  0.62216389  0.62559064  1
  Co  Co116  1  0.12956402  0.62445606  0.62213922  1
  Co  Co117  1  0.87275981  0.12545773  0.62787050  1
  Co  Co118  1  -0.00366311  0.24569887  0.50067048  1
  Co  Co119  1  0.62111637  0.87131800  0.62277940  1
  Co  Co120  1  0.00476856  0.74715407  0.00189910  1
  Co  Co121  1  0.49480347  0.74954994  0.49940250  1
  Co  Co122  1  0.75284838  0.49950495  0.00138511  1
  Co  Co123  1  0.74510473  0.75082752  0.00120829  1
  Co  Co124  1  -0.00289586  0.00240668  0.49818460  1
  Co  Co125  1  0.49877614  0.50477749  0.00195467  1
  Co  Co126  1  -0.00299500  0.00091339  0.75076192  1
  Co  Co127  1  -0.00004091  0.74540835  0.74722595  1
