# generated using pymatgen
data_Fe45Co19
_symmetry_space_group_name_H-M   'P 1'
_cell_length_a   11.41471334
_cell_length_b   11.41431861
_cell_length_c   11.41444877
_cell_angle_alpha   89.99917915
_cell_angle_beta   89.99853679
_cell_angle_gamma   90.00204672
_symmetry_Int_Tables_number   1
_chemical_formula_structural   Fe45Co19
_chemical_formula_sum   'Fe90 Co38'
_cell_volume   1487.20193838
_cell_formula_units_Z   2
loop_
 _symmetry_equiv_pos_site_id
 _symmetry_equiv_pos_as_xyz
  1  'x, y, z'
loop_
 _atom_site_type_symbol
 _atom_site_label
 _atom_site_symmetry_multiplicity
 _atom_site_fract_x
 _atom_site_fract_y
 _atom_site_fract_z
 _atom_site_occupancy
  Fe  Fe0  1  0.49547749  0.75393524  0.49696248  1
  Fe  Fe1  1  0.49938699  0.49778655  0.49939613  1
  Fe  Fe2  1  0.25066810  0.00039988  0.50056432  1
  Fe  Fe3  1  0.25008768  0.49908027  0.00372898  1
  Fe  Fe4  1  0.75057555  0.00267331  0.74667426  1
  Fe  Fe5  1  0.37455062  0.37546296  0.87474441  1
  Fe  Fe6  1  0.50054680  0.25074968  0.74987285  1
  Fe  Fe7  1  0.62747414  0.37434561  0.62678393  1
  Fe  Fe8  1  0.74694699  -0.00442037  0.00176297  1
  Fe  Fe9  1  0.12655465  0.87226917  0.62680031  1
  Fe  Fe10  1  0.87516225  0.12464649  0.12454865  1
  Fe  Fe11  1  0.75176764  0.49959778  0.50127270  1
  Fe  Fe12  1  -0.00015892  0.24933615  0.25151135  1
  Fe  Fe13  1  0.62613775  0.62926616  0.12141828  1
  Fe  Fe14  1  0.37230350  0.37485360  0.62428341  1
  Fe  Fe15  1  0.62257492  0.12367575  0.12252565  1
  Fe  Fe16  1  -0.00050315  0.75041904  0.24970105  1
  Fe  Fe17  1  0.25047167  0.24766360  0.74889931  1
  Fe  Fe18  1  0.00277912  0.50350487  0.75080092  1
  Fe  Fe19  1  0.25235041  0.74490621  0.25327229  1
  Fe  Fe20  1  0.37631425  0.12482623  0.87689173  1
  Fe  Fe21  1  0.87474320  0.12356143  0.87650491  1
  Fe  Fe22  1  0.25243391  -0.00120611  0.00104797  1
  Fe  Fe23  1  0.62569082  0.37305606  0.12698741  1
  Fe  Fe24  1  0.37564806  0.12417857  0.37745615  1
  Fe  Fe25  1  0.37364534  0.62482775  0.62223793  1
  Fe  Fe26  1  0.74787767  -0.00008651  0.25306671  1
  Fe  Fe27  1  0.87257563  0.62757120  0.12371900  1
  Fe  Fe28  1  0.12366923  0.12915769  0.12143969  1
  Fe  Fe29  1  -0.00030038  0.24919417  0.75092531  1
  Fe  Fe30  1  0.62225578  0.12444709  0.62123335  1
  Fe  Fe31  1  0.50311446  0.75627023  -0.00386441  1
  Fe  Fe32  1  0.12666687  0.87373110  0.12574771  1
  Fe  Fe33  1  0.50097689  0.74867588  0.75155509  1
  Fe  Fe34  1  0.49759346  0.25194111  0.49932671  1
  Fe  Fe35  1  0.62250763  0.12314109  0.87733886  1
  Fe  Fe36  1  0.74735464  0.50400950  0.24971549  1
  Fe  Fe37  1  -0.00000100  0.49739225  0.00134667  1
  Fe  Fe38  1  0.37528617  0.37716310  0.12956838  1
  Fe  Fe39  1  0.87389448  0.37394028  0.62877937  1
  Fe  Fe40  1  0.87099804  0.37656918  0.87180465  1
  Fe  Fe41  1  0.50044124  0.24901535  0.25185634  1
  Fe  Fe42  1  0.87157954  0.87317483  0.12754726  1
  Fe  Fe43  1  0.24924013  0.50230113  0.49574556  1
  Fe  Fe44  1  0.24857079  0.50333278  0.74995612  1
  Fe  Fe45  1  0.12625959  0.37494194  0.62376991  1
  Fe  Fe46  1  0.37576926  0.62527549  0.87794796  1
  Fe  Fe47  1  0.12337914  0.12726800  0.62050147  1
  Fe  Fe48  1  0.75186583  0.25113892  0.49860598  1
  Fe  Fe49  1  -0.00043424  0.75109219  -0.00088651  1
  Fe  Fe50  1  0.12693028  0.37328818  0.37396756  1
  Fe  Fe51  1  0.87250631  0.62410748  0.87723804  1
  Fe  Fe52  1  0.12549134  0.62483198  0.12478312  1
  Fe  Fe53  1  0.25079789  0.24837479  0.25037971  1
  Fe  Fe54  1  0.24727491  0.74493605  0.75016077  1
  Fe  Fe55  1  0.12485308  0.12603839  0.87851310  1
  Fe  Fe56  1  0.50106252  0.74663170  0.25398382  1
  Fe  Fe57  1  -0.00006924  -0.00224886  0.00188076  1
  Fe  Fe58  1  0.24890231  0.00320008  0.24892380  1
  Fe  Fe59  1  0.49729768  -0.00078676  0.74939467  1
  Fe  Fe60  1  0.74972831  0.24652816  0.25268915  1
  Fe  Fe61  1  0.50160241  0.49823138  0.00184506  1
  Fe  Fe62  1  0.62844258  0.37811466  0.87199117  1
  Fe  Fe63  1  0.74786588  0.74656256  0.75146924  1
  Fe  Fe64  1  0.75090935  -0.00316889  0.49823801  1
  Fe  Fe65  1  0.62539630  0.87506145  0.62462240  1
  Fe  Fe66  1  0.50150356  0.00022173  0.25282436  1
  Fe  Fe67  1  0.37722776  0.87368562  0.12806497  1
  Fe  Fe68  1  0.12680289  0.87513283  0.87388099  1
  Fe  Fe69  1  0.87426530  0.87486315  0.87174915  1
  Fe  Fe70  1  0.87918066  0.12267712  0.37767484  1
  Fe  Fe71  1  0.74973557  0.25077939  -0.00106030  1
  Fe  Fe72  1  0.00228109  0.00010187  0.24954985  1
  Fe  Fe73  1  0.25122890  0.75066706  0.00121015  1
  Fe  Fe74  1  0.50037362  0.50196391  0.74805375  1
  Fe  Fe75  1  -0.00086820  0.49741931  0.49916587  1
  Fe  Fe76  1  0.75225696  0.75223045  0.49658275  1
  Fe  Fe77  1  0.37910751  0.12506514  0.12139312  1
  Fe  Fe78  1  -0.00062326  0.75391228  0.49977578  1
  Fe  Fe79  1  0.00086503  -0.00064790  0.74766275  1
  Fe  Fe80  1  0.62355877  0.62665135  0.62106862  1
  Fe  Fe81  1  0.87805312  0.62720036  0.62580864  1
  Fe  Fe82  1  0.87771568  0.12553044  0.62163753  1
  Fe  Fe83  1  0.87441078  0.37403416  0.12740683  1
  Fe  Fe84  1  0.12612837  0.37333162  0.87751784  1
  Fe  Fe85  1  0.37171386  0.87531377  0.62787868  1
  Fe  Fe86  1  0.87616486  0.62442308  0.37407986  1
  Fe  Fe87  1  0.12698244  0.87485851  0.37386912  1
  Fe  Fe88  1  0.00247282  0.49965548  0.24991550  1
  Fe  Fe89  1  0.62526501  0.37631845  0.37385246  1
  Co  Co90  1  0.62390198  0.87463432  0.37495423  1
  Co  Co91  1  0.87367825  0.87300037  0.62905674  1
  Co  Co92  1  0.49703035  -0.00377163  0.49956052  1
  Co  Co93  1  0.00142904  -0.00622696  0.50174812  1
  Co  Co94  1  0.50397214  0.50423087  0.24855474  1
  Co  Co95  1  0.25224759  0.74978710  0.49771134  1
  Co  Co96  1  0.87679980  0.87640741  0.37151201  1
  Co  Co97  1  0.12297820  0.12519388  0.37817213  1
  Co  Co98  1  0.62461588  0.62411151  0.38032642  1
  Co  Co99  1  0.74894463  0.24523924  0.74975494  1
  Co  Co100  1  0.12389704  0.62510458  0.62034129  1
  Co  Co101  1  0.37729772  0.62625452  0.12274694  1
  Co  Co102  1  0.37252405  0.87736787  0.37146824  1
  Co  Co103  1  0.12651162  0.62415701  0.88000431  1
  Co  Co104  1  0.37612910  0.37756514  0.37175121  1
  Co  Co105  1  -0.00459752  0.25227420  -0.00101632  1
  Co  Co106  1  0.74901068  0.74796238  0.25423667  1
  Co  Co107  1  0.62340065  0.12519437  0.37875449  1
  Co  Co108  1  0.24788899  0.50365990  0.25069693  1
  Co  Co109  1  0.74712336  0.75467705  -0.00297304  1
  Co  Co110  1  0.74985802  0.49807061  0.00398497  1
  Co  Co111  1  0.74865066  0.50596717  0.74508609  1
  Co  Co112  1  0.62709689  0.87899788  0.86871907  1
  Co  Co113  1  0.87260008  0.37663010  0.37126637  1
  Co  Co114  1  0.50122160  0.25457011  -0.00079416  1
  Co  Co115  1  0.00238591  0.74727441  0.75227308  1
  Co  Co116  1  0.62440992  0.87383136  0.13106718  1
  Co  Co117  1  0.12150261  0.62734575  0.37632115  1
  Co  Co118  1  0.25373304  0.25062687  0.00170570  1
  Co  Co119  1  0.25321923  0.24933698  0.49880012  1
  Co  Co120  1  0.24865403  0.00446193  0.74905097  1
  Co  Co121  1  0.37050063  0.87367163  0.87128131  1
  Co  Co122  1  0.12520022  0.37215539  0.12587112  1
  Co  Co123  1  0.37774364  0.62071210  0.37544277  1
  Co  Co124  1  0.37748144  0.12542608  0.62440984  1
  Co  Co125  1  -0.00190885  0.25512890  0.49853192  1
  Co  Co126  1  0.49882579  -0.00707857  -0.00073627  1
  Co  Co127  1  0.62447592  0.62090273  0.87731637  1
