# generated using pymatgen
data_Fe45Co19
_symmetry_space_group_name_H-M   'P 1'
_cell_length_a   11.41555925
_cell_length_b   11.41471578
_cell_length_c   11.41617707
_cell_angle_alpha   90.00694476
_cell_angle_beta   90.00439560
_cell_angle_gamma   90.00225781
_symmetry_Int_Tables_number   1
_chemical_formula_structural   Fe45Co19
_chemical_formula_sum   'Fe90 Co38'
_cell_volume   1487.58909498
_cell_formula_units_Z   2
loop_
 _symmetry_equiv_pos_site_id
 _symmetry_equiv_pos_as_xyz
  1  'x, y, z'
loop_
 _atom_site_type_symbol
 _atom_site_label
 _atom_site_symmetry_multiplicity
 _atom_site_fract_x
 _atom_site_fract_y
 _atom_site_fract_z
 _atom_site_occupancy
  Fe  Fe0  1  0.37596204  0.37071292  0.87404798  1
  Fe  Fe1  1  0.50139765  0.00201726  0.00018278  1
  Fe  Fe2  1  0.24818321  0.75210268  0.00090811  1
  Fe  Fe3  1  0.87329539  0.87150999  0.87845393  1
  Fe  Fe4  1  -0.00178740  0.25215469  0.00007336  1
  Fe  Fe5  1  0.37550666  0.87521923  0.37540914  1
  Fe  Fe6  1  0.50148558  0.75043786  0.50040690  1
  Fe  Fe7  1  0.12594117  0.12777567  0.37550837  1
  Fe  Fe8  1  0.12334280  0.37186465  0.62926143  1
  Fe  Fe9  1  0.87380727  0.37440407  0.37486433  1
  Fe  Fe10  1  -0.00450543  0.50222024  0.75534300  1
  Fe  Fe11  1  -0.00344670  0.00103720  0.75078341  1
  Fe  Fe12  1  0.37359380  0.37069330  0.37742162  1
  Fe  Fe13  1  0.37415708  0.12679617  0.12295723  1
  Fe  Fe14  1  0.62660840  0.87724262  0.12505465  1
  Fe  Fe15  1  -0.00087455  -0.00032887  -0.00100296  1
  Fe  Fe16  1  0.24802437  0.49648097  0.50126318  1
  Fe  Fe17  1  0.62752612  0.87839443  0.62509962  1
  Fe  Fe18  1  -0.00094809  0.25103302  0.25079548  1
  Fe  Fe19  1  0.24951223  0.75163603  0.24775307  1
  Fe  Fe20  1  0.25178351  0.00078229  0.24933591  1
  Fe  Fe21  1  0.75334498  0.49894771  0.00011294  1
  Fe  Fe22  1  0.37508144  0.62437830  0.12338110  1
  Fe  Fe23  1  0.00060203  0.25032286  0.50054640  1
  Fe  Fe24  1  0.00031730  0.75128234  0.24844179  1
  Fe  Fe25  1  0.75020184  0.74932791  0.75025766  1
  Fe  Fe26  1  0.24760330  0.49834560  -0.00271189  1
  Fe  Fe27  1  0.87297986  0.12332759  0.62287007  1
  Fe  Fe28  1  0.50208490  0.49826575  0.50066918  1
  Fe  Fe29  1  0.12347113  0.37105850  0.87200424  1
  Fe  Fe30  1  0.74704003  0.74935952  0.49939260  1
  Fe  Fe31  1  0.50398573  0.00291859  0.49809637  1
  Fe  Fe32  1  0.62759441  0.37994056  0.13069978  1
  Fe  Fe33  1  0.12300118  0.62260804  0.12292425  1
  Fe  Fe34  1  0.50017112  0.49870598  0.00060799  1
  Fe  Fe35  1  0.37402343  0.37325004  0.12304223  1
  Fe  Fe36  1  0.50305470  0.74889293  0.00123658  1
  Fe  Fe37  1  0.12319906  0.37523103  0.12499159  1
  Fe  Fe38  1  0.62744880  0.12359290  0.12877962  1
  Fe  Fe39  1  0.74951631  0.25089628  0.00353414  1
  Fe  Fe40  1  -0.00270458  0.49926158  0.25024225  1
  Fe  Fe41  1  0.12433073  0.62421825  0.37488027  1
  Fe  Fe42  1  0.25115266  0.49703896  0.25133556  1
  Fe  Fe43  1  0.50322689  0.49844568  0.74799786  1
  Fe  Fe44  1  0.37626814  0.62415162  0.62499203  1
  Fe  Fe45  1  0.12511021  0.12569688  0.12447969  1
  Fe  Fe46  1  0.74664056  0.24722112  0.49642751  1
  Fe  Fe47  1  0.37462208  0.62526456  0.87480392  1
  Fe  Fe48  1  0.74958169  0.24960834  0.74857308  1
  Fe  Fe49  1  0.62339517  0.62177972  0.37204576  1
  Fe  Fe50  1  -0.00155452  -0.00024103  0.25129677  1
  Fe  Fe51  1  0.37811343  0.36912069  0.62622229  1
  Fe  Fe52  1  -0.00069165  0.00063390  0.49825766  1
  Fe  Fe53  1  0.24895063  0.75006997  0.50251774  1
  Fe  Fe54  1  0.87455687  0.87522121  0.12218649  1
  Fe  Fe55  1  0.25221427  0.00511479  0.74939529  1
  Fe  Fe56  1  0.87319506  0.87447715  0.37616186  1
  Fe  Fe57  1  0.50289592  0.25083709  0.00023656  1
  Fe  Fe58  1  0.62738804  0.12438881  0.87465710  1
  Fe  Fe59  1  0.87675510  0.62586268  0.37765629  1
  Fe  Fe60  1  0.50067369  0.25185675  0.25040316  1
  Fe  Fe61  1  0.12481448  0.87243301  0.87146360  1
  Fe  Fe62  1  0.25111343  0.49910441  0.75088683  1
  Fe  Fe63  1  0.12480560  0.87639152  0.62754511  1
  Fe  Fe64  1  0.12585061  0.87513238  0.37462670  1
  Fe  Fe65  1  0.37603107  0.87592102  0.87646881  1
  Fe  Fe66  1  0.49933824  0.00441590  0.75086557  1
  Fe  Fe67  1  0.50572900  0.24719716  0.49748381  1
  Fe  Fe68  1  0.74913542  0.74778675  0.24780113  1
  Fe  Fe69  1  0.12411099  0.12747952  0.87411100  1
  Fe  Fe70  1  0.37377859  0.62533357  0.37631123  1
  Fe  Fe71  1  0.87354183  0.62431640  0.62487692  1
  Fe  Fe72  1  0.24937887  -0.00036935  0.00027695  1
  Fe  Fe73  1  0.50014745  0.75034565  0.74935833  1
  Fe  Fe74  1  0.49856936  -0.00081309  0.25062573  1
  Fe  Fe75  1  0.62662176  0.87734468  0.87553063  1
  Fe  Fe76  1  0.87326623  0.12799656  0.87623310  1
  Fe  Fe77  1  0.62676573  0.62300086  0.87495132  1
  Fe  Fe78  1  0.37605446  0.87770898  0.62436482  1
  Fe  Fe79  1  0.87734308  0.62554672  0.11907792  1
  Fe  Fe80  1  0.62772010  0.37540468  0.87318625  1
  Fe  Fe81  1  0.74673308  0.49943425  0.50079021  1
  Fe  Fe82  1  0.25095981  0.00464046  0.50075711  1
  Fe  Fe83  1  0.00142456  0.49863701  0.50078352  1
  Fe  Fe84  1  0.00185038  0.75093599  0.50265517  1
  Fe  Fe85  1  0.87336886  0.12547331  0.12707536  1
  Fe  Fe86  1  0.12478117  0.62558831  0.62929766  1
  Fe  Fe87  1  0.50072278  0.74892872  0.24771062  1
  Fe  Fe88  1  0.87270788  0.87725311  0.62270272  1
  Fe  Fe89  1  0.87256996  0.37508553  0.62654707  1
  Co  Co90  1  0.62572590  0.12343801  0.36865879  1
  Co  Co91  1  0.00458195  0.75175876  -0.00005153  1
  Co  Co92  1  0.75106044  0.00182368  0.00049465  1
  Co  Co93  1  0.75315768  0.00040392  0.75258428  1
  Co  Co94  1  0.12611426  0.62862154  0.87306005  1
  Co  Co95  1  0.87612531  0.12615844  0.37426644  1
  Co  Co96  1  0.37532081  0.12701303  0.37440212  1
  Co  Co97  1  0.75009105  0.50109191  0.74911259  1
  Co  Co98  1  0.87531869  0.37397490  0.12577660  1
  Co  Co99  1  0.25437605  0.75093780  0.74796606  1
  Co  Co100  1  0.62725258  0.12342691  0.62782542  1
  Co  Co101  1  0.87218586  0.37238531  0.87362656  1
  Co  Co102  1  0.74998789  0.25073744  0.25145489  1
  Co  Co103  1  -0.00054714  0.49695280  -0.00529313  1
  Co  Co104  1  0.75637930  0.50310332  0.25064474  1
  Co  Co105  1  0.74416543  0.74944475  0.00223806  1
  Co  Co106  1  0.37525352  0.12678333  0.87938345  1
  Co  Co107  1  0.74742993  0.00257140  0.49536351  1
  Co  Co108  1  0.37921665  0.12863290  0.62290713  1
  Co  Co109  1  0.12134372  0.12488793  0.62525715  1
  Co  Co110  1  0.24983651  0.25095507  0.24911994  1
  Co  Co111  1  0.25184861  0.24569890  0.74856681  1
  Co  Co112  1  -0.00384437  0.24772425  0.74856390  1
  Co  Co113  1  0.62664488  0.37850919  0.37131263  1
  Co  Co114  1  0.87321034  0.62839430  0.87891920  1
  Co  Co115  1  0.37708695  0.87551408  0.12314400  1
  Co  Co116  1  0.62498043  0.87406304  0.37336180  1
  Co  Co117  1  0.75257738  -0.00201248  0.25146736  1
  Co  Co118  1  0.62380422  0.61853040  0.12667974  1
  Co  Co119  1  0.12334588  0.87819879  0.12594478  1
  Co  Co120  1  0.49355092  0.49818246  0.25095956  1
  Co  Co121  1  0.50216918  0.24718737  0.75384736  1
  Co  Co122  1  0.62430334  0.62584551  0.62518638  1
  Co  Co123  1  0.24669467  0.24972231  0.50350030  1
  Co  Co124  1  0.12338187  0.37421386  0.37402502  1
  Co  Co125  1  0.62498065  0.37150393  0.62586276  1
  Co  Co126  1  -0.00458472  0.74979655  0.74843342  1
  Co  Co127  1  0.24883156  0.25130279  -0.00050430  1
