# generated using pymatgen
data_Fe45Co19
_symmetry_space_group_name_H-M   'P 1'
_cell_length_a   11.41394457
_cell_length_b   11.41389393
_cell_length_c   11.41525495
_cell_angle_alpha   90.00655119
_cell_angle_beta   89.99524575
_cell_angle_gamma   90.00327351
_symmetry_Int_Tables_number   1
_chemical_formula_structural   Fe45Co19
_chemical_formula_sum   'Fe90 Co38'
_cell_volume   1487.15146032
_cell_formula_units_Z   2
loop_
 _symmetry_equiv_pos_site_id
 _symmetry_equiv_pos_as_xyz
  1  'x, y, z'
loop_
 _atom_site_type_symbol
 _atom_site_label
 _atom_site_symmetry_multiplicity
 _atom_site_fract_x
 _atom_site_fract_y
 _atom_site_fract_z
 _atom_site_occupancy
  Fe  Fe0  1  0.62399007  0.12138447  0.87557463  1
  Fe  Fe1  1  0.12328978  0.87398704  0.37557641  1
  Fe  Fe2  1  0.87417634  0.12388299  0.62579905  1
  Fe  Fe3  1  0.62207399  0.87408401  0.12177636  1
  Fe  Fe4  1  0.87581219  0.12422353  0.87723424  1
  Fe  Fe5  1  0.50373743  0.24771604  0.24855056  1
  Fe  Fe6  1  0.25043554  0.74962520  0.50038875  1
  Fe  Fe7  1  0.74651555  0.74920850  0.24960794  1
  Fe  Fe8  1  0.00016285  0.50103252  0.50024001  1
  Fe  Fe9  1  0.12350599  0.87547765  0.62447281  1
  Fe  Fe10  1  -0.00206518  0.25029526  0.24604218  1
  Fe  Fe11  1  0.25039663  0.50067079  0.74915444  1
  Fe  Fe12  1  0.87571004  0.37268143  0.37410413  1
  Fe  Fe13  1  0.37567529  0.62688675  0.62572470  1
  Fe  Fe14  1  0.37990145  0.87555108  0.37337245  1
  Fe  Fe15  1  0.50228763  0.75127864  0.75201237  1
  Fe  Fe16  1  -0.00274053  -0.00001206  0.49859581  1
  Fe  Fe17  1  0.25235470  0.50168343  0.00149278  1
  Fe  Fe18  1  0.12384276  0.37484138  0.62473829  1
  Fe  Fe19  1  -0.00212820  0.74788193  0.74729546  1
  Fe  Fe20  1  0.62491389  0.37500559  0.62548559  1
  Fe  Fe21  1  0.87461342  0.87672686  0.12751835  1
  Fe  Fe22  1  0.12526384  0.62622234  0.37478198  1
  Fe  Fe23  1  0.37658525  0.87498639  0.62451933  1
  Fe  Fe24  1  0.62534356  0.12069077  0.62466646  1
  Fe  Fe25  1  0.37815762  0.87186724  0.12422337  1
  Fe  Fe26  1  0.74877792  0.25029398  0.75281689  1
  Fe  Fe27  1  0.75171466  0.49940529  -0.00106536  1
  Fe  Fe28  1  0.25160490  0.24856573  0.49940971  1
  Fe  Fe29  1  0.87458654  0.37603973  0.62769610  1
  Fe  Fe30  1  0.87448742  0.12658106  0.37334462  1
  Fe  Fe31  1  0.62827632  0.88082211  0.62452290  1
  Fe  Fe32  1  0.25083563  -0.00199777  0.75072369  1
  Fe  Fe33  1  -0.00029249  0.25071489  0.00037269  1
  Fe  Fe34  1  0.25358068  0.00133799  0.49816222  1
  Fe  Fe35  1  0.24788998  0.25062734  0.75266794  1
  Fe  Fe36  1  0.49793425  0.50527999  0.00124963  1
  Fe  Fe37  1  0.25107604  -0.00079623  0.25020071  1
  Fe  Fe38  1  0.12357059  0.37286423  0.37430508  1
  Fe  Fe39  1  0.12411545  0.37672011  0.12344185  1
  Fe  Fe40  1  -0.00002752  -0.00018589  0.25061057  1
  Fe  Fe41  1  0.25261546  0.49928865  0.24946250  1
  Fe  Fe42  1  0.25044021  0.75084332  0.25128128  1
  Fe  Fe43  1  0.24957059  0.25110942  -0.00021185  1
  Fe  Fe44  1  0.50094578  0.24852937  0.74999994  1
  Fe  Fe45  1  0.49937873  0.50197969  0.24794502  1
  Fe  Fe46  1  0.50172729  0.50218404  0.75193399  1
  Fe  Fe47  1  0.74855471  -0.00120465  -0.00075387  1
  Fe  Fe48  1  0.37658273  0.87194585  0.87752418  1
  Fe  Fe49  1  0.62444090  0.37402280  0.37523303  1
  Fe  Fe50  1  0.50503835  0.74993849  0.49776235  1
  Fe  Fe51  1  0.12742191  0.62646926  0.87424963  1
  Fe  Fe52  1  0.12515063  0.12411237  0.62532513  1
  Fe  Fe53  1  0.87654740  0.37763970  0.87585040  1
  Fe  Fe54  1  0.12482326  0.87404185  0.87452063  1
  Fe  Fe55  1  0.50376374  0.74614030  0.25074064  1
  Fe  Fe56  1  0.87339220  0.62536749  0.12407614  1
  Fe  Fe57  1  0.12481958  0.12687937  0.37414986  1
  Fe  Fe58  1  0.87155141  0.62670439  0.37632258  1
  Fe  Fe59  1  -0.00290174  0.74910759  0.50191866  1
  Fe  Fe60  1  -0.00037186  -0.00201420  0.00064886  1
  Fe  Fe61  1  0.62412517  0.37566388  0.87660198  1
  Fe  Fe62  1  0.25082658  -0.00214366  0.00102603  1
  Fe  Fe63  1  0.37483513  0.12345616  0.87372476  1
  Fe  Fe64  1  0.37584138  0.37413957  0.62727854  1
  Fe  Fe65  1  0.75001702  0.49840489  0.50004335  1
  Fe  Fe66  1  0.75046679  0.24920280  0.49944330  1
  Fe  Fe67  1  0.12409498  0.12351634  0.12408755  1
  Fe  Fe68  1  0.00204908  0.24971398  0.75242153  1
  Fe  Fe69  1  0.75149681  0.75062578  0.74718863  1
  Fe  Fe70  1  0.62956889  0.62845033  0.87763469  1
  Fe  Fe71  1  -0.00181223  0.50081256  0.24876135  1
  Fe  Fe72  1  0.49977635  0.24880823  -0.00067549  1
  Fe  Fe73  1  0.37582191  0.12546563  0.12648703  1
  Fe  Fe74  1  0.49731792  0.24658464  0.50160512  1
  Fe  Fe75  1  0.75033994  0.49805094  0.24977051  1
  Fe  Fe76  1  0.87362274  0.87316931  0.87406543  1
  Fe  Fe77  1  -0.00089016  -0.00003613  0.75082651  1
  Fe  Fe78  1  0.37599943  0.37681635  0.87556636  1
  Fe  Fe79  1  0.74500154  0.00403602  0.24994025  1
  Fe  Fe80  1  0.62730770  0.37350839  0.12311643  1
  Fe  Fe81  1  0.87163453  0.87334887  0.37449384  1
  Fe  Fe82  1  0.12536049  0.62752067  0.12681254  1
  Fe  Fe83  1  0.12379924  0.87344836  0.12628475  1
  Fe  Fe84  1  0.00001308  0.50331947  0.75067704  1
  Fe  Fe85  1  0.62754002  0.62291075  0.62372197  1
  Fe  Fe86  1  0.49852444  0.50028245  0.49900798  1
  Fe  Fe87  1  -0.00105318  0.74916743  0.00109502  1
  Fe  Fe88  1  0.37556835  0.37238982  0.37225251  1
  Fe  Fe89  1  0.25139285  0.50021608  0.49930335  1
  Co  Co90  1  0.87360166  0.87733185  0.62484184  1
  Co  Co91  1  0.75267928  0.00088804  0.49689762  1
  Co  Co92  1  0.87173364  0.62619180  0.87595126  1
  Co  Co93  1  0.49686281  0.00153538  0.50032162  1
  Co  Co94  1  0.24848790  0.75047866  0.00062576  1
  Co  Co95  1  0.50024524  0.74567037  -0.00129399  1
  Co  Co96  1  0.37283195  0.62677525  0.87309725  1
  Co  Co97  1  0.74906524  0.24871451  0.25081500  1
  Co  Co98  1  0.75086560  0.25053763  -0.00354891  1
  Co  Co99  1  0.62426090  0.87810122  0.37544898  1
  Co  Co100  1  -0.00119589  0.24979064  0.50152430  1
  Co  Co101  1  0.12449172  0.37814252  0.87697158  1
  Co  Co102  1  0.74790338  0.49886836  0.75200185  1
  Co  Co103  1  0.87282356  0.37489351  0.12251864  1
  Co  Co104  1  0.37411906  0.12437038  0.62924475  1
  Co  Co105  1  0.75216567  0.75296103  0.00328631  1
  Co  Co106  1  -0.00029189  0.50457523  0.00094794  1
  Co  Co107  1  0.12662416  0.62557882  0.62447437  1
  Co  Co108  1  -0.00212679  0.74956390  0.25005463  1
  Co  Co109  1  0.62287352  0.12391048  0.37859608  1
  Co  Co110  1  0.74779737  0.75096496  0.50140475  1
  Co  Co111  1  0.62815618  0.62318464  0.12344108  1
  Co  Co112  1  0.49965846  -0.00009479  -0.00010340  1
  Co  Co113  1  0.37708294  0.37324531  0.12447051  1
  Co  Co114  1  0.49908533  -0.00263643  0.75167381  1
  Co  Co115  1  0.62651274  0.87385561  0.87632507  1
  Co  Co116  1  0.25032354  0.75252862  0.74840631  1
  Co  Co117  1  0.24780944  0.25058759  0.24766733  1
  Co  Co118  1  0.37612001  0.62612568  0.37505741  1
  Co  Co119  1  0.62678677  0.62210458  0.37541094  1
  Co  Co120  1  0.37613208  0.12550780  0.37011482  1
  Co  Co121  1  0.50270677  0.00194098  0.24694016  1
  Co  Co122  1  0.12519261  0.12271826  0.87676906  1
  Co  Co123  1  0.75134487  0.00067706  0.75340781  1
  Co  Co124  1  0.62664721  0.12743160  0.12046389  1
  Co  Co125  1  0.87177443  0.62198949  0.62401370  1
  Co  Co126  1  0.87316828  0.12393937  0.12319415  1
  Co  Co127  1  0.37365992  0.62896275  0.12661613  1
