# generated using pymatgen
data_Fe45Co19
_symmetry_space_group_name_H-M   'P 1'
_cell_length_a   11.41530049
_cell_length_b   11.41468694
_cell_length_c   11.41489553
_cell_angle_alpha   90.00635849
_cell_angle_beta   89.99385862
_cell_angle_gamma   89.99785315
_symmetry_Int_Tables_number   1
_chemical_formula_structural   Fe45Co19
_chemical_formula_sum   'Fe90 Co38'
_cell_volume   1487.38462783
_cell_formula_units_Z   2
loop_
 _symmetry_equiv_pos_site_id
 _symmetry_equiv_pos_as_xyz
  1  'x, y, z'
loop_
 _atom_site_type_symbol
 _atom_site_label
 _atom_site_symmetry_multiplicity
 _atom_site_fract_x
 _atom_site_fract_y
 _atom_site_fract_z
 _atom_site_occupancy
  Fe  Fe0  1  0.24885164  0.75145743  0.24998322  1
  Fe  Fe1  1  0.37614066  0.37678719  0.12414707  1
  Fe  Fe2  1  0.37267658  0.62550092  0.37453863  1
  Fe  Fe3  1  0.62506866  0.37423336  0.37480708  1
  Fe  Fe4  1  0.74955267  0.75398097  0.75455837  1
  Fe  Fe5  1  0.50195460  0.50309125  0.24868317  1
  Fe  Fe6  1  0.62432290  0.37654022  0.87471416  1
  Fe  Fe7  1  0.12002924  0.87410293  0.12365453  1
  Fe  Fe8  1  -0.00148114  0.24492061  0.75577902  1
  Fe  Fe9  1  0.37514483  0.87768242  0.37386256  1
  Fe  Fe10  1  0.37568073  0.37663498  0.87544422  1
  Fe  Fe11  1  0.50115499  0.00177340  0.50146586  1
  Fe  Fe12  1  0.87426528  0.12236234  0.62783014  1
  Fe  Fe13  1  0.50170401  0.00205496  0.74848221  1
  Fe  Fe14  1  0.00114363  0.50197650  0.75100050  1
  Fe  Fe15  1  0.12286151  0.37452066  0.87595093  1
  Fe  Fe16  1  0.87374544  0.62499114  0.62524695  1
  Fe  Fe17  1  0.62571042  0.87338356  0.37593262  1
  Fe  Fe18  1  0.24703845  0.50045540  0.00057769  1
  Fe  Fe19  1  0.37250989  0.62487156  0.12504050  1
  Fe  Fe20  1  0.50130081  0.74957742  0.24962126  1
  Fe  Fe21  1  0.12472797  0.62694130  0.62522130  1
  Fe  Fe22  1  0.24965332  0.24888570  0.74936280  1
  Fe  Fe23  1  0.75448625  0.24865217  0.25039545  1
  Fe  Fe24  1  0.12140742  0.12783310  0.12206341  1
  Fe  Fe25  1  0.75135805  0.24996963  0.50010258  1
  Fe  Fe26  1  0.75390564  -0.00426577  0.00128717  1
  Fe  Fe27  1  0.37559546  0.62744814  0.62634171  1
  Fe  Fe28  1  0.12316694  0.87559230  0.37336450  1
  Fe  Fe29  1  0.12135413  0.37299150  0.12459216  1
  Fe  Fe30  1  -0.00352223  0.00283817  0.24748641  1
  Fe  Fe31  1  0.75322560  0.25254824  -0.00318099  1
  Fe  Fe32  1  0.62451829  0.37379841  0.12578214  1
  Fe  Fe33  1  0.37608166  0.37271456  0.62350919  1
  Fe  Fe34  1  0.88217910  0.87926260  0.87400103  1
  Fe  Fe35  1  0.37266339  0.12378245  0.87497041  1
  Fe  Fe36  1  0.87852718  0.87591155  0.62845682  1
  Fe  Fe37  1  0.12150295  0.87173064  0.62873416  1
  Fe  Fe38  1  0.24983058  0.50053531  0.74995323  1
  Fe  Fe39  1  0.62687096  0.12468372  0.37506281  1
  Fe  Fe40  1  0.25166707  0.25068208  0.00098546  1
  Fe  Fe41  1  0.50130613  0.50173670  0.49941990  1
  Fe  Fe42  1  0.37573225  0.37430899  0.37589700  1
  Fe  Fe43  1  0.87477540  0.87432360  0.37368913  1
  Fe  Fe44  1  0.37664220  0.87344385  0.87360357  1
  Fe  Fe45  1  0.74838586  0.49804420  0.75007079  1
  Fe  Fe46  1  0.12489358  0.62358984  0.37405959  1
  Fe  Fe47  1  0.49936612  0.24680247  0.24847435  1
  Fe  Fe48  1  0.24986383  0.75200933  0.50019007  1
  Fe  Fe49  1  0.75131225  0.50047147  0.50077313  1
  Fe  Fe50  1  -0.00006981  -0.00060200  0.50135235  1
  Fe  Fe51  1  0.62813945  0.12518859  0.12355624  1
  Fe  Fe52  1  -0.00198900  0.74748152  0.24889442  1
  Fe  Fe53  1  0.50001512  0.24794703  -0.00061552  1
  Fe  Fe54  1  -0.00241386  0.74846091  0.49930714  1
  Fe  Fe55  1  0.24784054  -0.00250107  -0.00022202  1
  Fe  Fe56  1  0.87155890  0.62120540  0.87806067  1
  Fe  Fe57  1  0.12597085  0.62868528  0.87548138  1
  Fe  Fe58  1  0.50101738  0.24760605  0.74990597  1
  Fe  Fe59  1  0.50036653  0.50328025  0.75190769  1
  Fe  Fe60  1  0.49844659  0.00147902  0.00248602  1
  Fe  Fe61  1  -0.00181143  0.24965251  0.49826836  1
  Fe  Fe62  1  0.62893149  0.12144400  0.87509235  1
  Fe  Fe63  1  0.62324971  0.87170805  0.62521951  1
  Fe  Fe64  1  0.25020667  0.24993684  0.24936153  1
  Fe  Fe65  1  0.87708162  0.37553212  0.62710063  1
  Fe  Fe66  1  0.37675383  0.87313467  0.62691638  1
  Fe  Fe67  1  0.87659962  0.37862597  0.37459052  1
  Fe  Fe68  1  0.50280285  0.50418800  -0.00000422  1
  Fe  Fe69  1  0.75138535  -0.00103431  0.24765999  1
  Fe  Fe70  1  0.24499104  -0.00052063  0.74979839  1
  Fe  Fe71  1  0.75028464  -0.00206473  0.50205915  1
  Fe  Fe72  1  0.62613892  0.62884139  0.62504390  1
  Fe  Fe73  1  0.75000167  0.50106722  0.24772608  1
  Fe  Fe74  1  -0.00049196  0.50350249  0.24597011  1
  Fe  Fe75  1  0.24784152  0.00018977  0.50305228  1
  Fe  Fe76  1  0.62889207  0.62822458  0.37578374  1
  Fe  Fe77  1  0.24841588  0.49883942  0.50117182  1
  Fe  Fe78  1  0.12300394  0.12450704  0.37572144  1
  Fe  Fe79  1  0.37662085  0.87548661  0.12632810  1
  Fe  Fe80  1  0.24965751  0.75224486  -0.00031467  1
  Fe  Fe81  1  0.37544604  0.12349971  0.37459636  1
  Fe  Fe82  1  0.62389238  0.37378363  0.62385306  1
  Fe  Fe83  1  0.75091389  0.25036521  0.75189225  1
  Fe  Fe84  1  0.12288607  0.37260678  0.62522056  1
  Fe  Fe85  1  0.62463612  0.87110076  0.12304921  1
  Fe  Fe86  1  0.86951211  0.62828702  0.12051655  1
  Fe  Fe87  1  0.12317608  0.37670983  0.37418730  1
  Fe  Fe88  1  0.24848247  0.00151998  0.24708082  1
  Fe  Fe89  1  0.87823945  0.37333214  0.12201177  1
  Co  Co90  1  0.74833775  0.49435619  0.00200736  1
  Co  Co91  1  0.00653521  0.00511289  0.75268814  1
  Co  Co92  1  0.74776473  -0.00591000  0.74938143  1
  Co  Co93  1  0.63072597  0.62387130  0.87767677  1
  Co  Co94  1  0.75204037  0.75726805  -0.00687831  1
  Co  Co95  1  0.12749013  0.62785264  0.12526855  1
  Co  Co96  1  0.49893570  0.74682839  -0.00153210  1
  Co  Co97  1  0.37309655  0.12537057  0.62600662  1
  Co  Co98  1  0.87408858  0.62421597  0.37503871  1
  Co  Co99  1  0.12312974  0.12752014  0.62306079  1
  Co  Co100  1  0.24913897  0.24962174  0.49813925  1
  Co  Co101  1  0.62870329  0.12522612  0.62629144  1
  Co  Co102  1  -0.00350588  0.74565138  0.75208557  1
  Co  Co103  1  0.12930089  0.12593725  0.87922629  1
  Co  Co104  1  0.86978565  0.11927081  0.87362839  1
  Co  Co105  1  -0.00251378  0.24869270  0.25251381  1
  Co  Co106  1  0.37143790  0.62499163  0.87567366  1
  Co  Co107  1  0.75088273  0.75182797  0.25038631  1
  Co  Co108  1  0.50148785  0.24716866  0.50036940  1
  Co  Co109  1  0.87672030  0.38013010  0.87416250  1
  Co  Co110  1  0.75391798  0.75170213  0.50168723  1
  Co  Co111  1  -0.00001754  0.50119135  0.50195037  1
  Co  Co112  1  0.00109552  0.00242529  -0.00085877  1
  Co  Co113  1  0.50323286  0.00004561  0.24826061  1
  Co  Co114  1  0.87396686  0.12164755  0.37696597  1
  Co  Co115  1  0.12149494  0.87083415  0.87390718  1
  Co  Co116  1  0.49828732  0.75018207  0.49824256  1
  Co  Co117  1  0.87799896  0.87324195  0.12568998  1
  Co  Co118  1  0.00221888  0.50260693  0.00083106  1
  Co  Co119  1  0.62024458  0.87867618  0.87767123  1
  Co  Co120  1  0.24921380  0.49779929  0.24910652  1
  Co  Co121  1  -0.00406361  0.24800311  -0.00658972  1
  Co  Co122  1  0.63063226  0.62931564  0.12133117  1
  Co  Co123  1  0.37388996  0.12368117  0.12427019  1
  Co  Co124  1  -0.00173446  0.74774491  -0.00028565  1
  Co  Co125  1  0.25072545  0.75098845  0.75007892  1
  Co  Co126  1  0.87521822  0.12646356  0.12239778  1
  Co  Co127  1  0.50261916  0.74733875  0.75509123  1
