# generated using pymatgen
data_Fe45Co19
_symmetry_space_group_name_H-M   'P 1'
_cell_length_a   11.41452900
_cell_length_b   11.41437751
_cell_length_c   11.41367840
_cell_angle_alpha   90.00082006
_cell_angle_beta   89.99930606
_cell_angle_gamma   90.00356850
_symmetry_Int_Tables_number   1
_chemical_formula_structural   Fe45Co19
_chemical_formula_sum   'Fe90 Co38'
_cell_volume   1487.08522343
_cell_formula_units_Z   2
loop_
 _symmetry_equiv_pos_site_id
 _symmetry_equiv_pos_as_xyz
  1  'x, y, z'
loop_
 _atom_site_type_symbol
 _atom_site_label
 _atom_site_symmetry_multiplicity
 _atom_site_fract_x
 _atom_site_fract_y
 _atom_site_fract_z
 _atom_site_occupancy
  Fe  Fe0  1  0.62557322  0.62420266  0.87461248  1
  Fe  Fe1  1  -0.00244350  0.00040026  0.75169704  1
  Fe  Fe2  1  0.37453575  0.37617090  0.12645592  1
  Fe  Fe3  1  0.75100640  0.24834145  0.24690974  1
  Fe  Fe4  1  0.24856182  0.49837982  0.49712462  1
  Fe  Fe5  1  0.12171262  0.12844243  0.37433472  1
  Fe  Fe6  1  0.62689418  0.87599759  0.62354327  1
  Fe  Fe7  1  0.24806536  0.25078565  0.00352408  1
  Fe  Fe8  1  0.24672224  0.24940928  0.24680656  1
  Fe  Fe9  1  0.50066574  0.24943257  0.75016895  1
  Fe  Fe10  1  0.12293919  0.12345747  0.87821294  1
  Fe  Fe11  1  0.62687232  0.62524798  0.12563159  1
  Fe  Fe12  1  0.50635859  0.00051446  0.25109091  1
  Fe  Fe13  1  -0.00180104  0.24939636  0.75032327  1
  Fe  Fe14  1  0.50029598  0.50073105  0.25225336  1
  Fe  Fe15  1  0.37358029  0.62595560  0.87548068  1
  Fe  Fe16  1  0.62507540  0.37236684  0.12201366  1
  Fe  Fe17  1  0.49854933  0.50026989  0.74984020  1
  Fe  Fe18  1  0.50077561  0.74983285  0.49846205  1
  Fe  Fe19  1  0.37594802  0.12559560  0.37457961  1
  Fe  Fe20  1  0.74971960  0.49857901  0.75027324  1
  Fe  Fe21  1  0.24795871  0.74965590  0.74663037  1
  Fe  Fe22  1  0.62594442  0.62236164  0.62163317  1
  Fe  Fe23  1  0.75130256  -0.00228535  0.49554263  1
  Fe  Fe24  1  0.74729672  0.75256855  0.25278309  1
  Fe  Fe25  1  0.00251470  0.49913669  0.75227308  1
  Fe  Fe26  1  0.12677628  0.62554874  0.87301162  1
  Fe  Fe27  1  0.87419092  0.87531793  0.87387082  1
  Fe  Fe28  1  0.50033024  0.25002589  0.49940619  1
  Fe  Fe29  1  0.87570231  0.12334082  0.12240092  1
  Fe  Fe30  1  0.37414127  0.37315714  0.37429880  1
  Fe  Fe31  1  0.37356148  0.37493520  0.87440319  1
  Fe  Fe32  1  0.87410996  0.62235327  0.87566116  1
  Fe  Fe33  1  0.62733853  0.12865041  0.87887486  1
  Fe  Fe34  1  -0.00046751  0.49678320  0.49320003  1
  Fe  Fe35  1  0.75138477  0.25200938  0.50163527  1
  Fe  Fe36  1  0.50049719  0.74974547  0.00247496  1
  Fe  Fe37  1  0.87312388  0.87392080  0.12807697  1
  Fe  Fe38  1  0.62672478  0.62306570  0.37814593  1
  Fe  Fe39  1  0.75327244  0.49928819  0.25080604  1
  Fe  Fe40  1  0.87621656  0.37651191  0.62466533  1
  Fe  Fe41  1  0.75047230  0.74884186  0.74693376  1
  Fe  Fe42  1  0.37186423  0.62475183  0.62247014  1
  Fe  Fe43  1  0.12442024  0.12240193  0.62396707  1
  Fe  Fe44  1  0.50130937  0.49904510  -0.00003545  1
  Fe  Fe45  1  0.49966293  0.75037631  0.74803492  1
  Fe  Fe46  1  0.87347594  0.12279679  0.62497201  1
  Fe  Fe47  1  -0.00055003  0.74898562  0.00065910  1
  Fe  Fe48  1  0.37779569  0.87293156  0.13006593  1
  Fe  Fe49  1  0.00150491  0.74849797  0.25181251  1
  Fe  Fe50  1  0.00059361  -0.00187608  0.49828889  1
  Fe  Fe51  1  0.25057134  0.00146087  0.74995916  1
  Fe  Fe52  1  0.49844624  0.00110261  0.49771791  1
  Fe  Fe53  1  0.24952451  0.00010045  0.25177693  1
  Fe  Fe54  1  0.87811759  0.62496058  0.62106028  1
  Fe  Fe55  1  0.24858111  0.75064879  0.00409828  1
  Fe  Fe56  1  0.24639883  0.49855570  0.25297846  1
  Fe  Fe57  1  0.37201747  0.62960250  0.37348326  1
  Fe  Fe58  1  0.50048382  -0.00031363  0.00139446  1
  Fe  Fe59  1  -0.00258529  0.00268802  0.24954497  1
  Fe  Fe60  1  0.62403999  0.37776085  0.62281973  1
  Fe  Fe61  1  0.24192843  0.75513838  0.49915488  1
  Fe  Fe62  1  0.37517540  0.37491993  0.62433672  1
  Fe  Fe63  1  0.87552466  0.12883505  0.37531327  1
  Fe  Fe64  1  0.24885137  0.24856780  0.74887641  1
  Fe  Fe65  1  0.62654062  0.12430039  0.62408281  1
  Fe  Fe66  1  0.37444418  0.87323098  0.87487549  1
  Fe  Fe67  1  0.50132154  0.00078952  0.75025121  1
  Fe  Fe68  1  0.00094802  0.25132506  0.00097023  1
  Fe  Fe69  1  0.75255912  0.25110572  0.75256103  1
  Fe  Fe70  1  0.12276017  0.87689556  0.12699104  1
  Fe  Fe71  1  0.25008865  0.24721467  0.50118861  1
  Fe  Fe72  1  0.12165966  0.62112699  0.12845730  1
  Fe  Fe73  1  0.00114484  0.74977388  0.74755000  1
  Fe  Fe74  1  0.12516202  0.37627767  0.62437589  1
  Fe  Fe75  1  0.87511154  0.62919738  0.37705082  1
  Fe  Fe76  1  0.75139600  0.00031000  0.00080236  1
  Fe  Fe77  1  0.87511700  0.87473270  0.62427280  1
  Fe  Fe78  1  0.87985031  0.38110391  0.12402399  1
  Fe  Fe79  1  0.37247899  0.87806474  0.62230258  1
  Fe  Fe80  1  0.37441560  0.62455995  0.12712834  1
  Fe  Fe81  1  0.12477550  0.87509785  0.87446860  1
  Fe  Fe82  1  0.50218950  0.24968836  0.24984801  1
  Fe  Fe83  1  0.37488408  0.12527988  0.87576480  1
  Fe  Fe84  1  0.25008072  -0.00160121  0.00227294  1
  Fe  Fe85  1  0.62643677  0.87377921  0.87557021  1
  Fe  Fe86  1  0.75177966  0.74762602  0.00106034  1
  Fe  Fe87  1  0.62730911  0.37566304  0.37631470  1
  Fe  Fe88  1  0.24661047  0.49853186  -0.00056671  1
  Fe  Fe89  1  0.37647573  0.12463378  0.12605674  1
  Co  Co90  1  0.25101027  0.50004627  0.74953968  1
  Co  Co91  1  0.12479974  0.37317815  0.87394006  1
  Co  Co92  1  0.74914130  0.00254346  0.25087105  1
  Co  Co93  1  0.87666877  0.12405356  0.87685578  1
  Co  Co94  1  0.00444191  0.75346819  0.50092067  1
  Co  Co95  1  0.12374403  0.36819385  0.37483901  1
  Co  Co96  1  0.24661944  0.75048419  0.24741647  1
  Co  Co97  1  0.87456111  0.36826009  0.37334734  1
  Co  Co98  1  0.62555913  0.37368280  0.87710704  1
  Co  Co99  1  -0.00147507  0.49958207  0.25866609  1
  Co  Co100  1  0.37542374  0.87251810  0.37279065  1
  Co  Co101  1  0.62387400  0.87530402  0.37607922  1
  Co  Co102  1  0.12294826  0.62040019  0.62263772  1
  Co  Co103  1  0.49523360  0.25089517  0.00075494  1
  Co  Co104  1  0.62744800  0.12788368  0.37665937  1
  Co  Co105  1  0.12125547  0.37913013  0.12730217  1
  Co  Co106  1  0.12308852  0.87752111  0.37039301  1
  Co  Co107  1  0.74931306  0.00086181  0.75208189  1
  Co  Co108  1  -0.00147645  -0.00382953  0.00053846  1
  Co  Co109  1  0.12438659  0.87979023  0.62766877  1
  Co  Co110  1  0.37584370  0.12372113  0.62466463  1
  Co  Co111  1  -0.00125675  0.25039452  0.50446676  1
  Co  Co112  1  0.87654884  0.62451167  0.12791026  1
  Co  Co113  1  0.62743616  0.87491495  0.12473257  1
  Co  Co114  1  0.87660486  0.37820454  0.87734781  1
  Co  Co115  1  0.87693972  0.87366292  0.37297779  1
  Co  Co116  1  0.75061602  0.75141016  0.50069075  1
  Co  Co117  1  0.74916917  0.50070324  0.00170294  1
  Co  Co118  1  0.75488369  0.49827635  0.49871436  1
  Co  Co119  1  0.62537421  0.12769470  0.12114271  1
  Co  Co120  1  0.75619356  0.25236752  0.00019005  1
  Co  Co121  1  0.50413827  0.74774799  0.25077010  1
  Co  Co122  1  -0.00043920  0.24945456  0.24476070  1
  Co  Co123  1  0.12401146  0.12211965  0.12376227  1
  Co  Co124  1  0.12510017  0.62634902  0.37540681  1
  Co  Co125  1  0.24868389  0.00115472  0.49568283  1
  Co  Co126  1  0.49630193  0.50054134  0.49709256  1
  Co  Co127  1  0.00259312  0.50371361  -0.00291638  1
