# generated using pymatgen
data_Fe45Co19
_symmetry_space_group_name_H-M   'P 1'
_cell_length_a   11.41457175
_cell_length_b   11.41446006
_cell_length_c   11.41410171
_cell_angle_alpha   90.00996564
_cell_angle_beta   89.99034873
_cell_angle_gamma   90.01105633
_symmetry_Int_Tables_number   1
_chemical_formula_structural   Fe45Co19
_chemical_formula_sum   'Fe90 Co38'
_cell_volume   1487.15663271
_cell_formula_units_Z   2
loop_
 _symmetry_equiv_pos_site_id
 _symmetry_equiv_pos_as_xyz
  1  'x, y, z'
loop_
 _atom_site_type_symbol
 _atom_site_label
 _atom_site_symmetry_multiplicity
 _atom_site_fract_x
 _atom_site_fract_y
 _atom_site_fract_z
 _atom_site_occupancy
  Fe  Fe0  1  0.62477852  0.12366270  0.36836432  1
  Fe  Fe1  1  0.37587284  0.12290387  0.62572338  1
  Fe  Fe2  1  0.49941888  0.75126093  0.25028369  1
  Fe  Fe3  1  0.62537584  0.62553057  0.37522009  1
  Fe  Fe4  1  0.50159281  0.25014919  0.75123784  1
  Fe  Fe5  1  0.00162501  0.50029571  0.50012861  1
  Fe  Fe6  1  0.00076155  0.49911121  0.74931885  1
  Fe  Fe7  1  0.12309870  0.87653835  0.87732870  1
  Fe  Fe8  1  0.62241800  0.87595506  0.62442355  1
  Fe  Fe9  1  0.87351491  0.37680041  0.87623197  1
  Fe  Fe10  1  0.37588237  0.37548596  0.87546749  1
  Fe  Fe11  1  0.37583139  0.37328183  0.62440648  1
  Fe  Fe12  1  0.37604968  0.62410849  0.87546267  1
  Fe  Fe13  1  0.62445230  0.87498257  0.87685811  1
  Fe  Fe14  1  0.74570363  0.49792852  0.74876170  1
  Fe  Fe15  1  0.75082242  0.74880647  0.24824255  1
  Fe  Fe16  1  0.75089800  0.75118287  0.50234440  1
  Fe  Fe17  1  0.62288022  0.12536525  0.62355861  1
  Fe  Fe18  1  0.12486226  0.62376264  0.87374630  1
  Fe  Fe19  1  0.50206975  0.49865259  0.00165616  1
  Fe  Fe20  1  0.24906378  0.50274837  0.25050670  1
  Fe  Fe21  1  0.50099277  0.75058345  0.75008586  1
  Fe  Fe22  1  0.87586296  0.87705604  0.87505006  1
  Fe  Fe23  1  0.24926138  0.50065879  0.50157459  1
  Fe  Fe24  1  0.00310325  0.00122351  0.49683005  1
  Fe  Fe25  1  0.87527053  0.37661974  0.12559121  1
  Fe  Fe26  1  0.74830678  0.24919521  0.49547026  1
  Fe  Fe27  1  0.12461498  0.37599547  0.12602529  1
  Fe  Fe28  1  -0.00111664  0.24939019  -0.00158599  1
  Fe  Fe29  1  0.25182502  0.75004350  0.00046333  1
  Fe  Fe30  1  0.25207541  0.25105732  0.24892726  1
  Fe  Fe31  1  -0.00240882  0.74700172  -0.00256727  1
  Fe  Fe32  1  0.50181840  0.49848734  0.24936916  1
  Fe  Fe33  1  0.12258406  0.62462966  0.12304346  1
  Fe  Fe34  1  0.24884301  0.24846587  0.75035502  1
  Fe  Fe35  1  0.00169412  0.24998390  0.49705309  1
  Fe  Fe36  1  -0.00095804  0.25004668  0.25353037  1
  Fe  Fe37  1  0.24917205  0.49969089  -0.00071836  1
  Fe  Fe38  1  0.87707224  0.12323458  0.87433497  1
  Fe  Fe39  1  0.87503688  0.87600769  0.37643476  1
  Fe  Fe40  1  0.00095215  0.75003539  0.25327240  1
  Fe  Fe41  1  0.87430313  0.62465713  0.62598956  1
  Fe  Fe42  1  0.24844746  0.74983457  0.74858001  1
  Fe  Fe43  1  0.37664777  0.62457387  0.12407494  1
  Fe  Fe44  1  0.12709961  0.62958303  0.37933417  1
  Fe  Fe45  1  0.62558336  0.87399965  0.12427286  1
  Fe  Fe46  1  0.74977305  0.00097470  0.49943117  1
  Fe  Fe47  1  -0.00146796  0.75028924  0.74816595  1
  Fe  Fe48  1  0.87634765  0.12584576  0.62405417  1
  Fe  Fe49  1  0.75116312  0.00122328  0.00238040  1
  Fe  Fe50  1  0.50012939  0.24927259  0.49511070  1
  Fe  Fe51  1  0.87338322  0.37750234  0.37515883  1
  Fe  Fe52  1  0.12324069  0.87346524  0.12394762  1
  Fe  Fe53  1  0.74816255  0.00095133  0.74909024  1
  Fe  Fe54  1  0.37560060  0.87722795  0.87291434  1
  Fe  Fe55  1  0.75030778  0.50360105  0.00392298  1
  Fe  Fe56  1  0.87271573  0.12547680  0.12822470  1
  Fe  Fe57  1  0.25017520  0.24826365  0.49860415  1
  Fe  Fe58  1  0.24714351  0.00079104  0.74745884  1
  Fe  Fe59  1  0.62458236  0.62635313  0.87663940  1
  Fe  Fe60  1  0.00260749  0.00184577  0.74869463  1
  Fe  Fe61  1  0.12500863  0.12595228  0.12535004  1
  Fe  Fe62  1  0.50246469  0.49789334  0.74784214  1
  Fe  Fe63  1  0.37461696  0.37659279  0.37433930  1
  Fe  Fe64  1  0.25148701  0.25019737  0.00153238  1
  Fe  Fe65  1  0.49498111  -0.00412500  0.49679663  1
  Fe  Fe66  1  0.49797558  0.24852316  0.00546809  1
  Fe  Fe67  1  0.12542101  0.37455335  0.87422014  1
  Fe  Fe68  1  0.75255808  0.74674062  0.00117450  1
  Fe  Fe69  1  0.87251635  0.62408564  0.37440013  1
  Fe  Fe70  1  0.74865004  0.25011910  0.75155651  1
  Fe  Fe71  1  0.50283968  0.49971346  0.50193643  1
  Fe  Fe72  1  0.00190497  -0.00073721  0.25185371  1
  Fe  Fe73  1  0.62564179  0.87479151  0.37427000  1
  Fe  Fe74  1  0.12594082  0.37365809  0.62537152  1
  Fe  Fe75  1  0.00126093  0.50082889  0.25242619  1
  Fe  Fe76  1  0.87677651  0.87360045  0.12462594  1
  Fe  Fe77  1  0.74612540  0.49862095  0.50123041  1
  Fe  Fe78  1  0.62788711  0.37028373  0.12781043  1
  Fe  Fe79  1  0.12400549  0.87297410  0.61972290  1
  Fe  Fe80  1  0.24866693  0.00007151  0.00136636  1
  Fe  Fe81  1  0.37346424  0.87655297  0.12851293  1
  Fe  Fe82  1  0.37415812  0.12336888  0.87570696  1
  Fe  Fe83  1  0.37526834  0.62746301  0.37575507  1
  Fe  Fe84  1  0.37258765  0.12032464  0.36900551  1
  Fe  Fe85  1  0.87375357  0.37243962  0.62419414  1
  Fe  Fe86  1  0.50035022  0.00098937  0.00333659  1
  Fe  Fe87  1  0.37534967  0.62665547  0.62523866  1
  Fe  Fe88  1  0.75121751  0.75264519  0.74829032  1
  Fe  Fe89  1  0.62464016  0.12615130  0.87877410  1
  Co  Co90  1  0.25550412  0.75306829  0.50262034  1
  Co  Co91  1  0.25123466  0.49963011  0.74894124  1
  Co  Co92  1  0.25271252  -0.00147325  0.50089186  1
  Co  Co93  1  0.75350700  0.25099580  0.25533216  1
  Co  Co94  1  0.75194591  -0.00278540  0.24926594  1
  Co  Co95  1  0.87652639  0.87913307  0.62381623  1
  Co  Co96  1  0.50271483  -0.00177190  0.24773235  1
  Co  Co97  1  -0.00009696  0.49995034  -0.00194685  1
  Co  Co98  1  -0.00126178  0.00234611  0.00255226  1
  Co  Co99  1  0.37323588  0.37904160  0.12609755  1
  Co  Co100  1  0.12795211  0.37458493  0.37422423  1
  Co  Co101  1  0.62416671  0.37005980  0.62304410  1
  Co  Co102  1  0.24341151  -0.00208377  0.24954413  1
  Co  Co103  1  0.49822097  0.75311177  0.49850534  1
  Co  Co104  1  0.12434306  0.12680719  0.62229818  1
  Co  Co105  1  0.62492105  0.37463981  0.87888080  1
  Co  Co106  1  -0.00394205  0.74831417  0.49969560  1
  Co  Co107  1  0.37266922  0.12073238  0.12796060  1
  Co  Co108  1  0.62517134  0.62829965  0.62457092  1
  Co  Co109  1  0.74909666  0.50111938  0.24694959  1
  Co  Co110  1  0.50265119  0.00203443  0.75145708  1
  Co  Co111  1  0.87334797  0.62386138  0.87185188  1
  Co  Co112  1  0.12560619  0.12452775  0.87717859  1
  Co  Co113  1  -0.00017811  0.25012826  0.75223072  1
  Co  Co114  1  0.49655688  0.75296208  0.00032209  1
  Co  Co115  1  0.37708903  0.87589668  0.62940198  1
  Co  Co116  1  0.12437197  0.62592920  0.62388085  1
  Co  Co117  1  0.87549018  0.12238300  0.37546620  1
  Co  Co118  1  0.62404461  0.37543321  0.37252996  1
  Co  Co119  1  0.36980002  0.87447812  0.36854564  1
  Co  Co120  1  0.49620871  0.25054364  0.24815039  1
  Co  Co121  1  0.24874580  0.74685541  0.24647100  1
  Co  Co122  1  0.12832105  0.87155065  0.37740122  1
  Co  Co123  1  0.75347474  0.24855877  -0.00132677  1
  Co  Co124  1  0.87944206  0.62484649  0.12732704  1
  Co  Co125  1  0.62907045  0.12817933  0.12879670  1
  Co  Co126  1  0.62164931  0.62763587  0.12536841  1
  Co  Co127  1  0.12783513  0.12589447  0.37400107  1
