# generated using pymatgen
data_Fe45Co19
_symmetry_space_group_name_H-M   'P 1'
_cell_length_a   11.41360686
_cell_length_b   11.41488204
_cell_length_c   11.41376196
_cell_angle_alpha   90.00578036
_cell_angle_beta   89.99723352
_cell_angle_gamma   90.00863194
_symmetry_Int_Tables_number   1
_chemical_formula_structural   Fe45Co19
_chemical_formula_sum   'Fe90 Co38'
_cell_volume   1487.04167494
_cell_formula_units_Z   2
loop_
 _symmetry_equiv_pos_site_id
 _symmetry_equiv_pos_as_xyz
  1  'x, y, z'
loop_
 _atom_site_type_symbol
 _atom_site_label
 _atom_site_symmetry_multiplicity
 _atom_site_fract_x
 _atom_site_fract_y
 _atom_site_fract_z
 _atom_site_occupancy
  Fe  Fe0  1  0.37245627  0.37276815  0.62341083  1
  Fe  Fe1  1  0.37318815  0.62643172  0.87645894  1
  Fe  Fe2  1  0.50041322  -0.00065866  0.74805976  1
  Fe  Fe3  1  0.49911721  0.25267516  -0.00131468  1
  Fe  Fe4  1  0.37234356  0.12518751  0.37601296  1
  Fe  Fe5  1  0.49680105  0.49910929  0.49923113  1
  Fe  Fe6  1  0.24652028  0.25091002  0.24946943  1
  Fe  Fe7  1  0.37456703  0.12381942  0.62443513  1
  Fe  Fe8  1  0.87651516  0.37882806  0.12844297  1
  Fe  Fe9  1  0.24509862  0.75247942  0.49948098  1
  Fe  Fe10  1  0.62560844  0.87413770  0.87543803  1
  Fe  Fe11  1  0.49624845  0.49828872  -0.00067890  1
  Fe  Fe12  1  0.87838225  0.12630037  0.62505660  1
  Fe  Fe13  1  0.75486652  0.50245639  0.74500485  1
  Fe  Fe14  1  0.75486330  0.00000300  0.49943666  1
  Fe  Fe15  1  0.75262893  -0.00091701  0.74798802  1
  Fe  Fe16  1  0.12429855  0.12476291  0.87580512  1
  Fe  Fe17  1  0.75036347  0.74770658  0.24989834  1
  Fe  Fe18  1  0.74978289  0.25169187  0.74636809  1
  Fe  Fe19  1  0.87568956  0.62223017  0.12699245  1
  Fe  Fe20  1  0.24924106  0.25212216  0.00153866  1
  Fe  Fe21  1  0.11992369  0.12055675  0.62623218  1
  Fe  Fe22  1  0.00481207  0.75168769  0.49257303  1
  Fe  Fe23  1  0.62395912  0.62292297  0.62217954  1
  Fe  Fe24  1  0.24692967  0.75052895  0.74658059  1
  Fe  Fe25  1  0.00143521  0.74538993  0.75161824  1
  Fe  Fe26  1  0.62683646  0.62429803  0.87639087  1
  Fe  Fe27  1  0.62410555  0.87444681  0.62302508  1
  Fe  Fe28  1  0.37402247  0.62924321  0.62203107  1
  Fe  Fe29  1  0.00108557  0.74777543  0.00055818  1
  Fe  Fe30  1  0.12437199  0.87356719  0.87527606  1
  Fe  Fe31  1  0.62599454  0.62189741  0.37737188  1
  Fe  Fe32  1  0.75220869  0.74799220  0.74761101  1
  Fe  Fe33  1  0.00020766  0.50065564  0.49645328  1
  Fe  Fe34  1  0.12433437  0.11969289  0.37070313  1
  Fe  Fe35  1  0.37442793  0.87428923  0.87541608  1
  Fe  Fe36  1  0.75112442  0.25314789  0.00056931  1
  Fe  Fe37  1  0.62685102  0.87471367  0.37416105  1
  Fe  Fe38  1  0.24663765  0.24948668  0.74825117  1
  Fe  Fe39  1  0.12498067  0.37754350  0.62138328  1
  Fe  Fe40  1  0.87709958  0.87258612  0.12764057  1
  Fe  Fe41  1  0.24936764  0.74981152  0.00334762  1
  Fe  Fe42  1  0.00029236  0.25137884  -0.00068661  1
  Fe  Fe43  1  0.50088335  0.24883730  0.74850292  1
  Fe  Fe44  1  0.37271765  0.87440303  0.37591333  1
  Fe  Fe45  1  0.24844598  0.49829697  0.25032746  1
  Fe  Fe46  1  0.12636377  0.37812863  0.87527978  1
  Fe  Fe47  1  0.87620688  0.87261982  0.87530255  1
  Fe  Fe48  1  0.24979973  0.50209139  0.74689110  1
  Fe  Fe49  1  0.87538561  0.37659308  0.87275725  1
  Fe  Fe50  1  0.87705676  0.12737134  0.12771856  1
  Fe  Fe51  1  0.37565468  0.87200362  0.12574841  1
  Fe  Fe52  1  0.75001032  0.74833680  0.50003683  1
  Fe  Fe53  1  0.24838367  -0.00278570  0.74852636  1
  Fe  Fe54  1  0.24676184  -0.00231291  0.50145962  1
  Fe  Fe55  1  0.24700044  -0.00093389  0.00507504  1
  Fe  Fe56  1  0.75133824  -0.00085719  0.00172535  1
  Fe  Fe57  1  0.75342993  0.00002123  0.25141115  1
  Fe  Fe58  1  0.37398714  0.12462054  0.87541900  1
  Fe  Fe59  1  0.37074276  0.37189194  0.37708952  1
  Fe  Fe60  1  0.00285690  0.25496748  0.25244514  1
  Fe  Fe61  1  0.62662235  0.12448133  0.87505995  1
  Fe  Fe62  1  0.49994623  0.75021052  0.74953234  1
  Fe  Fe63  1  0.00120917  -0.00021712  0.00220023  1
  Fe  Fe64  1  0.25285384  0.49895903  0.00260343  1
  Fe  Fe65  1  0.37194761  0.62702703  0.37530451  1
  Fe  Fe66  1  0.50084847  0.24962449  0.25253899  1
  Fe  Fe67  1  0.12519369  0.62576691  0.12871528  1
  Fe  Fe68  1  0.49653897  0.50128717  0.74963215  1
  Fe  Fe69  1  0.49925935  -0.00001079  0.25062662  1
  Fe  Fe70  1  0.50012902  -0.00108119  0.49960688  1
  Fe  Fe71  1  0.62589922  0.37743851  0.87205928  1
  Fe  Fe72  1  0.00006902  0.50371580  0.74996087  1
  Fe  Fe73  1  0.49852703  0.49967719  0.25172524  1
  Fe  Fe74  1  0.87574478  0.12648372  0.87353840  1
  Fe  Fe75  1  0.62343831  0.62403700  0.12297503  1
  Fe  Fe76  1  -0.00074514  0.50188436  -0.00073946  1
  Fe  Fe77  1  0.50180459  0.25044753  0.50120451  1
  Fe  Fe78  1  0.37481443  0.12778130  0.12465895  1
  Fe  Fe79  1  0.62812994  0.12588061  0.37718396  1
  Fe  Fe80  1  0.62627812  0.12488927  0.12595495  1
  Fe  Fe81  1  0.50003573  0.74943297  0.25031868  1
  Fe  Fe82  1  0.62336358  0.37652960  0.12619213  1
  Fe  Fe83  1  0.87363294  0.62068510  0.37477437  1
  Fe  Fe84  1  0.74908510  0.25408377  0.25158396  1
  Fe  Fe85  1  0.00179989  0.25008115  0.49743804  1
  Fe  Fe86  1  0.75008531  0.25644662  0.50165131  1
  Fe  Fe87  1  0.74916731  0.74967272  0.00117441  1
  Fe  Fe88  1  0.50143745  -0.00168794  0.00188893  1
  Fe  Fe89  1  0.88083616  0.87256544  0.62293417  1
  Co  Co90  1  0.00430945  0.49931352  0.25257624  1
  Co  Co91  1  0.12840281  0.62384060  0.87670446  1
  Co  Co92  1  0.87371262  0.13122694  0.37465614  1
  Co  Co93  1  0.62445312  0.37666953  0.37599701  1
  Co  Co94  1  -0.00208682  -0.00022804  0.49398443  1
  Co  Co95  1  0.74754664  0.50030657  0.24996097  1
  Co  Co96  1  0.37489424  0.62479302  0.12613742  1
  Co  Co97  1  -0.00128255  0.74681357  0.25448926  1
  Co  Co98  1  0.62686802  0.12350982  0.62245005  1
  Co  Co99  1  0.50005200  0.75030671  0.00034886  1
  Co  Co100  1  0.87491561  0.37792895  0.37317111  1
  Co  Co101  1  0.25276702  0.50257827  0.50030505  1
  Co  Co102  1  0.12854429  0.37677778  0.37980283  1
  Co  Co103  1  0.25060748  0.74946076  0.25080509  1
  Co  Co104  1  -0.00169791  -0.00023336  0.75387026  1
  Co  Co105  1  0.12196300  0.12551209  0.12780221  1
  Co  Co106  1  -0.00646899  -0.00062102  0.25187017  1
  Co  Co107  1  0.25355909  0.00055827  0.24546351  1
  Co  Co108  1  0.37477714  0.37341394  0.12936267  1
  Co  Co109  1  0.62242645  0.37945640  0.62608081  1
  Co  Co110  1  0.11831745  0.87575133  0.62545081  1
  Co  Co111  1  0.12829499  0.62350260  0.37398914  1
  Co  Co112  1  0.12322140  0.62475142  0.62175058  1
  Co  Co113  1  0.62617635  0.87474214  0.12805271  1
  Co  Co114  1  0.24529163  0.24436077  0.50166205  1
  Co  Co115  1  0.87939645  0.62762007  0.61970211  1
  Co  Co116  1  0.00333562  0.25183689  0.75094385  1
  Co  Co117  1  0.50109364  0.74977510  0.49775117  1
  Co  Co118  1  0.88103325  0.37467850  0.62439427  1
  Co  Co119  1  0.37600096  0.87336936  0.62325948  1
  Co  Co120  1  0.12708738  0.87940634  0.36668718  1
  Co  Co121  1  0.87328927  0.87147050  0.37488538  1
  Co  Co122  1  0.75104402  0.49788531  0.00106168  1
  Co  Co123  1  0.87290956  0.62532063  0.87705832  1
  Co  Co124  1  0.37267734  0.37418086  0.87195711  1
  Co  Co125  1  0.75157604  0.49699539  0.50240173  1
  Co  Co126  1  0.12177175  0.87306031  0.13136227  1
  Co  Co127  1  0.12423973  0.37657707  0.12264216  1
