# generated using pymatgen
data_Fe45Co19
_symmetry_space_group_name_H-M   'P 1'
_cell_length_a   11.41399853
_cell_length_b   11.41651032
_cell_length_c   11.41583080
_cell_angle_alpha   89.99429413
_cell_angle_beta   90.00619012
_cell_angle_gamma   90.00231569
_symmetry_Int_Tables_number   1
_chemical_formula_structural   Fe45Co19
_chemical_formula_sum   'Fe90 Co38'
_cell_volume   1487.57442911
_cell_formula_units_Z   2
loop_
 _symmetry_equiv_pos_site_id
 _symmetry_equiv_pos_as_xyz
  1  'x, y, z'
loop_
 _atom_site_type_symbol
 _atom_site_label
 _atom_site_symmetry_multiplicity
 _atom_site_fract_x
 _atom_site_fract_y
 _atom_site_fract_z
 _atom_site_occupancy
  Fe  Fe0  1  0.00096404  0.00169350  0.24921892  1
  Fe  Fe1  1  0.00018016  0.50040455  0.74909343  1
  Fe  Fe2  1  -0.00034455  0.49931859  0.00116014  1
  Fe  Fe3  1  0.87410486  0.37376466  0.12642597  1
  Fe  Fe4  1  0.74939159  -0.00260120  0.24787221  1
  Fe  Fe5  1  0.75020960  0.00270283  0.74935772  1
  Fe  Fe6  1  0.75166268  -0.00147768  0.50109969  1
  Fe  Fe7  1  0.75094930  0.75259674  0.49856471  1
  Fe  Fe8  1  0.50184271  0.25337668  -0.00305812  1
  Fe  Fe9  1  0.75130873  0.74749278  0.75315313  1
  Fe  Fe10  1  0.50287175  0.50013782  0.00078217  1
  Fe  Fe11  1  0.49957269  0.75199404  0.49733361  1
  Fe  Fe12  1  0.62376284  0.86379566  0.12684478  1
  Fe  Fe13  1  0.49846620  -0.00309793  0.24799991  1
  Fe  Fe14  1  0.87613771  0.37166018  0.62463737  1
  Fe  Fe15  1  0.24228848  0.75454659  0.50303234  1
  Fe  Fe16  1  0.75167413  0.49947588  0.50136993  1
  Fe  Fe17  1  0.87530789  0.62826486  0.12442356  1
  Fe  Fe18  1  0.87546847  0.87654282  0.87229108  1
  Fe  Fe19  1  0.12984912  0.11907103  0.37855024  1
  Fe  Fe20  1  0.74735276  0.50406262  0.00260251  1
  Fe  Fe21  1  0.24872797  0.50083417  0.74840456  1
  Fe  Fe22  1  -0.00031807  0.24944214  0.00086819  1
  Fe  Fe23  1  0.25279119  -0.00194444  0.00540001  1
  Fe  Fe24  1  0.37351607  0.87621467  0.87332129  1
  Fe  Fe25  1  0.62670480  0.37563371  0.37438263  1
  Fe  Fe26  1  0.74915647  0.50324904  0.24773976  1
  Fe  Fe27  1  0.87339333  0.37552541  0.87495250  1
  Fe  Fe28  1  0.50115608  0.00060516  0.75035841  1
  Fe  Fe29  1  0.62592661  0.87431887  0.62547253  1
  Fe  Fe30  1  0.49990773  0.50011379  0.49935584  1
  Fe  Fe31  1  0.37499908  0.87364946  0.62730420  1
  Fe  Fe32  1  0.24743006  0.24702798  0.74943774  1
  Fe  Fe33  1  0.37440595  0.62364347  0.87429385  1
  Fe  Fe34  1  0.12389371  0.62357208  0.87550211  1
  Fe  Fe35  1  -0.00049150  0.74925353  -0.00372746  1
  Fe  Fe36  1  0.50021572  0.74993866  0.75305087  1
  Fe  Fe37  1  0.87922009  0.62519088  0.37876923  1
  Fe  Fe38  1  0.62330177  0.62662299  0.62445739  1
  Fe  Fe39  1  0.25058457  0.25025994  0.00193038  1
  Fe  Fe40  1  0.00278321  0.24495848  0.75209460  1
  Fe  Fe41  1  0.37547820  0.37417696  0.12681353  1
  Fe  Fe42  1  0.49932906  0.25060014  0.49768845  1
  Fe  Fe43  1  0.12733794  0.37789814  0.37192402  1
  Fe  Fe44  1  0.36880527  0.62542480  0.37682670  1
  Fe  Fe45  1  0.00310954  0.25144715  0.49767249  1
  Fe  Fe46  1  0.25025948  0.50049834  0.00224735  1
  Fe  Fe47  1  0.24515120  0.74987335  0.74892050  1
  Fe  Fe48  1  0.87422046  0.12442816  0.37459839  1
  Fe  Fe49  1  0.49963087  0.24951738  0.25113443  1
  Fe  Fe50  1  0.50060398  0.50379042  0.24869185  1
  Fe  Fe51  1  0.24842255  0.00279855  0.74829753  1
  Fe  Fe52  1  0.62376156  0.12547042  0.12412719  1
  Fe  Fe53  1  0.74962559  0.24847745  0.24980643  1
  Fe  Fe54  1  0.49826157  -0.00233879  0.50043100  1
  Fe  Fe55  1  0.37212217  0.37633534  0.37292837  1
  Fe  Fe56  1  0.37071773  0.12285428  0.37393912  1
  Fe  Fe57  1  0.24465419  0.75091533  0.24728183  1
  Fe  Fe58  1  0.24681283  0.49819992  0.50316054  1
  Fe  Fe59  1  0.37408821  0.12673229  0.62301124  1
  Fe  Fe60  1  0.12538945  0.12337591  0.12375037  1
  Fe  Fe61  1  0.75169347  0.50212291  0.74802492  1
  Fe  Fe62  1  0.00197365  0.24731493  0.24980080  1
  Fe  Fe63  1  0.62534944  0.12220237  0.37579850  1
  Fe  Fe64  1  0.87726673  0.12592591  0.62265832  1
  Fe  Fe65  1  0.12613851  0.37447372  0.87481767  1
  Fe  Fe66  1  0.12436225  0.87878072  0.87435771  1
  Fe  Fe67  1  0.00331159  0.74919006  0.25240991  1
  Fe  Fe68  1  0.37697369  0.62965137  0.12454402  1
  Fe  Fe69  1  0.62504958  0.12703862  0.62396629  1
  Fe  Fe70  1  -0.00137080  0.00196555  -0.00082336  1
  Fe  Fe71  1  0.87257628  0.12468164  0.87873822  1
  Fe  Fe72  1  0.37519818  0.12441374  0.87803842  1
  Fe  Fe73  1  0.49959639  0.49867033  0.75068348  1
  Fe  Fe74  1  0.50080280  0.25085642  0.75403443  1
  Fe  Fe75  1  0.12559735  0.37583038  0.12673023  1
  Fe  Fe76  1  0.74856108  0.25065217  0.00014313  1
  Fe  Fe77  1  0.88160720  0.62910256  0.62216854  1
  Fe  Fe78  1  0.37403085  0.62659393  0.62385746  1
  Fe  Fe79  1  0.24889105  0.75150278  0.00033856  1
  Fe  Fe80  1  0.37407559  0.37360587  0.62569711  1
  Fe  Fe81  1  0.00081219  0.50245391  0.24887337  1
  Fe  Fe82  1  0.50079556  -0.00512282  0.00089141  1
  Fe  Fe83  1  0.87449847  0.37526185  0.37356771  1
  Fe  Fe84  1  0.87671229  0.87537666  0.37471567  1
  Fe  Fe85  1  0.37057311  0.87585469  0.37254541  1
  Fe  Fe86  1  0.62692818  0.37251216  0.62538409  1
  Fe  Fe87  1  0.87749700  0.87332803  0.12527543  1
  Fe  Fe88  1  0.62654034  0.62681293  0.37441677  1
  Fe  Fe89  1  0.74797349  -0.00372577  0.00238015  1
  Co  Co90  1  0.87613666  0.87292234  0.62876307  1
  Co  Co91  1  -0.00406825  -0.00373933  0.49970715  1
  Co  Co92  1  0.62478724  0.12344203  0.87715863  1
  Co  Co93  1  0.25137255  -0.00107272  0.24231608  1
  Co  Co94  1  0.62963536  0.37792859  0.87303794  1
  Co  Co95  1  0.12674693  0.88153678  0.37267258  1
  Co  Co96  1  0.87722669  0.62184019  0.87488819  1
  Co  Co97  1  -0.00059152  0.00558670  0.75240052  1
  Co  Co98  1  0.11930263  0.88141055  0.62931810  1
  Co  Co99  1  0.24908726  0.24741553  0.24922264  1
  Co  Co100  1  0.62373754  0.62330373  0.87444692  1
  Co  Co101  1  0.11973929  0.87582594  0.12298842  1
  Co  Co102  1  0.49830153  0.75100871  -0.00723292  1
  Co  Co103  1  0.62553639  0.87641609  0.37451168  1
  Co  Co104  1  0.62534369  0.37364980  0.12687062  1
  Co  Co105  1  0.37164352  0.37528241  0.87483871  1
  Co  Co106  1  0.12303031  0.62578075  0.12264246  1
  Co  Co107  1  0.00099771  0.49594554  0.50046864  1
  Co  Co108  1  0.12409980  0.37364711  0.62826265  1
  Co  Co109  1  0.75144579  0.24695010  0.75158165  1
  Co  Co110  1  0.37820061  0.86902004  0.12605181  1
  Co  Co111  1  0.25385425  -0.00479072  0.50473597  1
  Co  Co112  1  0.62375562  0.63383476  0.12599442  1
  Co  Co113  1  0.12417635  0.12129188  0.61883926  1
  Co  Co114  1  0.62638582  0.87487666  0.87256504  1
  Co  Co115  1  0.12744673  0.12323003  0.87986452  1
  Co  Co116  1  0.12125791  0.62448375  0.62361755  1
  Co  Co117  1  0.24878409  0.25253689  0.49932706  1
  Co  Co118  1  0.87384696  0.12473947  0.12484708  1
  Co  Co119  1  0.49701817  0.74872133  0.25747782  1
  Co  Co120  1  0.00261371  0.74996802  0.75243703  1
  Co  Co121  1  0.75291142  0.74886447  -0.00450675  1
  Co  Co122  1  0.00568965  0.75616706  0.49839641  1
  Co  Co123  1  0.25054883  0.50303157  0.24590176  1
  Co  Co124  1  0.75041873  0.24966795  0.49803869  1
  Co  Co125  1  0.75443220  0.74999330  0.25338110  1
  Co  Co126  1  0.37780142  0.12719746  0.12354216  1
  Co  Co127  1  0.12522300  0.62244712  0.37721572  1
