# generated using pymatgen
data_Fe45Co19
_symmetry_space_group_name_H-M   'P 1'
_cell_length_a   11.41516771
_cell_length_b   11.41399329
_cell_length_c   11.41550086
_cell_angle_alpha   89.98926813
_cell_angle_beta   90.00090961
_cell_angle_gamma   89.99826527
_symmetry_Int_Tables_number   1
_chemical_formula_structural   Fe45Co19
_chemical_formula_sum   'Fe90 Co38'
_cell_volume   1487.35580344
_cell_formula_units_Z   2
loop_
 _symmetry_equiv_pos_site_id
 _symmetry_equiv_pos_as_xyz
  1  'x, y, z'
loop_
 _atom_site_type_symbol
 _atom_site_label
 _atom_site_symmetry_multiplicity
 _atom_site_fract_x
 _atom_site_fract_y
 _atom_site_fract_z
 _atom_site_occupancy
  Fe  Fe0  1  0.00137670  0.75398794  0.00118755  1
  Fe  Fe1  1  0.50015033  0.75156921  0.00173572  1
  Fe  Fe2  1  0.49931496  0.00086297  -0.00021689  1
  Fe  Fe3  1  -0.00009012  0.25187245  0.74710146  1
  Fe  Fe4  1  0.49829817  -0.00037669  0.24810463  1
  Fe  Fe5  1  0.87421701  0.37627304  0.87199312  1
  Fe  Fe6  1  0.00235402  0.00033564  0.25185798  1
  Fe  Fe7  1  0.25012847  0.24773785  0.00094412  1
  Fe  Fe8  1  0.50070574  0.74889997  0.74991158  1
  Fe  Fe9  1  0.49958930  0.49807281  0.25058054  1
  Fe  Fe10  1  0.37279000  0.87646685  0.87642168  1
  Fe  Fe11  1  0.62282977  0.62705330  0.62209533  1
  Fe  Fe12  1  0.24865914  0.74818493  0.75185493  1
  Fe  Fe13  1  0.62664064  0.87222649  0.62376006  1
  Fe  Fe14  1  -0.00206184  0.49831789  0.00096711  1
  Fe  Fe15  1  0.00253681  0.75316933  0.74780298  1
  Fe  Fe16  1  0.00301072  0.75103296  0.25011950  1
  Fe  Fe17  1  0.74838202  0.50508878  0.75105941  1
  Fe  Fe18  1  0.37493884  0.12463246  0.62538479  1
  Fe  Fe19  1  0.75176639  0.00059219  0.74681583  1
  Fe  Fe20  1  0.50074749  0.24800343  0.75206087  1
  Fe  Fe21  1  0.49893995  0.75089128  0.24938272  1
  Fe  Fe22  1  0.37803203  0.62285106  0.87381647  1
  Fe  Fe23  1  0.62706374  0.37451834  0.37562871  1
  Fe  Fe24  1  0.75159717  -0.00062085  0.50059783  1
  Fe  Fe25  1  0.37028781  0.87346616  0.37062375  1
  Fe  Fe26  1  0.12358235  0.62286438  0.12438484  1
  Fe  Fe27  1  0.12401011  0.37723020  0.87262398  1
  Fe  Fe28  1  0.00115296  -0.00409307  0.74654911  1
  Fe  Fe29  1  0.74993097  0.49947878  0.00125081  1
  Fe  Fe30  1  0.25157123  0.49955410  0.50162276  1
  Fe  Fe31  1  0.75107197  0.00070927  0.00123445  1
  Fe  Fe32  1  0.87524132  0.87461927  0.87377361  1
  Fe  Fe33  1  0.37406146  0.37672680  0.62870280  1
  Fe  Fe34  1  0.62460827  0.87490932  0.37532991  1
  Fe  Fe35  1  0.62447924  0.12422110  0.62365117  1
  Fe  Fe36  1  0.74899771  0.75074618  0.00040541  1
  Fe  Fe37  1  0.37106373  0.37241355  0.37522201  1
  Fe  Fe38  1  0.87721856  0.12583172  0.12545620  1
  Fe  Fe39  1  0.87720316  0.12296892  0.87476274  1
  Fe  Fe40  1  0.37161010  0.87201567  0.62450259  1
  Fe  Fe41  1  0.24950906  0.50063762  -0.00209560  1
  Fe  Fe42  1  0.62487833  0.62490102  0.12525791  1
  Fe  Fe43  1  0.12604044  0.37487963  0.12490375  1
  Fe  Fe44  1  0.49784382  0.25038701  0.50118329  1
  Fe  Fe45  1  0.62632125  0.87518758  0.87463932  1
  Fe  Fe46  1  0.50003176  0.25108633  0.25051519  1
  Fe  Fe47  1  0.87658096  0.62700832  0.87604217  1
  Fe  Fe48  1  0.12404066  0.12523405  0.62341539  1
  Fe  Fe49  1  0.75196400  0.24929681  0.49973684  1
  Fe  Fe50  1  0.87674431  0.12740090  0.37725846  1
  Fe  Fe51  1  0.62227886  0.12438229  0.37717706  1
  Fe  Fe52  1  0.37474862  0.62563822  0.12591633  1
  Fe  Fe53  1  0.87144235  0.37318543  0.12866509  1
  Fe  Fe54  1  0.00038876  0.25833968  0.50224918  1
  Fe  Fe55  1  0.87448319  0.87589326  0.12710660  1
  Fe  Fe56  1  0.50224352  0.49800462  0.00034016  1
  Fe  Fe57  1  0.74978507  0.75003099  0.25209974  1
  Fe  Fe58  1  0.24938861  0.74886048  -0.00029597  1
  Fe  Fe59  1  0.37486031  0.37547311  0.87307966  1
  Fe  Fe60  1  0.75402458  0.50236626  0.49674119  1
  Fe  Fe61  1  0.87623359  0.62770560  0.62278433  1
  Fe  Fe62  1  0.24830537  0.24923235  0.74913028  1
  Fe  Fe63  1  0.12166641  0.62361301  0.87516648  1
  Fe  Fe64  1  0.12375430  0.62011482  0.62570277  1
  Fe  Fe65  1  0.24863003  0.00008921  0.74975662  1
  Fe  Fe66  1  0.12844446  0.12999749  0.37548798  1
  Fe  Fe67  1  0.49676730  -0.00251592  0.49995289  1
  Fe  Fe68  1  0.62171104  0.62602676  0.37576022  1
  Fe  Fe69  1  0.11988044  0.61865281  0.37473232  1
  Fe  Fe70  1  0.25004134  0.49992945  0.24922235  1
  Fe  Fe71  1  0.75035994  0.50143887  0.25155411  1
  Fe  Fe72  1  0.24904636  0.00312868  0.00408277  1
  Fe  Fe73  1  0.25091350  0.00236968  0.49716812  1
  Fe  Fe74  1  0.62620809  0.37389429  0.87592922  1
  Fe  Fe75  1  -0.00126487  0.25100741  -0.00048726  1
  Fe  Fe76  1  0.87627456  0.62555969  0.12687248  1
  Fe  Fe77  1  0.24832110  0.74625635  0.49702275  1
  Fe  Fe78  1  0.00198573  -0.00300025  0.50052162  1
  Fe  Fe79  1  0.75086701  0.24661671  0.74926090  1
  Fe  Fe80  1  0.00220112  0.25332582  0.25180944  1
  Fe  Fe81  1  0.12842542  0.87685885  0.12715257  1
  Fe  Fe82  1  0.49971945  0.00081781  0.75075808  1
  Fe  Fe83  1  0.37551079  0.37391376  0.12334406  1
  Fe  Fe84  1  0.12290192  0.12300662  0.87626430  1
  Fe  Fe85  1  0.49691532  0.50032122  0.50042449  1
  Fe  Fe86  1  0.62708962  0.37562121  0.62433658  1
  Fe  Fe87  1  0.74961453  0.00215252  0.25089386  1
  Fe  Fe88  1  0.62441275  0.12904290  0.12173600  1
  Fe  Fe89  1  0.87715297  0.87196618  0.37765049  1
  Co  Co90  1  0.88137318  0.62689196  0.37429239  1
  Co  Co91  1  -0.00396491  0.49400991  0.50032849  1
  Co  Co92  1  0.49812594  0.24985461  -0.00403942  1
  Co  Co93  1  0.37214272  0.12368990  0.87453196  1
  Co  Co94  1  0.49697251  0.75159385  0.49826288  1
  Co  Co95  1  0.24951711  0.00638617  0.24869829  1
  Co  Co96  1  0.12757274  0.87649041  0.37394068  1
  Co  Co97  1  0.87074966  0.37679149  0.62785399  1
  Co  Co98  1  0.37563402  0.12739852  0.37505896  1
  Co  Co99  1  0.12997718  0.87531480  0.62261088  1
  Co  Co100  1  -0.00249028  0.50082957  0.74933638  1
  Co  Co101  1  0.25084377  0.50224849  0.75255927  1
  Co  Co102  1  0.62576682  0.87539658  0.12485259  1
  Co  Co103  1  0.37121895  0.87387801  0.12642052  1
  Co  Co104  1  0.87370145  0.87158955  0.62232340  1
  Co  Co105  1  0.12957758  0.37523288  0.37507689  1
  Co  Co106  1  -0.00042845  0.49565757  0.24872627  1
  Co  Co107  1  0.74786275  0.24581180  0.25231238  1
  Co  Co108  1  0.00013886  -0.00290812  0.00157929  1
  Co  Co109  1  0.74949486  0.74851624  0.49626041  1
  Co  Co110  1  0.75366484  0.25006049  -0.00131491  1
  Co  Co111  1  0.87804620  0.12541578  0.62259453  1
  Co  Co112  1  0.37876955  0.12652359  0.12490717  1
  Co  Co113  1  0.00515683  0.75085310  0.50139687  1
  Co  Co114  1  0.25054419  0.25098752  0.50462436  1
  Co  Co115  1  0.87220553  0.37406967  0.37205135  1
  Co  Co116  1  0.62328734  0.62540659  0.87841530  1
  Co  Co117  1  0.62741928  0.12430973  0.87603878  1
  Co  Co118  1  0.62617661  0.37253862  0.12529589  1
  Co  Co119  1  0.37560209  0.62570795  0.62626302  1
  Co  Co120  1  0.12012697  0.12606421  0.12522785  1
  Co  Co121  1  0.12678406  0.87683296  0.87667440  1
  Co  Co122  1  0.37545185  0.62479290  0.37331843  1
  Co  Co123  1  0.50295180  0.50032999  0.74910086  1
  Co  Co124  1  0.25084263  0.24837264  0.24586501  1
  Co  Co125  1  0.74893171  0.74748238  0.75076955  1
  Co  Co126  1  0.24611499  0.74539689  0.25111952  1
  Co  Co127  1  0.12644059  0.37953727  0.62767482  1
