# generated using pymatgen
data_Fe45Co19
_symmetry_space_group_name_H-M   'P 1'
_cell_length_a   11.41423974
_cell_length_b   11.41403743
_cell_length_c   11.41418897
_cell_angle_alpha   89.99862196
_cell_angle_beta   89.99206260
_cell_angle_gamma   90.00318488
_symmetry_Int_Tables_number   1
_chemical_formula_structural   Fe45Co19
_chemical_formula_sum   'Fe90 Co38'
_cell_volume   1487.06973740
_cell_formula_units_Z   2
loop_
 _symmetry_equiv_pos_site_id
 _symmetry_equiv_pos_as_xyz
  1  'x, y, z'
loop_
 _atom_site_type_symbol
 _atom_site_label
 _atom_site_symmetry_multiplicity
 _atom_site_fract_x
 _atom_site_fract_y
 _atom_site_fract_z
 _atom_site_occupancy
  Fe  Fe0  1  0.62409253  0.37663039  0.12359060  1
  Fe  Fe1  1  0.37409725  0.12820625  0.12435423  1
  Fe  Fe2  1  0.62538350  0.37667011  0.37710730  1
  Fe  Fe3  1  0.74821489  0.74744952  -0.00208383  1
  Fe  Fe4  1  0.62551301  0.62219131  0.62744758  1
  Fe  Fe5  1  0.24967327  0.50198791  0.50467892  1
  Fe  Fe6  1  0.25011187  0.75049788  0.50107446  1
  Fe  Fe7  1  0.62468976  0.12417130  0.37333292  1
  Fe  Fe8  1  0.49817962  0.50005888  0.50142672  1
  Fe  Fe9  1  0.24691656  0.74574910  0.74775235  1
  Fe  Fe10  1  0.62543576  0.62335589  0.12700434  1
  Fe  Fe11  1  0.37484123  0.62605772  0.12755841  1
  Fe  Fe12  1  0.37404892  0.62456637  0.86986197  1
  Fe  Fe13  1  0.12372230  0.87438305  0.37529885  1
  Fe  Fe14  1  0.87783950  0.37380793  0.62456507  1
  Fe  Fe15  1  0.37487938  0.87380932  0.37493295  1
  Fe  Fe16  1  0.12585069  0.12307456  0.12298046  1
  Fe  Fe17  1  0.37616382  0.13012715  0.87260458  1
  Fe  Fe18  1  0.74813176  0.24858656  0.00192911  1
  Fe  Fe19  1  -0.00063857  -0.00037969  0.75030884  1
  Fe  Fe20  1  0.62506723  0.87597376  0.87451419  1
  Fe  Fe21  1  0.75237894  0.00319758  0.00229793  1
  Fe  Fe22  1  0.74774590  0.24870787  0.24762606  1
  Fe  Fe23  1  0.75035209  0.24862192  0.50167138  1
  Fe  Fe24  1  0.87609047  0.62400340  0.87255769  1
  Fe  Fe25  1  0.12708472  0.87496370  0.12282069  1
  Fe  Fe26  1  0.00281422  0.74660193  0.00090914  1
  Fe  Fe27  1  0.00321793  0.49988987  0.74806624  1
  Fe  Fe28  1  0.12641622  0.12156074  0.87744384  1
  Fe  Fe29  1  0.50279338  0.74934301  0.25266064  1
  Fe  Fe30  1  -0.00208445  -0.00014065  0.50137347  1
  Fe  Fe31  1  0.50051387  0.74785324  -0.00241607  1
  Fe  Fe32  1  0.62616761  0.62020810  0.87165646  1
  Fe  Fe33  1  0.37285911  0.12610469  0.37580189  1
  Fe  Fe34  1  0.87559498  0.12471632  0.37290381  1
  Fe  Fe35  1  0.74587667  0.25409514  0.74873469  1
  Fe  Fe36  1  0.12582254  0.12276600  0.37547356  1
  Fe  Fe37  1  0.12656156  0.37582705  0.37813809  1
  Fe  Fe38  1  0.74889077  0.74936183  0.50038348  1
  Fe  Fe39  1  0.87539361  0.37488297  0.87500382  1
  Fe  Fe40  1  0.75350570  0.50108359  0.49939323  1
  Fe  Fe41  1  0.75081558  0.00217283  0.50208820  1
  Fe  Fe42  1  0.87496199  0.87460980  0.87740658  1
  Fe  Fe43  1  0.12739274  0.87584706  0.87715120  1
  Fe  Fe44  1  0.87629373  0.37358322  0.12593221  1
  Fe  Fe45  1  0.87407835  0.62723755  0.12839012  1
  Fe  Fe46  1  0.49554821  -0.00064644  -0.00292204  1
  Fe  Fe47  1  0.75296151  -0.00085169  0.24550861  1
  Fe  Fe48  1  0.49791989  -0.00015097  0.24962151  1
  Fe  Fe49  1  0.87321868  0.87453253  0.62537356  1
  Fe  Fe50  1  0.50244037  0.74945960  0.50015455  1
  Fe  Fe51  1  0.37457095  0.87139817  0.12405351  1
  Fe  Fe52  1  0.00424852  0.25088459  0.24976236  1
  Fe  Fe53  1  0.12725750  0.37965103  0.12216782  1
  Fe  Fe54  1  0.37506632  0.62551093  0.37629003  1
  Fe  Fe55  1  0.25392986  0.00101886  0.75068628  1
  Fe  Fe56  1  0.37221479  0.37345977  0.12577473  1
  Fe  Fe57  1  0.87492282  0.62865138  0.37205264  1
  Fe  Fe58  1  0.12836935  0.38137954  0.87647834  1
  Fe  Fe59  1  0.00457156  0.25006856  0.75043405  1
  Fe  Fe60  1  -0.00011933  0.50068454  0.25106781  1
  Fe  Fe61  1  0.74917047  -0.00058988  0.74982730  1
  Fe  Fe62  1  0.49878716  0.25086030  0.50097336  1
  Fe  Fe63  1  0.49658317  0.49918336  -0.00211805  1
  Fe  Fe64  1  0.12654892  0.12390102  0.62393847  1
  Fe  Fe65  1  0.37626908  0.87472051  0.62621437  1
  Fe  Fe66  1  0.62674780  0.87715753  0.37591400  1
  Fe  Fe67  1  0.25034410  0.50098223  0.25182022  1
  Fe  Fe68  1  0.49818805  0.00029630  0.50173894  1
  Fe  Fe69  1  0.62417630  0.87572707  0.12288977  1
  Fe  Fe70  1  0.25077951  0.24909797  0.50088644  1
  Fe  Fe71  1  0.49989325  0.49909283  0.25248405  1
  Fe  Fe72  1  0.87781423  0.62558449  0.62618692  1
  Fe  Fe73  1  0.25122269  -0.00085410  0.25025241  1
  Fe  Fe74  1  0.00297296  0.25053594  -0.00131633  1
  Fe  Fe75  1  0.62184967  0.12411550  0.62713153  1
  Fe  Fe76  1  0.87451736  0.37304443  0.37375328  1
  Fe  Fe77  1  -0.00372604  -0.00391590  0.24681963  1
  Fe  Fe78  1  0.00138867  0.75094198  0.75057287  1
  Fe  Fe79  1  -0.00042119  0.24832571  0.50005325  1
  Fe  Fe80  1  0.49933847  0.25131571  0.25113369  1
  Fe  Fe81  1  0.37200511  0.37387063  0.87172544  1
  Fe  Fe82  1  0.24934343  0.74556680  0.00006528  1
  Fe  Fe83  1  0.62209106  0.12617707  0.87560974  1
  Fe  Fe84  1  0.50302185  0.75171007  0.74980791  1
  Fe  Fe85  1  0.12325395  0.62747776  0.37658957  1
  Fe  Fe86  1  0.12559128  0.87557732  0.62458813  1
  Fe  Fe87  1  0.75305130  0.50000514  0.00022176  1
  Fe  Fe88  1  0.37305228  0.37387554  0.62892047  1
  Fe  Fe89  1  0.87569722  0.12666791  0.87382145  1
  Co  Co90  1  -0.00385366  0.50179033  0.00140922  1
  Co  Co91  1  0.24758566  0.25017817  0.25038335  1
  Co  Co92  1  0.37837880  0.62645352  0.62679385  1
  Co  Co93  1  0.62504015  0.62213547  0.37531856  1
  Co  Co94  1  0.75178273  0.49688155  0.74895152  1
  Co  Co95  1  0.12506515  0.62120997  0.87628993  1
  Co  Co96  1  0.62476498  0.87576914  0.62552246  1
  Co  Co97  1  -0.00191390  0.75313381  0.49996234  1
  Co  Co98  1  0.49708532  -0.00167512  0.75215846  1
  Co  Co99  1  0.87894029  0.12891389  0.12471414  1
  Co  Co100  1  0.37253764  0.86899510  0.87373432  1
  Co  Co101  1  0.12392225  0.37426294  0.62241922  1
  Co  Co102  1  0.25541472  0.50295337  -0.00072486  1
  Co  Co103  1  0.25136325  -0.00172981  0.49990331  1
  Co  Co104  1  0.50106358  0.49600452  0.75060695  1
  Co  Co105  1  0.50483741  0.25483179  0.74932813  1
  Co  Co106  1  0.49982668  0.25231571  -0.00012858  1
  Co  Co107  1  0.12019146  0.62639555  0.62111169  1
  Co  Co108  1  0.87289716  0.87499648  0.37720356  1
  Co  Co109  1  0.74690554  0.75315486  0.25089928  1
  Co  Co110  1  0.24785461  0.25047633  -0.00077606  1
  Co  Co111  1  0.24533990  0.24899704  0.75006392  1
  Co  Co112  1  0.00076219  0.75224756  0.24806585  1
  Co  Co113  1  0.37579456  0.12658408  0.62651037  1
  Co  Co114  1  0.87526337  0.12694324  0.62876665  1
  Co  Co115  1  -0.00239800  -0.00010402  0.00052819  1
  Co  Co116  1  0.37311844  0.37578052  0.37622815  1
  Co  Co117  1  0.74997122  0.75030849  0.75039178  1
  Co  Co118  1  0.25542471  0.00033411  -0.00096719  1
  Co  Co119  1  0.12633568  0.62163310  0.12590084  1
  Co  Co120  1  -0.00197328  0.49983362  0.49733748  1
  Co  Co121  1  0.74996745  0.49846281  0.25057545  1
  Co  Co122  1  0.62585389  0.37847493  0.62057148  1
  Co  Co123  1  0.24686183  0.50319385  0.74545595  1
  Co  Co124  1  0.62650009  0.37771822  0.87916161  1
  Co  Co125  1  0.62052387  0.12324573  0.12457924  1
  Co  Co126  1  0.24921852  0.74950154  0.25133639  1
  Co  Co127  1  0.87332016  0.86982193  0.11969506  1
