# generated using pymatgen
data_Fe45Co19
_symmetry_space_group_name_H-M   'P 1'
_cell_length_a   11.41468949
_cell_length_b   11.41689701
_cell_length_c   11.41566426
_cell_angle_alpha   89.99914484
_cell_angle_beta   89.99393367
_cell_angle_gamma   89.99658214
_symmetry_Int_Tables_number   1
_chemical_formula_structural   Fe45Co19
_chemical_formula_sum   'Fe90 Co38'
_cell_volume   1487.69317129
_cell_formula_units_Z   2
loop_
 _symmetry_equiv_pos_site_id
 _symmetry_equiv_pos_as_xyz
  1  'x, y, z'
loop_
 _atom_site_type_symbol
 _atom_site_label
 _atom_site_symmetry_multiplicity
 _atom_site_fract_x
 _atom_site_fract_y
 _atom_site_fract_z
 _atom_site_occupancy
  Fe  Fe0  1  0.50080462  0.49796206  0.24851919  1
  Fe  Fe1  1  0.49985125  0.24859001  0.25308863  1
  Fe  Fe2  1  0.74746151  0.75052631  -0.00258525  1
  Fe  Fe3  1  0.24902076  0.25035320  -0.00220497  1
  Fe  Fe4  1  0.62575739  0.37660876  0.62732600  1
  Fe  Fe5  1  0.74842990  0.00117641  0.24865265  1
  Fe  Fe6  1  0.12309074  0.12641808  0.62272708  1
  Fe  Fe7  1  0.87655873  0.62512551  0.87281900  1
  Fe  Fe8  1  0.62014795  0.87676461  0.87597829  1
  Fe  Fe9  1  0.12352645  0.11968002  0.37860886  1
  Fe  Fe10  1  0.37437753  0.37260340  0.12513533  1
  Fe  Fe11  1  0.24921920  0.49877123  -0.00109814  1
  Fe  Fe12  1  0.37815950  0.62644807  0.62120216  1
  Fe  Fe13  1  0.00235845  0.75264528  0.25039016  1
  Fe  Fe14  1  0.87321577  0.12786928  0.12082018  1
  Fe  Fe15  1  0.62639459  0.37601931  0.37626714  1
  Fe  Fe16  1  0.74834916  0.74837250  0.49939752  1
  Fe  Fe17  1  0.24777839  -0.00358890  0.24977137  1
  Fe  Fe18  1  0.50087604  0.74701595  0.75072866  1
  Fe  Fe19  1  0.87542173  0.87606683  0.87497828  1
  Fe  Fe20  1  0.00211318  0.50127490  -0.00107562  1
  Fe  Fe21  1  0.37752252  0.37701865  0.87438195  1
  Fe  Fe22  1  0.50061590  0.25011128  0.50002107  1
  Fe  Fe23  1  0.87319773  0.87316572  0.62541777  1
  Fe  Fe24  1  0.62329945  0.61995225  0.38034710  1
  Fe  Fe25  1  -0.00016121  -0.00234898  0.24850014  1
  Fe  Fe26  1  0.74940183  0.50066667  0.24945533  1
  Fe  Fe27  1  0.74446864  0.00166911  0.00082646  1
  Fe  Fe28  1  0.12339473  0.12349552  0.87425114  1
  Fe  Fe29  1  0.24959846  0.50176870  0.74963276  1
  Fe  Fe30  1  0.12617130  0.87471751  0.87272833  1
  Fe  Fe31  1  0.24932331  0.50075726  0.25097676  1
  Fe  Fe32  1  0.12771726  0.62853410  0.12604543  1
  Fe  Fe33  1  0.37802465  0.62287398  0.87738251  1
  Fe  Fe34  1  0.24948519  0.24843674  0.25305545  1
  Fe  Fe35  1  0.62691290  0.12723799  0.62630553  1
  Fe  Fe36  1  0.75041104  0.24849460  0.25170893  1
  Fe  Fe37  1  0.25467833  0.75171321  0.49267179  1
  Fe  Fe38  1  0.87522803  0.12437390  0.37809374  1
  Fe  Fe39  1  0.49635894  -0.00076599  0.74454034  1
  Fe  Fe40  1  0.75410751  0.24954594  0.75662860  1
  Fe  Fe41  1  0.87448942  0.87535541  0.37542441  1
  Fe  Fe42  1  0.74741873  0.74927132  0.25211219  1
  Fe  Fe43  1  0.37429266  0.62540525  0.12642844  1
  Fe  Fe44  1  0.49946927  0.25130075  0.75000784  1
  Fe  Fe45  1  0.25264987  -0.00189961  -0.00093361  1
  Fe  Fe46  1  -0.00118205  0.75027908  0.50004467  1
  Fe  Fe47  1  0.74713349  0.74882914  0.75167300  1
  Fe  Fe48  1  0.12357321  0.37608487  0.37668766  1
  Fe  Fe49  1  0.00139506  -0.00125800  0.00147855  1
  Fe  Fe50  1  0.87579009  0.62335026  0.37561454  1
  Fe  Fe51  1  0.37414263  0.37675951  0.37585440  1
  Fe  Fe52  1  0.37633449  0.12055789  0.37779421  1
  Fe  Fe53  1  0.25266792  0.00023537  0.74539595  1
  Fe  Fe54  1  0.12177002  0.37510557  0.87120982  1
  Fe  Fe55  1  0.37748146  0.87453115  0.12639134  1
  Fe  Fe56  1  0.37358014  0.12622452  0.12478636  1
  Fe  Fe57  1  0.00042505  0.24873521  0.25021257  1
  Fe  Fe58  1  0.62287677  0.87860755  0.37655931  1
  Fe  Fe59  1  0.50417225  0.00332391  0.24696691  1
  Fe  Fe60  1  0.24889851  0.50108554  0.49960913  1
  Fe  Fe61  1  0.62414504  0.62697851  0.12280158  1
  Fe  Fe62  1  0.24895599  0.24858637  0.49900097  1
  Fe  Fe63  1  0.62671553  0.37108187  0.12393772  1
  Fe  Fe64  1  0.00040313  0.75080311  -0.00207101  1
  Fe  Fe65  1  0.74910248  0.00010209  0.50149606  1
  Fe  Fe66  1  0.87430856  0.62637982  0.12488684  1
  Fe  Fe67  1  0.87357522  0.37281871  0.12106250  1
  Fe  Fe68  1  -0.00217639  0.00035648  0.74656259  1
  Fe  Fe69  1  0.12466025  0.62651414  0.62453632  1
  Fe  Fe70  1  0.87483060  0.62545238  0.62645075  1
  Fe  Fe71  1  0.12625359  0.12510475  0.12429946  1
  Fe  Fe72  1  0.37207883  0.37402357  0.62531643  1
  Fe  Fe73  1  0.12672691  0.87332037  0.62303640  1
  Fe  Fe74  1  0.74779101  0.49920492  -0.00231418  1
  Fe  Fe75  1  0.25134605  0.74896140  0.75209857  1
  Fe  Fe76  1  0.24864379  0.24906756  0.75049531  1
  Fe  Fe77  1  0.25253447  0.75222286  -0.00133225  1
  Fe  Fe78  1  0.12587293  0.37359431  0.12593219  1
  Fe  Fe79  1  0.62357243  0.87207471  0.62387960  1
  Fe  Fe80  1  0.87618026  0.37710943  0.37541352  1
  Fe  Fe81  1  0.37642301  0.12326964  0.87313416  1
  Fe  Fe82  1  0.49972251  0.74935582  0.25351214  1
  Fe  Fe83  1  0.87957143  0.37570856  0.62796672  1
  Fe  Fe84  1  0.00060487  0.50078314  0.24956192  1
  Fe  Fe85  1  0.75170421  0.25192249  0.50046729  1
  Fe  Fe86  1  0.87206613  0.87361535  0.12468916  1
  Fe  Fe87  1  0.50227202  0.24816183  -0.00244249  1
  Fe  Fe88  1  0.74836583  0.50149397  0.75070019  1
  Fe  Fe89  1  0.75143938  0.00038442  0.75019741  1
  Co  Co90  1  0.74637311  0.24951086  -0.00795567  1
  Co  Co91  1  0.00290166  0.25045674  -0.00079568  1
  Co  Co92  1  0.25478946  -0.00081368  0.50531086  1
  Co  Co93  1  0.49929389  0.00128312  0.50737057  1
  Co  Co94  1  0.37507598  0.13064450  0.62515535  1
  Co  Co95  1  0.49848397  0.50239802  0.74632200  1
  Co  Co96  1  0.37604726  0.87620588  0.87203785  1
  Co  Co97  1  0.87830837  0.37742222  0.87583872  1
  Co  Co98  1  0.62172783  0.37839122  0.87220931  1
  Co  Co99  1  0.75243313  0.49896159  0.50246782  1
  Co  Co100  1  0.12627808  0.87247260  0.12260184  1
  Co  Co101  1  0.12538738  0.62728277  0.87495188  1
  Co  Co102  1  0.37498836  0.86903142  0.62515486  1
  Co  Co103  1  0.62654590  0.13014911  0.12544695  1
  Co  Co104  1  0.87626627  0.12240582  0.87879286  1
  Co  Co105  1  0.62593945  0.12458223  0.37829458  1
  Co  Co106  1  0.50074825  0.49835002  0.00387378  1
  Co  Co107  1  0.49928013  0.75130729  0.49597230  1
  Co  Co108  1  0.62210059  0.62290967  0.87615862  1
  Co  Co109  1  0.00107890  0.50079156  0.50148698  1
  Co  Co110  1  0.49988210  0.00165610  0.00234007  1
  Co  Co111  1  0.00291133  0.50289908  0.74927473  1
  Co  Co112  1  0.62378339  0.62480223  0.62194765  1
  Co  Co113  1  0.62183044  0.12161718  0.86966726  1
  Co  Co114  1  -0.00350041  -0.00179834  0.50329821  1
  Co  Co115  1  0.12457951  0.87763111  0.37940546  1
  Co  Co116  1  0.62469982  0.87198923  0.12544876  1
  Co  Co117  1  -0.00054951  0.25131078  0.50034241  1
  Co  Co118  1  0.49835201  0.75130839  -0.00080315  1
  Co  Co119  1  0.12541939  0.37399594  0.62660029  1
  Co  Co120  1  0.37709267  0.62052310  0.37387944  1
  Co  Co121  1  0.87225796  0.12575508  0.62347451  1
  Co  Co122  1  -0.00004161  0.75200601  0.74950430  1
  Co  Co123  1  0.49900956  0.49574434  0.50306078  1
  Co  Co124  1  0.25158604  0.75376342  0.25430531  1
  Co  Co125  1  0.37899763  0.88222342  0.37418911  1
  Co  Co126  1  0.12438770  0.62659618  0.37397834  1
  Co  Co127  1  -0.00248443  0.24577556  0.75037957  1
