# generated using pymatgen
data_Fe45Co19
_symmetry_space_group_name_H-M   'P 1'
_cell_length_a   11.41448769
_cell_length_b   11.41576587
_cell_length_c   11.41648074
_cell_angle_alpha   89.99871311
_cell_angle_beta   90.00837613
_cell_angle_gamma   90.00184190
_symmetry_Int_Tables_number   1
_chemical_formula_structural   Fe45Co19
_chemical_formula_sum   'Fe90 Co38'
_cell_volume   1487.62586467
_cell_formula_units_Z   2
loop_
 _symmetry_equiv_pos_site_id
 _symmetry_equiv_pos_as_xyz
  1  'x, y, z'
loop_
 _atom_site_type_symbol
 _atom_site_label
 _atom_site_symmetry_multiplicity
 _atom_site_fract_x
 _atom_site_fract_y
 _atom_site_fract_z
 _atom_site_occupancy
  Fe  Fe0  1  0.24861178  0.75125660  0.75179973  1
  Fe  Fe1  1  0.00025759  0.24929558  0.74876058  1
  Fe  Fe2  1  0.74845329  0.49922440  0.75185346  1
  Fe  Fe3  1  0.00072796  0.00212669  0.25059391  1
  Fe  Fe4  1  0.37447289  0.62668541  0.12665823  1
  Fe  Fe5  1  0.00086063  -0.00005468  0.00047683  1
  Fe  Fe6  1  0.24778362  0.49820943  0.75146023  1
  Fe  Fe7  1  0.37170853  0.12566474  0.12319453  1
  Fe  Fe8  1  0.12931491  0.37294918  0.12423890  1
  Fe  Fe9  1  0.87354586  0.12673579  0.37727940  1
  Fe  Fe10  1  0.87433799  0.37546007  0.62507916  1
  Fe  Fe11  1  0.12466063  0.62136182  0.37640723  1
  Fe  Fe12  1  0.75250220  0.74809157  0.49981912  1
  Fe  Fe13  1  0.37364114  0.37587507  0.37316795  1
  Fe  Fe14  1  0.00307338  0.24989309  0.25066622  1
  Fe  Fe15  1  0.49828862  0.49852105  0.00183478  1
  Fe  Fe16  1  0.00180911  0.49890504  0.74960205  1
  Fe  Fe17  1  0.50077310  0.49927535  0.75106330  1
  Fe  Fe18  1  0.37579047  0.87925914  0.87633264  1
  Fe  Fe19  1  0.87663858  0.62315799  0.87509991  1
  Fe  Fe20  1  0.24860168  0.75082479  -0.00342437  1
  Fe  Fe21  1  0.37613795  0.87550735  0.62433590  1
  Fe  Fe22  1  0.12562877  0.12610226  0.87589672  1
  Fe  Fe23  1  0.25271973  0.74820773  0.49789572  1
  Fe  Fe24  1  0.37535276  0.12383635  0.37576867  1
  Fe  Fe25  1  0.62485121  0.12320510  0.87651613  1
  Fe  Fe26  1  0.87292510  0.12464490  0.87503875  1
  Fe  Fe27  1  0.62476367  0.87553272  0.37485631  1
  Fe  Fe28  1  0.74848273  0.74711448  0.24863758  1
  Fe  Fe29  1  0.50319910  0.25108303  0.74961357  1
  Fe  Fe30  1  0.37633923  0.12603297  0.62688230  1
  Fe  Fe31  1  0.00036741  0.74974871  -0.00031324  1
  Fe  Fe32  1  0.24853841  0.00056400  0.75027832  1
  Fe  Fe33  1  0.62819954  0.12610244  0.12356800  1
  Fe  Fe34  1  0.12791006  0.37453084  0.37800146  1
  Fe  Fe35  1  0.37433312  0.62458439  0.62642410  1
  Fe  Fe36  1  0.75191975  0.75057644  0.00048017  1
  Fe  Fe37  1  0.74652591  -0.00138657  0.74643271  1
  Fe  Fe38  1  0.87041617  0.12733861  0.62189853  1
  Fe  Fe39  1  0.00029226  0.74832979  0.74997267  1
  Fe  Fe40  1  0.12795794  0.62497767  0.12499541  1
  Fe  Fe41  1  0.37134101  0.37303438  0.12606884  1
  Fe  Fe42  1  0.37395528  0.37438743  0.62616070  1
  Fe  Fe43  1  0.62767986  0.37224788  0.12619611  1
  Fe  Fe44  1  0.49907968  -0.00097251  0.24734675  1
  Fe  Fe45  1  -0.00210015  0.00112220  0.50041200  1
  Fe  Fe46  1  0.87436612  0.12773348  0.12411860  1
  Fe  Fe47  1  0.24974129  0.00198884  0.50010594  1
  Fe  Fe48  1  0.37559147  0.12437607  0.87532140  1
  Fe  Fe49  1  0.62552847  0.62398617  0.62484715  1
  Fe  Fe50  1  0.50056545  0.75072707  0.75090559  1
  Fe  Fe51  1  0.62461495  0.87523391  0.12502064  1
  Fe  Fe52  1  0.37287840  0.37338556  0.87558463  1
  Fe  Fe53  1  0.62361984  0.62389997  0.37335588  1
  Fe  Fe54  1  0.87588206  0.62171147  0.12800619  1
  Fe  Fe55  1  0.12479359  0.87659860  0.37619654  1
  Fe  Fe56  1  0.75077930  0.49743536  0.00263665  1
  Fe  Fe57  1  0.62711671  0.12629226  0.37755922  1
  Fe  Fe58  1  0.50028673  0.24882236  0.25031338  1
  Fe  Fe59  1  0.12467937  0.62368480  0.62439520  1
  Fe  Fe60  1  0.50081780  0.25000255  -0.00002605  1
  Fe  Fe61  1  0.49852638  0.49912742  0.50034932  1
  Fe  Fe62  1  0.12470443  0.12834660  0.62155382  1
  Fe  Fe63  1  0.50344206  0.00018868  0.50351770  1
  Fe  Fe64  1  0.87601085  0.87541257  0.12652915  1
  Fe  Fe65  1  0.62439728  0.62322451  0.87857749  1
  Fe  Fe66  1  0.12594928  0.37264757  0.62134817  1
  Fe  Fe67  1  0.87572991  0.87475400  0.62604795  1
  Fe  Fe68  1  0.62346604  0.87793598  0.87685536  1
  Fe  Fe69  1  0.75214242  0.49914146  0.49717210  1
  Fe  Fe70  1  0.87609013  0.37447594  0.87617011  1
  Fe  Fe71  1  0.87511782  0.87361042  0.37350302  1
  Fe  Fe72  1  0.12677387  0.87558713  0.12529888  1
  Fe  Fe73  1  0.00172958  0.74799001  0.25056483  1
  Fe  Fe74  1  0.49719643  0.74923237  0.49698938  1
  Fe  Fe75  1  0.75140587  0.00143562  0.24987286  1
  Fe  Fe76  1  0.25372469  0.75046381  0.25483255  1
  Fe  Fe77  1  0.12361812  0.87528500  0.62482655  1
  Fe  Fe78  1  0.50099243  0.50060303  0.24757488  1
  Fe  Fe79  1  0.37418244  0.62367745  0.87515329  1
  Fe  Fe80  1  0.24911130  0.00238076  0.24974802  1
  Fe  Fe81  1  -0.00274151  0.74610683  0.49972602  1
  Fe  Fe82  1  0.00240317  0.49875812  0.00206410  1
  Fe  Fe83  1  0.87752078  0.87751595  0.87294174  1
  Fe  Fe84  1  0.00005330  0.25114229  0.00063721  1
  Fe  Fe85  1  0.49924327  0.75139747  0.00140286  1
  Fe  Fe86  1  0.87557473  0.37730872  0.36967743  1
  Fe  Fe87  1  0.50112541  0.25226149  0.50069416  1
  Fe  Fe88  1  0.74890807  0.74970529  0.75050043  1
  Fe  Fe89  1  0.74654949  0.25316560  0.75108349  1
  Co  Co90  1  0.37212163  0.87379196  0.12500461  1
  Co  Co91  1  0.25027456  0.24940114  -0.00076994  1
  Co  Co92  1  0.24947007  0.49995242  0.25014533  1
  Co  Co93  1  0.74948625  0.25154787  -0.00130634  1
  Co  Co94  1  0.12477020  0.37305447  0.87581669  1
  Co  Co95  1  -0.00271398  0.25165524  0.49869331  1
  Co  Co96  1  0.62476428  0.37767684  0.62444864  1
  Co  Co97  1  0.75023903  0.24867422  0.25166660  1
  Co  Co98  1  0.50226623  0.00011767  0.74733656  1
  Co  Co99  1  0.75016686  -0.00334616  0.50106219  1
  Co  Co100  1  0.25410961  0.24909905  0.49895383  1
  Co  Co101  1  0.75159002  -0.00097193  0.00095588  1
  Co  Co102  1  0.62323057  0.62554308  0.12280499  1
  Co  Co103  1  -0.00248498  0.50037428  0.49979788  1
  Co  Co104  1  0.24896159  0.24941196  0.74974809  1
  Co  Co105  1  0.37693212  0.62081141  0.37279893  1
  Co  Co106  1  0.00510097  0.49805589  0.24833995  1
  Co  Co107  1  0.62360027  0.37674204  0.87734089  1
  Co  Co108  1  0.12147235  0.87652340  0.87351513  1
  Co  Co109  1  0.74929478  0.25685561  0.49741596  1
  Co  Co110  1  0.87354748  0.62310938  0.62773142  1
  Co  Co111  1  0.87432112  0.37326852  0.12755618  1
  Co  Co112  1  0.12405876  0.12524927  0.37753309  1
  Co  Co113  1  0.62340731  0.87053119  0.62295727  1
  Co  Co114  1  0.24797110  0.00010494  -0.00030022  1
  Co  Co115  1  0.12334523  0.62407886  0.87438144  1
  Co  Co116  1  0.25200516  0.50064631  0.50107857  1
  Co  Co117  1  0.62266550  0.37528866  0.37219394  1
  Co  Co118  1  0.87633453  0.62301112  0.36931822  1
  Co  Co119  1  0.12432552  0.12574973  0.12410275  1
  Co  Co120  1  0.49841599  0.75192264  0.25168195  1
  Co  Co121  1  0.62808671  0.12944150  0.62241332  1
  Co  Co122  1  0.24939351  0.24721863  0.25244265  1
  Co  Co123  1  0.74689050  0.50085197  0.24824185  1
  Co  Co124  1  0.37561672  0.88018483  0.37614033  1
  Co  Co125  1  0.25048020  0.50052352  -0.00111062  1
  Co  Co126  1  0.49933021  0.00084344  0.00373951  1
  Co  Co127  1  0.00027195  0.00507373  0.74724738  1
