# generated using pymatgen
data_Fe45Co19
_symmetry_space_group_name_H-M   'P 1'
_cell_length_a   11.41445074
_cell_length_b   11.41539758
_cell_length_c   11.41448402
_cell_angle_alpha   89.99723711
_cell_angle_beta   90.01494710
_cell_angle_gamma   90.00733369
_symmetry_Int_Tables_number   1
_chemical_formula_structural   Fe45Co19
_chemical_formula_sum   'Fe90 Co38'
_cell_volume   1487.31283472
_cell_formula_units_Z   2
loop_
 _symmetry_equiv_pos_site_id
 _symmetry_equiv_pos_as_xyz
  1  'x, y, z'
loop_
 _atom_site_type_symbol
 _atom_site_label
 _atom_site_symmetry_multiplicity
 _atom_site_fract_x
 _atom_site_fract_y
 _atom_site_fract_z
 _atom_site_occupancy
  Fe  Fe0  1  0.37164924  0.12385184  0.87487230  1
  Fe  Fe1  1  0.24835403  0.49881662  0.75042356  1
  Fe  Fe2  1  0.00117216  0.75357142  -0.00208947  1
  Fe  Fe3  1  0.37561981  0.87473575  0.62402192  1
  Fe  Fe4  1  0.74802154  0.25138304  0.00422843  1
  Fe  Fe5  1  0.49941011  -0.00030328  0.75148336  1
  Fe  Fe6  1  0.62747591  0.87628454  0.87579782  1
  Fe  Fe7  1  0.00041034  0.49870400  -0.00055444  1
  Fe  Fe8  1  0.25038070  0.24975002  0.24973573  1
  Fe  Fe9  1  0.00094776  0.25042490  0.00044054  1
  Fe  Fe10  1  0.87694865  0.62515256  0.62368516  1
  Fe  Fe11  1  0.74998516  0.24983121  0.74832534  1
  Fe  Fe12  1  0.87299528  0.62682415  0.87620098  1
  Fe  Fe13  1  0.37519967  0.62560576  0.12528520  1
  Fe  Fe14  1  0.50054725  0.50142177  0.49776004  1
  Fe  Fe15  1  0.50122694  0.75097207  0.25077041  1
  Fe  Fe16  1  0.87753846  0.12412648  0.62296001  1
  Fe  Fe17  1  0.37313156  0.62801708  0.37459898  1
  Fe  Fe18  1  0.12400973  0.37154884  0.62138615  1
  Fe  Fe19  1  0.75095358  0.25155237  0.50211149  1
  Fe  Fe20  1  0.87499792  0.37382034  0.87437176  1
  Fe  Fe21  1  0.49881409  -0.00079524  0.49750651  1
  Fe  Fe22  1  -0.00071554  -0.00264462  -0.00309184  1
  Fe  Fe23  1  0.24900618  0.50026722  0.25070712  1
  Fe  Fe24  1  0.00131243  0.50073564  0.25181881  1
  Fe  Fe25  1  0.24937462  0.49847499  0.49814595  1
  Fe  Fe26  1  0.62467685  0.12219373  0.62347853  1
  Fe  Fe27  1  0.24912721  0.25009658  0.74805058  1
  Fe  Fe28  1  0.87267167  0.62666628  0.37485074  1
  Fe  Fe29  1  0.37638436  0.37317638  0.87474819  1
  Fe  Fe30  1  0.12482174  0.12430351  0.87362751  1
  Fe  Fe31  1  0.87605260  0.62431014  0.12492141  1
  Fe  Fe32  1  0.88022289  0.87262248  0.62299555  1
  Fe  Fe33  1  0.74893245  0.49669584  0.00047185  1
  Fe  Fe34  1  0.12519703  0.62701767  0.12451850  1
  Fe  Fe35  1  0.49916246  0.25001549  0.49971508  1
  Fe  Fe36  1  0.74720097  0.50039891  0.75192809  1
  Fe  Fe37  1  0.75288517  -0.00074026  0.74833455  1
  Fe  Fe38  1  0.62437395  0.37573735  0.62533556  1
  Fe  Fe39  1  0.37351122  0.12355133  0.62247228  1
  Fe  Fe40  1  0.12508124  0.12156241  0.12529482  1
  Fe  Fe41  1  0.24464528  0.00081237  0.74367168  1
  Fe  Fe42  1  0.74907949  0.49986666  0.50056098  1
  Fe  Fe43  1  0.24802286  0.75180361  0.50037517  1
  Fe  Fe44  1  0.24892381  -0.00127940  0.25324945  1
  Fe  Fe45  1  0.75227807  0.75407051  0.00306177  1
  Fe  Fe46  1  0.24977107  0.25071245  0.00169372  1
  Fe  Fe47  1  0.12335953  0.37480666  0.12675934  1
  Fe  Fe48  1  0.37618866  0.87857996  0.12698851  1
  Fe  Fe49  1  0.50102845  0.50242203  -0.00429549  1
  Fe  Fe50  1  0.25057821  0.49823230  -0.00037316  1
  Fe  Fe51  1  0.37429525  0.12368530  0.37499518  1
  Fe  Fe52  1  0.00138955  0.49903406  0.49687922  1
  Fe  Fe53  1  0.62805649  0.12215231  0.87688959  1
  Fe  Fe54  1  0.37213769  0.87464053  0.87293045  1
  Fe  Fe55  1  0.50084904  0.24684463  0.75012048  1
  Fe  Fe56  1  0.37817253  0.37446393  0.37143667  1
  Fe  Fe57  1  0.74821777  0.49795858  0.24807173  1
  Fe  Fe58  1  0.37689903  0.62511237  0.62648800  1
  Fe  Fe59  1  0.12775852  0.62679956  0.87732430  1
  Fe  Fe60  1  0.87449719  0.12419808  0.87517755  1
  Fe  Fe61  1  0.12290767  0.62709954  0.62252689  1
  Fe  Fe62  1  0.50140261  0.74942680  0.50059529  1
  Fe  Fe63  1  0.62753060  0.12485181  0.37553340  1
  Fe  Fe64  1  0.00033476  0.24787843  0.25167519  1
  Fe  Fe65  1  0.75218962  -0.00084460  0.25142257  1
  Fe  Fe66  1  0.62474983  0.87582996  0.62366411  1
  Fe  Fe67  1  0.12222531  0.87537309  0.37669671  1
  Fe  Fe68  1  0.37723640  0.37656684  0.62687432  1
  Fe  Fe69  1  0.87967251  0.87765266  0.12877436  1
  Fe  Fe70  1  0.74606270  0.25244837  0.24645491  1
  Fe  Fe71  1  0.62786508  0.87521088  0.37721255  1
  Fe  Fe72  1  0.49755280  0.75064451  -0.00268199  1
  Fe  Fe73  1  0.37957165  0.37505782  0.12728959  1
  Fe  Fe74  1  0.62739604  0.62625078  0.37571732  1
  Fe  Fe75  1  0.87406335  0.37364246  0.37338816  1
  Fe  Fe76  1  0.87515909  0.12381668  0.12588260  1
  Fe  Fe77  1  0.62245043  0.88047019  0.12376881  1
  Fe  Fe78  1  0.00004275  0.24969941  0.74844308  1
  Fe  Fe79  1  0.24850884  0.74983948  0.74827643  1
  Fe  Fe80  1  0.75020496  0.75161943  0.24867204  1
  Fe  Fe81  1  0.24805608  -0.00279506  0.00038141  1
  Fe  Fe82  1  0.50054571  0.24366940  0.00409686  1
  Fe  Fe83  1  0.00019311  0.74932805  0.25248447  1
  Fe  Fe84  1  0.50360216  0.50283587  0.75461032  1
  Fe  Fe85  1  0.24889155  0.75219620  0.24861227  1
  Fe  Fe86  1  0.62453243  0.62433718  0.12377982  1
  Fe  Fe87  1  0.74944504  0.74916861  0.74649423  1
  Fe  Fe88  1  0.12548762  0.12788096  0.38205237  1
  Fe  Fe89  1  0.00143132  0.50044704  0.75106321  1
  Co  Co90  1  0.75049460  0.74925925  0.50237206  1
  Co  Co91  1  0.61854641  0.37832382  0.12530159  1
  Co  Co92  1  0.12419367  0.37345804  0.87447602  1
  Co  Co93  1  0.12442436  0.12929438  0.61926196  1
  Co  Co94  1  0.75563048  -0.00212361  0.00097819  1
  Co  Co95  1  -0.00166458  0.00143922  0.49902225  1
  Co  Co96  1  0.37125204  0.62605239  0.87275390  1
  Co  Co97  1  0.12766201  0.62652182  0.37393207  1
  Co  Co98  1  0.50101538  0.50436389  0.25338530  1
  Co  Co99  1  0.00102026  0.00153220  0.74878081  1
  Co  Co100  1  0.87464055  0.37848989  0.62656279  1
  Co  Co101  1  0.50217273  0.24464339  0.24749375  1
  Co  Co102  1  0.50115149  0.75121642  0.75124112  1
  Co  Co103  1  0.25570364  0.25339787  0.49976672  1
  Co  Co104  1  0.12691682  0.87506827  0.87137100  1
  Co  Co105  1  0.12210141  0.87700840  0.12794411  1
  Co  Co106  1  -0.00022673  0.74805090  0.49540862  1
  Co  Co107  1  0.24838618  -0.00289920  0.50133269  1
  Co  Co108  1  0.87364354  0.87374710  0.87118877  1
  Co  Co109  1  0.62322070  0.62411469  0.62472942  1
  Co  Co110  1  0.50031639  0.00051530  0.25392539  1
  Co  Co111  1  0.49714149  0.00200591  -0.00270051  1
  Co  Co112  1  0.87451789  0.87354096  0.37603478  1
  Co  Co113  1  0.11949840  0.87266396  0.62360745  1
  Co  Co114  1  0.25037739  0.75306383  0.00250525  1
  Co  Co115  1  0.37169667  0.12056334  0.12754102  1
  Co  Co116  1  0.75370015  -0.00022342  0.50107912  1
  Co  Co117  1  0.62443578  0.36971410  0.87554873  1
  Co  Co118  1  0.12472554  0.37180162  0.37523737  1
  Co  Co119  1  0.00055814  0.74770643  0.75337930  1
  Co  Co120  1  -0.00561682  0.25168864  0.49968993  1
  Co  Co121  1  0.62385221  0.37377617  0.37555513  1
  Co  Co122  1  0.87819681  0.37473065  0.12616574  1
  Co  Co123  1  0.87080469  0.12790995  0.37433196  1
  Co  Co124  1  0.00020467  0.00399775  0.25552089  1
  Co  Co125  1  0.62898942  0.63060275  0.87694479  1
  Co  Co126  1  0.37481497  0.87302515  0.37575703  1
  Co  Co127  1  0.62697130  0.11770131  0.12516198  1
