# generated using pymatgen
data_Fe45Co19
_symmetry_space_group_name_H-M   'P 1'
_cell_length_a   11.41612138
_cell_length_b   11.41503594
_cell_length_c   11.41396089
_cell_angle_alpha   89.99970510
_cell_angle_beta   89.99609511
_cell_angle_gamma   89.99809806
_symmetry_Int_Tables_number   1
_chemical_formula_structural   Fe45Co19
_chemical_formula_sum   'Fe90 Co38'
_cell_volume   1487.41528363
_cell_formula_units_Z   2
loop_
 _symmetry_equiv_pos_site_id
 _symmetry_equiv_pos_as_xyz
  1  'x, y, z'
loop_
 _atom_site_type_symbol
 _atom_site_label
 _atom_site_symmetry_multiplicity
 _atom_site_fract_x
 _atom_site_fract_y
 _atom_site_fract_z
 _atom_site_occupancy
  Fe  Fe0  1  0.62433455  0.12673521  0.62591010  1
  Fe  Fe1  1  0.37691980  0.87698005  0.87222654  1
  Fe  Fe2  1  0.87549566  0.62741501  0.12364686  1
  Fe  Fe3  1  0.62498255  0.37600548  0.37413901  1
  Fe  Fe4  1  -0.00208836  0.74991848  0.25407423  1
  Fe  Fe5  1  0.25201074  0.74827318  0.74811706  1
  Fe  Fe6  1  0.74948981  -0.00111959  0.50289254  1
  Fe  Fe7  1  0.25181386  0.24708885  0.24850230  1
  Fe  Fe8  1  0.87436204  0.37763684  0.37592730  1
  Fe  Fe9  1  0.87821249  0.62765719  0.62386598  1
  Fe  Fe10  1  0.50022645  -0.00027304  0.25025580  1
  Fe  Fe11  1  0.87603537  0.87153704  0.62370184  1
  Fe  Fe12  1  0.00089103  0.75263224  -0.00210182  1
  Fe  Fe13  1  0.12813273  0.87194801  0.37502358  1
  Fe  Fe14  1  0.12674915  0.37459284  0.12423823  1
  Fe  Fe15  1  0.87289210  0.62138305  0.87649570  1
  Fe  Fe16  1  0.87081904  0.87816287  0.87892329  1
  Fe  Fe17  1  0.49880362  0.25075124  0.75014405  1
  Fe  Fe18  1  0.24968290  -0.00083791  0.24827782  1
  Fe  Fe19  1  0.37319726  0.62735725  0.37866093  1
  Fe  Fe20  1  0.37575923  0.12660008  0.62549041  1
  Fe  Fe21  1  0.37367717  0.37448777  0.37493908  1
  Fe  Fe22  1  -0.00101359  -0.00282936  0.75221536  1
  Fe  Fe23  1  0.74759575  0.50256394  0.50217025  1
  Fe  Fe24  1  0.74970952  0.50125928  0.24773000  1
  Fe  Fe25  1  0.50320191  0.75191095  -0.00412421  1
  Fe  Fe26  1  0.12274379  0.12416619  0.12326935  1
  Fe  Fe27  1  0.24889059  -0.00097904  0.00090445  1
  Fe  Fe28  1  0.12402590  0.62424117  0.87263722  1
  Fe  Fe29  1  0.50357423  -0.00120725  -0.00167970  1
  Fe  Fe30  1  0.74528869  0.75079879  -0.00096548  1
  Fe  Fe31  1  0.00029870  0.25350751  0.75293459  1
  Fe  Fe32  1  0.49885314  0.49868446  0.50219104  1
  Fe  Fe33  1  0.25135901  0.24805949  -0.00051796  1
  Fe  Fe34  1  0.49609185  0.25107070  -0.00085098  1
  Fe  Fe35  1  0.62232462  0.62582045  0.12443480  1
  Fe  Fe36  1  0.74964821  0.00333399  0.75149490  1
  Fe  Fe37  1  0.12702391  0.87406114  0.87258469  1
  Fe  Fe38  1  0.62767774  0.87491898  0.37463180  1
  Fe  Fe39  1  0.62779179  0.37813865  0.87402825  1
  Fe  Fe40  1  0.25056635  0.50363948  0.50500881  1
  Fe  Fe41  1  0.75086955  0.25012563  0.75070903  1
  Fe  Fe42  1  0.00148343  -0.00342369  0.49948176  1
  Fe  Fe43  1  0.75007413  0.24946272  0.49918621  1
  Fe  Fe44  1  0.50030943  0.25156944  0.49948711  1
  Fe  Fe45  1  0.50089806  -0.00173658  0.50147552  1
  Fe  Fe46  1  0.24859240  -0.00116775  0.50225801  1
  Fe  Fe47  1  0.12004818  0.63011281  0.62799654  1
  Fe  Fe48  1  0.62386840  0.87240319  0.62844940  1
  Fe  Fe49  1  0.25282492  0.50362890  0.24691890  1
  Fe  Fe50  1  0.49845428  0.49818132  0.00087713  1
  Fe  Fe51  1  0.36903189  0.37592625  0.87076144  1
  Fe  Fe52  1  0.87740274  0.12545095  0.62563303  1
  Fe  Fe53  1  0.62528173  0.12414977  0.37506410  1
  Fe  Fe54  1  0.00021103  0.24969948  0.25079926  1
  Fe  Fe55  1  0.37519419  0.12441432  0.37474699  1
  Fe  Fe56  1  0.12567099  0.62915695  0.12606332  1
  Fe  Fe57  1  0.49845140  0.49969714  0.74796198  1
  Fe  Fe58  1  0.87635003  0.12215418  0.37613418  1
  Fe  Fe59  1  0.75132885  0.24839295  0.25065958  1
  Fe  Fe60  1  0.75068688  -0.00130382  0.24593331  1
  Fe  Fe61  1  0.75205705  0.24819093  -0.00181775  1
  Fe  Fe62  1  0.49802858  0.74957701  0.25238513  1
  Fe  Fe63  1  0.00041405  0.50212741  0.25045132  1
  Fe  Fe64  1  0.12760513  0.37667911  0.37333601  1
  Fe  Fe65  1  0.74942367  0.74696040  0.75244404  1
  Fe  Fe66  1  0.25095822  0.00135030  0.74850758  1
  Fe  Fe67  1  0.62153520  0.62780297  0.62533477  1
  Fe  Fe68  1  0.00295067  0.50183089  0.49881256  1
  Fe  Fe69  1  0.87287702  0.37941047  0.87455047  1
  Fe  Fe70  1  0.00152816  0.49849026  0.00000406  1
  Fe  Fe71  1  0.37736191  0.87152483  0.62601377  1
  Fe  Fe72  1  0.37645022  0.87470079  0.12376489  1
  Fe  Fe73  1  0.37286756  0.87355011  0.37745654  1
  Fe  Fe74  1  0.87429129  0.37632488  0.62402322  1
  Fe  Fe75  1  0.49756333  0.50013151  0.24856573  1
  Fe  Fe76  1  0.62227090  0.12723279  0.12430403  1
  Fe  Fe77  1  0.12844955  0.37592681  0.62949615  1
  Fe  Fe78  1  0.12222793  0.12509566  0.87616295  1
  Fe  Fe79  1  0.12264810  0.12360576  0.62554372  1
  Fe  Fe80  1  0.25095634  0.75072415  0.00046852  1
  Fe  Fe81  1  0.25018113  0.50230482  0.00104603  1
  Fe  Fe82  1  0.62393966  0.37315845  0.12488795  1
  Fe  Fe83  1  0.00189735  0.25092959  0.49847972  1
  Fe  Fe84  1  0.87554313  0.37468752  0.12500937  1
  Fe  Fe85  1  0.24832880  0.24833297  0.50035978  1
  Fe  Fe86  1  0.87809802  0.12152606  0.11963220  1
  Fe  Fe87  1  0.37638596  0.62488808  0.87480051  1
  Fe  Fe88  1  0.75147042  0.74932679  0.25195643  1
  Fe  Fe89  1  0.00047897  -0.00393786  0.24897851  1
  Co  Co90  1  0.37627911  0.12279910  0.87551463  1
  Co  Co91  1  -0.00042192  0.25463486  -0.00254424  1
  Co  Co92  1  0.37125789  0.37251932  0.62721729  1
  Co  Co93  1  0.62401818  0.87216366  0.12752972  1
  Co  Co94  1  0.38033783  0.62974975  0.62371984  1
  Co  Co95  1  0.12954073  0.62559928  0.37343987  1
  Co  Co96  1  0.50246505  0.75242718  0.49678172  1
  Co  Co97  1  0.62544434  0.87782755  0.87001581  1
  Co  Co98  1  0.12237354  0.87302155  0.62760813  1
  Co  Co99  1  0.74820184  0.74916673  0.49936442  1
  Co  Co100  1  0.00366336  -0.00529947  -0.00090357  1
  Co  Co101  1  0.24822979  0.24477403  0.75098775  1
  Co  Co102  1  0.87474714  0.87351312  0.12172356  1
  Co  Co103  1  0.62305094  0.12634972  0.87424710  1
  Co  Co104  1  -0.00387206  0.75197061  0.75567081  1
  Co  Co105  1  0.12426107  0.12338794  0.37450503  1
  Co  Co106  1  0.87729079  0.12260310  0.87692986  1
  Co  Co107  1  0.37761507  0.62806910  0.12153030  1
  Co  Co108  1  0.87347991  0.62224190  0.37734061  1
  Co  Co109  1  0.49866179  0.25006799  0.25055282  1
  Co  Co110  1  -0.00065385  0.49873414  0.75127892  1
  Co  Co111  1  0.62519072  0.61931825  0.87574208  1
  Co  Co112  1  0.74967450  0.49997287  0.00483110  1
  Co  Co113  1  0.74963397  0.50288070  0.74527917  1
  Co  Co114  1  0.87237483  0.87659300  0.37702397  1
  Co  Co115  1  0.62529231  0.37426273  0.62504377  1
  Co  Co116  1  0.12494921  0.87059172  0.12648702  1
  Co  Co117  1  0.49958791  0.00162507  0.74809799  1
  Co  Co118  1  0.37659934  0.12163122  0.12437602  1
  Co  Co119  1  0.00089705  0.75082501  0.49482615  1
  Co  Co120  1  0.25116376  0.50697348  0.74648856  1
  Co  Co121  1  0.62401195  0.62329579  0.37398386  1
  Co  Co122  1  0.74443461  0.00063976  0.00141643  1
  Co  Co123  1  0.25413768  0.74971410  0.24806252  1
  Co  Co124  1  0.50137633  0.74848145  0.75476131  1
  Co  Co125  1  0.13030324  0.37737708  0.87391586  1
  Co  Co126  1  0.24744703  0.74934552  0.50479409  1
  Co  Co127  1  0.37308292  0.37471175  0.12535673  1
