# generated using pymatgen
data_Fe45Co19
_symmetry_space_group_name_H-M   'P 1'
_cell_length_a   11.41576407
_cell_length_b   11.41447190
_cell_length_c   11.41527923
_cell_angle_alpha   89.98839984
_cell_angle_beta   90.00538602
_cell_angle_gamma   89.99056507
_symmetry_Int_Tables_number   1
_chemical_formula_structural   Fe45Co19
_chemical_formula_sum   'Fe90 Co38'
_cell_volume   1487.46696971
_cell_formula_units_Z   2
loop_
 _symmetry_equiv_pos_site_id
 _symmetry_equiv_pos_as_xyz
  1  'x, y, z'
loop_
 _atom_site_type_symbol
 _atom_site_label
 _atom_site_symmetry_multiplicity
 _atom_site_fract_x
 _atom_site_fract_y
 _atom_site_fract_z
 _atom_site_occupancy
  Fe  Fe0  1  0.87326250  0.87285526  0.87301931  1
  Fe  Fe1  1  0.00245607  0.75058433  0.50035041  1
  Fe  Fe2  1  0.12392872  0.62541861  0.12512987  1
  Fe  Fe3  1  0.87516074  0.62656849  0.87345228  1
  Fe  Fe4  1  0.74802829  0.75152995  0.24868593  1
  Fe  Fe5  1  0.62598360  0.12312140  0.12648511  1
  Fe  Fe6  1  0.87925936  0.12519681  0.62705475  1
  Fe  Fe7  1  0.87650813  0.12380882  0.37456149  1
  Fe  Fe8  1  0.87404383  0.87667274  0.12605161  1
  Fe  Fe9  1  0.50023991  -0.00230280  0.00016470  1
  Fe  Fe10  1  -0.00019077  0.75064436  0.00052132  1
  Fe  Fe11  1  0.25057975  0.50274637  0.00146063  1
  Fe  Fe12  1  0.24672983  0.74795694  0.50383038  1
  Fe  Fe13  1  0.00360194  0.24812301  0.49881705  1
  Fe  Fe14  1  0.87516543  0.37237710  0.62644987  1
  Fe  Fe15  1  0.49934669  0.50057842  0.25108695  1
  Fe  Fe16  1  0.25210723  -0.00175416  0.00112424  1
  Fe  Fe17  1  0.87688029  0.62566512  0.62553844  1
  Fe  Fe18  1  0.37317027  0.37499903  0.37463348  1
  Fe  Fe19  1  0.12487823  0.37792170  0.12251699  1
  Fe  Fe20  1  0.24960378  0.75250365  0.24846392  1
  Fe  Fe21  1  0.37323922  0.87561730  0.37652437  1
  Fe  Fe22  1  0.37612490  0.12523793  0.12258218  1
  Fe  Fe23  1  0.24673338  0.00529035  0.50013498  1
  Fe  Fe24  1  0.87527494  0.62513857  0.12549692  1
  Fe  Fe25  1  0.87543888  0.87643151  0.62482844  1
  Fe  Fe26  1  0.75100235  0.00201465  0.50131689  1
  Fe  Fe27  1  0.62453667  0.12469575  0.37486570  1
  Fe  Fe28  1  0.62668190  0.87772026  0.62774140  1
  Fe  Fe29  1  0.62358375  0.12364059  0.62748665  1
  Fe  Fe30  1  0.50321586  0.74737912  0.50099888  1
  Fe  Fe31  1  0.12539160  0.87906474  0.37330773  1
  Fe  Fe32  1  0.37321551  0.12907513  0.62631635  1
  Fe  Fe33  1  0.87432770  0.87584461  0.37684728  1
  Fe  Fe34  1  0.50096103  0.75234314  0.24859909  1
  Fe  Fe35  1  0.62551376  0.62564453  0.12341694  1
  Fe  Fe36  1  0.24578081  0.24765686  -0.00316090  1
  Fe  Fe37  1  0.25329066  0.50078721  0.74649824  1
  Fe  Fe38  1  0.87601951  0.37157960  0.11852519  1
  Fe  Fe39  1  0.37456770  0.12486570  0.37367647  1
  Fe  Fe40  1  0.24827891  0.24819037  0.24911417  1
  Fe  Fe41  1  0.87602056  0.12990820  0.87770251  1
  Fe  Fe42  1  0.49876218  -0.00246933  0.24884236  1
  Fe  Fe43  1  0.50098782  0.75097217  0.75038620  1
  Fe  Fe44  1  0.12527734  0.62269597  0.37496504  1
  Fe  Fe45  1  0.12450452  0.62378932  0.87311478  1
  Fe  Fe46  1  0.62870460  0.62658829  0.87285309  1
  Fe  Fe47  1  0.24911533  0.75135116  0.00025170  1
  Fe  Fe48  1  0.12092697  0.11947110  0.12327949  1
  Fe  Fe49  1  0.62148769  0.37930246  0.62811275  1
  Fe  Fe50  1  0.62693233  0.37648752  0.37402629  1
  Fe  Fe51  1  0.49974602  0.25047764  0.24930680  1
  Fe  Fe52  1  0.37554553  0.87458193  0.87481560  1
  Fe  Fe53  1  0.00113326  0.75162576  0.25081767  1
  Fe  Fe54  1  -0.00050788  0.24931307  0.24831263  1
  Fe  Fe55  1  0.37432918  0.37428566  0.12343899  1
  Fe  Fe56  1  0.12376984  0.87923672  0.62724140  1
  Fe  Fe57  1  0.62886911  0.37473827  0.87208841  1
  Fe  Fe58  1  0.62408952  0.12362675  0.87268431  1
  Fe  Fe59  1  0.25234916  0.49991705  0.50324110  1
  Fe  Fe60  1  0.75148706  0.24923415  0.24827463  1
  Fe  Fe61  1  0.37332167  0.87356294  0.62530355  1
  Fe  Fe62  1  0.74679597  0.74671068  0.50306851  1
  Fe  Fe63  1  0.37289692  0.62852915  0.87303358  1
  Fe  Fe64  1  0.62710967  0.87436757  0.87479549  1
  Fe  Fe65  1  0.00497590  0.25093274  0.75704152  1
  Fe  Fe66  1  0.49944534  0.25202421  0.49951069  1
  Fe  Fe67  1  0.37157143  0.37275625  0.87537702  1
  Fe  Fe68  1  0.74773382  0.50172663  0.50214401  1
  Fe  Fe69  1  0.75242366  0.49997570  -0.00173416  1
  Fe  Fe70  1  0.00181340  0.75149596  0.74893252  1
  Fe  Fe71  1  0.62496419  0.37645343  0.12500780  1
  Fe  Fe72  1  0.12634794  0.37507155  0.37444299  1
  Fe  Fe73  1  0.00146673  0.49905557  0.50120242  1
  Fe  Fe74  1  0.75137041  0.00079832  -0.00072013  1
  Fe  Fe75  1  0.25174812  0.00314345  0.75167858  1
  Fe  Fe76  1  -0.00210966  0.49681379  0.75215843  1
  Fe  Fe77  1  0.74853262  0.24903514  0.50312213  1
  Fe  Fe78  1  0.12408013  0.87706016  0.87583003  1
  Fe  Fe79  1  -0.00104118  0.49865915  0.24898408  1
  Fe  Fe80  1  0.37410422  0.62590563  0.37533372  1
  Fe  Fe81  1  0.87329700  0.62420304  0.37474213  1
  Fe  Fe82  1  0.62583763  0.87626131  0.37551723  1
  Fe  Fe83  1  0.49929568  0.50074911  -0.00360719  1
  Fe  Fe84  1  0.50221143  0.25103334  -0.00074954  1
  Fe  Fe85  1  0.37602700  0.62680215  0.12472930  1
  Fe  Fe86  1  0.87341360  0.37541056  0.37627451  1
  Fe  Fe87  1  0.49794177  0.24955600  0.75183689  1
  Fe  Fe88  1  0.49851747  0.00028756  0.50206334  1
  Fe  Fe89  1  0.12900117  0.37099880  0.62681083  1
  Co  Co90  1  0.25022971  0.50020398  0.24861881  1
  Co  Co91  1  0.24766507  0.24555327  0.75680465  1
  Co  Co92  1  -0.00311595  -0.00016616  0.75245973  1
  Co  Co93  1  0.75280723  0.00198571  0.75144560  1
  Co  Co94  1  0.75288341  0.74991443  0.00084820  1
  Co  Co95  1  0.74466118  0.24836156  0.00093281  1
  Co  Co96  1  0.12337811  0.12672898  0.62807533  1
  Co  Co97  1  0.25202345  -0.00006307  0.24774297  1
  Co  Co98  1  -0.00607881  -0.00350821  -0.00044179  1
  Co  Co99  1  0.62611531  0.87515672  0.12160739  1
  Co  Co100  1  0.75000234  0.74977036  0.74633368  1
  Co  Co101  1  -0.00231374  -0.00094134  0.24977078  1
  Co  Co102  1  0.24737286  0.75106949  0.74866476  1
  Co  Co103  1  -0.00163024  0.50131407  -0.00159489  1
  Co  Co104  1  0.49940111  0.50113748  0.49620381  1
  Co  Co105  1  0.12236467  0.62328379  0.62730231  1
  Co  Co106  1  0.87645034  0.12720342  0.12152387  1
  Co  Co107  1  0.75529271  0.49882281  0.75031376  1
  Co  Co108  1  0.24905305  0.24808412  0.49710703  1
  Co  Co109  1  0.75277175  0.49765549  0.24677509  1
  Co  Co110  1  0.37864333  0.62746929  0.62521059  1
  Co  Co111  1  0.00181092  0.00054265  0.49951470  1
  Co  Co112  1  0.12306155  0.12382837  0.37145885  1
  Co  Co113  1  0.12396657  0.87637301  0.12397255  1
  Co  Co114  1  0.62154203  0.62031191  0.63013814  1
  Co  Co115  1  0.49723082  -0.00089082  0.74911394  1
  Co  Co116  1  0.12298560  0.11701493  0.87785954  1
  Co  Co117  1  0.12897888  0.38152115  0.87544023  1
  Co  Co118  1  0.75030887  0.00046163  0.25057050  1
  Co  Co119  1  0.37630604  0.87338027  0.12316709  1
  Co  Co120  1  0.37548674  0.37166809  0.62654413  1
  Co  Co121  1  0.49936901  0.74880967  -0.00225874  1
  Co  Co122  1  0.49555263  0.50042467  0.75604525  1
  Co  Co123  1  0.87264064  0.36962451  0.87853092  1
  Co  Co124  1  0.62740132  0.62473712  0.37095377  1
  Co  Co125  1  0.74943458  0.24862425  0.74741946  1
  Co  Co126  1  0.00729486  0.25172213  -0.00308850  1
  Co  Co127  1  0.37810498  0.12486337  0.87851193  1
