# generated using pymatgen
data_Fe45Co19
_symmetry_space_group_name_H-M   'P 1'
_cell_length_a   11.41453131
_cell_length_b   11.41511253
_cell_length_c   11.41666472
_cell_angle_alpha   90.00156461
_cell_angle_beta   90.00355068
_cell_angle_gamma   90.00025440
_symmetry_Int_Tables_number   1
_chemical_formula_structural   Fe45Co19
_chemical_formula_sum   'Fe90 Co38'
_cell_volume   1487.57039572
_cell_formula_units_Z   2
loop_
 _symmetry_equiv_pos_site_id
 _symmetry_equiv_pos_as_xyz
  1  'x, y, z'
loop_
 _atom_site_type_symbol
 _atom_site_label
 _atom_site_symmetry_multiplicity
 _atom_site_fract_x
 _atom_site_fract_y
 _atom_site_fract_z
 _atom_site_occupancy
  Fe  Fe0  1  0.87291737  0.62436495  0.37215885  1
  Fe  Fe1  1  0.62568812  0.62669963  0.62649821  1
  Fe  Fe2  1  0.24728247  0.00138801  0.74809396  1
  Fe  Fe3  1  0.62451866  0.37432117  0.12037034  1
  Fe  Fe4  1  -0.00183127  0.25110350  0.49836172  1
  Fe  Fe5  1  0.12498822  0.37559117  0.62355150  1
  Fe  Fe6  1  0.25288854  0.24974662  0.50428393  1
  Fe  Fe7  1  0.49769437  0.49912200  0.49741799  1
  Fe  Fe8  1  0.87165580  0.62389951  0.87381060  1
  Fe  Fe9  1  0.74747460  -0.00503786  0.74890474  1
  Fe  Fe10  1  0.12738804  0.62221379  0.12412001  1
  Fe  Fe11  1  0.25032567  0.75199583  0.24995142  1
  Fe  Fe12  1  0.12640036  0.62519587  0.87702594  1
  Fe  Fe13  1  0.37646100  0.37386104  0.87568825  1
  Fe  Fe14  1  0.62378029  0.12565846  0.62790303  1
  Fe  Fe15  1  0.75135095  0.49692923  0.50103053  1
  Fe  Fe16  1  0.25339151  0.75169204  0.00173127  1
  Fe  Fe17  1  0.37537705  0.62469375  0.62433429  1
  Fe  Fe18  1  0.12669070  0.87779405  0.12530000  1
  Fe  Fe19  1  0.37362119  0.12758117  0.37500935  1
  Fe  Fe20  1  0.00076729  0.74812439  0.50027224  1
  Fe  Fe21  1  0.50316123  -0.00454754  0.75356372  1
  Fe  Fe22  1  0.74639366  0.00241299  -0.00017638  1
  Fe  Fe23  1  0.24726754  0.00075165  0.49807759  1
  Fe  Fe24  1  0.24993952  0.24794307  0.00173090  1
  Fe  Fe25  1  0.75010170  0.00147839  0.50050436  1
  Fe  Fe26  1  0.50040879  0.49959090  0.75117686  1
  Fe  Fe27  1  0.37723666  0.12144805  0.12674332  1
  Fe  Fe28  1  0.37411769  0.87408330  0.37277429  1
  Fe  Fe29  1  0.25068581  0.49655044  0.25012144  1
  Fe  Fe30  1  0.00055949  0.74863984  0.74980855  1
  Fe  Fe31  1  0.37628251  0.87635704  0.62522188  1
  Fe  Fe32  1  0.62517217  0.87644190  0.37535469  1
  Fe  Fe33  1  0.75109228  0.25078737  0.50080097  1
  Fe  Fe34  1  0.61744173  0.87959589  0.12399299  1
  Fe  Fe35  1  0.74924773  0.74977214  0.00257822  1
  Fe  Fe36  1  0.24873921  0.74927376  0.74604564  1
  Fe  Fe37  1  0.25157219  0.24883598  0.74592164  1
  Fe  Fe38  1  -0.00008970  0.50095798  0.00145435  1
  Fe  Fe39  1  0.25331794  0.49824156  0.49795748  1
  Fe  Fe40  1  0.62540126  0.62447150  0.37468914  1
  Fe  Fe41  1  0.24945524  0.49989868  0.75121348  1
  Fe  Fe42  1  0.00168120  0.74927908  0.24886607  1
  Fe  Fe43  1  0.87479616  0.12713345  0.62820864  1
  Fe  Fe44  1  0.25365279  -0.00034255  0.00105905  1
  Fe  Fe45  1  0.00387766  0.00075489  0.25262245  1
  Fe  Fe46  1  0.74686169  0.24780771  0.24784631  1
  Fe  Fe47  1  0.87518355  0.87493380  0.37371450  1
  Fe  Fe48  1  0.50135621  0.00168662  0.49785940  1
  Fe  Fe49  1  0.00174671  0.00165433  0.75090083  1
  Fe  Fe50  1  0.74754614  0.75348396  0.24843005  1
  Fe  Fe51  1  0.87355688  0.87441382  0.87633202  1
  Fe  Fe52  1  0.00088235  0.00214557  0.49818176  1
  Fe  Fe53  1  0.87481852  0.12403668  0.12599673  1
  Fe  Fe54  1  0.00417133  0.25303062  0.24935560  1
  Fe  Fe55  1  0.87356452  0.12585680  0.37256970  1
  Fe  Fe56  1  0.50235835  0.24775091  0.25004726  1
  Fe  Fe57  1  0.87635131  0.87478209  0.62424939  1
  Fe  Fe58  1  0.00139789  0.25054361  0.75283605  1
  Fe  Fe59  1  0.49677197  0.24983045  0.50385926  1
  Fe  Fe60  1  0.87462368  0.62404470  0.12699159  1
  Fe  Fe61  1  0.87310446  0.62350765  0.62712176  1
  Fe  Fe62  1  0.12708687  0.62478077  0.37664698  1
  Fe  Fe63  1  0.62259782  0.37530752  0.62572406  1
  Fe  Fe64  1  0.74893847  0.25645622  0.75448608  1
  Fe  Fe65  1  0.62233655  0.62609517  0.12640367  1
  Fe  Fe66  1  0.37500261  0.12450755  0.87072808  1
  Fe  Fe67  1  0.49837495  0.50341771  -0.00052797  1
  Fe  Fe68  1  0.00055247  0.24820244  0.00008450  1
  Fe  Fe69  1  0.87252956  0.12466773  0.87451482  1
  Fe  Fe70  1  0.37487034  0.62835707  0.87329484  1
  Fe  Fe71  1  0.62707383  0.62754962  0.87269326  1
  Fe  Fe72  1  0.12326504  0.87503343  0.62375056  1
  Fe  Fe73  1  0.87507191  0.87768502  0.12566764  1
  Fe  Fe74  1  -0.00273644  0.49744323  0.49722067  1
  Fe  Fe75  1  0.00014963  0.75023210  0.00054057  1
  Fe  Fe76  1  0.87396566  0.37572670  0.12385449  1
  Fe  Fe77  1  0.00197457  0.00128540  -0.00158335  1
  Fe  Fe78  1  0.12675638  0.87485686  0.87529073  1
  Fe  Fe79  1  0.12745783  0.37460328  0.87891745  1
  Fe  Fe80  1  0.74830121  0.49812184  0.24861924  1
  Fe  Fe81  1  0.49903236  0.49884148  0.25196027  1
  Fe  Fe82  1  0.75029716  0.75086223  0.50089748  1
  Fe  Fe83  1  0.37693823  0.37400841  0.12355547  1
  Fe  Fe84  1  0.49823938  0.74889856  0.49842108  1
  Fe  Fe85  1  0.00048461  0.49862084  0.75011650  1
  Fe  Fe86  1  0.37629017  0.62694875  0.12790269  1
  Fe  Fe87  1  0.50299315  0.24447037  -0.00275320  1
  Fe  Fe88  1  0.24672270  0.25011058  0.24753164  1
  Fe  Fe89  1  0.62425150  0.37288807  0.37593773  1
  Co  Co90  1  0.37211367  0.87347869  0.87302006  1
  Co  Co91  1  0.37801371  0.11903988  0.62658418  1
  Co  Co92  1  0.49966728  0.00350217  0.25531772  1
  Co  Co93  1  0.87576969  0.37726782  0.87965694  1
  Co  Co94  1  0.62163856  0.37666332  0.87902490  1
  Co  Co95  1  0.75094480  0.75369206  0.74804638  1
  Co  Co96  1  0.00207986  0.49909134  0.25086244  1
  Co  Co97  1  0.74894333  0.49521029  0.74932629  1
  Co  Co98  1  0.12469920  0.12221550  0.12450500  1
  Co  Co99  1  0.37344340  0.62559591  0.37386933  1
  Co  Co100  1  0.49754031  0.74906070  -0.00105612  1
  Co  Co101  1  0.74857612  0.50192126  0.00077920  1
  Co  Co102  1  0.62293816  0.87337690  0.62151261  1
  Co  Co103  1  0.37511990  0.37955445  0.62683186  1
  Co  Co104  1  0.25525862  0.50085074  -0.00042209  1
  Co  Co105  1  0.74761846  0.00016927  0.25091189  1
  Co  Co106  1  0.12550965  0.62185511  0.62192050  1
  Co  Co107  1  0.50141762  0.75007370  0.25305306  1
  Co  Co108  1  0.12271200  0.12624871  0.62314181  1
  Co  Co109  1  0.38012002  0.87725959  0.12793685  1
  Co  Co110  1  0.12769635  0.12531243  0.87596207  1
  Co  Co111  1  0.12448363  0.87227114  0.37527911  1
  Co  Co112  1  0.62236509  0.12066133  0.12468563  1
  Co  Co113  1  0.12760824  0.37425761  0.37745776  1
  Co  Co114  1  0.12626652  0.37757527  0.12083337  1
  Co  Co115  1  0.87673134  0.37382887  0.62627607  1
  Co  Co116  1  0.49954684  0.75229127  0.74879194  1
  Co  Co117  1  0.62557637  0.12765861  0.37792754  1
  Co  Co118  1  0.62610239  0.12592499  0.87012445  1
  Co  Co119  1  0.62589341  0.87042355  0.87886656  1
  Co  Co120  1  0.49796224  0.00190064  -0.00645613  1
  Co  Co121  1  0.49786636  0.25166940  0.74886529  1
  Co  Co122  1  0.25139286  0.75153114  0.50248733  1
  Co  Co123  1  0.24968196  0.00087893  0.25179019  1
  Co  Co124  1  0.12655533  0.12871017  0.37637137  1
  Co  Co125  1  0.37553896  0.37109495  0.37294640  1
  Co  Co126  1  0.87212401  0.37412995  0.37107338  1
  Co  Co127  1  0.74902628  0.24751601  -0.00042283  1
