# generated using pymatgen
data_Fe45Co19
_symmetry_space_group_name_H-M   'P 1'
_cell_length_a   11.41463792
_cell_length_b   11.41431449
_cell_length_c   11.41545970
_cell_angle_alpha   89.99998130
_cell_angle_beta   89.99294980
_cell_angle_gamma   90.00311209
_symmetry_Int_Tables_number   1
_chemical_formula_structural   Fe45Co19
_chemical_formula_sum   'Fe90 Co38'
_cell_volume   1487.32327879
_cell_formula_units_Z   2
loop_
 _symmetry_equiv_pos_site_id
 _symmetry_equiv_pos_as_xyz
  1  'x, y, z'
loop_
 _atom_site_type_symbol
 _atom_site_label
 _atom_site_symmetry_multiplicity
 _atom_site_fract_x
 _atom_site_fract_y
 _atom_site_fract_z
 _atom_site_occupancy
  Fe  Fe0  1  0.49814691  0.24848758  0.75055566  1
  Fe  Fe1  1  0.62606109  0.62523772  0.37564144  1
  Fe  Fe2  1  0.25192730  -0.00016095  0.74907072  1
  Fe  Fe3  1  0.62789949  0.12543821  0.12443192  1
  Fe  Fe4  1  0.25467506  -0.00143514  0.24593497  1
  Fe  Fe5  1  0.87518041  0.87363210  0.62557781  1
  Fe  Fe6  1  0.49891244  0.00030689  0.00382101  1
  Fe  Fe7  1  0.25010802  0.50100287  0.00345526  1
  Fe  Fe8  1  0.74940523  0.49804861  0.00177750  1
  Fe  Fe9  1  0.12141365  0.37441779  0.37322539  1
  Fe  Fe10  1  -0.00167239  0.00156774  0.74872513  1
  Fe  Fe11  1  0.24874191  -0.00134847  0.50190311  1
  Fe  Fe12  1  0.49899798  0.24834637  0.50088397  1
  Fe  Fe13  1  0.74818674  -0.00063858  0.50044605  1
  Fe  Fe14  1  0.25083655  0.49864659  0.24931477  1
  Fe  Fe15  1  0.12473709  0.87544314  0.12634678  1
  Fe  Fe16  1  0.50276297  0.24982115  -0.00156600  1
  Fe  Fe17  1  0.25148459  0.49978805  0.74835721  1
  Fe  Fe18  1  0.50161454  0.74666140  0.75276600  1
  Fe  Fe19  1  0.37543154  0.87485013  0.87705649  1
  Fe  Fe20  1  0.87399005  0.87848005  0.37268495  1
  Fe  Fe21  1  0.62581004  0.87502259  0.12940760  1
  Fe  Fe22  1  -0.00087513  0.00029530  0.00177988  1
  Fe  Fe23  1  -0.00090701  0.75170418  0.00000187  1
  Fe  Fe24  1  0.37767998  0.87422637  0.62217887  1
  Fe  Fe25  1  0.37439568  0.37609699  0.87515556  1
  Fe  Fe26  1  0.87636070  0.62294318  0.37725215  1
  Fe  Fe27  1  0.50238145  0.49995633  0.49993133  1
  Fe  Fe28  1  0.37422626  0.37228968  0.12444646  1
  Fe  Fe29  1  0.37326312  0.12399176  0.87720899  1
  Fe  Fe30  1  0.74855335  0.74999710  0.49920231  1
  Fe  Fe31  1  0.37398862  0.62476368  0.37579488  1
  Fe  Fe32  1  0.87618708  0.37055409  0.12376217  1
  Fe  Fe33  1  -0.00021676  0.74970480  0.75138260  1
  Fe  Fe34  1  0.49790824  0.75326100  0.25440586  1
  Fe  Fe35  1  0.00216032  0.49767749  0.00254309  1
  Fe  Fe36  1  0.87231415  0.12483278  0.87920662  1
  Fe  Fe37  1  0.62827620  0.12151068  0.87524238  1
  Fe  Fe38  1  0.00208109  -0.00142915  0.50056731  1
  Fe  Fe39  1  0.62465950  0.37850932  0.87244780  1
  Fe  Fe40  1  -0.00268272  0.24500278  0.24917473  1
  Fe  Fe41  1  0.37367842  0.37145445  0.62432038  1
  Fe  Fe42  1  0.25152816  0.24946907  0.25285128  1
  Fe  Fe43  1  0.75013180  0.25123302  0.49827885  1
  Fe  Fe44  1  0.24748880  0.49877193  0.49911270  1
  Fe  Fe45  1  0.12567315  0.87757390  0.87495770  1
  Fe  Fe46  1  0.12264732  0.62640897  0.62585119  1
  Fe  Fe47  1  0.24473735  0.25108510  -0.00421956  1
  Fe  Fe48  1  0.62458282  0.37536245  0.62544242  1
  Fe  Fe49  1  0.62505068  0.62576191  0.12628588  1
  Fe  Fe50  1  0.12438781  0.62509692  0.12753079  1
  Fe  Fe51  1  0.62456254  0.37399530  0.12729392  1
  Fe  Fe52  1  0.37713667  0.37427815  0.37572605  1
  Fe  Fe53  1  0.12398711  0.12295999  0.37522782  1
  Fe  Fe54  1  0.62616536  0.12609863  0.62573323  1
  Fe  Fe55  1  0.87439571  0.62538600  0.12447275  1
  Fe  Fe56  1  0.25278897  0.75298543  0.25047488  1
  Fe  Fe57  1  0.87669778  0.37511443  0.87592687  1
  Fe  Fe58  1  0.12410938  0.62509680  0.37277956  1
  Fe  Fe59  1  0.87673614  0.37565414  0.62245051  1
  Fe  Fe60  1  -0.00136915  0.75060314  0.25078357  1
  Fe  Fe61  1  0.50013812  0.49953102  0.25093296  1
  Fe  Fe62  1  0.62338308  0.87348261  0.62503719  1
  Fe  Fe63  1  0.24990885  0.75170920  0.74952455  1
  Fe  Fe64  1  0.12510895  0.62305061  0.87433590  1
  Fe  Fe65  1  0.87292335  0.87751190  0.87327155  1
  Fe  Fe66  1  0.49850286  0.24752839  0.24903923  1
  Fe  Fe67  1  0.50090488  0.74705590  -0.00248990  1
  Fe  Fe68  1  0.37735591  0.62579031  0.62387438  1
  Fe  Fe69  1  0.12645671  0.12554959  0.12362938  1
  Fe  Fe70  1  0.25098159  0.74869934  0.00083878  1
  Fe  Fe71  1  0.75065441  0.24950791  0.75155344  1
  Fe  Fe72  1  0.74835578  0.75276869  -0.00113115  1
  Fe  Fe73  1  0.12580968  0.37195538  0.62605636  1
  Fe  Fe74  1  0.87451141  0.12614847  0.62281104  1
  Fe  Fe75  1  0.49822223  0.50268986  -0.00030472  1
  Fe  Fe76  1  0.87312089  0.87728418  0.12903785  1
  Fe  Fe77  1  0.12734189  0.12758170  0.62589926  1
  Fe  Fe78  1  0.37661893  0.12111986  0.37707303  1
  Fe  Fe79  1  0.62375647  0.12350315  0.37470753  1
  Fe  Fe80  1  0.24866592  0.75237560  0.49940346  1
  Fe  Fe81  1  0.49905574  0.00171219  0.74772785  1
  Fe  Fe82  1  0.75257700  0.24730679  0.25199068  1
  Fe  Fe83  1  0.74799008  0.74950669  0.75150962  1
  Fe  Fe84  1  0.00239828  0.75225920  0.49843058  1
  Fe  Fe85  1  0.87466229  0.62418236  0.87593200  1
  Fe  Fe86  1  0.87728073  0.37580126  0.37734381  1
  Fe  Fe87  1  0.75086749  0.49913238  0.25174107  1
  Fe  Fe88  1  0.75168479  0.50273554  0.74620999  1
  Fe  Fe89  1  0.00161474  0.24924737  0.75316084  1
  Co  Co90  1  -0.00221250  0.50024486  0.24824397  1
  Co  Co91  1  0.12554016  0.37247823  0.12904617  1
  Co  Co92  1  0.62660790  0.87773784  0.37259428  1
  Co  Co93  1  0.50037504  0.75010970  0.49614151  1
  Co  Co94  1  0.75135400  0.00528960  0.25072638  1
  Co  Co95  1  0.37653690  0.62576254  0.12803676  1
  Co  Co96  1  0.00312279  0.50047004  0.50174789  1
  Co  Co97  1  0.62767660  0.62096309  0.87523139  1
  Co  Co98  1  0.12573560  0.11900001  0.87442218  1
  Co  Co99  1  -0.00203293  0.00392445  0.24763951  1
  Co  Co100  1  0.37712888  0.87118386  0.12218280  1
  Co  Co101  1  0.75180010  0.74784640  0.25122551  1
  Co  Co102  1  0.62418953  0.37173728  0.37419565  1
  Co  Co103  1  0.75010059  -0.00026252  0.74753403  1
  Co  Co104  1  0.37182272  0.12635974  0.62322583  1
  Co  Co105  1  0.00531843  0.25036569  -0.00308602  1
  Co  Co106  1  0.49782140  0.50016233  0.74894261  1
  Co  Co107  1  -0.00189259  0.50099641  0.74764322  1
  Co  Co108  1  0.87650235  0.12275213  0.37997833  1
  Co  Co109  1  0.74935364  -0.00472076  0.00172491  1
  Co  Co110  1  0.12333901  0.87545583  0.62734052  1
  Co  Co111  1  0.37236005  0.13040570  0.12172272  1
  Co  Co112  1  0.37485788  0.87936314  0.37884035  1
  Co  Co113  1  0.62290626  0.87877826  0.87411169  1
  Co  Co114  1  0.25118786  -0.00158257  0.00255565  1
  Co  Co115  1  0.37244383  0.62476369  0.87334258  1
  Co  Co116  1  0.87594402  0.62821081  0.62280209  1
  Co  Co117  1  0.24979677  0.25030978  0.49571937  1
  Co  Co118  1  0.74592973  0.25330199  -0.00249406  1
  Co  Co119  1  0.25008257  0.24892181  0.75445423  1
  Co  Co120  1  0.00162243  0.25012278  0.50055991  1
  Co  Co121  1  0.12471662  0.38055298  0.87195227  1
  Co  Co122  1  0.74825703  0.49952482  0.49983150  1
  Co  Co123  1  0.62357380  0.62553540  0.62443813  1
  Co  Co124  1  0.49723588  0.00002133  0.24651782  1
  Co  Co125  1  0.87223960  0.12757874  0.11788564  1
  Co  Co126  1  0.12540904  0.87728782  0.37091431  1
  Co  Co127  1  0.50287387  0.00042545  0.50217842  1
