# generated using pymatgen
data_Fe45Co19
_symmetry_space_group_name_H-M   'P 1'
_cell_length_a   11.41660851
_cell_length_b   11.41508574
_cell_length_c   11.41528996
_cell_angle_alpha   90.00984218
_cell_angle_beta   89.99984083
_cell_angle_gamma   90.00076422
_symmetry_Int_Tables_number   1
_chemical_formula_structural   Fe45Co19
_chemical_formula_sum   'Fe90 Co38'
_cell_volume   1487.65843131
_cell_formula_units_Z   2
loop_
 _symmetry_equiv_pos_site_id
 _symmetry_equiv_pos_as_xyz
  1  'x, y, z'
loop_
 _atom_site_type_symbol
 _atom_site_label
 _atom_site_symmetry_multiplicity
 _atom_site_fract_x
 _atom_site_fract_y
 _atom_site_fract_z
 _atom_site_occupancy
  Fe  Fe0  1  0.00301855  0.24901867  -0.00104655  1
  Fe  Fe1  1  0.37620806  0.13043424  0.62204639  1
  Fe  Fe2  1  0.00156657  -0.00037821  -0.00365258  1
  Fe  Fe3  1  0.62613825  0.37492198  0.12496072  1
  Fe  Fe4  1  0.87379538  0.87582655  0.37619964  1
  Fe  Fe5  1  0.49946043  0.24834259  0.00025806  1
  Fe  Fe6  1  0.37832125  0.62470401  0.37130402  1
  Fe  Fe7  1  0.12427292  0.37326619  0.12441451  1
  Fe  Fe8  1  0.12640629  0.87601581  0.62248876  1
  Fe  Fe9  1  0.87586048  0.37268323  0.12448117  1
  Fe  Fe10  1  0.24954943  0.00305401  0.25122195  1
  Fe  Fe11  1  0.00101450  0.75140824  0.25006265  1
  Fe  Fe12  1  0.75314613  0.49838142  0.74924528  1
  Fe  Fe13  1  0.87337223  0.87430893  0.62413537  1
  Fe  Fe14  1  0.87264043  0.12585542  0.62458219  1
  Fe  Fe15  1  0.12388324  0.87771405  0.12499389  1
  Fe  Fe16  1  0.50069759  0.00339954  -0.00041366  1
  Fe  Fe17  1  -0.00195063  0.00508556  0.25477903  1
  Fe  Fe18  1  0.24686174  0.24613221  0.24951679  1
  Fe  Fe19  1  0.50348775  0.00077677  0.24901702  1
  Fe  Fe20  1  0.49682583  0.49984867  0.75102850  1
  Fe  Fe21  1  0.00094759  0.24836752  0.49891665  1
  Fe  Fe22  1  0.62503261  0.62698409  0.87291379  1
  Fe  Fe23  1  0.49997808  0.74656153  0.00297280  1
  Fe  Fe24  1  0.25108497  0.49851707  0.25113586  1
  Fe  Fe25  1  0.50073115  0.00247007  0.50132662  1
  Fe  Fe26  1  0.87691098  0.62539587  0.62398174  1
  Fe  Fe27  1  0.00112096  0.25057230  0.74859200  1
  Fe  Fe28  1  0.74220198  0.25124448  0.50406512  1
  Fe  Fe29  1  0.62382513  0.62402129  0.62720834  1
  Fe  Fe30  1  0.37316878  0.37428485  0.87586281  1
  Fe  Fe31  1  0.25001409  0.75191704  0.25186914  1
  Fe  Fe32  1  0.12558099  0.62455107  0.12732548  1
  Fe  Fe33  1  0.00139230  0.49791956  0.74613777  1
  Fe  Fe34  1  0.37673683  0.12670414  0.37683401  1
  Fe  Fe35  1  0.12705491  0.12351220  0.62153652  1
  Fe  Fe36  1  0.49781950  0.00107042  0.75063321  1
  Fe  Fe37  1  0.87325366  0.37280642  0.37774540  1
  Fe  Fe38  1  0.24840360  0.49828293  0.74815738  1
  Fe  Fe39  1  0.37624138  0.37219293  0.37641167  1
  Fe  Fe40  1  0.87438215  0.12397137  0.12402663  1
  Fe  Fe41  1  0.24894497  0.74869419  0.00037666  1
  Fe  Fe42  1  0.37269484  0.37304217  0.12376185  1
  Fe  Fe43  1  0.75177151  0.49852392  0.24951845  1
  Fe  Fe44  1  0.37488168  0.87363679  0.87651056  1
  Fe  Fe45  1  0.75063888  -0.00053195  0.75223360  1
  Fe  Fe46  1  0.74784522  0.75223606  0.25040477  1
  Fe  Fe47  1  0.87512596  0.87039209  0.87592398  1
  Fe  Fe48  1  0.62206684  0.62340994  0.37027092  1
  Fe  Fe49  1  0.25011817  0.50099869  -0.00043983  1
  Fe  Fe50  1  0.12443189  0.87985639  0.37837170  1
  Fe  Fe51  1  0.37613828  0.87352953  0.62512464  1
  Fe  Fe52  1  0.87354529  0.87689953  0.12355120  1
  Fe  Fe53  1  0.87603484  0.12567603  0.87373606  1
  Fe  Fe54  1  0.62469463  0.37359246  0.87212252  1
  Fe  Fe55  1  0.37497920  0.62404000  0.62509977  1
  Fe  Fe56  1  0.12274358  0.62620464  0.87343851  1
  Fe  Fe57  1  0.87688437  0.62861498  0.87381583  1
  Fe  Fe58  1  0.37413555  0.87631511  0.12454615  1
  Fe  Fe59  1  0.12379767  0.37393693  0.37637665  1
  Fe  Fe60  1  0.24842614  0.25306163  0.74896491  1
  Fe  Fe61  1  0.24841443  0.00403568  0.00063939  1
  Fe  Fe62  1  0.62482149  0.87268688  0.87418259  1
  Fe  Fe63  1  0.74857727  0.00175995  0.49829980  1
  Fe  Fe64  1  0.50219993  0.24976771  0.24959828  1
  Fe  Fe65  1  -0.00164574  0.49735815  0.25115328  1
  Fe  Fe66  1  0.75003032  0.24928616  -0.00227110  1
  Fe  Fe67  1  0.74987736  0.24739474  0.24951382  1
  Fe  Fe68  1  0.25042967  0.74941392  0.74995407  1
  Fe  Fe69  1  0.12409598  0.62361847  0.37628872  1
  Fe  Fe70  1  0.74756644  0.49782610  0.50161100  1
  Fe  Fe71  1  0.49914987  0.50201715  0.00249801  1
  Fe  Fe72  1  0.62847620  0.87801377  0.12297255  1
  Fe  Fe73  1  0.25128778  -0.00011001  0.74893219  1
  Fe  Fe74  1  0.50095452  0.74951190  0.50002653  1
  Fe  Fe75  1  0.37848921  0.87608759  0.37427796  1
  Fe  Fe76  1  0.00136213  -0.00152980  0.74953241  1
  Fe  Fe77  1  0.62494736  0.87604201  0.62595903  1
  Fe  Fe78  1  0.25182540  0.75057376  0.49808510  1
  Fe  Fe79  1  0.74979373  0.50160513  -0.00043560  1
  Fe  Fe80  1  0.37199529  0.12680728  0.87607951  1
  Fe  Fe81  1  0.50135008  0.49493314  0.49984337  1
  Fe  Fe82  1  0.00074948  0.75060288  0.50016389  1
  Fe  Fe83  1  0.87569162  0.62446812  0.37552854  1
  Fe  Fe84  1  0.74743504  0.74850469  0.49979697  1
  Fe  Fe85  1  0.87453935  0.62701915  0.12558781  1
  Fe  Fe86  1  0.62594754  0.12665629  0.87230914  1
  Fe  Fe87  1  -0.00047208  0.50107260  0.00104959  1
  Fe  Fe88  1  0.25012308  0.49792219  0.50107318  1
  Fe  Fe89  1  0.87715166  0.37461367  0.87426956  1
  Co  Co90  1  0.37703017  0.37367438  0.62519865  1
  Co  Co91  1  -0.00045481  0.49944715  0.49923974  1
  Co  Co92  1  0.62406329  0.87586607  0.37725754  1
  Co  Co93  1  0.24843990  0.24753418  0.00166529  1
  Co  Co94  1  0.49716244  0.24866128  0.75175110  1
  Co  Co95  1  0.62464840  0.12448618  0.37488103  1
  Co  Co96  1  0.49715005  0.49550915  0.24722302  1
  Co  Co97  1  0.75043311  0.00076753  0.25271687  1
  Co  Co98  1  0.75056935  0.00154152  -0.00455381  1
  Co  Co99  1  0.00080803  0.24827224  0.25285567  1
  Co  Co100  1  0.87537992  0.37338936  0.62203689  1
  Co  Co101  1  0.37645010  0.12474379  0.12618452  1
  Co  Co102  1  0.00133520  0.75273972  0.74731957  1
  Co  Co103  1  0.50085620  0.75359725  0.24652153  1
  Co  Co104  1  0.12657144  0.12507651  0.87281190  1
  Co  Co105  1  0.62762654  0.12460419  0.12422021  1
  Co  Co106  1  0.12126274  0.12416489  0.12461386  1
  Co  Co107  1  0.74903507  0.74773346  0.00065701  1
  Co  Co108  1  0.49909659  0.75056541  0.74908326  1
  Co  Co109  1  0.62535690  0.62250125  0.12965714  1
  Co  Co110  1  0.62309564  0.37502561  0.63273148  1
  Co  Co111  1  0.37458176  0.62553428  0.87426497  1
  Co  Co112  1  0.12729966  0.12227536  0.38005173  1
  Co  Co113  1  0.74965441  0.74975123  0.74807945  1
  Co  Co114  1  0.62651877  0.37622505  0.37103269  1
  Co  Co115  1  0.87070305  0.12840082  0.37789870  1
  Co  Co116  1  0.50577893  0.25260076  0.50028549  1
  Co  Co117  1  0.24988353  0.25209343  0.49979998  1
  Co  Co118  1  0.00143549  0.75028375  0.00183315  1
  Co  Co119  1  0.37320339  0.62540634  0.12853067  1
  Co  Co120  1  0.75262136  0.25110137  0.75034804  1
  Co  Co121  1  0.12429194  0.37515006  0.87643952  1
  Co  Co122  1  0.12324909  0.37409867  0.62161880  1
  Co  Co123  1  0.12724399  0.87523621  0.87472795  1
  Co  Co124  1  0.25537512  -0.00072247  0.50029992  1
  Co  Co125  1  -0.00354615  0.00097268  0.50081461  1
  Co  Co126  1  0.12530466  0.62572166  0.62283654  1
  Co  Co127  1  0.62496269  0.12373432  0.62956067  1
