# generated using pymatgen
data_Fe45Co19
_symmetry_space_group_name_H-M   'P 1'
_cell_length_a   11.41528307
_cell_length_b   11.41415084
_cell_length_c   11.41393942
_cell_angle_alpha   90.00795433
_cell_angle_beta   90.00777470
_cell_angle_gamma   89.99462818
_symmetry_Int_Tables_number   1
_chemical_formula_structural   Fe45Co19
_chemical_formula_sum   'Fe90 Co38'
_cell_volume   1487.18790866
_cell_formula_units_Z   2
loop_
 _symmetry_equiv_pos_site_id
 _symmetry_equiv_pos_as_xyz
  1  'x, y, z'
loop_
 _atom_site_type_symbol
 _atom_site_label
 _atom_site_symmetry_multiplicity
 _atom_site_fract_x
 _atom_site_fract_y
 _atom_site_fract_z
 _atom_site_occupancy
  Fe  Fe0  1  0.50138926  0.74868251  0.24986296  1
  Fe  Fe1  1  -0.00059032  -0.00195400  0.00075962  1
  Fe  Fe2  1  0.49806775  -0.00085061  0.50016413  1
  Fe  Fe3  1  0.25255337  0.74486880  0.50090278  1
  Fe  Fe4  1  0.37415628  0.12611304  0.62736609  1
  Fe  Fe5  1  0.00668419  0.25339140  0.74816865  1
  Fe  Fe6  1  0.87513996  0.37692819  0.12528974  1
  Fe  Fe7  1  0.12686020  0.87529434  0.87702197  1
  Fe  Fe8  1  0.75026301  0.00212272  0.74916548  1
  Fe  Fe9  1  0.50043633  0.00017856  0.74889051  1
  Fe  Fe10  1  0.74807207  0.49742599  0.74714257  1
  Fe  Fe11  1  0.50004694  0.00173979  0.00051322  1
  Fe  Fe12  1  0.75038211  0.00229962  0.25024755  1
  Fe  Fe13  1  0.62312547  0.62358813  0.37910804  1
  Fe  Fe14  1  0.87437301  0.87271926  0.37560576  1
  Fe  Fe15  1  0.87500633  0.37516254  0.37670202  1
  Fe  Fe16  1  0.24777531  0.25189568  0.25075874  1
  Fe  Fe17  1  0.37482996  0.37679738  0.12605577  1
  Fe  Fe18  1  0.62490023  0.62381085  0.87347844  1
  Fe  Fe19  1  0.62571866  0.37544927  0.87456480  1
  Fe  Fe20  1  0.25048427  0.74948199  -0.00030706  1
  Fe  Fe21  1  0.00138830  0.25514375  -0.00004228  1
  Fe  Fe22  1  0.62418389  0.87562501  0.12441878  1
  Fe  Fe23  1  0.24982364  0.24944537  -0.00311204  1
  Fe  Fe24  1  0.49766121  0.25187909  0.50328733  1
  Fe  Fe25  1  0.12650354  0.38067646  0.38050087  1
  Fe  Fe26  1  0.62298179  0.37751894  0.37923360  1
  Fe  Fe27  1  0.25232147  0.50073207  0.25447948  1
  Fe  Fe28  1  0.25005254  0.00005877  0.49999018  1
  Fe  Fe29  1  0.74863101  0.25070874  0.25105068  1
  Fe  Fe30  1  0.62412003  0.12617754  0.87428704  1
  Fe  Fe31  1  0.37404060  0.87633141  0.87422980  1
  Fe  Fe32  1  0.87776735  0.12874035  0.87267415  1
  Fe  Fe33  1  -0.00034274  0.74922338  -0.00173945  1
  Fe  Fe34  1  0.25182276  0.25195925  0.50234668  1
  Fe  Fe35  1  0.37769605  0.62177038  0.12523551  1
  Fe  Fe36  1  0.50144907  0.25108745  0.24965549  1
  Fe  Fe37  1  0.00225299  0.25215916  0.25148623  1
  Fe  Fe38  1  0.87592991  0.12786447  0.62652242  1
  Fe  Fe39  1  -0.00306018  0.74560349  0.50339288  1
  Fe  Fe40  1  0.24772991  -0.00173441  0.24967028  1
  Fe  Fe41  1  0.12441996  0.62292837  0.12437841  1
  Fe  Fe42  1  0.87354314  0.87245389  0.87070801  1
  Fe  Fe43  1  0.00172919  -0.00159413  0.74827227  1
  Fe  Fe44  1  0.00105356  0.49803953  -0.00235478  1
  Fe  Fe45  1  0.75011488  0.25004646  0.50303716  1
  Fe  Fe46  1  0.37532407  0.87355059  0.37373306  1
  Fe  Fe47  1  0.87570379  0.12752203  0.12532366  1
  Fe  Fe48  1  0.37294383  0.62234239  0.86884829  1
  Fe  Fe49  1  0.00755678  0.49747753  0.74794109  1
  Fe  Fe50  1  -0.00054810  0.74654317  0.25004616  1
  Fe  Fe51  1  0.49893086  0.25264160  -0.00062165  1
  Fe  Fe52  1  0.74984515  0.74625466  0.24843939  1
  Fe  Fe53  1  0.00033041  0.25163393  0.50050032  1
  Fe  Fe54  1  0.62570941  0.87434997  0.87428965  1
  Fe  Fe55  1  0.37203507  0.87370399  0.62787789  1
  Fe  Fe56  1  0.37470548  0.12430119  0.12486687  1
  Fe  Fe57  1  0.12502822  0.12501070  0.12220413  1
  Fe  Fe58  1  0.75253474  0.00126445  0.50102425  1
  Fe  Fe59  1  -0.00087050  0.50090791  0.25248302  1
  Fe  Fe60  1  0.49124423  0.49956653  0.50434318  1
  Fe  Fe61  1  0.12643580  0.87316102  0.62420490  1
  Fe  Fe62  1  0.75566423  0.50158229  0.50463754  1
  Fe  Fe63  1  0.25006186  0.49942140  -0.00273737  1
  Fe  Fe64  1  0.62647887  0.87529710  0.62527308  1
  Fe  Fe65  1  0.62395381  0.37759611  0.12298216  1
  Fe  Fe66  1  0.12536216  0.12514528  0.37766359  1
  Fe  Fe67  1  0.37543637  0.87647266  0.12453935  1
  Fe  Fe68  1  0.49863484  0.74748634  -0.00261580  1
  Fe  Fe69  1  0.50358911  0.25209808  0.74631996  1
  Fe  Fe70  1  -0.00174292  -0.00061229  0.50018802  1
  Fe  Fe71  1  0.62215085  0.62120451  0.12216017  1
  Fe  Fe72  1  0.75106440  0.74777944  -0.00143445  1
  Fe  Fe73  1  0.50140835  0.74898900  0.74903933  1
  Fe  Fe74  1  0.75183745  0.25105536  -0.00182723  1
  Fe  Fe75  1  0.62323341  0.12440840  0.37612666  1
  Fe  Fe76  1  0.75296479  0.74706628  0.50528380  1
  Fe  Fe77  1  0.62516501  0.87414050  0.37619149  1
  Fe  Fe78  1  0.75063428  0.00172159  -0.00063795  1
  Fe  Fe79  1  0.74980257  0.50108140  0.25065056  1
  Fe  Fe80  1  0.24778173  0.00463669  0.75252989  1
  Fe  Fe81  1  0.00079763  0.00014982  0.25148747  1
  Fe  Fe82  1  0.24918813  0.74858005  0.24905073  1
  Fe  Fe83  1  0.49689582  0.74866319  0.50397820  1
  Fe  Fe84  1  0.37114814  0.37479423  0.86668322  1
  Fe  Fe85  1  0.37452216  0.12552561  0.37431230  1
  Fe  Fe86  1  0.12438194  0.87099072  0.37629102  1
  Fe  Fe87  1  0.75267384  0.49966380  -0.00239830  1
  Fe  Fe88  1  0.87483768  0.87309906  0.12554150  1
  Fe  Fe89  1  0.87725842  0.62462086  0.86972045  1
  Co  Co90  1  0.00460309  0.75220194  0.74913900  1
  Co  Co91  1  0.87549817  0.12701321  0.37575811  1
  Co  Co92  1  0.62313160  0.62316475  0.62288529  1
  Co  Co93  1  0.12009118  0.12481430  0.87891042  1
  Co  Co94  1  0.12508684  0.62324694  0.37735196  1
  Co  Co95  1  0.24157557  0.50129224  0.74920802  1
  Co  Co96  1  0.24661910  0.75041210  0.75210029  1
  Co  Co97  1  0.12383830  0.12444390  0.62161492  1
  Co  Co98  1  0.50045171  0.49857366  0.25237550  1
  Co  Co99  1  0.25834877  0.50293626  0.49889678  1
  Co  Co100  1  0.49953762  0.00073026  0.25094087  1
  Co  Co101  1  0.87310516  0.62539108  0.37477363  1
  Co  Co102  1  0.37534105  0.37238302  0.37414539  1
  Co  Co103  1  0.12445086  0.62600520  0.87667052  1
  Co  Co104  1  0.87620550  0.37548055  0.87077457  1
  Co  Co105  1  0.87692956  0.37370550  0.62708728  1
  Co  Co106  1  0.87789228  0.62431359  0.63385536  1
  Co  Co107  1  0.87652575  0.62314592  0.12259085  1
  Co  Co108  1  0.62535342  0.12658250  0.12386450  1
  Co  Co109  1  0.49703942  0.49773934  -0.00546628  1
  Co  Co110  1  0.12672767  0.37844233  0.12564960  1
  Co  Co111  1  0.12400393  0.87309013  0.12412105  1
  Co  Co112  1  0.37270125  0.62436401  0.63287953  1
  Co  Co113  1  -0.00450406  0.50350153  0.50245395  1
  Co  Co114  1  0.50269427  0.49905070  0.74838752  1
  Co  Co115  1  0.24305310  0.24432256  0.75025143  1
  Co  Co116  1  0.62485725  0.12350227  0.62381329  1
  Co  Co117  1  0.36930272  0.37458496  0.63301597  1
  Co  Co118  1  0.74716058  0.74801762  0.74785528  1
  Co  Co119  1  0.12676705  0.62500200  0.62181757  1
  Co  Co120  1  0.37845300  0.12718350  0.87288176  1
  Co  Co121  1  0.12891073  0.37772955  0.61806985  1
  Co  Co122  1  0.12887712  0.37392816  0.87600143  1
  Co  Co123  1  0.74702387  0.25171099  0.74816490  1
  Co  Co124  1  0.37771734  0.62779381  0.37292472  1
  Co  Co125  1  0.62475104  0.37786737  0.62116739  1
  Co  Co126  1  0.87393140  0.87432473  0.62729371  1
  Co  Co127  1  0.25036441  0.00112813  -0.00180004  1
