# generated using pymatgen
data_Fe45Co19
_symmetry_space_group_name_H-M   'P 1'
_cell_length_a   11.41473619
_cell_length_b   11.41472707
_cell_length_c   11.41425268
_cell_angle_alpha   90.00457365
_cell_angle_beta   89.98983566
_cell_angle_gamma   89.99438596
_symmetry_Int_Tables_number   1
_chemical_formula_structural   Fe45Co19
_chemical_formula_sum   'Fe90 Co38'
_cell_volume   1487.23255259
_cell_formula_units_Z   2
loop_
 _symmetry_equiv_pos_site_id
 _symmetry_equiv_pos_as_xyz
  1  'x, y, z'
loop_
 _atom_site_type_symbol
 _atom_site_label
 _atom_site_symmetry_multiplicity
 _atom_site_fract_x
 _atom_site_fract_y
 _atom_site_fract_z
 _atom_site_occupancy
  Fe  Fe0  1  0.87499952  0.87052373  0.37475747  1
  Fe  Fe1  1  0.37381402  0.87330464  0.37317224  1
  Fe  Fe2  1  0.37515324  0.37575012  0.62449036  1
  Fe  Fe3  1  0.87568754  0.12976173  0.37530789  1
  Fe  Fe4  1  0.12325508  0.62149377  0.37343641  1
  Fe  Fe5  1  0.74680002  0.74738867  0.50043828  1
  Fe  Fe6  1  0.37583318  0.12792006  0.87810983  1
  Fe  Fe7  1  0.87403705  0.37296077  0.87581824  1
  Fe  Fe8  1  0.24767691  0.74896953  0.50118321  1
  Fe  Fe9  1  0.87554109  0.87300728  0.12370125  1
  Fe  Fe10  1  0.00237546  0.74847932  0.50108628  1
  Fe  Fe11  1  -0.00321668  0.49946264  0.00188196  1
  Fe  Fe12  1  0.37339200  0.37648718  0.12491178  1
  Fe  Fe13  1  0.87541649  0.62917269  0.87885214  1
  Fe  Fe14  1  0.12534849  0.87576703  0.37324237  1
  Fe  Fe15  1  0.74856176  0.25169824  0.00236819  1
  Fe  Fe16  1  0.74686565  0.50435474  0.75589357  1
  Fe  Fe17  1  0.75342869  0.00075401  0.25103781  1
  Fe  Fe18  1  0.50106367  0.25055217  0.74899675  1
  Fe  Fe19  1  0.12416555  0.87787627  0.12553584  1
  Fe  Fe20  1  0.37676722  0.62625554  0.37365438  1
  Fe  Fe21  1  0.49968015  -0.00185691  0.49907298  1
  Fe  Fe22  1  0.87823527  0.37057743  0.37129618  1
  Fe  Fe23  1  0.50024225  0.74887010  0.24462431  1
  Fe  Fe24  1  0.24972034  0.00252948  0.25041580  1
  Fe  Fe25  1  0.49700283  0.50026672  0.25026545  1
  Fe  Fe26  1  0.00231543  0.25002265  0.00091648  1
  Fe  Fe27  1  0.24555566  0.25115011  0.25121727  1
  Fe  Fe28  1  -0.00163907  -0.00036971  0.49684082  1
  Fe  Fe29  1  0.37453826  0.12708624  0.37514651  1
  Fe  Fe30  1  0.62717889  0.87505234  0.62650012  1
  Fe  Fe31  1  -0.00006604  0.74691943  0.24695626  1
  Fe  Fe32  1  0.62567705  0.87240113  0.87460284  1
  Fe  Fe33  1  0.62556421  0.87404025  0.37248675  1
  Fe  Fe34  1  0.74999650  0.50021224  0.49701431  1
  Fe  Fe35  1  0.12647510  0.62634240  0.87732970  1
  Fe  Fe36  1  0.24747218  0.24996336  0.00298097  1
  Fe  Fe37  1  0.37313413  0.87163225  0.87527935  1
  Fe  Fe38  1  0.25084533  0.50120804  0.75238778  1
  Fe  Fe39  1  0.87773548  0.12824055  0.12637081  1
  Fe  Fe40  1  0.49819565  -0.00165061  0.00210286  1
  Fe  Fe41  1  0.87419325  0.62447131  0.62409161  1
  Fe  Fe42  1  0.62598806  0.37681488  0.37236065  1
  Fe  Fe43  1  0.50172219  0.25063858  0.24746473  1
  Fe  Fe44  1  0.37428329  0.12544988  0.62240916  1
  Fe  Fe45  1  0.87290156  0.12536730  0.62190834  1
  Fe  Fe46  1  0.49928536  0.75200155  0.00661049  1
  Fe  Fe47  1  0.12400239  0.38020023  0.12852726  1
  Fe  Fe48  1  0.74931427  0.74688289  0.24814368  1
  Fe  Fe49  1  0.25158669  0.00079919  0.75080444  1
  Fe  Fe50  1  0.74656356  0.74866820  0.00204440  1
  Fe  Fe51  1  0.37547166  0.37215817  0.87539432  1
  Fe  Fe52  1  0.25121751  0.74666946  0.24533964  1
  Fe  Fe53  1  0.62443007  0.12269782  0.12402807  1
  Fe  Fe54  1  -0.00239440  0.49941813  0.49872048  1
  Fe  Fe55  1  0.12400926  0.37457994  0.87427859  1
  Fe  Fe56  1  0.49947835  -0.00002074  0.24946072  1
  Fe  Fe57  1  -0.00308273  0.00163209  0.75403290  1
  Fe  Fe58  1  0.12552932  0.87439256  0.87544829  1
  Fe  Fe59  1  0.87443651  0.87449873  0.62530796  1
  Fe  Fe60  1  0.24533066  0.25208135  0.49604123  1
  Fe  Fe61  1  0.12729534  0.62047008  0.12462414  1
  Fe  Fe62  1  0.49977689  -0.00078148  0.75083224  1
  Fe  Fe63  1  0.25103170  0.00109116  0.00130339  1
  Fe  Fe64  1  0.62760895  0.12511536  0.37650958  1
  Fe  Fe65  1  0.50324784  0.49823189  -0.00445874  1
  Fe  Fe66  1  -0.00032643  0.50239571  0.75201779  1
  Fe  Fe67  1  0.37574982  0.62437293  0.62691211  1
  Fe  Fe68  1  0.00121880  0.74878528  0.74951344  1
  Fe  Fe69  1  0.00032120  0.24827918  0.74894305  1
  Fe  Fe70  1  0.50341235  0.25178432  0.49992260  1
  Fe  Fe71  1  0.24879273  0.24969962  0.74994250  1
  Fe  Fe72  1  -0.00218648  0.00054973  -0.00217198  1
  Fe  Fe73  1  0.62394988  0.12699374  0.87712659  1
  Fe  Fe74  1  0.75693861  0.50300105  0.24840960  1
  Fe  Fe75  1  0.12521558  0.87663240  0.62599598  1
  Fe  Fe76  1  0.62545290  0.37914346  0.62764506  1
  Fe  Fe77  1  0.74935344  0.24913779  0.74912746  1
  Fe  Fe78  1  0.87402587  0.37623170  0.62664293  1
  Fe  Fe79  1  0.50279660  0.74907620  0.50056068  1
  Fe  Fe80  1  0.75255848  -0.00000117  -0.00109298  1
  Fe  Fe81  1  0.75249805  -0.00100226  0.75364284  1
  Fe  Fe82  1  0.62841418  0.37930524  0.12479070  1
  Fe  Fe83  1  0.12524440  0.12278820  0.62320370  1
  Fe  Fe84  1  0.37534031  0.62841484  0.87684614  1
  Fe  Fe85  1  0.50070745  0.50041202  0.49854579  1
  Fe  Fe86  1  0.62755345  0.12297817  0.62287190  1
  Fe  Fe87  1  0.12442820  0.37819084  0.62481547  1
  Fe  Fe88  1  0.25159378  0.49926340  0.49661429  1
  Fe  Fe89  1  0.37310633  0.87378622  0.62496646  1
  Co  Co90  1  0.74890534  0.25452069  0.49976652  1
  Co  Co91  1  0.74692015  0.24919878  0.24827293  1
  Co  Co92  1  -0.00679461  0.50412484  0.24692594  1
  Co  Co93  1  0.75203550  0.74815842  0.74880272  1
  Co  Co94  1  0.75157922  -0.00220753  0.49673917  1
  Co  Co95  1  0.37527018  0.61938624  0.12192459  1
  Co  Co96  1  0.25126896  -0.00181272  0.49884749  1
  Co  Co97  1  0.62424397  0.62252372  0.62676881  1
  Co  Co98  1  0.62769844  0.87778101  0.12638716  1
  Co  Co99  1  0.62172783  0.63146070  0.87544445  1
  Co  Co100  1  0.37280355  0.87807256  0.12751617  1
  Co  Co101  1  0.62698018  0.37062722  0.87407330  1
  Co  Co102  1  0.24982470  0.49847157  -0.00343823  1
  Co  Co103  1  0.00635904  0.24878228  0.24972820  1
  Co  Co104  1  0.62495417  0.62041891  0.12588159  1
  Co  Co105  1  0.75022380  0.50045850  -0.00313770  1
  Co  Co106  1  0.12352228  0.12172199  0.37615064  1
  Co  Co107  1  0.37712862  0.37201114  0.37496165  1
  Co  Co108  1  0.49932578  0.49959293  0.75485581  1
  Co  Co109  1  0.12607285  0.12518919  0.87534199  1
  Co  Co110  1  0.12468361  0.62067641  0.62371999  1
  Co  Co111  1  0.62439938  0.62344036  0.37120275  1
  Co  Co112  1  -0.00429793  -0.00095700  0.25175456  1
  Co  Co113  1  0.87517194  0.86961721  0.87727893  1
  Co  Co114  1  0.25021756  0.75058488  0.00460734  1
  Co  Co115  1  0.87433450  0.12987812  0.87648153  1
  Co  Co116  1  0.25359468  0.49926617  0.25361303  1
  Co  Co117  1  0.00500557  0.74990475  0.00223158  1
  Co  Co118  1  0.24775776  0.74818556  0.74905901  1
  Co  Co119  1  0.87582589  0.62815533  0.37728457  1
  Co  Co120  1  0.50130910  0.25325214  0.00422818  1
  Co  Co121  1  0.00159478  0.25138438  0.50149523  1
  Co  Co122  1  0.87390438  0.62833958  0.11995128  1
  Co  Co123  1  0.37462684  0.12641642  0.12626762  1
  Co  Co124  1  0.49900789  0.75115568  0.74758355  1
  Co  Co125  1  0.11988956  0.38143354  0.37262159  1
  Co  Co126  1  0.87567685  0.37116317  0.12536461  1
  Co  Co127  1  0.12303511  0.12129812  0.12473796  1
