# generated using pymatgen
data_Fe45Co19
_symmetry_space_group_name_H-M   'P 1'
_cell_length_a   11.41427810
_cell_length_b   11.41517390
_cell_length_c   11.41492337
_cell_angle_alpha   89.99769641
_cell_angle_beta   89.99621768
_cell_angle_gamma   89.99494125
_symmetry_Int_Tables_number   1
_chemical_formula_structural   Fe45Co19
_chemical_formula_sum   'Fe90 Co38'
_cell_volume   1487.31849646
_cell_formula_units_Z   2
loop_
 _symmetry_equiv_pos_site_id
 _symmetry_equiv_pos_as_xyz
  1  'x, y, z'
loop_
 _atom_site_type_symbol
 _atom_site_label
 _atom_site_symmetry_multiplicity
 _atom_site_fract_x
 _atom_site_fract_y
 _atom_site_fract_z
 _atom_site_occupancy
  Fe  Fe0  1  0.12501639  0.87366537  0.87519652  1
  Fe  Fe1  1  0.74878010  0.49940996  -0.00001953  1
  Fe  Fe2  1  0.24889678  0.75231506  0.49788231  1
  Fe  Fe3  1  -0.00076631  0.74966742  0.74891357  1
  Fe  Fe4  1  0.12622583  0.62362041  0.62415482  1
  Fe  Fe5  1  0.00186744  0.50002920  0.49707592  1
  Fe  Fe6  1  0.25234086  0.24828902  0.24939914  1
  Fe  Fe7  1  0.74677135  0.50273365  0.24915754  1
  Fe  Fe8  1  0.87549554  0.12607479  0.62410576  1
  Fe  Fe9  1  0.87554868  0.12557564  0.12566723  1
  Fe  Fe10  1  0.37365042  0.12503895  0.62154588  1
  Fe  Fe11  1  0.24960912  0.75035015  0.00176244  1
  Fe  Fe12  1  0.87744454  0.62486865  0.87564569  1
  Fe  Fe13  1  0.87512053  0.37686523  0.62470023  1
  Fe  Fe14  1  0.49995454  0.74961228  0.24732567  1
  Fe  Fe15  1  0.25514244  -0.00207414  0.25818632  1
  Fe  Fe16  1  0.12256543  0.12375300  0.37619071  1
  Fe  Fe17  1  0.00010021  -0.00302140  0.00182939  1
  Fe  Fe18  1  0.25036535  0.24995177  0.00339145  1
  Fe  Fe19  1  0.87638880  0.12469883  0.87570756  1
  Fe  Fe20  1  0.50261385  0.74793185  0.50329065  1
  Fe  Fe21  1  0.62412643  0.62362636  0.87501911  1
  Fe  Fe22  1  0.37525634  0.87941541  0.12383958  1
  Fe  Fe23  1  0.25170255  0.24950995  0.75058857  1
  Fe  Fe24  1  0.62185543  0.12730070  0.37342304  1
  Fe  Fe25  1  0.74762905  0.49960311  0.49788221  1
  Fe  Fe26  1  0.12264746  0.62513112  0.87680212  1
  Fe  Fe27  1  0.24931531  0.25176969  0.49817238  1
  Fe  Fe28  1  0.25187845  0.49855537  0.49846334  1
  Fe  Fe29  1  0.87350622  0.62743681  0.37475936  1
  Fe  Fe30  1  0.12278174  0.87609528  0.62004194  1
  Fe  Fe31  1  0.75086666  -0.00042855  0.25250777  1
  Fe  Fe32  1  0.37541026  0.62493714  0.87574349  1
  Fe  Fe33  1  0.74820473  0.25150598  0.75020419  1
  Fe  Fe34  1  0.87661687  0.37603577  0.87377719  1
  Fe  Fe35  1  0.24700446  0.50142875  0.00015979  1
  Fe  Fe36  1  0.37343561  0.12227295  0.88001559  1
  Fe  Fe37  1  0.24898381  0.50311220  0.25048262  1
  Fe  Fe38  1  0.50233543  0.49776442  0.00451201  1
  Fe  Fe39  1  0.62590263  0.87461321  0.87373430  1
  Fe  Fe40  1  0.87385725  0.62408324  0.62467862  1
  Fe  Fe41  1  0.49755510  -0.00051513  0.49643181  1
  Fe  Fe42  1  0.25063386  0.74976444  0.75012134  1
  Fe  Fe43  1  0.12767718  0.62701434  0.37321090  1
  Fe  Fe44  1  0.62413542  0.12664336  0.87558616  1
  Fe  Fe45  1  0.00068562  0.25073897  0.74772655  1
  Fe  Fe46  1  0.12574236  0.12334670  0.62164781  1
  Fe  Fe47  1  0.49769031  -0.00068941  0.75184997  1
  Fe  Fe48  1  0.37346302  0.62424236  0.62445997  1
  Fe  Fe49  1  0.25087189  -0.00091791  0.74956906  1
  Fe  Fe50  1  0.75053185  0.74929254  -0.00023017  1
  Fe  Fe51  1  0.12705341  0.87479475  0.12910704  1
  Fe  Fe52  1  0.87733443  0.37408981  0.37339400  1
  Fe  Fe53  1  0.87750886  0.62524182  0.12430296  1
  Fe  Fe54  1  0.50056629  0.25341573  0.50016703  1
  Fe  Fe55  1  0.50047171  0.75068212  0.74838521  1
  Fe  Fe56  1  0.74895636  0.75052772  0.74755773  1
  Fe  Fe57  1  0.49894540  0.49992469  0.74767924  1
  Fe  Fe58  1  0.62445299  0.12276935  0.62377725  1
  Fe  Fe59  1  0.62229681  0.12405827  0.12719111  1
  Fe  Fe60  1  0.62291298  0.62441541  0.37472425  1
  Fe  Fe61  1  0.87345732  0.87293216  0.12763621  1
  Fe  Fe62  1  0.37710935  0.62587653  0.37391171  1
  Fe  Fe63  1  0.74942752  0.25059107  0.49890893  1
  Fe  Fe64  1  0.49738002  0.25083798  0.00583765  1
  Fe  Fe65  1  0.74951284  0.25112121  -0.00080242  1
  Fe  Fe66  1  0.37432545  0.62367095  0.12542819  1
  Fe  Fe67  1  0.87598882  0.37586123  0.12827892  1
  Fe  Fe68  1  0.62470045  0.87317965  0.37409616  1
  Fe  Fe69  1  0.12728822  0.12192446  0.12702988  1
  Fe  Fe70  1  0.87899879  0.12677870  0.37435083  1
  Fe  Fe71  1  0.75280506  -0.00174430  0.49817098  1
  Fe  Fe72  1  0.00131519  0.25105046  0.00295357  1
  Fe  Fe73  1  0.49922799  0.75255123  0.00017021  1
  Fe  Fe74  1  0.12376111  0.37812766  0.12914554  1
  Fe  Fe75  1  0.37457901  0.37628532  0.87615506  1
  Fe  Fe76  1  0.62561476  0.87524376  0.12690631  1
  Fe  Fe77  1  0.74889607  0.24980516  0.25111618  1
  Fe  Fe78  1  0.75156326  -0.00136885  0.74903723  1
  Fe  Fe79  1  0.12718550  0.37689637  0.62572412  1
  Fe  Fe80  1  0.74897784  0.75202203  0.50168528  1
  Fe  Fe81  1  0.74943518  -0.00011956  -0.00019536  1
  Fe  Fe82  1  0.00141156  0.74904843  0.25127163  1
  Fe  Fe83  1  0.37513920  0.87525070  0.62316574  1
  Fe  Fe84  1  0.62553356  0.37773497  0.62464047  1
  Fe  Fe85  1  0.49840905  0.24996116  0.74949924  1
  Fe  Fe86  1  0.37847979  0.37623894  0.37165802  1
  Fe  Fe87  1  0.12423488  0.12462915  0.87595633  1
  Fe  Fe88  1  0.12464340  0.37611042  0.87336418  1
  Fe  Fe89  1  -0.00136158  -0.00168726  0.74928440  1
  Co  Co90  1  0.00047638  0.74602362  0.49814048  1
  Co  Co91  1  0.00113799  0.25197669  0.50066003  1
  Co  Co92  1  0.74907773  0.49906552  0.75275743  1
  Co  Co93  1  0.62386728  0.87887429  0.62423905  1
  Co  Co94  1  0.37458044  0.11823919  0.12388575  1
  Co  Co95  1  0.50343366  -0.00152379  -0.00181682  1
  Co  Co96  1  0.25084879  0.50162802  0.75126545  1
  Co  Co97  1  0.62729064  0.62190822  0.62533898  1
  Co  Co98  1  0.00036465  0.49799703  0.00075064  1
  Co  Co99  1  0.00081149  0.75332124  0.00211164  1
  Co  Co100  1  0.87722845  0.87256849  0.62316399  1
  Co  Co101  1  0.24668184  -0.00189572  -0.00138978  1
  Co  Co102  1  0.37781416  0.86813802  0.37740912  1
  Co  Co103  1  0.00081492  0.50151233  0.74879100  1
  Co  Co104  1  0.62171494  0.37474552  0.87614615  1
  Co  Co105  1  0.25169151  0.75098476  0.24894429  1
  Co  Co106  1  0.74859707  0.74752704  0.24999953  1
  Co  Co107  1  0.12153410  0.87496219  0.37620792  1
  Co  Co108  1  0.37789826  0.13069903  0.37622999  1
  Co  Co109  1  0.49718313  0.25107582  0.24482214  1
  Co  Co110  1  0.87407568  0.87450872  0.87541317  1
  Co  Co111  1  0.37331777  0.87442792  0.87566693  1
  Co  Co112  1  0.62324007  0.37526836  0.37304824  1
  Co  Co113  1  0.50387403  0.50120733  0.24637382  1
  Co  Co114  1  0.37323482  0.37476349  0.62507351  1
  Co  Co115  1  -0.00404771  0.00065787  0.49895595  1
  Co  Co116  1  0.87665130  0.87168385  0.37388356  1
  Co  Co117  1  -0.00016162  0.50350312  0.25351114  1
  Co  Co118  1  0.62854695  0.37260853  0.12713258  1
  Co  Co119  1  0.25303034  -0.00146058  0.49537571  1
  Co  Co120  1  0.49789196  -0.00121006  0.25425697  1
  Co  Co121  1  0.12322910  0.62513502  0.12575748  1
  Co  Co122  1  0.37058744  0.37938369  0.12738150  1
  Co  Co123  1  0.00187251  0.24870651  0.24890717  1
  Co  Co124  1  0.62529381  0.62785972  0.12270933  1
  Co  Co125  1  0.49901793  0.50023072  0.50126579  1
  Co  Co126  1  0.12515744  0.37466083  0.37177626  1
  Co  Co127  1  -0.00183322  -0.00053680  0.24889307  1
