# generated using pymatgen
data_Fe45Co19
_symmetry_space_group_name_H-M   'P 1'
_cell_length_a   11.41353410
_cell_length_b   11.41600051
_cell_length_c   11.41460683
_cell_angle_alpha   89.99336472
_cell_angle_beta   89.99593552
_cell_angle_gamma   89.99415188
_symmetry_Int_Tables_number   1
_chemical_formula_structural   Fe45Co19
_chemical_formula_sum   'Fe90 Co38'
_cell_volume   1487.28798944
_cell_formula_units_Z   2
loop_
 _symmetry_equiv_pos_site_id
 _symmetry_equiv_pos_as_xyz
  1  'x, y, z'
loop_
 _atom_site_type_symbol
 _atom_site_label
 _atom_site_symmetry_multiplicity
 _atom_site_fract_x
 _atom_site_fract_y
 _atom_site_fract_z
 _atom_site_occupancy
  Fe  Fe0  1  0.24908652  0.50058265  0.25147142  1
  Fe  Fe1  1  0.88007516  0.12637059  0.87083164  1
  Fe  Fe2  1  0.36835387  0.12795810  0.12284250  1
  Fe  Fe3  1  0.50157459  0.24926883  0.74906864  1
  Fe  Fe4  1  0.24879999  0.00190552  0.74916483  1
  Fe  Fe5  1  0.24839385  0.49929737  0.00001787  1
  Fe  Fe6  1  0.25065027  0.74857853  0.50039170  1
  Fe  Fe7  1  0.74995236  0.49970943  0.24857363  1
  Fe  Fe8  1  0.50087408  0.25092254  0.00056026  1
  Fe  Fe9  1  0.87465660  0.87534526  0.37589553  1
  Fe  Fe10  1  0.87521326  0.62289741  0.37524947  1
  Fe  Fe11  1  0.12705855  0.62121450  0.62710168  1
  Fe  Fe12  1  0.00336594  0.00094132  -0.00079217  1
  Fe  Fe13  1  0.75044704  0.00368361  0.74612102  1
  Fe  Fe14  1  0.37112173  0.12484635  0.87729673  1
  Fe  Fe15  1  0.75136917  0.24957420  0.25218909  1
  Fe  Fe16  1  0.75071781  0.74903929  0.25021077  1
  Fe  Fe17  1  0.87826639  0.12576383  0.12633207  1
  Fe  Fe18  1  0.74925858  0.74837854  0.75095589  1
  Fe  Fe19  1  0.12673522  0.87544859  0.87472475  1
  Fe  Fe20  1  0.49945496  0.00183202  0.24945329  1
  Fe  Fe21  1  0.62535147  0.12608020  0.12426945  1
  Fe  Fe22  1  0.87795150  0.87292589  0.12452053  1
  Fe  Fe23  1  0.50001676  0.75052002  0.25278738  1
  Fe  Fe24  1  0.49919417  0.25060666  0.25063159  1
  Fe  Fe25  1  0.12185879  0.38148645  0.87180199  1
  Fe  Fe26  1  0.12441975  0.12204522  0.37628137  1
  Fe  Fe27  1  0.12421362  0.37623077  0.37451041  1
  Fe  Fe28  1  0.62282795  0.62302841  0.87699999  1
  Fe  Fe29  1  0.12188031  0.62945761  0.12180426  1
  Fe  Fe30  1  0.62394925  0.87456031  0.12460603  1
  Fe  Fe31  1  0.37345908  0.12506941  0.37591372  1
  Fe  Fe32  1  0.49658044  -0.00090078  0.00049230  1
  Fe  Fe33  1  0.75163532  0.00221311  0.00018335  1
  Fe  Fe34  1  0.12623243  0.37702801  0.62498038  1
  Fe  Fe35  1  0.87521170  0.62781355  0.62436416  1
  Fe  Fe36  1  0.24840675  0.25159261  0.75169297  1
  Fe  Fe37  1  0.49785475  -0.00145119  0.50049350  1
  Fe  Fe38  1  0.50080713  0.00229832  0.74940093  1
  Fe  Fe39  1  -0.00425770  0.00018903  0.50369852  1
  Fe  Fe40  1  0.87342055  0.37162749  0.62673395  1
  Fe  Fe41  1  0.37334652  0.87461238  0.62616562  1
  Fe  Fe42  1  0.24641562  -0.00139941  0.24671733  1
  Fe  Fe43  1  0.87803328  0.62758515  0.12341429  1
  Fe  Fe44  1  0.49815546  0.75229210  -0.00093552  1
  Fe  Fe45  1  0.62773655  0.12430350  0.37938463  1
  Fe  Fe46  1  0.12182906  0.12656042  0.62729136  1
  Fe  Fe47  1  0.00074004  0.50064857  0.24706508  1
  Fe  Fe48  1  0.62750212  0.87615531  0.37792847  1
  Fe  Fe49  1  0.75159003  0.50086163  0.74879028  1
  Fe  Fe50  1  0.87810235  0.62162859  0.87632337  1
  Fe  Fe51  1  0.62337387  0.62517578  0.12365629  1
  Fe  Fe52  1  0.49994901  0.25362534  0.50081613  1
  Fe  Fe53  1  0.00367241  -0.00250781  0.24890052  1
  Fe  Fe54  1  0.24751038  0.75126895  0.25083264  1
  Fe  Fe55  1  0.37684219  0.62238382  0.37905268  1
  Fe  Fe56  1  0.25223883  0.75299443  -0.00076362  1
  Fe  Fe57  1  -0.00006187  0.75024112  0.49929672  1
  Fe  Fe58  1  0.37069238  0.37251927  0.12635084  1
  Fe  Fe59  1  0.87596629  0.37332495  0.12555138  1
  Fe  Fe60  1  0.62769372  0.87516485  0.62224045  1
  Fe  Fe61  1  0.12339651  0.62516958  0.37557834  1
  Fe  Fe62  1  0.62446298  0.62491348  0.62048745  1
  Fe  Fe63  1  -0.00139649  0.49899749  0.50203268  1
  Fe  Fe64  1  0.00447050  0.25219687  -0.00164178  1
  Fe  Fe65  1  0.37535984  0.62412378  0.87505813  1
  Fe  Fe66  1  0.75084101  0.75040856  -0.00093764  1
  Fe  Fe67  1  0.12543021  0.87521876  0.62329100  1
  Fe  Fe68  1  0.75045770  0.49794758  0.00097825  1
  Fe  Fe69  1  0.62488931  0.37604446  0.87464037  1
  Fe  Fe70  1  0.62437411  0.62357747  0.37900822  1
  Fe  Fe71  1  0.87446962  0.87678750  0.87174268  1
  Fe  Fe72  1  0.75014788  0.00030325  0.24890619  1
  Fe  Fe73  1  0.75034697  0.24888792  -0.00180265  1
  Fe  Fe74  1  0.24876341  0.24979884  0.49832269  1
  Fe  Fe75  1  0.25008508  0.74694779  0.75033791  1
  Fe  Fe76  1  0.00264611  0.24914113  0.25057083  1
  Fe  Fe77  1  0.62822263  0.37563052  0.37730154  1
  Fe  Fe78  1  0.50013222  0.49682984  0.24910023  1
  Fe  Fe79  1  0.37571678  0.62494471  0.12505630  1
  Fe  Fe80  1  -0.00309786  0.24970948  0.49797987  1
  Fe  Fe81  1  0.49885055  0.50042405  0.74681637  1
  Fe  Fe82  1  0.37639588  0.37614620  0.87558708  1
  Fe  Fe83  1  0.74654408  0.24658198  0.75026946  1
  Fe  Fe84  1  0.37494321  0.12661123  0.62500425  1
  Fe  Fe85  1  0.37125388  0.87636090  0.37512669  1
  Fe  Fe86  1  0.37155527  0.37795145  0.62318675  1
  Fe  Fe87  1  0.62488558  0.87710548  0.87455499  1
  Fe  Fe88  1  0.00159014  0.74891572  0.75197658  1
  Fe  Fe89  1  0.49928744  0.74877766  0.74753198  1
  Co  Co90  1  0.00050411  0.49654634  0.00236697  1
  Co  Co91  1  0.24381792  0.25486563  -0.00590006  1
  Co  Co92  1  0.00371098  0.25420197  0.75149221  1
  Co  Co93  1  0.75266257  0.49943941  0.50159286  1
  Co  Co94  1  0.75476151  0.24782712  0.49866262  1
  Co  Co95  1  0.87613292  0.12303832  0.37141787  1
  Co  Co96  1  0.12437352  0.62252488  0.87575778  1
  Co  Co97  1  0.12550766  0.12284315  0.87298459  1
  Co  Co98  1  0.24916030  -0.00447015  0.00210350  1
  Co  Co99  1  0.12741763  0.37413100  0.12914727  1
  Co  Co100  1  0.62321344  0.12349463  0.87681174  1
  Co  Co101  1  -0.00018542  0.75149567  0.25417256  1
  Co  Co102  1  0.87450343  0.87044429  0.62748712  1
  Co  Co103  1  0.62697166  0.37263722  0.12532191  1
  Co  Co104  1  0.75648815  0.00299265  0.50377134  1
  Co  Co105  1  0.37364496  0.37573824  0.37535128  1
  Co  Co106  1  0.37314747  0.62245627  0.62224353  1
  Co  Co107  1  0.00136040  -0.00306996  0.74834387  1
  Co  Co108  1  0.37491580  0.87580352  0.87022707  1
  Co  Co109  1  0.12132234  0.86938747  0.12258441  1
  Co  Co110  1  0.49932537  0.49746365  0.00259397  1
  Co  Co111  1  0.24773137  0.49948399  0.49699588  1
  Co  Co112  1  0.24834289  0.24888983  0.25566367  1
  Co  Co113  1  0.62873572  0.37433505  0.62594407  1
  Co  Co114  1  0.62360002  0.12523858  0.61934706  1
  Co  Co115  1  -0.00221191  0.75134107  -0.00660072  1
  Co  Co116  1  0.87872171  0.12938161  0.63000600  1
  Co  Co117  1  0.12620686  0.87647354  0.37987502  1
  Co  Co118  1  0.49770873  0.75258995  0.50029214  1
  Co  Co119  1  0.25218887  0.50006943  0.75182887  1
  Co  Co120  1  0.75139848  0.74925912  0.49820130  1
  Co  Co121  1  0.50074541  0.49608603  0.50237500  1
  Co  Co122  1  0.25024313  0.00344733  0.50313854  1
  Co  Co123  1  0.87655390  0.37740627  0.37301674  1
  Co  Co124  1  0.12821699  0.12731528  0.12349524  1
  Co  Co125  1  0.87377832  0.37376915  0.87378251  1
  Co  Co126  1  -0.00391581  0.50080555  0.74704247  1
  Co  Co127  1  0.37640578  0.87444470  0.12909067  1
