# generated using pymatgen
data_Fe45Co19
_symmetry_space_group_name_H-M   'P 1'
_cell_length_a   11.41576815
_cell_length_b   11.41516511
_cell_length_c   11.41527577
_cell_angle_alpha   89.99206244
_cell_angle_beta   90.00313111
_cell_angle_gamma   89.98887292
_symmetry_Int_Tables_number   1
_chemical_formula_structural   Fe45Co19
_chemical_formula_sum   'Fe90 Co38'
_cell_volume   1487.55739840
_cell_formula_units_Z   2
loop_
 _symmetry_equiv_pos_site_id
 _symmetry_equiv_pos_as_xyz
  1  'x, y, z'
loop_
 _atom_site_type_symbol
 _atom_site_label
 _atom_site_symmetry_multiplicity
 _atom_site_fract_x
 _atom_site_fract_y
 _atom_site_fract_z
 _atom_site_occupancy
  Fe  Fe0  1  0.24798574  0.75043486  0.24815395  1
  Fe  Fe1  1  0.50090583  0.74705624  0.75074081  1
  Fe  Fe2  1  0.62636218  0.87310032  0.87477274  1
  Fe  Fe3  1  0.37712191  0.37445703  0.87632846  1
  Fe  Fe4  1  0.50354955  0.49893543  0.00041799  1
  Fe  Fe5  1  0.62604981  0.62047365  0.13119520  1
  Fe  Fe6  1  0.12381501  0.37533314  0.87274519  1
  Fe  Fe7  1  0.12524968  0.87514825  0.12343524  1
  Fe  Fe8  1  -0.00201436  0.75100550  0.74987059  1
  Fe  Fe9  1  -0.00219728  0.00130519  0.50245762  1
  Fe  Fe10  1  0.25031445  0.25003252  0.00104021  1
  Fe  Fe11  1  0.12533065  0.87586836  0.62582912  1
  Fe  Fe12  1  0.12454698  0.62374812  0.87299654  1
  Fe  Fe13  1  0.50034941  0.25094745  0.00339389  1
  Fe  Fe14  1  0.37659146  0.12792565  0.87426014  1
  Fe  Fe15  1  0.24876577  0.00239091  -0.00080437  1
  Fe  Fe16  1  0.87437469  0.37507037  0.62336161  1
  Fe  Fe17  1  0.12586915  0.87497403  0.37664993  1
  Fe  Fe18  1  -0.00072540  -0.00091059  0.75206099  1
  Fe  Fe19  1  0.00017466  0.49992235  0.25103491  1
  Fe  Fe20  1  0.87381509  0.37401367  0.87462759  1
  Fe  Fe21  1  0.00106456  0.74816646  0.50093780  1
  Fe  Fe22  1  0.62341521  0.12816692  0.87364777  1
  Fe  Fe23  1  0.25014712  0.24933189  0.50382576  1
  Fe  Fe24  1  0.87368683  0.62440838  0.62578905  1
  Fe  Fe25  1  0.49747673  0.50091593  0.49137815  1
  Fe  Fe26  1  0.74815671  0.74906413  0.00201974  1
  Fe  Fe27  1  0.12831591  0.62365962  0.37398985  1
  Fe  Fe28  1  0.37566828  0.37867920  0.62391846  1
  Fe  Fe29  1  0.00024839  0.75196056  -0.00184833  1
  Fe  Fe30  1  -0.00066674  0.25159302  0.25040424  1
  Fe  Fe31  1  0.87484974  0.62623398  0.12844784  1
  Fe  Fe32  1  0.25345210  0.74622939  0.74974566  1
  Fe  Fe33  1  0.50042787  0.00113985  -0.00013536  1
  Fe  Fe34  1  0.00240704  -0.00155772  0.24979139  1
  Fe  Fe35  1  0.24903096  0.49990105  -0.00177487  1
  Fe  Fe36  1  0.87819747  0.12491676  0.12479055  1
  Fe  Fe37  1  -0.00223715  0.49851529  -0.00144617  1
  Fe  Fe38  1  0.50044053  0.74828205  0.00145996  1
  Fe  Fe39  1  0.62461222  0.12701874  0.62417881  1
  Fe  Fe40  1  0.49797584  0.74780206  0.49765854  1
  Fe  Fe41  1  0.24955753  0.25006506  0.74693273  1
  Fe  Fe42  1  0.12432589  0.12562431  0.37603647  1
  Fe  Fe43  1  0.49998646  0.00147183  0.74950844  1
  Fe  Fe44  1  0.74654297  0.25250061  0.74875135  1
  Fe  Fe45  1  0.49902941  0.25111030  0.50107068  1
  Fe  Fe46  1  0.87215406  0.37475076  0.12826429  1
  Fe  Fe47  1  0.50238675  0.49853440  0.75257160  1
  Fe  Fe48  1  0.74983073  0.74975032  0.50058540  1
  Fe  Fe49  1  0.25139754  0.74809116  -0.00026759  1
  Fe  Fe50  1  0.24962049  0.00326430  0.75062190  1
  Fe  Fe51  1  0.62340144  0.62278965  0.62254558  1
  Fe  Fe52  1  0.74930994  0.49903330  -0.00024175  1
  Fe  Fe53  1  0.00177293  0.25113470  0.74707988  1
  Fe  Fe54  1  0.49781889  0.25476028  0.24745442  1
  Fe  Fe55  1  0.00011537  0.50016740  0.50001511  1
  Fe  Fe56  1  0.75014380  0.00188416  -0.00045345  1
  Fe  Fe57  1  0.75180540  -0.00046578  0.74955948  1
  Fe  Fe58  1  0.87203101  0.62678570  0.87401687  1
  Fe  Fe59  1  0.74970317  0.49844907  0.49572240  1
  Fe  Fe60  1  0.37466229  0.87868089  0.12668781  1
  Fe  Fe61  1  0.74946266  0.25013663  0.00159752  1
  Fe  Fe62  1  0.37520704  0.62035717  0.12797495  1
  Fe  Fe63  1  0.37313363  0.87522444  0.37221639  1
  Fe  Fe64  1  0.37636931  0.12480366  0.37187528  1
  Fe  Fe65  1  0.25114765  0.24985048  0.24715385  1
  Fe  Fe66  1  0.12666431  0.37527209  0.37761566  1
  Fe  Fe67  1  0.49918482  0.00050432  0.49936993  1
  Fe  Fe68  1  0.87520023  0.87467058  0.12573966  1
  Fe  Fe69  1  0.87537270  0.87438899  0.37504079  1
  Fe  Fe70  1  0.37554544  0.87491102  0.62560193  1
  Fe  Fe71  1  0.25171208  0.74667466  0.50309215  1
  Fe  Fe72  1  0.50141829  0.75000244  0.25092812  1
  Fe  Fe73  1  0.12506972  0.37643080  0.12442594  1
  Fe  Fe74  1  0.74814166  0.00274355  0.25223745  1
  Fe  Fe75  1  0.87411842  0.62690052  0.37225116  1
  Fe  Fe76  1  0.74727002  0.49877344  0.75004078  1
  Fe  Fe77  1  0.12211232  0.12548058  0.12152140  1
  Fe  Fe78  1  -0.00036052  0.24950690  0.50201007  1
  Fe  Fe79  1  0.25200769  0.00159084  0.49988616  1
  Fe  Fe80  1  0.62390790  0.12685514  0.12841187  1
  Fe  Fe81  1  0.87799528  0.12669841  0.87658527  1
  Fe  Fe82  1  0.37479901  0.87390336  0.87579356  1
  Fe  Fe83  1  0.62572009  0.87511032  0.37566954  1
  Fe  Fe84  1  0.62529736  0.87474855  0.62490997  1
  Fe  Fe85  1  0.12626186  0.61960618  0.62815374  1
  Fe  Fe86  1  0.62519122  0.87636778  0.12548678  1
  Fe  Fe87  1  0.12408677  0.62357848  0.12502362  1
  Fe  Fe88  1  0.75083902  0.00350833  0.49916163  1
  Fe  Fe89  1  0.75146820  0.24896294  0.49587338  1
  Co  Co90  1  0.87759194  0.37493885  0.37542222  1
  Co  Co91  1  0.62459843  0.37291513  0.87774033  1
  Co  Co92  1  0.37626071  0.12423131  0.62474251  1
  Co  Co93  1  0.62689724  0.62599908  0.87572682  1
  Co  Co94  1  -0.00114530  0.25516285  0.00095010  1
  Co  Co95  1  0.62006880  0.12838887  0.37472440  1
  Co  Co96  1  0.12872042  0.87319237  0.87317325  1
  Co  Co97  1  0.74862645  0.75233307  0.25000494  1
  Co  Co98  1  0.12420548  0.12274509  0.62417313  1
  Co  Co99  1  0.87424867  0.12715328  0.62678883  1
  Co  Co100  1  0.62833405  0.37617492  0.12844021  1
  Co  Co101  1  0.00058566  -0.00410353  -0.00253525  1
  Co  Co102  1  0.12234820  0.12786447  0.87638652  1
  Co  Co103  1  0.75237268  0.24726368  0.25317388  1
  Co  Co104  1  0.24704147  0.00217393  0.24965075  1
  Co  Co105  1  0.87083960  0.87294976  0.87567176  1
  Co  Co106  1  -0.00419171  0.49856645  0.75062760  1
  Co  Co107  1  0.62426006  0.37688166  0.61973548  1
  Co  Co108  1  0.74825833  0.74910507  0.74657835  1
  Co  Co109  1  0.12493509  0.37888316  0.62449850  1
  Co  Co110  1  0.24943278  0.49680857  0.25062353  1
  Co  Co111  1  0.37868587  0.62092527  0.62531340  1
  Co  Co112  1  0.50218037  -0.00143189  0.25050961  1
  Co  Co113  1  0.37443259  0.37951912  0.12297708  1
  Co  Co114  1  0.37679407  0.62354515  0.87741146  1
  Co  Co115  1  0.87904955  0.12414658  0.37351779  1
  Co  Co116  1  0.37029535  0.62724099  0.37038541  1
  Co  Co117  1  0.25183110  0.50146555  0.49976823  1
  Co  Co118  1  0.50026687  0.25246339  0.74655017  1
  Co  Co119  1  0.25339505  0.49859488  0.75171978  1
  Co  Co120  1  0.37038503  0.37180971  0.37553123  1
  Co  Co121  1  0.75124912  0.49798872  0.25488890  1
  Co  Co122  1  0.62723602  0.62546863  0.37302513  1
  Co  Co123  1  0.49799440  0.49711068  0.25574183  1
  Co  Co124  1  0.62575107  0.37228642  0.37252051  1
  Co  Co125  1  0.87529027  0.87450826  0.62368359  1
  Co  Co126  1  0.00211975  0.75054645  0.25090415  1
  Co  Co127  1  0.37590966  0.12257906  0.12579655  1
