# generated using pymatgen
data_Fe45Co19
_symmetry_space_group_name_H-M   'P 1'
_cell_length_a   11.41527859
_cell_length_b   11.41490120
_cell_length_c   11.41489655
_cell_angle_alpha   89.99514997
_cell_angle_beta   90.00618901
_cell_angle_gamma   89.99950213
_symmetry_Int_Tables_number   1
_chemical_formula_structural   Fe45Co19
_chemical_formula_sum   'Fe90 Co38'
_cell_volume   1487.40983071
_cell_formula_units_Z   2
loop_
 _symmetry_equiv_pos_site_id
 _symmetry_equiv_pos_as_xyz
  1  'x, y, z'
loop_
 _atom_site_type_symbol
 _atom_site_label
 _atom_site_symmetry_multiplicity
 _atom_site_fract_x
 _atom_site_fract_y
 _atom_site_fract_z
 _atom_site_occupancy
  Fe  Fe0  1  0.00136198  0.25219226  0.50119089  1
  Fe  Fe1  1  0.25190660  0.74955102  -0.00026973  1
  Fe  Fe2  1  -0.00421238  0.49651848  0.75025459  1
  Fe  Fe3  1  0.37487113  0.87765470  0.62172709  1
  Fe  Fe4  1  0.50167872  0.25193673  0.49866352  1
  Fe  Fe5  1  0.75366251  -0.00060323  -0.00072180  1
  Fe  Fe6  1  0.12263348  0.62636645  0.12192925  1
  Fe  Fe7  1  0.62631851  0.87568834  0.62517226  1
  Fe  Fe8  1  0.74873417  0.50117063  -0.00560987  1
  Fe  Fe9  1  0.37606533  0.12472032  0.87555991  1
  Fe  Fe10  1  0.24787745  -0.00051910  0.25118399  1
  Fe  Fe11  1  -0.00248932  0.75233615  0.74498368  1
  Fe  Fe12  1  0.62188060  0.12561790  0.87613471  1
  Fe  Fe13  1  0.37425451  0.87503892  0.37683116  1
  Fe  Fe14  1  0.00026388  0.50020439  0.25074433  1
  Fe  Fe15  1  0.00004304  -0.00173372  0.50188232  1
  Fe  Fe16  1  0.37701802  0.37707722  0.62312521  1
  Fe  Fe17  1  0.12192391  0.62688506  0.87260462  1
  Fe  Fe18  1  -0.00053702  0.25209084  0.24926400  1
  Fe  Fe19  1  0.62569151  0.62442712  0.12192588  1
  Fe  Fe20  1  0.87273520  0.37650438  0.12296463  1
  Fe  Fe21  1  0.24736059  0.74727988  0.50336334  1
  Fe  Fe22  1  0.74939258  0.24973664  -0.00173947  1
  Fe  Fe23  1  0.37532947  0.37504029  0.87656696  1
  Fe  Fe24  1  0.25054582  -0.00148819  0.75150530  1
  Fe  Fe25  1  -0.00003977  0.00009971  0.24897531  1
  Fe  Fe26  1  0.74876070  0.24915751  0.50135414  1
  Fe  Fe27  1  0.87554159  0.12577162  0.37560424  1
  Fe  Fe28  1  0.87684099  0.87218772  0.37495296  1
  Fe  Fe29  1  0.49900680  0.75160093  0.75011221  1
  Fe  Fe30  1  0.12265795  0.62377652  0.37897512  1
  Fe  Fe31  1  0.12757081  0.37522621  0.12657980  1
  Fe  Fe32  1  0.12346521  0.12627478  0.37468133  1
  Fe  Fe33  1  0.50028809  0.25333228  0.00372601  1
  Fe  Fe34  1  0.75189530  0.74955793  0.50177240  1
  Fe  Fe35  1  0.37327805  0.12402579  0.12465587  1
  Fe  Fe36  1  0.62687720  0.87349767  0.12230748  1
  Fe  Fe37  1  0.24590457  0.00088273  -0.00093212  1
  Fe  Fe38  1  0.12293719  0.87472199  0.12354307  1
  Fe  Fe39  1  0.25114145  0.50080744  0.75001937  1
  Fe  Fe40  1  0.37611160  0.12212566  0.62351174  1
  Fe  Fe41  1  0.62508605  0.87396166  0.37480959  1
  Fe  Fe42  1  0.75096199  0.00091650  0.25099597  1
  Fe  Fe43  1  0.75204366  0.74796404  0.24797189  1
  Fe  Fe44  1  0.37881724  0.62400984  0.87684439  1
  Fe  Fe45  1  0.75207856  0.24959279  0.24958831  1
  Fe  Fe46  1  0.87784592  0.62728453  0.37734856  1
  Fe  Fe47  1  0.37647726  0.62275526  0.62342967  1
  Fe  Fe48  1  0.25105592  0.74949672  0.74936671  1
  Fe  Fe49  1  0.37688017  0.87646886  0.87855211  1
  Fe  Fe50  1  0.75116387  0.49661394  0.75342581  1
  Fe  Fe51  1  0.74808703  0.00317166  0.75167669  1
  Fe  Fe52  1  0.24841677  0.25139197  0.75023736  1
  Fe  Fe53  1  0.75230255  0.74829946  0.75179720  1
  Fe  Fe54  1  0.24907638  0.24943151  0.25123781  1
  Fe  Fe55  1  0.24847888  0.25077659  0.50041506  1
  Fe  Fe56  1  0.50035860  0.25282024  0.24751871  1
  Fe  Fe57  1  0.62604230  0.12560069  0.12625843  1
  Fe  Fe58  1  0.50047458  0.49800921  0.24702431  1
  Fe  Fe59  1  0.62481847  0.87274846  0.87775010  1
  Fe  Fe60  1  -0.00034673  0.49793183  -0.00309817  1
  Fe  Fe61  1  0.12298841  0.87184219  0.37810751  1
  Fe  Fe62  1  0.12527301  0.12317777  0.62732559  1
  Fe  Fe63  1  0.24687564  0.24936032  -0.00213568  1
  Fe  Fe64  1  0.24937581  0.50091139  -0.00069956  1
  Fe  Fe65  1  0.87811123  0.12448008  0.12339618  1
  Fe  Fe66  1  0.37570431  0.62306442  0.12445279  1
  Fe  Fe67  1  0.62656293  0.62320761  0.62695507  1
  Fe  Fe68  1  0.24843909  0.74884822  0.24861440  1
  Fe  Fe69  1  0.74914953  0.00157439  0.49845679  1
  Fe  Fe70  1  0.87517424  0.37521569  0.37608964  1
  Fe  Fe71  1  -0.00597196  0.75403521  -0.00150760  1
  Fe  Fe72  1  0.50203116  0.49885958  0.75150953  1
  Fe  Fe73  1  0.50080858  0.25016315  0.74926394  1
  Fe  Fe74  1  0.00173597  -0.00383194  0.75186191  1
  Fe  Fe75  1  0.87666604  0.12713824  0.62843957  1
  Fe  Fe76  1  0.50139917  0.74854147  0.50097221  1
  Fe  Fe77  1  0.62244933  0.12454731  0.62395756  1
  Fe  Fe78  1  0.87487580  0.62409731  0.12395317  1
  Fe  Fe79  1  0.00440996  0.25031588  -0.00233347  1
  Fe  Fe80  1  0.49805172  0.75105910  0.24736497  1
  Fe  Fe81  1  0.62691353  0.37587465  0.37296237  1
  Fe  Fe82  1  0.87899087  0.12819344  0.87267666  1
  Fe  Fe83  1  0.50074060  -0.00060279  0.24929514  1
  Fe  Fe84  1  0.75111519  0.49943822  0.50041036  1
  Fe  Fe85  1  0.12428304  0.37855623  0.62478747  1
  Fe  Fe86  1  0.37226948  0.37893698  0.37471667  1
  Fe  Fe87  1  0.37396015  0.62293001  0.37567813  1
  Fe  Fe88  1  0.62479173  0.62469253  0.37405951  1
  Fe  Fe89  1  0.37681184  0.12340723  0.37664581  1
  Co  Co90  1  0.74689210  0.24919704  0.74972775  1
  Co  Co91  1  0.50158088  0.49688787  0.00147831  1
  Co  Co92  1  0.63100394  0.37632548  0.12566511  1
  Co  Co93  1  0.75277130  0.50301082  0.25127674  1
  Co  Co94  1  0.87523439  0.87564965  0.12822442  1
  Co  Co95  1  -0.00064915  0.75065834  0.50784262  1
  Co  Co96  1  -0.00222246  0.49876651  0.50065842  1
  Co  Co97  1  0.62364412  0.37277450  0.87467605  1
  Co  Co98  1  0.24871713  0.50040274  0.50189084  1
  Co  Co99  1  0.87305197  0.62241898  0.62602103  1
  Co  Co100  1  0.12828860  0.87620800  0.62528638  1
  Co  Co101  1  0.49802643  0.74985557  0.00151726  1
  Co  Co102  1  0.12274646  0.62185801  0.62883863  1
  Co  Co103  1  0.62432224  0.12700058  0.37288868  1
  Co  Co104  1  0.50136048  0.00067627  0.00190991  1
  Co  Co105  1  0.37270096  0.87733876  0.12427491  1
  Co  Co106  1  0.87757402  0.62574393  0.87304135  1
  Co  Co107  1  0.75401785  0.74884076  -0.00025585  1
  Co  Co108  1  0.12592287  0.37627222  0.37416866  1
  Co  Co109  1  0.62530757  0.37641660  0.62569084  1
  Co  Co110  1  0.62268071  0.62746508  0.87477234  1
  Co  Co111  1  -0.00063136  -0.00154617  -0.00231868  1
  Co  Co112  1  0.12518924  0.87039437  0.87539123  1
  Co  Co113  1  0.87071626  0.87828675  0.62543823  1
  Co  Co114  1  0.24669916  0.50387552  0.24862434  1
  Co  Co115  1  0.12400190  0.12511317  0.12610874  1
  Co  Co116  1  0.50033426  -0.00143121  0.75070818  1
  Co  Co117  1  0.00078945  0.74735470  0.24853889  1
  Co  Co118  1  0.50260071  0.50065563  0.49901630  1
  Co  Co119  1  0.87366803  0.37107040  0.62599906  1
  Co  Co120  1  0.50274761  -0.00088950  0.49893990  1
  Co  Co121  1  0.87447069  0.36957688  0.87544290  1
  Co  Co122  1  0.12414306  0.12355888  0.87171263  1
  Co  Co123  1  0.87230492  0.87596490  0.87165403  1
  Co  Co124  1  0.00488991  0.25379848  0.75082760  1
  Co  Co125  1  0.36955334  0.37552511  0.12452193  1
  Co  Co126  1  0.24780867  0.00194107  0.49847933  1
  Co  Co127  1  0.12708787  0.37896366  0.87381818  1
