# generated using pymatgen
data_Fe45Co19
_symmetry_space_group_name_H-M   'P 1'
_cell_length_a   11.41535564
_cell_length_b   11.41452693
_cell_length_c   11.41412806
_cell_angle_alpha   89.99887856
_cell_angle_beta   90.00220641
_cell_angle_gamma   90.00447380
_symmetry_Int_Tables_number   1
_chemical_formula_structural   Fe45Co19
_chemical_formula_sum   'Fe90 Co38'
_cell_volume   1487.27097537
_cell_formula_units_Z   2
loop_
 _symmetry_equiv_pos_site_id
 _symmetry_equiv_pos_as_xyz
  1  'x, y, z'
loop_
 _atom_site_type_symbol
 _atom_site_label
 _atom_site_symmetry_multiplicity
 _atom_site_fract_x
 _atom_site_fract_y
 _atom_site_fract_z
 _atom_site_occupancy
  Fe  Fe0  1  0.25279406  0.49493297  0.50286403  1
  Fe  Fe1  1  0.50145791  -0.00251380  0.49939245  1
  Fe  Fe2  1  0.24963601  0.24695219  0.25025162  1
  Fe  Fe3  1  0.00517364  0.74417062  0.75362288  1
  Fe  Fe4  1  0.74436157  0.74782077  0.75063832  1
  Fe  Fe5  1  0.87841972  0.87255557  0.87103646  1
  Fe  Fe6  1  0.62431399  0.37560182  0.12381226  1
  Fe  Fe7  1  0.12816874  0.62408995  0.62302894  1
  Fe  Fe8  1  0.12524769  0.62495245  0.37639760  1
  Fe  Fe9  1  -0.00112582  0.50131347  0.24931270  1
  Fe  Fe10  1  -0.00577243  -0.00270642  0.50139272  1
  Fe  Fe11  1  0.74713144  0.00591285  0.25394533  1
  Fe  Fe12  1  0.37703190  0.87575061  0.12553051  1
  Fe  Fe13  1  0.37744247  0.87431433  0.37345277  1
  Fe  Fe14  1  0.50028111  0.50076148  0.24943325  1
  Fe  Fe15  1  0.74919665  0.75781704  0.50171116  1
  Fe  Fe16  1  0.12545602  0.37378490  0.37532313  1
  Fe  Fe17  1  0.62274004  0.37762448  0.62860731  1
  Fe  Fe18  1  0.25253047  -0.00210151  -0.00215815  1
  Fe  Fe19  1  0.24867574  0.74969041  0.24935911  1
  Fe  Fe20  1  0.49823976  0.50059180  0.50074525  1
  Fe  Fe21  1  0.62708231  0.62511124  0.37686748  1
  Fe  Fe22  1  0.24937420  0.25260048  0.74862994  1
  Fe  Fe23  1  0.12575639  0.37483060  0.12492529  1
  Fe  Fe24  1  0.12586014  0.62212145  0.12224195  1
  Fe  Fe25  1  0.12110724  0.87564863  0.62823724  1
  Fe  Fe26  1  0.74957497  0.25211255  0.50131867  1
  Fe  Fe27  1  0.37463276  0.62688183  0.37721278  1
  Fe  Fe28  1  0.87240013  0.12613415  0.87763472  1
  Fe  Fe29  1  -0.00175387  0.00120047  -0.00051817  1
  Fe  Fe30  1  0.50367092  0.24532794  0.24789912  1
  Fe  Fe31  1  0.62254170  0.87562471  0.87263112  1
  Fe  Fe32  1  0.49971620  0.25151328  0.50293126  1
  Fe  Fe33  1  0.87866992  0.37810978  0.87134129  1
  Fe  Fe34  1  0.12432398  0.12503226  0.37832670  1
  Fe  Fe35  1  0.00083256  0.25201180  0.50242442  1
  Fe  Fe36  1  0.49824294  0.51001028  0.74904483  1
  Fe  Fe37  1  -0.00115166  0.00544868  0.24811605  1
  Fe  Fe38  1  0.87465017  0.37274203  0.37252848  1
  Fe  Fe39  1  0.62276235  0.88111358  0.12602721  1
  Fe  Fe40  1  0.25188189  0.50052284  0.24993019  1
  Fe  Fe41  1  0.75194891  -0.00062772  0.75044756  1
  Fe  Fe42  1  0.12324948  0.87640966  0.12516653  1
  Fe  Fe43  1  -0.00261457  0.75150187  0.49957072  1
  Fe  Fe44  1  0.50205803  0.75030511  -0.00142139  1
  Fe  Fe45  1  0.37521316  0.62555092  0.12265720  1
  Fe  Fe46  1  0.87366157  0.37415358  0.12621646  1
  Fe  Fe47  1  0.12151740  0.87515657  0.37280102  1
  Fe  Fe48  1  -0.00162672  0.49931879  0.50199313  1
  Fe  Fe49  1  0.62029239  0.37933502  0.87292694  1
  Fe  Fe50  1  0.62569822  0.37433672  0.37395776  1
  Fe  Fe51  1  0.62860741  0.12315843  0.88110255  1
  Fe  Fe52  1  0.25055112  -0.00198211  0.50156595  1
  Fe  Fe53  1  0.62786135  0.12195838  0.62262405  1
  Fe  Fe54  1  0.49876338  0.25041720  -0.00284038  1
  Fe  Fe55  1  0.24673484  0.75175973  -0.00227720  1
  Fe  Fe56  1  0.37616438  0.12436842  0.12203987  1
  Fe  Fe57  1  0.25324501  0.50105977  0.74865996  1
  Fe  Fe58  1  0.24932669  0.75409566  0.50072474  1
  Fe  Fe59  1  0.74845017  0.74941849  0.24853710  1
  Fe  Fe60  1  0.62555203  0.62214103  0.12159441  1
  Fe  Fe61  1  0.00108866  0.74745204  -0.00134165  1
  Fe  Fe62  1  0.74740057  0.24500503  0.24841954  1
  Fe  Fe63  1  0.49947177  0.00400482  0.75340856  1
  Fe  Fe64  1  0.50128341  0.74885031  0.24921149  1
  Fe  Fe65  1  -0.00062149  0.25002699  0.00015767  1
  Fe  Fe66  1  0.25662351  0.49543236  -0.00156117  1
  Fe  Fe67  1  0.24924636  -0.00188088  0.75027774  1
  Fe  Fe68  1  0.75166237  0.49722824  0.50022856  1
  Fe  Fe69  1  0.50373739  0.75068637  0.50335479  1
  Fe  Fe70  1  0.37537808  0.37247075  0.37389235  1
  Fe  Fe71  1  0.25190926  0.25385578  -0.00257779  1
  Fe  Fe72  1  0.37776523  0.87135486  0.62995250  1
  Fe  Fe73  1  0.12433826  0.12567565  0.62509949  1
  Fe  Fe74  1  0.12623602  0.12430979  0.87582735  1
  Fe  Fe75  1  0.87061940  0.62694571  0.62718306  1
  Fe  Fe76  1  0.87358772  0.62438367  0.12347218  1
  Fe  Fe77  1  0.74983247  0.75379913  -0.00033766  1
  Fe  Fe78  1  0.87310510  0.12542475  0.62480054  1
  Fe  Fe79  1  0.25078264  0.00057519  0.25008705  1
  Fe  Fe80  1  0.37610535  0.12526519  0.37761513  1
  Fe  Fe81  1  0.75160633  0.49724196  -0.00207651  1
  Fe  Fe82  1  0.87589241  0.87653177  0.12845371  1
  Fe  Fe83  1  0.87323052  0.62675345  0.37408311  1
  Fe  Fe84  1  0.87652250  0.37503658  0.62988183  1
  Fe  Fe85  1  0.37504825  0.12704296  0.62620151  1
  Fe  Fe86  1  0.37583717  0.86934650  0.87050336  1
  Fe  Fe87  1  0.74785282  0.25160596  0.75238632  1
  Fe  Fe88  1  -0.00057139  0.24628426  0.24681546  1
  Fe  Fe89  1  0.12088871  0.37913910  0.87186563  1
  Co  Co90  1  0.12820097  0.12512450  0.12102440  1
  Co  Co91  1  0.62642817  0.12193737  0.11536571  1
  Co  Co92  1  -0.00332572  0.50046671  0.00168296  1
  Co  Co93  1  0.50514896  0.24340611  0.75173578  1
  Co  Co94  1  0.62960827  0.62239300  0.62110944  1
  Co  Co95  1  0.75379866  -0.00608117  0.49914566  1
  Co  Co96  1  0.00150358  0.74558243  0.24788275  1
  Co  Co97  1  0.62468355  0.12610031  0.38212615  1
  Co  Co98  1  0.37332186  0.62931867  0.87692729  1
  Co  Co99  1  0.87642370  0.87209121  0.63278766  1
  Co  Co100  1  0.74983187  0.49926498  0.75159187  1
  Co  Co101  1  0.12251286  0.37547882  0.62828865  1
  Co  Co102  1  0.62342850  0.87923368  0.62919991  1
  Co  Co103  1  0.38039733  0.37328286  0.63014910  1
  Co  Co104  1  0.50169141  0.00435378  0.25066573  1
  Co  Co105  1  0.87569890  0.87403738  0.36870793  1
  Co  Co106  1  0.87171471  0.62586289  0.87468309  1
  Co  Co107  1  0.25081867  0.25203253  0.50302834  1
  Co  Co108  1  0.87521001  0.12757775  0.37835106  1
  Co  Co109  1  0.12805841  0.61799346  0.87818024  1
  Co  Co110  1  0.49538090  -0.00136026  -0.00535159  1
  Co  Co111  1  0.49595912  0.49929631  0.00096619  1
  Co  Co112  1  0.74979091  0.25740458  -0.00384413  1
  Co  Co113  1  -0.00111180  0.00459228  0.75109325  1
  Co  Co114  1  0.38047661  0.37462677  0.86806639  1
  Co  Co115  1  0.24406135  0.75011935  0.75179414  1
  Co  Co116  1  -0.00070293  0.50646621  0.74678646  1
  Co  Co117  1  0.86907803  0.12504743  0.11988996  1
  Co  Co118  1  0.62494827  0.87455425  0.37248472  1
  Co  Co119  1  -0.00066792  0.24678359  0.75134857  1
  Co  Co120  1  0.37592750  0.37183644  0.12829078  1
  Co  Co121  1  0.75289668  -0.00778602  -0.00276388  1
  Co  Co122  1  0.37171489  0.63013710  0.62336170  1
  Co  Co123  1  0.74952039  0.50032956  0.24984791  1
  Co  Co124  1  0.12245795  0.87861675  0.87509936  1
  Co  Co125  1  0.37096105  0.12757120  0.87432202  1
  Co  Co126  1  0.50513862  0.74264037  0.74867288  1
  Co  Co127  1  0.62692610  0.62256843  0.88052016  1
