# generated using pymatgen
data_Fe45Co19
_symmetry_space_group_name_H-M   'P 1'
_cell_length_a   11.41483824
_cell_length_b   11.41390823
_cell_length_c   11.41370238
_cell_angle_alpha   90.00816352
_cell_angle_beta   90.00117879
_cell_angle_gamma   89.99821346
_symmetry_Int_Tables_number   1
_chemical_formula_structural   Fe45Co19
_chemical_formula_sum   'Fe90 Co38'
_cell_volume   1487.06748301
_cell_formula_units_Z   2
loop_
 _symmetry_equiv_pos_site_id
 _symmetry_equiv_pos_as_xyz
  1  'x, y, z'
loop_
 _atom_site_type_symbol
 _atom_site_label
 _atom_site_symmetry_multiplicity
 _atom_site_fract_x
 _atom_site_fract_y
 _atom_site_fract_z
 _atom_site_occupancy
  Fe  Fe0  1  0.00154361  0.74905138  0.75184615  1
  Fe  Fe1  1  0.75416304  0.49651179  0.24791341  1
  Fe  Fe2  1  0.00165352  0.75091159  -0.00161332  1
  Fe  Fe3  1  0.74725517  0.25175863  0.00046640  1
  Fe  Fe4  1  0.87245724  0.87170811  0.62463553  1
  Fe  Fe5  1  -0.00172637  0.49937284  0.74809642  1
  Fe  Fe6  1  0.62472336  0.87099043  0.12304041  1
  Fe  Fe7  1  0.25043360  0.49891907  0.00271836  1
  Fe  Fe8  1  0.87451824  0.62439326  0.87703491  1
  Fe  Fe9  1  0.37450278  0.87542333  0.37669280  1
  Fe  Fe10  1  0.62548757  0.62458839  0.87587103  1
  Fe  Fe11  1  0.74967555  -0.00207483  0.00112676  1
  Fe  Fe12  1  -0.00017794  -0.00004371  0.00149699  1
  Fe  Fe13  1  0.49964822  0.00023431  0.00061801  1
  Fe  Fe14  1  0.87205685  0.12775324  0.62314817  1
  Fe  Fe15  1  0.62492739  0.12403517  0.87506211  1
  Fe  Fe16  1  0.12670226  0.62432395  0.62516181  1
  Fe  Fe17  1  0.24803939  0.74906847  0.75278803  1
  Fe  Fe18  1  0.12649835  0.87550630  0.62313158  1
  Fe  Fe19  1  0.62246060  0.37389410  0.12909699  1
  Fe  Fe20  1  0.12402954  0.62407336  0.12722240  1
  Fe  Fe21  1  0.87049086  0.12470747  0.37328630  1
  Fe  Fe22  1  0.25141804  0.25078762  0.25208230  1
  Fe  Fe23  1  0.50057025  0.24932615  0.00103307  1
  Fe  Fe24  1  0.25026163  0.00212896  0.25235957  1
  Fe  Fe25  1  0.25042431  0.25011718  0.75236544  1
  Fe  Fe26  1  0.87530369  0.62076778  0.37673016  1
  Fe  Fe27  1  -0.00249028  -0.00069831  0.25069048  1
  Fe  Fe28  1  0.50026805  0.00059021  0.49959408  1
  Fe  Fe29  1  0.25112325  0.49983327  0.75046909  1
  Fe  Fe30  1  0.87354535  0.37687024  0.62204658  1
  Fe  Fe31  1  0.74896954  0.50002330  0.00273036  1
  Fe  Fe32  1  0.12381562  0.61947339  0.37253000  1
  Fe  Fe33  1  0.25221085  0.49968742  0.49661000  1
  Fe  Fe34  1  0.37419414  0.62611098  0.12511884  1
  Fe  Fe35  1  0.37486183  0.12578453  0.12511872  1
  Fe  Fe36  1  0.74504389  0.25650776  0.49510582  1
  Fe  Fe37  1  -0.00227635  0.00099301  0.74877122  1
  Fe  Fe38  1  0.25159073  0.00096561  0.74988622  1
  Fe  Fe39  1  0.25093184  0.24879691  0.49504190  1
  Fe  Fe40  1  -0.00114156  0.00114277  0.49845250  1
  Fe  Fe41  1  -0.00047228  0.25104954  0.75012737  1
  Fe  Fe42  1  0.12666893  0.87501822  0.12521953  1
  Fe  Fe43  1  0.75102948  -0.00229449  0.49955568  1
  Fe  Fe44  1  0.50099929  0.50139835  0.00392786  1
  Fe  Fe45  1  0.37236874  0.87303001  0.62143931  1
  Fe  Fe46  1  0.37421609  0.87564471  0.87704525  1
  Fe  Fe47  1  0.50105811  -0.00054405  0.74987666  1
  Fe  Fe48  1  0.62834913  0.87382046  0.62680651  1
  Fe  Fe49  1  0.87422731  0.87198337  0.12615209  1
  Fe  Fe50  1  0.37445683  0.87457658  0.12537242  1
  Fe  Fe51  1  0.25111006  0.74758086  0.25348574  1
  Fe  Fe52  1  0.62705815  0.62345507  0.62752682  1
  Fe  Fe53  1  0.24976059  0.24939388  -0.00039719  1
  Fe  Fe54  1  0.12643624  0.37442638  0.62303439  1
  Fe  Fe55  1  0.12474648  0.12278110  0.87540188  1
  Fe  Fe56  1  0.12552761  0.12566296  0.62329113  1
  Fe  Fe57  1  0.37551230  0.62331058  0.87599430  1
  Fe  Fe58  1  0.24818563  0.74930303  -0.00136289  1
  Fe  Fe59  1  0.38192321  0.37450399  0.37040237  1
  Fe  Fe60  1  0.37534258  0.62682668  0.62355672  1
  Fe  Fe61  1  -0.00107166  0.49986017  0.00441058  1
  Fe  Fe62  1  0.00112626  0.25125970  0.49705748  1
  Fe  Fe63  1  0.62512158  0.62146757  0.37120247  1
  Fe  Fe64  1  -0.00394083  0.25468700  0.25156964  1
  Fe  Fe65  1  0.50363035  0.00405121  0.24959471  1
  Fe  Fe66  1  0.87375709  0.12663246  0.87626472  1
  Fe  Fe67  1  0.87239983  0.87491735  0.87273593  1
  Fe  Fe68  1  0.62694847  0.87611777  0.37380363  1
  Fe  Fe69  1  0.50159000  0.49959104  0.50046797  1
  Fe  Fe70  1  0.87226172  0.12788766  0.12606575  1
  Fe  Fe71  1  0.50063524  0.25058753  0.75010983  1
  Fe  Fe72  1  -0.00118474  0.74957573  0.25175428  1
  Fe  Fe73  1  0.37586294  0.12645330  0.62278300  1
  Fe  Fe74  1  0.49876182  0.74813332  0.24989693  1
  Fe  Fe75  1  0.12496672  0.37503951  0.12723187  1
  Fe  Fe76  1  0.37783325  0.37550727  0.87608445  1
  Fe  Fe77  1  0.74951719  0.25223192  0.75157838  1
  Fe  Fe78  1  0.12333403  0.37719339  0.87572381  1
  Fe  Fe79  1  0.87586652  0.37453687  0.87803038  1
  Fe  Fe80  1  0.00017537  0.74869872  0.49880662  1
  Fe  Fe81  1  0.75231218  0.75048815  0.25112736  1
  Fe  Fe82  1  0.50128006  0.75052348  0.75208934  1
  Fe  Fe83  1  0.62454811  0.37790217  0.62875286  1
  Fe  Fe84  1  0.87057716  0.62404973  0.62269299  1
  Fe  Fe85  1  0.12518630  0.87629436  0.37627951  1
  Fe  Fe86  1  0.50319254  0.74903288  0.49867886  1
  Fe  Fe87  1  0.12369395  0.12577156  0.12749140  1
  Fe  Fe88  1  0.62629188  0.12583265  0.62273416  1
  Fe  Fe89  1  0.37602626  0.37477203  0.62504223  1
  Co  Co90  1  0.12616053  0.87835924  0.87531666  1
  Co  Co91  1  0.62504627  0.87598821  0.87624106  1
  Co  Co92  1  0.12413690  0.37794497  0.37344632  1
  Co  Co93  1  0.25051923  0.00237203  0.00213199  1
  Co  Co94  1  0.12199255  0.12608447  0.37264485  1
  Co  Co95  1  0.25397325  0.49939055  0.25033527  1
  Co  Co96  1  0.87659152  0.37884256  0.37942026  1
  Co  Co97  1  0.74402061  0.49789114  0.49827058  1
  Co  Co98  1  0.62790125  0.62779726  0.12725959  1
  Co  Co99  1  0.62830652  0.12366196  0.37751384  1
  Co  Co100  1  0.75207967  0.49896826  0.75274105  1
  Co  Co101  1  0.00289724  0.24851663  0.00053521  1
  Co  Co102  1  0.75018995  0.75023840  -0.00128470  1
  Co  Co103  1  0.49669649  0.50481365  0.24479979  1
  Co  Co104  1  0.50390913  0.24223417  0.24912682  1
  Co  Co105  1  0.87422990  0.37089594  0.12105336  1
  Co  Co106  1  0.74832788  -0.00170995  0.24717340  1
  Co  Co107  1  0.62292381  0.37641791  0.87548639  1
  Co  Co108  1  0.87400475  0.87517726  0.37545205  1
  Co  Co109  1  0.37803545  0.37207111  0.12654285  1
  Co  Co110  1  0.61821346  0.37752384  0.36801799  1
  Co  Co111  1  0.24944255  0.00349480  0.49771729  1
  Co  Co112  1  0.74861444  0.74846889  0.75199241  1
  Co  Co113  1  0.87514742  0.62811646  0.12504636  1
  Co  Co114  1  0.12347460  0.62118054  0.87565598  1
  Co  Co115  1  -0.00452718  0.49668165  0.24614975  1
  Co  Co116  1  0.00236979  0.50015464  0.50316086  1
  Co  Co117  1  0.74784906  0.74853912  0.49713373  1
  Co  Co118  1  0.24815387  0.74739587  0.49653142  1
  Co  Co119  1  0.49885549  0.74803893  0.00014462  1
  Co  Co120  1  0.62854038  0.12569932  0.12293249  1
  Co  Co121  1  0.50240817  0.25232723  0.50019656  1
  Co  Co122  1  0.74942968  0.25356268  0.25233871  1
  Co  Co123  1  0.37812414  0.62464536  0.37678715  1
  Co  Co124  1  0.75015225  0.00181227  0.74917786  1
  Co  Co125  1  0.37703965  0.12587506  0.87490362  1
  Co  Co126  1  0.37880980  0.12500325  0.37582832  1
  Co  Co127  1  0.49876784  0.50118515  0.74998353  1
