# generated using pymatgen
data_Fe45Co19
_symmetry_space_group_name_H-M   'P 1'
_cell_length_a   11.41518134
_cell_length_b   11.41521712
_cell_length_c   11.41432571
_cell_angle_alpha   90.00571905
_cell_angle_beta   89.99828954
_cell_angle_gamma   89.99883903
_symmetry_Int_Tables_number   1
_chemical_formula_structural   Fe45Co19
_chemical_formula_sum   'Fe90 Co38'
_cell_volume   1487.36394534
_cell_formula_units_Z   2
loop_
 _symmetry_equiv_pos_site_id
 _symmetry_equiv_pos_as_xyz
  1  'x, y, z'
loop_
 _atom_site_type_symbol
 _atom_site_label
 _atom_site_symmetry_multiplicity
 _atom_site_fract_x
 _atom_site_fract_y
 _atom_site_fract_z
 _atom_site_occupancy
  Fe  Fe0  1  0.12473696  0.87668054  0.12456623  1
  Fe  Fe1  1  0.62416282  0.37469595  0.87607191  1
  Fe  Fe2  1  0.62568278  0.62465521  0.87591923  1
  Fe  Fe3  1  0.50039896  0.50002728  0.25382186  1
  Fe  Fe4  1  0.24949993  0.75144691  0.49998901  1
  Fe  Fe5  1  0.00002386  0.50005980  -0.00023143  1
  Fe  Fe6  1  0.50081131  -0.00262309  0.74746398  1
  Fe  Fe7  1  0.12498697  0.37487468  0.62356587  1
  Fe  Fe8  1  0.00404165  0.00250625  -0.00264042  1
  Fe  Fe9  1  0.50409522  0.00111091  0.49985164  1
  Fe  Fe10  1  0.50037191  0.74949187  0.49730575  1
  Fe  Fe11  1  -0.00065675  0.75164983  0.25006407  1
  Fe  Fe12  1  0.87601667  0.62423196  0.62501886  1
  Fe  Fe13  1  -0.00039088  0.24919784  0.74981213  1
  Fe  Fe14  1  0.12475960  0.62616862  0.12531561  1
  Fe  Fe15  1  0.37332625  0.87781944  0.37769690  1
  Fe  Fe16  1  0.00079427  0.00037447  0.49950183  1
  Fe  Fe17  1  0.37746995  0.62731381  0.12798192  1
  Fe  Fe18  1  0.75104257  0.75043686  0.49871491  1
  Fe  Fe19  1  0.74687639  0.25265180  0.50341849  1
  Fe  Fe20  1  0.37675704  0.37127610  0.12965120  1
  Fe  Fe21  1  -0.00108054  0.49890864  0.25124772  1
  Fe  Fe22  1  0.62428670  0.12487916  0.87481075  1
  Fe  Fe23  1  0.74749963  0.25132170  0.74737150  1
  Fe  Fe24  1  0.87200474  0.12208590  0.62576453  1
  Fe  Fe25  1  0.87139138  0.12555600  0.37583404  1
  Fe  Fe26  1  0.25114765  0.49906952  0.25138542  1
  Fe  Fe27  1  0.12738127  0.12434192  0.62805462  1
  Fe  Fe28  1  0.75016588  0.00095493  0.25006173  1
  Fe  Fe29  1  0.87615375  0.12407742  0.12478412  1
  Fe  Fe30  1  0.62350287  0.87424786  0.87476011  1
  Fe  Fe31  1  0.49943377  0.74944911  0.00071451  1
  Fe  Fe32  1  0.12727819  0.37308515  0.87431726  1
  Fe  Fe33  1  0.25331793  0.50015203  0.49749754  1
  Fe  Fe34  1  0.37698099  0.62703922  0.62428611  1
  Fe  Fe35  1  -0.00082870  0.24936214  0.49986807  1
  Fe  Fe36  1  0.74876038  -0.00030500  -0.00113335  1
  Fe  Fe37  1  0.37496790  0.87626693  0.12577419  1
  Fe  Fe38  1  0.37409541  0.62774122  0.87413708  1
  Fe  Fe39  1  0.37314615  0.87215899  0.87413750  1
  Fe  Fe40  1  0.87328487  0.12437026  0.87368116  1
  Fe  Fe41  1  0.24861220  0.24692526  0.00195182  1
  Fe  Fe42  1  0.37453433  0.12573506  0.12946876  1
  Fe  Fe43  1  0.12496109  0.12374273  0.37396220  1
  Fe  Fe44  1  0.37462447  0.12222036  0.62275507  1
  Fe  Fe45  1  0.12624813  0.87697786  0.62675706  1
  Fe  Fe46  1  -0.00106912  0.24919181  0.25092270  1
  Fe  Fe47  1  0.50026834  0.24834000  0.00188951  1
  Fe  Fe48  1  0.74986564  0.75058505  0.00271051  1
  Fe  Fe49  1  0.74936576  0.49686555  0.74683833  1
  Fe  Fe50  1  0.87665449  0.87732423  0.12515454  1
  Fe  Fe51  1  0.12681131  0.87333373  0.87454015  1
  Fe  Fe52  1  0.74925038  0.75124201  0.74976471  1
  Fe  Fe53  1  0.49767245  0.00111797  -0.00012654  1
  Fe  Fe54  1  0.49963056  0.24975158  0.74867391  1
  Fe  Fe55  1  0.50034225  0.50029587  0.00163349  1
  Fe  Fe56  1  0.62368883  0.87475105  0.12580852  1
  Fe  Fe57  1  0.87391139  0.37439886  0.87629467  1
  Fe  Fe58  1  0.24755722  0.00128393  0.25180816  1
  Fe  Fe59  1  0.74812004  0.49854229  0.00641802  1
  Fe  Fe60  1  0.37400859  0.37376946  0.87608960  1
  Fe  Fe61  1  0.87276772  0.62346395  0.37350756  1
  Fe  Fe62  1  0.25157861  0.24850961  0.49767801  1
  Fe  Fe63  1  0.37844472  0.37579195  0.62070425  1
  Fe  Fe64  1  0.12374467  0.62388342  0.62403805  1
  Fe  Fe65  1  0.86879290  0.37486829  0.37299398  1
  Fe  Fe66  1  0.50233671  0.24825409  0.49454244  1
  Fe  Fe67  1  -0.00034629  0.75154817  0.50044679  1
  Fe  Fe68  1  0.50237320  0.00247551  0.25227418  1
  Fe  Fe69  1  0.62700727  0.87510463  0.37458912  1
  Fe  Fe70  1  0.62362424  0.62488732  0.62400651  1
  Fe  Fe71  1  0.25126856  0.49961121  0.74922616  1
  Fe  Fe72  1  0.00270296  0.24732839  -0.00082323  1
  Fe  Fe73  1  0.62921567  0.62350845  0.37207069  1
  Fe  Fe74  1  0.49942548  0.50022666  0.75081811  1
  Fe  Fe75  1  0.12511911  0.62661127  0.37537791  1
  Fe  Fe76  1  0.25122967  0.50090908  0.00194237  1
  Fe  Fe77  1  0.37227367  0.12511028  0.87320729  1
  Fe  Fe78  1  0.12440102  0.37341175  0.12644827  1
  Fe  Fe79  1  0.87667311  0.87506239  0.87341626  1
  Fe  Fe80  1  0.25103592  0.75163149  0.25065397  1
  Fe  Fe81  1  -0.00310387  0.49814946  0.49839490  1
  Fe  Fe82  1  0.87492543  0.62602529  0.87539106  1
  Fe  Fe83  1  0.87270272  0.87800657  0.62634413  1
  Fe  Fe84  1  0.12606657  0.37497021  0.37586280  1
  Fe  Fe85  1  0.74804150  0.25104931  0.00429318  1
  Fe  Fe86  1  -0.00025411  0.49896188  0.75068205  1
  Fe  Fe87  1  0.87606997  0.87644295  0.37505700  1
  Fe  Fe88  1  0.87556213  0.62607574  0.12569556  1
  Fe  Fe89  1  0.12529869  0.62864086  0.87523250  1
  Co  Co90  1  0.87758937  0.37423001  0.62498834  1
  Co  Co91  1  0.50106874  0.75109952  0.74949197  1
  Co  Co92  1  0.74878326  -0.00160781  0.49916338  1
  Co  Co93  1  0.74724870  0.24865982  0.24484805  1
  Co  Co94  1  -0.00067055  0.00100161  0.25232420  1
  Co  Co95  1  0.61883936  0.37651212  0.62341372  1
  Co  Co96  1  0.63087518  0.12521745  0.37591651  1
  Co  Co97  1  0.49927529  0.75290532  0.25432673  1
  Co  Co98  1  0.87896766  0.37315415  0.12493495  1
  Co  Co99  1  0.49936531  0.50286898  0.49432491  1
  Co  Co100  1  0.74924086  0.49891648  0.24332665  1
  Co  Co101  1  0.62561812  0.12429046  0.62528056  1
  Co  Co102  1  0.25159620  0.74941754  0.00285562  1
  Co  Co103  1  0.24974203  0.74981805  0.74701097  1
  Co  Co104  1  0.25340675  -0.00231373  0.75012817  1
  Co  Co105  1  0.12464037  0.87418903  0.37410381  1
  Co  Co106  1  0.37245336  0.62772315  0.37421252  1
  Co  Co107  1  0.62606081  0.87322177  0.62355100  1
  Co  Co108  1  0.37374213  0.12203516  0.37442462  1
  Co  Co109  1  0.24984625  0.00207697  -0.00040053  1
  Co  Co110  1  0.74638664  -0.00080968  0.75140589  1
  Co  Co111  1  0.00031038  0.00109594  0.75104741  1
  Co  Co112  1  0.75025739  0.49860491  0.50360687  1
  Co  Co113  1  0.61934026  0.37320777  0.12755346  1
  Co  Co114  1  0.50462771  0.24555778  0.25516307  1
  Co  Co115  1  0.37613046  0.37259029  0.37364637  1
  Co  Co116  1  0.62163172  0.62898985  0.12779038  1
  Co  Co117  1  -0.00075237  0.75109345  0.00122008  1
  Co  Co118  1  0.62401036  0.12191763  0.12282546  1
  Co  Co119  1  0.12473669  0.12422875  0.12822372  1
  Co  Co120  1  0.24651434  0.00115213  0.49945645  1
  Co  Co121  1  -0.00007799  0.75049947  0.74823347  1
  Co  Co122  1  0.75141623  0.75276575  0.24926408  1
  Co  Co123  1  0.12938450  0.12623031  0.86983378  1
  Co  Co124  1  0.24829635  0.24935527  0.25324273  1
  Co  Co125  1  0.37607087  0.87500627  0.62097844  1
  Co  Co126  1  0.25374501  0.25230251  0.74635152  1
  Co  Co127  1  0.62854823  0.37707052  0.37432939  1
