# generated using pymatgen
data_Fe45Co19
_symmetry_space_group_name_H-M   'P 1'
_cell_length_a   11.41572911
_cell_length_b   11.41589859
_cell_length_c   11.41527513
_cell_angle_alpha   89.99593474
_cell_angle_beta   90.00028807
_cell_angle_gamma   90.00645329
_symmetry_Int_Tables_number   1
_chemical_formula_structural   Fe45Co19
_chemical_formula_sum   'Fe90 Co38'
_cell_volume   1487.64784075
_cell_formula_units_Z   2
loop_
 _symmetry_equiv_pos_site_id
 _symmetry_equiv_pos_as_xyz
  1  'x, y, z'
loop_
 _atom_site_type_symbol
 _atom_site_label
 _atom_site_symmetry_multiplicity
 _atom_site_fract_x
 _atom_site_fract_y
 _atom_site_fract_z
 _atom_site_occupancy
  Fe  Fe0  1  0.87482400  0.62255072  0.62285130  1
  Fe  Fe1  1  0.87257922  0.37889681  0.12066999  1
  Fe  Fe2  1  0.00112030  0.74939875  0.49875876  1
  Fe  Fe3  1  0.49956461  -0.00128697  0.25235018  1
  Fe  Fe4  1  -0.00053556  0.75154134  0.00203823  1
  Fe  Fe5  1  0.12321028  0.87775541  0.87523750  1
  Fe  Fe6  1  0.24939106  0.50220944  0.50136152  1
  Fe  Fe7  1  0.49663257  0.75528767  0.75164748  1
  Fe  Fe8  1  -0.00126598  0.49658156  0.75246859  1
  Fe  Fe9  1  -0.00194763  0.75110863  0.74958791  1
  Fe  Fe10  1  0.62528622  0.12866474  0.37155662  1
  Fe  Fe11  1  0.00033309  0.49724495  0.49826813  1
  Fe  Fe12  1  0.49860921  0.75146447  0.25195478  1
  Fe  Fe13  1  0.87240248  0.37522049  0.62298169  1
  Fe  Fe14  1  0.25234699  0.24990972  0.25084685  1
  Fe  Fe15  1  0.87597932  0.12332118  0.87476489  1
  Fe  Fe16  1  0.24955287  0.49936432  -0.00288706  1
  Fe  Fe17  1  0.87628860  0.62111057  0.87926590  1
  Fe  Fe18  1  0.12348559  0.62533969  0.12633102  1
  Fe  Fe19  1  0.12554084  0.37420384  0.62534876  1
  Fe  Fe20  1  0.50029697  -0.00324856  0.74887363  1
  Fe  Fe21  1  0.62234938  0.37270546  0.87284658  1
  Fe  Fe22  1  0.37243673  0.87621009  0.38207330  1
  Fe  Fe23  1  0.37462576  0.37529944  0.37796678  1
  Fe  Fe24  1  0.24667924  0.00029453  0.00318779  1
  Fe  Fe25  1  0.12403874  0.62366499  0.62703282  1
  Fe  Fe26  1  0.37767166  0.62863329  0.62413483  1
  Fe  Fe27  1  0.62507867  0.12354877  0.87407934  1
  Fe  Fe28  1  0.25379336  0.49882402  0.75202474  1
  Fe  Fe29  1  0.62321626  0.62752135  0.87222994  1
  Fe  Fe30  1  0.74711402  0.74242977  0.49751563  1
  Fe  Fe31  1  0.37616187  0.37254534  0.12179582  1
  Fe  Fe32  1  -0.00264150  0.00152726  0.49757804  1
  Fe  Fe33  1  0.12150488  0.12380840  0.13023736  1
  Fe  Fe34  1  0.37645413  0.62527017  0.37692946  1
  Fe  Fe35  1  0.74773473  0.25032433  0.00213824  1
  Fe  Fe36  1  0.62450578  0.12579635  0.62392226  1
  Fe  Fe37  1  0.12446775  0.62456891  0.87407827  1
  Fe  Fe38  1  0.25140746  0.75049309  0.25145836  1
  Fe  Fe39  1  0.74970593  0.00208426  0.00288621  1
  Fe  Fe40  1  0.75244016  0.50330423  0.24933698  1
  Fe  Fe41  1  0.75066377  0.74767819  0.00139204  1
  Fe  Fe42  1  0.37401269  0.87560430  0.12401742  1
  Fe  Fe43  1  0.49729911  0.49838610  0.24880780  1
  Fe  Fe44  1  -0.00406998  0.75132928  0.25095128  1
  Fe  Fe45  1  -0.00007272  0.25173468  0.00016781  1
  Fe  Fe46  1  -0.00330340  0.25249651  0.75154719  1
  Fe  Fe47  1  0.75191641  0.00041413  0.74772749  1
  Fe  Fe48  1  0.25165236  0.49977793  0.24976284  1
  Fe  Fe49  1  0.87233215  0.87637352  0.12764637  1
  Fe  Fe50  1  0.12043483  0.12638022  0.62603671  1
  Fe  Fe51  1  0.25093719  -0.00060496  0.74693496  1
  Fe  Fe52  1  0.62902161  0.87227878  0.37320771  1
  Fe  Fe53  1  0.12715390  0.37475668  0.12565916  1
  Fe  Fe54  1  0.12258320  0.12645754  0.37085267  1
  Fe  Fe55  1  0.37946849  0.12230716  0.62076986  1
  Fe  Fe56  1  0.50256314  -0.00120498  0.00016562  1
  Fe  Fe57  1  0.50032138  0.75235446  -0.00203676  1
  Fe  Fe58  1  0.12549225  0.87573566  0.62336394  1
  Fe  Fe59  1  0.62322343  0.12720991  0.12960204  1
  Fe  Fe60  1  0.12156172  0.12351663  0.87353515  1
  Fe  Fe61  1  0.50149265  0.49904181  -0.00107770  1
  Fe  Fe62  1  0.37661627  0.12403303  0.37721740  1
  Fe  Fe63  1  0.75357381  0.74994921  0.75155874  1
  Fe  Fe64  1  0.50503530  0.50298228  0.50226471  1
  Fe  Fe65  1  0.62427848  0.37385016  0.62698940  1
  Fe  Fe66  1  0.74970300  0.50033131  0.75083532  1
  Fe  Fe67  1  0.87454503  0.87865238  0.87652509  1
  Fe  Fe68  1  0.24882008  0.24880022  -0.00151709  1
  Fe  Fe69  1  0.62401460  0.62548589  0.12717607  1
  Fe  Fe70  1  0.24985305  0.24864560  0.50087732  1
  Fe  Fe71  1  0.62687735  0.87371205  0.12668515  1
  Fe  Fe72  1  0.37703653  0.12401034  0.87664090  1
  Fe  Fe73  1  0.24884118  0.75060817  -0.00042121  1
  Fe  Fe74  1  0.37524580  0.62615363  0.12318940  1
  Fe  Fe75  1  0.75133121  0.24936111  0.49807105  1
  Fe  Fe76  1  0.75091485  0.00396723  0.49716199  1
  Fe  Fe77  1  -0.00254610  0.25160660  0.49592184  1
  Fe  Fe78  1  0.25231296  0.75251625  0.74962624  1
  Fe  Fe79  1  0.62664113  0.87270186  0.62404635  1
  Fe  Fe80  1  -0.00096365  0.49654617  0.25110519  1
  Fe  Fe81  1  0.87719163  0.12432449  0.13093327  1
  Fe  Fe82  1  0.12422804  0.62318521  0.37356468  1
  Fe  Fe83  1  0.87335987  0.87503077  0.62057784  1
  Fe  Fe84  1  0.37728975  0.12530272  0.12525127  1
  Fe  Fe85  1  0.62644627  0.37568986  0.37214348  1
  Fe  Fe86  1  0.75136159  0.24896526  0.75024269  1
  Fe  Fe87  1  0.12816478  0.87648214  0.37512842  1
  Fe  Fe88  1  0.37856476  0.37405685  0.62462955  1
  Fe  Fe89  1  0.25340672  0.24916709  0.74966669  1
  Co  Co90  1  0.62455731  0.62856923  0.63154742  1
  Co  Co91  1  0.49906103  0.24577834  0.74930684  1
  Co  Co92  1  0.50244974  0.25167691  0.49876508  1
  Co  Co93  1  0.87708029  0.62051121  0.12201703  1
  Co  Co94  1  0.62867974  0.87592905  0.87536346  1
  Co  Co95  1  0.50585465  -0.00126684  0.49771579  1
  Co  Co96  1  0.37803175  0.37213918  0.87600473  1
  Co  Co97  1  0.24684975  0.74566522  0.50034245  1
  Co  Co98  1  0.49860739  0.50104512  0.74978741  1
  Co  Co99  1  0.75200878  0.25276106  0.24770328  1
  Co  Co100  1  0.87211434  0.37545451  0.87841492  1
  Co  Co101  1  0.12711726  0.37235220  0.87238951  1
  Co  Co102  1  -0.00167818  0.25798027  0.25011925  1
  Co  Co103  1  -0.00128840  -0.00578995  0.25237195  1
  Co  Co104  1  0.24575821  0.00468201  0.50133093  1
  Co  Co105  1  0.87593926  0.12618621  0.36876952  1
  Co  Co106  1  0.74293620  0.50071532  -0.00181043  1
  Co  Co107  1  0.87003307  0.37699422  0.37651668  1
  Co  Co108  1  -0.00031266  -0.00041813  0.00348455  1
  Co  Co109  1  0.12944199  0.37492221  0.37559600  1
  Co  Co110  1  0.74481971  0.50288063  0.50120426  1
  Co  Co111  1  0.37301199  0.87866865  0.87832300  1
  Co  Co112  1  0.25200000  0.00041776  0.24987648  1
  Co  Co113  1  0.50473151  0.74822529  0.49770016  1
  Co  Co114  1  0.50399421  0.24976890  0.00102824  1
  Co  Co115  1  0.62470119  0.37592197  0.12859564  1
  Co  Co116  1  0.00519868  0.49709287  -0.00146138  1
  Co  Co117  1  0.87585262  0.12632328  0.62453014  1
  Co  Co118  1  0.74838221  0.00093495  0.25076376  1
  Co  Co119  1  0.86957906  0.87371787  0.37687987  1
  Co  Co120  1  0.87658140  0.62321140  0.37752701  1
  Co  Co121  1  0.12608764  0.87417706  0.12729616  1
  Co  Co122  1  0.49721244  0.25181656  0.25084521  1
  Co  Co123  1  0.75365576  0.74496857  0.24841689  1
  Co  Co124  1  0.37472700  0.87524680  0.61755620  1
  Co  Co125  1  -0.00239874  -0.00214756  0.74694480  1
  Co  Co126  1  0.37562294  0.62618659  0.87645802  1
  Co  Co127  1  0.62373029  0.62306680  0.36892436  1
