# generated using pymatgen
data_Fe45Co19
_symmetry_space_group_name_H-M   'P 1'
_cell_length_a   11.41519905
_cell_length_b   11.41494393
_cell_length_c   11.41507966
_cell_angle_alpha   89.99485826
_cell_angle_beta   90.00150930
_cell_angle_gamma   90.00806803
_symmetry_Int_Tables_number   1
_chemical_formula_structural   Fe45Co19
_chemical_formula_sum   'Fe90 Co38'
_cell_volume   1487.42888765
_cell_formula_units_Z   2
loop_
 _symmetry_equiv_pos_site_id
 _symmetry_equiv_pos_as_xyz
  1  'x, y, z'
loop_
 _atom_site_type_symbol
 _atom_site_label
 _atom_site_symmetry_multiplicity
 _atom_site_fract_x
 _atom_site_fract_y
 _atom_site_fract_z
 _atom_site_occupancy
  Fe  Fe0  1  0.37611985  0.37467998  0.62389876  1
  Fe  Fe1  1  0.12479915  0.62560446  0.62400401  1
  Fe  Fe2  1  0.62621302  0.62335394  0.37566449  1
  Fe  Fe3  1  0.87713564  0.87596486  0.62687371  1
  Fe  Fe4  1  0.24922761  0.49692485  0.49602300  1
  Fe  Fe5  1  0.62378438  0.12578897  0.62399531  1
  Fe  Fe6  1  0.62297596  0.87455026  0.12207382  1
  Fe  Fe7  1  0.37552301  0.37546908  0.87367877  1
  Fe  Fe8  1  0.75131609  0.25068859  0.49815999  1
  Fe  Fe9  1  0.49613528  0.74712183  0.00076632  1
  Fe  Fe10  1  0.87581131  0.12459400  0.62685594  1
  Fe  Fe11  1  0.50381769  0.00285474  0.24845999  1
  Fe  Fe12  1  0.49805970  0.00014778  0.49894320  1
  Fe  Fe13  1  0.87461468  0.62600754  0.37447380  1
  Fe  Fe14  1  0.74977884  0.75115096  0.50070141  1
  Fe  Fe15  1  0.62496240  0.62451539  0.87612193  1
  Fe  Fe16  1  0.12012233  0.37395103  0.62261300  1
  Fe  Fe17  1  0.87817225  0.37592641  0.37583893  1
  Fe  Fe18  1  0.49801027  0.25028026  0.00068270  1
  Fe  Fe19  1  0.25273022  0.50276893  0.00275599  1
  Fe  Fe20  1  0.87116325  0.12223103  0.37196455  1
  Fe  Fe21  1  0.00147945  0.50254716  0.25020535  1
  Fe  Fe22  1  0.62397535  0.37549979  0.62284779  1
  Fe  Fe23  1  0.00002702  0.75161191  0.49903477  1
  Fe  Fe24  1  0.49986615  0.74838661  0.50142857  1
  Fe  Fe25  1  0.75078906  0.49917651  -0.00032940  1
  Fe  Fe26  1  0.37460775  0.12640262  0.37358353  1
  Fe  Fe27  1  0.12411781  0.37501639  0.87580295  1
  Fe  Fe28  1  0.37451556  0.87567874  0.12590303  1
  Fe  Fe29  1  0.87986464  0.37519829  0.62506956  1
  Fe  Fe30  1  0.37191061  0.87174242  0.87537065  1
  Fe  Fe31  1  0.37517822  0.12590100  0.12576701  1
  Fe  Fe32  1  0.50020058  0.49889642  0.25159990  1
  Fe  Fe33  1  0.62396078  0.87418673  0.62613151  1
  Fe  Fe34  1  0.24891302  0.25024262  0.75103719  1
  Fe  Fe35  1  0.74984332  0.75074630  0.24793556  1
  Fe  Fe36  1  0.37221779  0.37372236  0.13169997  1
  Fe  Fe37  1  0.75118715  0.25213234  -0.00159761  1
  Fe  Fe38  1  0.24922151  0.25205857  0.49740648  1
  Fe  Fe39  1  0.37506465  0.12730907  0.62577824  1
  Fe  Fe40  1  0.87197556  0.12373983  0.12663218  1
  Fe  Fe41  1  0.87628151  0.12515057  0.87430416  1
  Fe  Fe42  1  0.12596908  0.12504158  0.37647481  1
  Fe  Fe43  1  0.87687947  0.87582263  0.37098408  1
  Fe  Fe44  1  0.00136869  0.75007828  0.75200794  1
  Fe  Fe45  1  0.74963018  -0.00220405  0.50044817  1
  Fe  Fe46  1  0.75125930  0.75098008  0.75292173  1
  Fe  Fe47  1  0.12441823  0.12524311  0.62447020  1
  Fe  Fe48  1  -0.00001046  0.25090981  -0.00050280  1
  Fe  Fe49  1  0.87582283  0.62536270  0.62618305  1
  Fe  Fe50  1  0.00387200  -0.00102621  0.75343248  1
  Fe  Fe51  1  0.87662330  0.62448616  0.12314865  1
  Fe  Fe52  1  0.12560755  0.12473086  0.12261274  1
  Fe  Fe53  1  0.24849279  0.00062690  0.75169797  1
  Fe  Fe54  1  0.75042436  0.50013615  0.75090637  1
  Fe  Fe55  1  0.24584106  0.74819415  0.24478665  1
  Fe  Fe56  1  0.12701316  0.62652772  0.87815341  1
  Fe  Fe57  1  0.50114612  0.49995568  0.74889804  1
  Fe  Fe58  1  0.24747204  0.00034443  0.25010673  1
  Fe  Fe59  1  0.37368209  0.62236457  0.62374727  1
  Fe  Fe60  1  0.00056389  0.75133419  0.00119575  1
  Fe  Fe61  1  0.87840465  0.87742329  0.12786348  1
  Fe  Fe62  1  0.87664389  0.37455625  0.12607382  1
  Fe  Fe63  1  0.00171747  -0.00049714  -0.00198594  1
  Fe  Fe64  1  0.25073223  -0.00041835  -0.00209257  1
  Fe  Fe65  1  0.50169006  0.74911799  0.24939234  1
  Fe  Fe66  1  0.00144811  -0.00088404  0.49831270  1
  Fe  Fe67  1  0.24798519  0.50004921  0.74973853  1
  Fe  Fe68  1  0.75065219  0.49962373  0.24818995  1
  Fe  Fe69  1  0.74784122  -0.00172038  0.75261852  1
  Fe  Fe70  1  0.49793527  0.50067021  0.00196779  1
  Fe  Fe71  1  0.62578044  0.37295791  0.12608140  1
  Fe  Fe72  1  0.12627335  0.37656383  0.12773298  1
  Fe  Fe73  1  0.50092826  0.25201551  0.49522496  1
  Fe  Fe74  1  0.24967140  0.75314892  0.50128974  1
  Fe  Fe75  1  0.74853286  0.25143208  0.75121367  1
  Fe  Fe76  1  0.25114337  0.25023774  -0.00052552  1
  Fe  Fe77  1  0.37423600  0.62511454  0.37399600  1
  Fe  Fe78  1  0.75118950  0.75079087  -0.00036691  1
  Fe  Fe79  1  0.62178381  0.12565677  0.87722739  1
  Fe  Fe80  1  0.12471643  0.62643160  0.37530216  1
  Fe  Fe81  1  0.74841031  -0.00229209  -0.00087582  1
  Fe  Fe82  1  0.87815544  0.37666369  0.87302797  1
  Fe  Fe83  1  0.75082257  0.50110663  0.50165188  1
  Fe  Fe84  1  0.62452429  0.87555574  0.37570606  1
  Fe  Fe85  1  0.49790419  0.74784492  0.74898280  1
  Fe  Fe86  1  0.00015413  0.24703705  0.25002155  1
  Fe  Fe87  1  0.37292845  0.87468903  0.37332214  1
  Fe  Fe88  1  0.49850758  0.00006031  0.75239273  1
  Fe  Fe89  1  0.37209782  0.87615050  0.62493473  1
  Co  Co90  1  0.12492852  0.87621254  0.62437259  1
  Co  Co91  1  0.12540337  0.12756267  0.87661013  1
  Co  Co92  1  0.62817208  0.12334741  0.37601528  1
  Co  Co93  1  0.00169168  0.50226692  0.75061512  1
  Co  Co94  1  0.12598694  0.87412805  0.37373470  1
  Co  Co95  1  0.12208077  0.37401476  0.37308094  1
  Co  Co96  1  0.87574173  0.62400304  0.87746592  1
  Co  Co97  1  0.62192671  0.87243853  0.87599014  1
  Co  Co98  1  0.50393059  0.24801150  0.25112792  1
  Co  Co99  1  0.24770058  0.50281581  0.25187199  1
  Co  Co100  1  0.50130291  0.25179604  0.75093193  1
  Co  Co101  1  0.12899727  0.87066222  0.87724888  1
  Co  Co102  1  0.62634163  0.62567251  0.62586693  1
  Co  Co103  1  0.24982883  0.74838372  0.74713934  1
  Co  Co104  1  0.62742686  0.12737722  0.12160595  1
  Co  Co105  1  0.37517864  0.12729212  0.87401893  1
  Co  Co106  1  0.62313688  0.37665478  0.87704538  1
  Co  Co107  1  0.49734185  -0.00022796  -0.00005909  1
  Co  Co108  1  0.37688853  0.62331223  0.12978079  1
  Co  Co109  1  0.87669230  0.87628130  0.87511763  1
  Co  Co110  1  0.62672897  0.37860287  0.37546444  1
  Co  Co111  1  0.00036108  0.49736219  -0.00053204  1
  Co  Co112  1  0.37303926  0.37374563  0.37056900  1
  Co  Co113  1  -0.00179808  0.24628822  0.49794128  1
  Co  Co114  1  0.12449975  0.87704208  0.12403660  1
  Co  Co115  1  0.74942609  0.25189024  0.25242288  1
  Co  Co116  1  0.62554812  0.62450482  0.12455644  1
  Co  Co117  1  0.25316892  0.74664827  0.00640436  1
  Co  Co118  1  0.37424776  0.62371431  0.87299529  1
  Co  Co119  1  0.74540487  -0.00324480  0.24721491  1
  Co  Co120  1  0.24678951  0.24723026  0.25062458  1
  Co  Co121  1  0.49820651  0.50033233  0.49882779  1
  Co  Co122  1  0.00345167  0.00281408  0.25087545  1
  Co  Co123  1  0.00065935  0.50304246  0.49959180  1
  Co  Co124  1  0.12226752  0.62224878  0.12164382  1
  Co  Co125  1  0.25060538  0.00010339  0.49935054  1
  Co  Co126  1  0.00052955  0.24974211  0.75141707  1
  Co  Co127  1  0.00160851  0.74801110  0.24876154  1
