# generated using pymatgen
data_Fe45Co19
_symmetry_space_group_name_H-M   'P 1'
_cell_length_a   11.41447283
_cell_length_b   11.41571051
_cell_length_c   11.41534227
_cell_angle_alpha   90.00014222
_cell_angle_beta   90.00458385
_cell_angle_gamma   90.01038076
_symmetry_Int_Tables_number   1
_chemical_formula_structural   Fe45Co19
_chemical_formula_sum   'Fe90 Co38'
_cell_volume   1487.46835465
_cell_formula_units_Z   2
loop_
 _symmetry_equiv_pos_site_id
 _symmetry_equiv_pos_as_xyz
  1  'x, y, z'
loop_
 _atom_site_type_symbol
 _atom_site_label
 _atom_site_symmetry_multiplicity
 _atom_site_fract_x
 _atom_site_fract_y
 _atom_site_fract_z
 _atom_site_occupancy
  Fe  Fe0  1  0.87679087  0.37583468  0.87307538  1
  Fe  Fe1  1  0.50062012  -0.00066274  0.74905976  1
  Fe  Fe2  1  0.75205333  0.75116507  -0.00082740  1
  Fe  Fe3  1  0.12824478  0.87373717  0.37690277  1
  Fe  Fe4  1  0.24690648  0.50114851  0.50182901  1
  Fe  Fe5  1  0.25403551  0.75219761  0.25052518  1
  Fe  Fe6  1  0.62729090  0.87162569  0.37499592  1
  Fe  Fe7  1  0.62746063  0.62699246  0.37282924  1
  Fe  Fe8  1  0.37343612  0.37576275  0.87484999  1
  Fe  Fe9  1  -0.00270083  0.74954457  0.25299606  1
  Fe  Fe10  1  0.12769158  0.86984612  0.62370252  1
  Fe  Fe11  1  0.50118893  0.25213414  0.49902953  1
  Fe  Fe12  1  0.62588918  0.12723257  0.62476278  1
  Fe  Fe13  1  0.37292163  0.87202100  0.62291588  1
  Fe  Fe14  1  0.75173736  0.49936339  0.00005739  1
  Fe  Fe15  1  0.24910727  0.50480191  0.74911110  1
  Fe  Fe16  1  0.12054207  0.62334061  0.87535137  1
  Fe  Fe17  1  -0.00025538  0.24980792  -0.00212614  1
  Fe  Fe18  1  0.62446092  0.12542134  0.37413894  1
  Fe  Fe19  1  0.87689665  0.37285408  0.12524747  1
  Fe  Fe20  1  0.37298555  0.12627078  0.62160062  1
  Fe  Fe21  1  0.87597743  0.12291671  0.87182249  1
  Fe  Fe22  1  0.50054839  0.74899002  0.49912079  1
  Fe  Fe23  1  0.87638629  0.12466044  0.12545690  1
  Fe  Fe24  1  0.87638815  0.12596661  0.37855287  1
  Fe  Fe25  1  0.87657060  0.12792348  0.62479404  1
  Fe  Fe26  1  0.50019276  0.25058330  0.74947437  1
  Fe  Fe27  1  0.87730594  0.87541479  0.12523280  1
  Fe  Fe28  1  0.49664645  0.25092297  0.25078884  1
  Fe  Fe29  1  0.74815353  -0.00170092  0.74865518  1
  Fe  Fe30  1  0.00191033  0.00011794  0.25301084  1
  Fe  Fe31  1  0.62602065  0.12575234  0.12652202  1
  Fe  Fe32  1  0.00334544  0.50042971  0.50333529  1
  Fe  Fe33  1  0.75237371  0.24978227  0.25236968  1
  Fe  Fe34  1  0.49911127  0.50027220  0.24881486  1
  Fe  Fe35  1  -0.00074627  0.50076416  0.25025116  1
  Fe  Fe36  1  0.24877456  -0.00106808  0.74663543  1
  Fe  Fe37  1  0.12516370  0.87409871  0.12459946  1
  Fe  Fe38  1  0.37370314  0.37641823  0.62555070  1
  Fe  Fe39  1  0.12396170  0.62524426  0.37495863  1
  Fe  Fe40  1  0.24895181  0.00101261  0.00072235  1
  Fe  Fe41  1  0.87708304  0.62779336  0.62318661  1
  Fe  Fe42  1  0.25040158  0.74835984  -0.00263558  1
  Fe  Fe43  1  0.75307168  0.49838681  0.74738562  1
  Fe  Fe44  1  0.49863643  0.50113794  0.00024181  1
  Fe  Fe45  1  0.00673539  0.25197968  0.50186175  1
  Fe  Fe46  1  0.49918559  0.24961343  0.00020364  1
  Fe  Fe47  1  0.49763358  0.74762337  -0.00038450  1
  Fe  Fe48  1  0.12351965  0.62668160  0.12461958  1
  Fe  Fe49  1  0.24989743  0.49783023  0.24866595  1
  Fe  Fe50  1  0.75297455  0.50134232  0.25094245  1
  Fe  Fe51  1  0.24885766  0.25025095  -0.00003182  1
  Fe  Fe52  1  0.74897505  0.49769160  0.50125193  1
  Fe  Fe53  1  0.49965888  0.00141634  -0.00056804  1
  Fe  Fe54  1  0.74848625  0.75198154  0.74996381  1
  Fe  Fe55  1  0.00360192  -0.00144041  0.50147584  1
  Fe  Fe56  1  0.13122402  0.12665293  0.37455866  1
  Fe  Fe57  1  -0.00006123  0.75183460  0.75384949  1
  Fe  Fe58  1  0.62607379  0.37384910  0.12581381  1
  Fe  Fe59  1  0.87778873  0.62590418  0.12224972  1
  Fe  Fe60  1  0.62676729  0.12597817  0.87451120  1
  Fe  Fe61  1  0.62602276  0.37402482  0.87453194  1
  Fe  Fe62  1  0.62370546  0.87286791  0.12611703  1
  Fe  Fe63  1  0.49518988  -0.00337290  0.25210259  1
  Fe  Fe64  1  0.50005802  0.75084635  0.75058590  1
  Fe  Fe65  1  0.74925642  -0.00088655  -0.00004695  1
  Fe  Fe66  1  0.87739211  0.37487221  0.37778478  1
  Fe  Fe67  1  0.49996019  0.49965098  0.75046598  1
  Fe  Fe68  1  0.12274835  0.37308009  0.12684696  1
  Fe  Fe69  1  0.74878205  0.00042127  0.50103378  1
  Fe  Fe70  1  0.87311013  0.87368743  0.37700024  1
  Fe  Fe71  1  0.50165268  0.49897901  0.49935328  1
  Fe  Fe72  1  0.62479394  0.62670928  0.12727793  1
  Fe  Fe73  1  0.00043205  -0.00211150  -0.00173562  1
  Fe  Fe74  1  0.24774132  0.24930953  0.74793336  1
  Fe  Fe75  1  0.62628807  0.62480999  0.87411389  1
  Fe  Fe76  1  0.62482921  0.62428583  0.62514835  1
  Fe  Fe77  1  0.37292192  0.12440630  0.12728019  1
  Fe  Fe78  1  0.37343317  0.12467297  0.87341078  1
  Fe  Fe79  1  0.37482392  0.62509791  0.37378315  1
  Fe  Fe80  1  0.12297515  0.37742987  0.87159040  1
  Fe  Fe81  1  0.12470859  0.12567162  0.12814116  1
  Fe  Fe82  1  0.37247673  0.37455842  0.37610095  1
  Fe  Fe83  1  0.12276184  0.12222054  0.87119820  1
  Fe  Fe84  1  0.49922466  -0.00036210  0.49888812  1
  Fe  Fe85  1  0.75108949  -0.00094158  0.25045452  1
  Fe  Fe86  1  0.37426762  0.62607987  0.62584901  1
  Fe  Fe87  1  0.87477035  0.87400679  0.62379389  1
  Fe  Fe88  1  0.37395976  0.87586392  0.87481029  1
  Fe  Fe89  1  0.24984600  0.50049907  0.00109136  1
  Co  Co90  1  0.37133789  0.12652668  0.37717063  1
  Co  Co91  1  0.37256232  0.87504993  0.38040970  1
  Co  Co92  1  0.12417921  0.12412021  0.62613559  1
  Co  Co93  1  0.25167152  0.25236512  0.24857468  1
  Co  Co94  1  0.24699450  0.25404486  0.50315765  1
  Co  Co95  1  -0.00318065  0.50168606  0.74637754  1
  Co  Co96  1  0.75491840  0.74881268  0.24926997  1
  Co  Co97  1  0.87701080  0.37107032  0.62242493  1
  Co  Co98  1  0.00157779  0.25038663  0.74954145  1
  Co  Co99  1  0.25048771  0.74482681  0.49874727  1
  Co  Co100  1  0.74679201  0.25150337  0.49874639  1
  Co  Co101  1  0.37524062  0.37614357  0.12297263  1
  Co  Co102  1  -0.00085776  0.24823057  0.25197164  1
  Co  Co103  1  0.87523920  0.62310455  0.37935499  1
  Co  Co104  1  0.00000244  0.49846508  0.00111376  1
  Co  Co105  1  0.62533009  0.37601694  0.37224915  1
  Co  Co106  1  0.12320045  0.62928384  0.62619785  1
  Co  Co107  1  0.00146749  -0.00374255  0.74599312  1
  Co  Co108  1  0.87484735  0.62472998  0.87548502  1
  Co  Co109  1  -0.00040508  0.75186169  -0.00307033  1
  Co  Co110  1  0.62334250  0.87476772  0.87632896  1
  Co  Co111  1  0.75051203  0.25133314  0.74956944  1
  Co  Co112  1  0.37406136  0.87510024  0.12097171  1
  Co  Co113  1  0.12481776  0.37588222  0.37296801  1
  Co  Co114  1  0.37356907  0.62430734  0.12603311  1
  Co  Co115  1  0.12574775  0.37845372  0.63031056  1
  Co  Co116  1  0.49609088  0.75205699  0.25125011  1
  Co  Co117  1  0.37593942  0.62330243  0.87468404  1
  Co  Co118  1  0.24960737  0.74779921  0.75340199  1
  Co  Co119  1  0.62416986  0.37488445  0.62627036  1
  Co  Co120  1  0.74887622  0.74891734  0.50152563  1
  Co  Co121  1  0.62402973  0.87529172  0.62280614  1
  Co  Co122  1  0.75197549  0.24963963  -0.00053076  1
  Co  Co123  1  0.00046596  0.75091074  0.49722149  1
  Co  Co124  1  0.12685339  0.87729028  0.87544302  1
  Co  Co125  1  0.87382416  0.87754574  0.87423368  1
  Co  Co126  1  0.25160013  -0.00263249  0.25021514  1
  Co  Co127  1  0.24832426  0.00047695  0.50171027  1
