# generated using pymatgen
data_Fe45Co19
_symmetry_space_group_name_H-M   'P 1'
_cell_length_a   11.41494875
_cell_length_b   11.41643549
_cell_length_c   11.41548042
_cell_angle_alpha   90.00328828
_cell_angle_beta   89.99516740
_cell_angle_gamma   89.99918977
_symmetry_Int_Tables_number   1
_chemical_formula_structural   Fe45Co19
_chemical_formula_sum   'Fe90 Co38'
_cell_volume   1487.64286691
_cell_formula_units_Z   2
loop_
 _symmetry_equiv_pos_site_id
 _symmetry_equiv_pos_as_xyz
  1  'x, y, z'
loop_
 _atom_site_type_symbol
 _atom_site_label
 _atom_site_symmetry_multiplicity
 _atom_site_fract_x
 _atom_site_fract_y
 _atom_site_fract_z
 _atom_site_occupancy
  Fe  Fe0  1  0.25160714  0.49793893  -0.00268793  1
  Fe  Fe1  1  0.87497941  0.12423903  0.12391046  1
  Fe  Fe2  1  0.37476551  0.62677465  0.37767545  1
  Fe  Fe3  1  0.62307152  0.37579454  0.37248871  1
  Fe  Fe4  1  0.74967988  0.49974215  0.25003503  1
  Fe  Fe5  1  -0.00063693  -0.00142737  0.49716979  1
  Fe  Fe6  1  0.87628070  0.37567650  0.12464222  1
  Fe  Fe7  1  0.00110453  0.24985897  0.50219340  1
  Fe  Fe8  1  0.12661657  0.12593657  0.37398844  1
  Fe  Fe9  1  0.12462619  0.12771224  0.87795617  1
  Fe  Fe10  1  0.49593870  -0.00150025  0.49731605  1
  Fe  Fe11  1  0.87738225  0.37190087  0.37285433  1
  Fe  Fe12  1  0.50058432  0.50265495  0.24954496  1
  Fe  Fe13  1  0.62417411  0.12453066  0.37534725  1
  Fe  Fe14  1  0.00150853  0.75274916  0.49953855  1
  Fe  Fe15  1  0.62262103  0.87883294  0.12652039  1
  Fe  Fe16  1  0.37311589  0.62617006  0.87547428  1
  Fe  Fe17  1  0.24881999  0.25306244  0.74719332  1
  Fe  Fe18  1  0.62159582  0.37677950  0.88009300  1
  Fe  Fe19  1  0.49895955  0.74839777  0.74643201  1
  Fe  Fe20  1  -0.00028077  0.74973383  0.74803187  1
  Fe  Fe21  1  -0.00008199  0.00035168  -0.00075673  1
  Fe  Fe22  1  0.37508806  0.12533257  0.62469854  1
  Fe  Fe23  1  0.00218561  0.50191149  0.25265202  1
  Fe  Fe24  1  0.87459437  0.62575079  0.12338611  1
  Fe  Fe25  1  0.37631460  0.87492107  0.87209846  1
  Fe  Fe26  1  0.74754698  0.24945089  0.24903783  1
  Fe  Fe27  1  0.25126656  -0.00205659  0.50005488  1
  Fe  Fe28  1  0.87496163  0.12407160  0.62583318  1
  Fe  Fe29  1  0.00244784  0.49980346  0.75221362  1
  Fe  Fe30  1  0.75065383  -0.00197473  -0.00033844  1
  Fe  Fe31  1  0.12509636  0.87781956  0.12662725  1
  Fe  Fe32  1  0.62352892  0.37477239  0.62553338  1
  Fe  Fe33  1  0.00378670  0.74889992  0.25184851  1
  Fe  Fe34  1  0.25096390  0.75433725  0.50122202  1
  Fe  Fe35  1  0.37629287  0.87504490  0.12755227  1
  Fe  Fe36  1  0.49861575  0.75073863  0.00131760  1
  Fe  Fe37  1  0.37506812  0.12715909  0.87656363  1
  Fe  Fe38  1  0.87349885  0.62741896  0.37505407  1
  Fe  Fe39  1  0.24820623  0.49778128  0.25326714  1
  Fe  Fe40  1  0.87412455  0.62469919  0.62518760  1
  Fe  Fe41  1  0.25057815  0.49451220  0.49936195  1
  Fe  Fe42  1  0.37681647  0.37570217  0.12604727  1
  Fe  Fe43  1  0.87101449  0.62741245  0.87640449  1
  Fe  Fe44  1  0.00134303  0.00115185  0.74971991  1
  Fe  Fe45  1  0.24718947  0.74932611  0.25058133  1
  Fe  Fe46  1  0.25028514  0.25332872  0.49942730  1
  Fe  Fe47  1  0.00141879  0.75104552  0.00066757  1
  Fe  Fe48  1  0.12585004  0.87369123  0.87374895  1
  Fe  Fe49  1  0.00572419  0.24780309  0.24485510  1
  Fe  Fe50  1  0.25226707  0.00155321  0.25204096  1
  Fe  Fe51  1  0.12636157  0.62329074  0.12259252  1
  Fe  Fe52  1  0.74935370  0.49944783  0.75184472  1
  Fe  Fe53  1  0.74870661  0.75065276  0.50202458  1
  Fe  Fe54  1  0.24817651  0.25126110  0.00480769  1
  Fe  Fe55  1  0.62386541  0.12360757  0.87903447  1
  Fe  Fe56  1  0.50097634  0.74755326  0.25152500  1
  Fe  Fe57  1  0.50038478  0.24649406  0.24815765  1
  Fe  Fe58  1  0.74875119  0.24951148  0.75151548  1
  Fe  Fe59  1  0.62593666  0.62571954  0.87812269  1
  Fe  Fe60  1  0.00043529  0.49901557  0.49784730  1
  Fe  Fe61  1  0.62301909  0.87717134  0.62576166  1
  Fe  Fe62  1  -0.00048086  0.49823087  -0.00262455  1
  Fe  Fe63  1  0.62364792  0.87454997  0.87372732  1
  Fe  Fe64  1  0.75058961  0.49767032  0.49838544  1
  Fe  Fe65  1  0.50000424  0.24905315  0.75116994  1
  Fe  Fe66  1  0.49551419  0.49942728  0.75102736  1
  Fe  Fe67  1  0.12826653  0.62629572  0.87571919  1
  Fe  Fe68  1  0.75056666  0.25075073  0.49937516  1
  Fe  Fe69  1  0.37649651  0.12282003  0.12462713  1
  Fe  Fe70  1  0.87658796  0.87447042  0.12778527  1
  Fe  Fe71  1  0.62670807  0.62284029  0.12109321  1
  Fe  Fe72  1  0.24939354  0.00123012  0.74888785  1
  Fe  Fe73  1  0.00063605  0.24930194  0.75021551  1
  Fe  Fe74  1  0.25184299  -0.00241906  -0.00122266  1
  Fe  Fe75  1  0.49864723  0.49910698  0.49910966  1
  Fe  Fe76  1  0.62337217  0.12432320  0.62329099  1
  Fe  Fe77  1  0.12781942  0.62321840  0.62368509  1
  Fe  Fe78  1  0.74956500  0.00118659  0.74984835  1
  Fe  Fe79  1  0.37219761  0.62600725  0.12425076  1
  Fe  Fe80  1  0.75252934  0.00201812  0.25302381  1
  Fe  Fe81  1  0.74859455  0.74855521  0.24892982  1
  Fe  Fe82  1  0.75376867  0.00080580  0.49742330  1
  Fe  Fe83  1  0.62379483  0.62339941  0.62394226  1
  Fe  Fe84  1  0.87521250  0.37542692  0.62736366  1
  Fe  Fe85  1  0.49871424  0.25096148  0.49867657  1
  Fe  Fe86  1  0.62417911  0.87474981  0.37421545  1
  Fe  Fe87  1  0.75044691  0.25173364  0.00068250  1
  Fe  Fe88  1  0.25066609  0.74979407  0.74694786  1
  Fe  Fe89  1  0.87373567  0.87347094  0.87274930  1
  Co  Co90  1  0.37506793  0.37146495  0.87674564  1
  Co  Co91  1  0.62288955  0.37656925  0.12381787  1
  Co  Co92  1  0.24923975  0.24995831  0.24670687  1
  Co  Co93  1  0.75219189  0.49809183  0.00026015  1
  Co  Co94  1  -0.00162793  0.00180703  0.25250590  1
  Co  Co95  1  0.12525327  0.37953141  0.12392603  1
  Co  Co96  1  0.12478618  0.87566788  0.62625016  1
  Co  Co97  1  0.74923746  0.75319878  0.00182349  1
  Co  Co98  1  0.49999395  0.75174967  0.50071404  1
  Co  Co99  1  0.62532338  0.62425403  0.37676212  1
  Co  Co100  1  0.49825557  0.00288412  0.25292960  1
  Co  Co101  1  0.00024256  0.24982967  0.00259651  1
  Co  Co102  1  0.87518019  0.87648068  0.62566654  1
  Co  Co103  1  0.50013413  0.24785218  0.00287791  1
  Co  Co104  1  0.12616972  0.87738719  0.37292459  1
  Co  Co105  1  0.87539319  0.12492767  0.87557585  1
  Co  Co106  1  0.49935940  0.00411368  0.75078853  1
  Co  Co107  1  0.12576670  0.12419578  0.62320718  1
  Co  Co108  1  0.62574270  0.12116354  0.12378048  1
  Co  Co109  1  0.74861696  0.74961447  0.74729595  1
  Co  Co110  1  0.12769103  0.62512805  0.37843343  1
  Co  Co111  1  0.37618897  0.87712006  0.62810681  1
  Co  Co112  1  0.37517938  0.87186557  0.37223069  1
  Co  Co113  1  0.49775059  -0.00124178  -0.00118079  1
  Co  Co114  1  0.49560335  0.50257255  0.00059032  1
  Co  Co115  1  0.25013421  0.75343911  0.00104688  1
  Co  Co116  1  0.87477065  0.87069857  0.37331350  1
  Co  Co117  1  0.37698625  0.37418346  0.62594175  1
  Co  Co118  1  0.37256970  0.12738082  0.37579457  1
  Co  Co119  1  0.37303978  0.62342265  0.62170923  1
  Co  Co120  1  0.87762438  0.12977347  0.37403039  1
  Co  Co121  1  0.37749975  0.37403227  0.37153473  1
  Co  Co122  1  0.12641586  0.11941218  0.12384732  1
  Co  Co123  1  0.25112167  0.49767949  0.75098688  1
  Co  Co124  1  0.12579061  0.37183771  0.87590751  1
  Co  Co125  1  0.12324863  0.37667376  0.62577744  1
  Co  Co126  1  0.87586965  0.37350669  0.87379484  1
  Co  Co127  1  0.12315454  0.37175023  0.37381427  1
