# generated using pymatgen
data_Fe45Co19
_symmetry_space_group_name_H-M   'P 1'
_cell_length_a   11.41430100
_cell_length_b   11.41518831
_cell_length_c   11.41591329
_cell_angle_alpha   90.00447968
_cell_angle_beta   89.99295656
_cell_angle_gamma   90.00596156
_symmetry_Int_Tables_number   1
_chemical_formula_structural   Fe45Co19
_chemical_formula_sum   'Fe90 Co38'
_cell_volume   1487.45232710
_cell_formula_units_Z   2
loop_
 _symmetry_equiv_pos_site_id
 _symmetry_equiv_pos_as_xyz
  1  'x, y, z'
loop_
 _atom_site_type_symbol
 _atom_site_label
 _atom_site_symmetry_multiplicity
 _atom_site_fract_x
 _atom_site_fract_y
 _atom_site_fract_z
 _atom_site_occupancy
  Fe  Fe0  1  0.74904107  0.49906516  0.49833261  1
  Fe  Fe1  1  0.37694946  0.87543126  0.87399989  1
  Fe  Fe2  1  0.00648950  0.49851594  0.49891588  1
  Fe  Fe3  1  0.62731503  0.87542388  0.62718322  1
  Fe  Fe4  1  0.25043667  0.75061787  -0.00036882  1
  Fe  Fe5  1  0.87498335  0.88022353  0.62511567  1
  Fe  Fe6  1  0.12219388  0.12505353  0.87558366  1
  Fe  Fe7  1  0.74987311  0.49982607  0.25067658  1
  Fe  Fe8  1  0.49964062  0.25002556  0.74852588  1
  Fe  Fe9  1  0.75085373  0.25035440  0.49814248  1
  Fe  Fe10  1  0.37602453  0.62474343  0.87621553  1
  Fe  Fe11  1  0.75126061  0.75076772  0.49942730  1
  Fe  Fe12  1  0.12865822  0.37564090  0.12681512  1
  Fe  Fe13  1  0.62679741  0.62486293  0.12394365  1
  Fe  Fe14  1  0.24875569  -0.00010444  0.25237770  1
  Fe  Fe15  1  0.61964878  0.12989992  0.37320921  1
  Fe  Fe16  1  0.25005491  0.00066300  0.75086761  1
  Fe  Fe17  1  0.00047694  0.75226110  0.74666343  1
  Fe  Fe18  1  0.50337523  0.50180957  0.74970830  1
  Fe  Fe19  1  0.00294302  0.50000024  0.25051621  1
  Fe  Fe20  1  0.87237059  0.37584806  0.12613862  1
  Fe  Fe21  1  0.25526500  0.24745105  0.24969251  1
  Fe  Fe22  1  0.37409931  0.87732075  0.12492432  1
  Fe  Fe23  1  0.12398603  0.62701948  0.87429213  1
  Fe  Fe24  1  0.62224819  0.87347378  0.37297505  1
  Fe  Fe25  1  0.12275221  0.12323732  0.62577991  1
  Fe  Fe26  1  0.24882302  0.24932576  0.50024388  1
  Fe  Fe27  1  -0.00399663  0.24653251  0.74882999  1
  Fe  Fe28  1  0.24856975  0.50019301  0.75112607  1
  Fe  Fe29  1  0.37095685  0.62264664  0.12519641  1
  Fe  Fe30  1  0.87440009  0.62362278  0.87558755  1
  Fe  Fe31  1  0.12686367  0.12333169  0.12581872  1
  Fe  Fe32  1  0.37485425  0.37254777  0.37563093  1
  Fe  Fe33  1  0.25196459  0.24712990  0.75057569  1
  Fe  Fe34  1  0.24958272  0.75143268  0.49861314  1
  Fe  Fe35  1  -0.00175291  0.24816672  0.24794496  1
  Fe  Fe36  1  0.12422588  0.87455652  0.87342306  1
  Fe  Fe37  1  0.12653756  0.62652707  0.62469216  1
  Fe  Fe38  1  0.00083681  0.24949897  0.50065456  1
  Fe  Fe39  1  0.12898726  0.62540768  0.12736692  1
  Fe  Fe40  1  0.62782552  0.37441204  0.62620382  1
  Fe  Fe41  1  0.87434254  0.87549906  0.87351726  1
  Fe  Fe42  1  0.74824267  0.74512703  0.74917790  1
  Fe  Fe43  1  0.00081491  0.75141276  0.24738170  1
  Fe  Fe44  1  0.87359249  0.62479574  0.12472616  1
  Fe  Fe45  1  0.49889426  0.49790802  0.24719394  1
  Fe  Fe46  1  0.87406382  0.37627134  0.87216935  1
  Fe  Fe47  1  0.87006116  0.12097783  0.12480641  1
  Fe  Fe48  1  0.12141918  0.87345584  0.37540478  1
  Fe  Fe49  1  0.49999160  0.00463915  0.24722452  1
  Fe  Fe50  1  0.37280298  0.37587431  0.62494379  1
  Fe  Fe51  1  -0.00025573  0.75128921  0.00234397  1
  Fe  Fe52  1  0.74761554  0.00101134  0.49603258  1
  Fe  Fe53  1  0.00004339  0.25084178  0.00265258  1
  Fe  Fe54  1  0.87812284  0.87529685  0.37526739  1
  Fe  Fe55  1  0.74996680  0.74990877  0.25150513  1
  Fe  Fe56  1  0.50167134  0.49741376  0.00264966  1
  Fe  Fe57  1  0.87403604  0.37602429  0.62706619  1
  Fe  Fe58  1  0.50168029  0.74736522  0.74930176  1
  Fe  Fe59  1  0.75133951  0.00758458  0.75504248  1
  Fe  Fe60  1  0.00105731  0.49943531  0.00002272  1
  Fe  Fe61  1  0.49967239  0.75161942  0.50074791  1
  Fe  Fe62  1  0.37692901  0.12436330  0.62102021  1
  Fe  Fe63  1  0.37896239  0.12456150  0.87875201  1
  Fe  Fe64  1  0.24935706  -0.00134150  -0.00246083  1
  Fe  Fe65  1  0.37749968  0.87802473  0.37542847  1
  Fe  Fe66  1  0.37386199  0.62421689  0.62323652  1
  Fe  Fe67  1  0.87537401  0.62202882  0.62382657  1
  Fe  Fe68  1  0.50003332  0.24925605  0.00798827  1
  Fe  Fe69  1  0.87816307  0.62554297  0.37588175  1
  Fe  Fe70  1  0.24759218  0.00112726  0.49828350  1
  Fe  Fe71  1  0.62217378  0.37154694  0.37036165  1
  Fe  Fe72  1  0.49806133  0.74896791  0.24803100  1
  Fe  Fe73  1  0.37235249  0.62379361  0.37512386  1
  Fe  Fe74  1  0.62549391  0.12711784  0.62372226  1
  Fe  Fe75  1  0.12337230  0.37300522  0.87195142  1
  Fe  Fe76  1  0.62636408  0.37426484  0.87500068  1
  Fe  Fe77  1  0.87047350  0.87848388  0.12661919  1
  Fe  Fe78  1  0.50243233  0.75416379  0.00117820  1
  Fe  Fe79  1  0.74973571  0.24930528  -0.00160916  1
  Fe  Fe80  1  0.50011134  0.49802502  0.50008285  1
  Fe  Fe81  1  0.62408329  0.62547153  0.37628526  1
  Fe  Fe82  1  -0.00050601  -0.00150974  0.00107656  1
  Fe  Fe83  1  0.37539489  0.37464613  0.87641173  1
  Fe  Fe84  1  0.37364007  0.87522052  0.62519864  1
  Fe  Fe85  1  0.74740084  0.75359304  -0.00016502  1
  Fe  Fe86  1  0.50002114  0.00144589  0.74881392  1
  Fe  Fe87  1  0.87840004  0.12346964  0.37512371  1
  Fe  Fe88  1  0.24994441  0.25053410  -0.00102552  1
  Fe  Fe89  1  0.87774976  0.37561480  0.37470689  1
  Co  Co90  1  0.74659300  0.50310779  0.75025193  1
  Co  Co91  1  0.75146565  0.49830500  0.00032893  1
  Co  Co92  1  -0.00069276  0.00075119  0.75152255  1
  Co  Co93  1  0.12511312  0.36937176  0.37205513  1
  Co  Co94  1  0.61930943  0.12735557  0.87707531  1
  Co  Co95  1  0.87455649  0.12297690  0.62119709  1
  Co  Co96  1  0.00128949  0.50105650  0.75039404  1
  Co  Co97  1  0.25139739  0.75428119  0.25107561  1
  Co  Co98  1  0.12516758  0.62917427  0.37333650  1
  Co  Co99  1  0.62516178  0.62515143  0.87993341  1
  Co  Co100  1  0.50350960  -0.00185141  0.50205329  1
  Co  Co101  1  0.50449754  -0.00234805  0.00254276  1
  Co  Co102  1  0.12669508  0.87561135  0.12387489  1
  Co  Co103  1  0.74913545  0.00065096  0.25739868  1
  Co  Co104  1  0.49997943  0.25276030  0.50250171  1
  Co  Co105  1  0.62436299  0.87510279  0.86958640  1
  Co  Co106  1  0.75143602  0.24597933  0.75144661  1
  Co  Co107  1  0.12587085  0.87679698  0.62555763  1
  Co  Co108  1  0.24660865  0.49991406  -0.00477584  1
  Co  Co109  1  0.24954828  0.49834902  0.25483113  1
  Co  Co110  1  0.00053591  -0.00038990  0.24807660  1
  Co  Co111  1  0.37104397  0.12030202  0.12082857  1
  Co  Co112  1  0.63101688  0.12474621  0.12674758  1
  Co  Co113  1  0.62434970  0.62566661  0.61962085  1
  Co  Co114  1  0.75369151  0.24922727  0.25344981  1
  Co  Co115  1  0.49402571  0.24843087  0.24233303  1
  Co  Co116  1  0.36939324  0.37899877  0.12273566  1
  Co  Co117  1  0.37841915  0.12507155  0.37885142  1
  Co  Co118  1  0.62763615  0.87724742  0.12950622  1
  Co  Co119  1  0.62925474  0.37229445  0.12797520  1
  Co  Co120  1  0.00218393  0.00062156  0.49917001  1
  Co  Co121  1  0.24588356  0.49766848  0.49916117  1
  Co  Co122  1  0.12356623  0.12745143  0.37218375  1
  Co  Co123  1  0.87850136  0.12606775  0.87996199  1
  Co  Co124  1  0.74644009  -0.00103002  -0.00539013  1
  Co  Co125  1  0.25025552  0.74972985  0.75066634  1
  Co  Co126  1  0.12489184  0.37140350  0.62853217  1
  Co  Co127  1  -0.00091326  0.75053967  0.50381772  1
