# generated using pymatgen
data_Fe45Co19
_symmetry_space_group_name_H-M   'P 1'
_cell_length_a   11.41566761
_cell_length_b   11.41401020
_cell_length_c   11.41444923
_cell_angle_alpha   89.99337209
_cell_angle_beta   89.99637186
_cell_angle_gamma   89.99938339
_symmetry_Int_Tables_number   1
_chemical_formula_structural   Fe45Co19
_chemical_formula_sum   'Fe90 Co38'
_cell_volume   1487.28613180
_cell_formula_units_Z   2
loop_
 _symmetry_equiv_pos_site_id
 _symmetry_equiv_pos_as_xyz
  1  'x, y, z'
loop_
 _atom_site_type_symbol
 _atom_site_label
 _atom_site_symmetry_multiplicity
 _atom_site_fract_x
 _atom_site_fract_y
 _atom_site_fract_z
 _atom_site_occupancy
  Fe  Fe0  1  0.12576454  0.37507554  0.62160973  1
  Fe  Fe1  1  0.25159636  0.49855130  0.24867863  1
  Fe  Fe2  1  0.25138497  0.00311692  0.25186942  1
  Fe  Fe3  1  0.49871453  0.74891652  0.00005529  1
  Fe  Fe4  1  0.49845321  0.49394127  0.24806555  1
  Fe  Fe5  1  0.24983869  0.50052538  0.74988217  1
  Fe  Fe6  1  0.12362095  0.62271504  0.87485310  1
  Fe  Fe7  1  0.00059339  0.74964044  0.74872332  1
  Fe  Fe8  1  0.12435108  0.37492123  0.87664880  1
  Fe  Fe9  1  0.00021364  0.00210637  -0.00161178  1
  Fe  Fe10  1  0.37410011  0.12575380  0.62502343  1
  Fe  Fe11  1  0.24922241  0.24886395  0.00106056  1
  Fe  Fe12  1  0.75165394  0.00228959  0.49989881  1
  Fe  Fe13  1  0.37767259  0.62486909  0.37464999  1
  Fe  Fe14  1  0.49901249  -0.00023787  0.24900983  1
  Fe  Fe15  1  0.00076696  0.74823388  0.50040511  1
  Fe  Fe16  1  0.62589771  0.87575796  0.37629816  1
  Fe  Fe17  1  0.87215458  0.37551810  0.12239594  1
  Fe  Fe18  1  0.12175137  0.12646488  0.12602674  1
  Fe  Fe19  1  0.87691975  0.62310305  0.87613298  1
  Fe  Fe20  1  0.50053696  0.00185050  0.50031615  1
  Fe  Fe21  1  0.62508064  0.37415165  0.86984250  1
  Fe  Fe22  1  0.62465573  0.62251924  0.12671192  1
  Fe  Fe23  1  -0.00054868  0.49819621  0.74756576  1
  Fe  Fe24  1  0.87014058  0.37528390  0.62195758  1
  Fe  Fe25  1  0.75198662  -0.00277001  0.24820188  1
  Fe  Fe26  1  0.62542981  0.87516130  0.62481762  1
  Fe  Fe27  1  0.87681230  0.87788847  0.62360526  1
  Fe  Fe28  1  0.87555850  0.12502152  0.87191592  1
  Fe  Fe29  1  0.24859152  0.00443293  0.49741713  1
  Fe  Fe30  1  0.87451339  0.62236627  0.62343471  1
  Fe  Fe31  1  0.12688923  0.87382538  0.12543375  1
  Fe  Fe32  1  0.24919573  0.74893672  0.75106291  1
  Fe  Fe33  1  0.12070778  0.12530769  0.62793761  1
  Fe  Fe34  1  0.49928404  0.00034006  0.00117464  1
  Fe  Fe35  1  0.74974772  0.49875130  0.25181586  1
  Fe  Fe36  1  0.62710035  0.12826811  0.62838845  1
  Fe  Fe37  1  0.62330740  0.62477691  0.37414333  1
  Fe  Fe38  1  0.50314949  0.25254126  0.00057850  1
  Fe  Fe39  1  0.74887966  0.74862626  0.49939604  1
  Fe  Fe40  1  0.00084636  0.74620021  0.00373902  1
  Fe  Fe41  1  0.37138393  0.36809436  0.37543378  1
  Fe  Fe42  1  0.62701429  0.37242738  0.37755535  1
  Fe  Fe43  1  0.12395374  0.87661890  0.62382146  1
  Fe  Fe44  1  0.50010490  0.75215517  0.24998893  1
  Fe  Fe45  1  0.25201816  0.50340777  0.00233297  1
  Fe  Fe46  1  0.50144517  0.00177249  0.75096201  1
  Fe  Fe47  1  0.74855981  0.49959339  -0.00164823  1
  Fe  Fe48  1  0.37533675  0.37541141  0.87361236  1
  Fe  Fe49  1  -0.00042323  0.49773231  0.24846701  1
  Fe  Fe50  1  0.75020115  0.74899581  0.00266435  1
  Fe  Fe51  1  0.24968069  0.00252415  0.00010473  1
  Fe  Fe52  1  0.75079849  0.25103984  0.24930640  1
  Fe  Fe53  1  -0.00172541  0.74953843  0.24738708  1
  Fe  Fe54  1  0.62400754  0.62352442  0.87279281  1
  Fe  Fe55  1  0.24986622  0.74873156  0.49821166  1
  Fe  Fe56  1  0.49949887  0.74859711  0.74930990  1
  Fe  Fe57  1  0.12327878  0.62193677  0.37432572  1
  Fe  Fe58  1  0.50081090  0.49596714  0.50259469  1
  Fe  Fe59  1  0.50040485  0.25141979  0.50350831  1
  Fe  Fe60  1  -0.00167815  0.24962500  0.00013134  1
  Fe  Fe61  1  0.12149788  0.13082866  0.37373640  1
  Fe  Fe62  1  0.62680944  0.12742827  0.12459692  1
  Fe  Fe63  1  0.49832981  0.49934632  0.00168721  1
  Fe  Fe64  1  0.87579508  0.37472011  0.37868947  1
  Fe  Fe65  1  0.24944766  0.25012321  0.74975377  1
  Fe  Fe66  1  0.87698961  0.12627543  0.37314228  1
  Fe  Fe67  1  0.12551279  0.37491124  0.12483510  1
  Fe  Fe68  1  -0.00240914  -0.00166581  0.25023454  1
  Fe  Fe69  1  0.75104308  0.74988750  0.75001425  1
  Fe  Fe70  1  0.37408934  0.87596543  0.62413287  1
  Fe  Fe71  1  0.37477727  0.62367986  0.62508773  1
  Fe  Fe72  1  0.62559718  0.87645973  0.87534229  1
  Fe  Fe73  1  0.37688251  0.12970563  0.12746861  1
  Fe  Fe74  1  0.37620677  0.12715966  0.87459995  1
  Fe  Fe75  1  0.87578145  0.37649274  0.87601810  1
  Fe  Fe76  1  0.12523845  0.87439774  0.87705606  1
  Fe  Fe77  1  0.87510208  0.87496135  0.87570514  1
  Fe  Fe78  1  0.75052278  0.00166785  0.00044206  1
  Fe  Fe79  1  0.87543741  0.62456414  0.37504681  1
  Fe  Fe80  1  0.75166756  0.75211208  0.24735936  1
  Fe  Fe81  1  0.24778251  0.00136634  0.75244102  1
  Fe  Fe82  1  0.62373574  0.12587574  0.37274438  1
  Fe  Fe83  1  0.37133855  0.87159652  0.12532106  1
  Fe  Fe84  1  0.37604628  0.87600331  0.37736092  1
  Fe  Fe85  1  0.87796523  0.12466076  0.62772590  1
  Fe  Fe86  1  0.37432503  0.87482484  0.87496270  1
  Fe  Fe87  1  0.62558601  0.62154006  0.62530526  1
  Fe  Fe88  1  0.12327036  0.87513281  0.37571031  1
  Fe  Fe89  1  0.24969432  0.49956955  0.49876632  1
  Co  Co90  1  0.87700445  0.87633302  0.12236531  1
  Co  Co91  1  0.37136817  0.37469819  0.62571606  1
  Co  Co92  1  0.24781596  0.24895473  0.24821026  1
  Co  Co93  1  -0.00112794  0.25462162  0.74965662  1
  Co  Co94  1  0.75110129  0.24600372  0.49895883  1
  Co  Co95  1  0.63048721  0.37449372  0.62633351  1
  Co  Co96  1  0.24952095  0.74924636  0.25474992  1
  Co  Co97  1  0.37812182  0.12980912  0.37442945  1
  Co  Co98  1  0.74942936  -0.00021862  0.75003717  1
  Co  Co99  1  0.50047023  0.74942126  0.50126136  1
  Co  Co100  1  0.00144290  -0.00201409  0.75345654  1
  Co  Co101  1  -0.00087676  0.25123113  0.50115063  1
  Co  Co102  1  0.87460705  0.87386040  0.37743262  1
  Co  Co103  1  -0.00169302  0.25496767  0.24860695  1
  Co  Co104  1  0.12727240  0.62498886  0.12732075  1
  Co  Co105  1  0.75196984  0.50066416  0.75168008  1
  Co  Co106  1  0.87481180  0.12578953  0.12637933  1
  Co  Co107  1  0.00125835  0.50031627  0.00280169  1
  Co  Co108  1  0.24723056  0.24695731  0.50136266  1
  Co  Co109  1  0.00021401  0.49914994  0.50071145  1
  Co  Co110  1  0.50280045  0.25392820  0.24848118  1
  Co  Co111  1  0.74812517  0.50201301  0.49727113  1
  Co  Co112  1  0.49934850  0.25099375  0.74776966  1
  Co  Co113  1  0.62525444  0.87559159  0.12349403  1
  Co  Co114  1  0.62401164  0.12545511  0.87570262  1
  Co  Co115  1  -0.00001098  0.00252624  0.49738903  1
  Co  Co116  1  0.62923356  0.37531689  0.12440956  1
  Co  Co117  1  0.75191093  0.24964102  0.75209919  1
  Co  Co118  1  0.12443842  0.12857606  0.87351041  1
  Co  Co119  1  0.12632050  0.37442440  0.37534226  1
  Co  Co120  1  0.75097304  0.25028131  -0.00282836  1
  Co  Co121  1  0.87236773  0.62100609  0.12508299  1
  Co  Co122  1  0.37351577  0.37220545  0.12412754  1
  Co  Co123  1  0.24955884  0.74637895  -0.00207607  1
  Co  Co124  1  0.37593690  0.62286217  0.87321264  1
  Co  Co125  1  0.37603450  0.62744928  0.12756531  1
  Co  Co126  1  0.49966291  0.49803324  0.74666981  1
  Co  Co127  1  0.12594022  0.62353636  0.62487417  1
