# generated using pymatgen
data_Fe45Co19
_symmetry_space_group_name_H-M   'P 1'
_cell_length_a   11.41342961
_cell_length_b   11.41482067
_cell_length_c   11.41464305
_cell_angle_alpha   89.99453937
_cell_angle_beta   90.00573177
_cell_angle_gamma   90.00002830
_symmetry_Int_Tables_number   1
_chemical_formula_structural   Fe45Co19
_chemical_formula_sum   'Fe90 Co38'
_cell_volume   1487.12538973
_cell_formula_units_Z   2
loop_
 _symmetry_equiv_pos_site_id
 _symmetry_equiv_pos_as_xyz
  1  'x, y, z'
loop_
 _atom_site_type_symbol
 _atom_site_label
 _atom_site_symmetry_multiplicity
 _atom_site_fract_x
 _atom_site_fract_y
 _atom_site_fract_z
 _atom_site_occupancy
  Fe  Fe0  1  0.12671991  0.12405593  0.12856197  1
  Fe  Fe1  1  -0.00409709  0.75014190  0.74902902  1
  Fe  Fe2  1  0.62667491  0.62319139  0.87640274  1
  Fe  Fe3  1  0.12209954  0.87408386  0.62095922  1
  Fe  Fe4  1  0.75144714  0.75285390  -0.00056116  1
  Fe  Fe5  1  0.37790437  0.37473959  0.12866006  1
  Fe  Fe6  1  0.63062504  0.87721232  0.87220725  1
  Fe  Fe7  1  0.12281347  0.62388049  0.87615981  1
  Fe  Fe8  1  0.12452461  0.37559620  0.62316436  1
  Fe  Fe9  1  0.12488204  0.12509755  0.87490381  1
  Fe  Fe10  1  0.25145073  0.50339532  0.49970307  1
  Fe  Fe11  1  -0.00605906  0.75130841  0.49668544  1
  Fe  Fe12  1  0.37808118  0.37843674  0.37541624  1
  Fe  Fe13  1  0.37805005  0.62574680  0.87630448  1
  Fe  Fe14  1  0.12336378  0.87429621  0.87546324  1
  Fe  Fe15  1  0.87457889  0.12204551  0.12677878  1
  Fe  Fe16  1  0.50497275  0.49740631  0.74942216  1
  Fe  Fe17  1  0.37691695  0.62931156  0.12327850  1
  Fe  Fe18  1  0.75426345  0.74798224  0.50254606  1
  Fe  Fe19  1  0.50524631  0.24689439  0.25540114  1
  Fe  Fe20  1  0.50101392  0.00166413  0.50082521  1
  Fe  Fe21  1  0.74977629  0.24782016  0.00346568  1
  Fe  Fe22  1  0.25001324  0.25228355  0.74985388  1
  Fe  Fe23  1  0.24952189  -0.00276078  0.74887122  1
  Fe  Fe24  1  0.24928064  0.50099257  0.74904300  1
  Fe  Fe25  1  0.50273527  -0.00105532  0.74735486  1
  Fe  Fe26  1  0.49664196  0.75236396  0.25121142  1
  Fe  Fe27  1  0.62553434  0.62774303  0.12561509  1
  Fe  Fe28  1  0.49747717  0.74368498  0.49977180  1
  Fe  Fe29  1  0.74897773  0.50006667  0.00191638  1
  Fe  Fe30  1  -0.00139932  0.24893092  0.00131350  1
  Fe  Fe31  1  0.62519934  0.87307182  0.37872812  1
  Fe  Fe32  1  0.86979453  0.37952101  0.62120364  1
  Fe  Fe33  1  0.12452723  0.12556175  0.62435651  1
  Fe  Fe34  1  0.37712592  0.37720118  0.87622770  1
  Fe  Fe35  1  0.12249472  0.62625100  0.62306961  1
  Fe  Fe36  1  0.50081535  -0.00188645  0.25076097  1
  Fe  Fe37  1  0.37714819  0.87295956  0.62395054  1
  Fe  Fe38  1  0.25080638  0.25012265  0.00196980  1
  Fe  Fe39  1  -0.00058212  -0.00063233  0.74863443  1
  Fe  Fe40  1  0.50636416  0.50264285  0.25287310  1
  Fe  Fe41  1  -0.00148281  0.25187451  0.74950096  1
  Fe  Fe42  1  0.12365022  0.37622287  0.87767778  1
  Fe  Fe43  1  0.75307964  0.75111940  0.25120168  1
  Fe  Fe44  1  0.87342571  0.37591584  0.87731872  1
  Fe  Fe45  1  -0.00358375  0.50098222  0.49675939  1
  Fe  Fe46  1  0.87572861  0.12437061  0.62489594  1
  Fe  Fe47  1  -0.00100822  0.50102858  0.25075073  1
  Fe  Fe48  1  0.62885357  0.62172840  0.62418990  1
  Fe  Fe49  1  0.50179559  -0.00247272  0.00044819  1
  Fe  Fe50  1  0.87421230  0.62462156  0.12795689  1
  Fe  Fe51  1  0.12683634  0.12505611  0.37359144  1
  Fe  Fe52  1  -0.00134818  0.49924087  0.74984919  1
  Fe  Fe53  1  0.87162848  0.12322223  0.37437778  1
  Fe  Fe54  1  0.12689895  0.87134015  0.12948775  1
  Fe  Fe55  1  -0.00227464  -0.00344571  0.00108856  1
  Fe  Fe56  1  0.62449533  0.12923479  0.62221232  1
  Fe  Fe57  1  0.12442667  0.62912340  0.12779335  1
  Fe  Fe58  1  0.25117322  0.50204296  0.00184183  1
  Fe  Fe59  1  0.74788545  0.25382911  0.74820444  1
  Fe  Fe60  1  0.25017149  -0.00155721  0.00182507  1
  Fe  Fe61  1  0.87317356  0.62433227  0.87342002  1
  Fe  Fe62  1  0.24841931  -0.00172762  0.49835751  1
  Fe  Fe63  1  0.00038411  -0.00460276  0.25358917  1
  Fe  Fe64  1  0.87273628  0.37612203  0.12927625  1
  Fe  Fe65  1  0.37322320  0.12307241  0.37320917  1
  Fe  Fe66  1  0.12441902  0.37513314  0.37513171  1
  Fe  Fe67  1  0.37564171  0.12442139  0.87380084  1
  Fe  Fe68  1  0.25198605  0.25072764  0.49844496  1
  Fe  Fe69  1  0.50011614  0.25044736  0.00070000  1
  Fe  Fe70  1  -0.00311936  0.24983676  0.49800709  1
  Fe  Fe71  1  0.62552722  0.87442785  0.12524446  1
  Fe  Fe72  1  0.25404195  0.74800149  0.49776859  1
  Fe  Fe73  1  0.74597857  0.00070799  0.24825152  1
  Fe  Fe74  1  0.37903474  0.37796844  0.62111730  1
  Fe  Fe75  1  0.37427094  0.12558940  0.62574021  1
  Fe  Fe76  1  0.12375973  0.37508268  0.12434559  1
  Fe  Fe77  1  0.87177982  0.12123586  0.87443917  1
  Fe  Fe78  1  0.12421060  0.62887046  0.37259058  1
  Fe  Fe79  1  -0.00123835  0.25009348  0.25127050  1
  Fe  Fe80  1  0.24955969  0.50075507  0.24944259  1
  Fe  Fe81  1  0.24942675  0.74961197  0.74981093  1
  Fe  Fe82  1  -0.00379898  0.75193397  0.00106102  1
  Fe  Fe83  1  0.37590784  0.87285146  0.87639067  1
  Fe  Fe84  1  0.62627742  0.37389667  0.12712510  1
  Fe  Fe85  1  0.74995132  -0.00196311  0.50464363  1
  Fe  Fe86  1  0.37527177  0.12414217  0.12816277  1
  Fe  Fe87  1  0.62664447  0.12461935  0.87589780  1
  Fe  Fe88  1  0.50394277  0.74950636  0.75008024  1
  Fe  Fe89  1  0.50265700  0.25357552  0.74836686  1
  Co  Co90  1  0.74623262  0.50174326  0.25416588  1
  Co  Co91  1  0.62636840  0.37217907  0.37920867  1
  Co  Co92  1  0.50147564  0.50062887  0.00354212  1
  Co  Co93  1  0.74707532  0.24609295  0.24940235  1
  Co  Co94  1  -0.00036857  0.00070725  0.49673368  1
  Co  Co95  1  0.24753020  0.74889824  -0.00181259  1
  Co  Co96  1  0.62860583  0.12177547  0.37861766  1
  Co  Co97  1  0.24999188  0.25288102  0.25091804  1
  Co  Co98  1  0.37527783  0.62126928  0.37121261  1
  Co  Co99  1  -0.00203167  0.50172694  0.00214520  1
  Co  Co100  1  0.87101743  0.87763023  0.87143322  1
  Co  Co101  1  0.37638593  0.62348607  0.62923248  1
  Co  Co102  1  0.87168870  0.37429107  0.37128174  1
  Co  Co103  1  0.62287083  0.87113460  0.62095225  1
  Co  Co104  1  0.75319040  0.24888806  0.49841534  1
  Co  Co105  1  0.74678451  0.00069010  0.74282612  1
  Co  Co106  1  -0.00479392  0.75267988  0.25103574  1
  Co  Co107  1  0.86974579  0.87798968  0.37497490  1
  Co  Co108  1  0.87741966  0.87628591  0.62636893  1
  Co  Co109  1  0.74739179  0.49682608  0.75156482  1
  Co  Co110  1  0.50541242  0.75207529  -0.00187385  1
  Co  Co111  1  0.62553672  0.37410625  0.88006329  1
  Co  Co112  1  0.87279864  0.87664323  0.12743149  1
  Co  Co113  1  0.62619708  0.63299490  0.37322553  1
  Co  Co114  1  0.87580462  0.62523291  0.37171162  1
  Co  Co115  1  0.87350232  0.62059038  0.62613867  1
  Co  Co116  1  0.12504382  0.87068281  0.37522354  1
  Co  Co117  1  0.74955450  -0.00110763  0.00306830  1
  Co  Co118  1  0.62602023  0.37657044  0.61600634  1
  Co  Co119  1  0.50365968  0.50607212  0.49648982  1
  Co  Co120  1  0.25568507  0.75249035  0.25348686  1
  Co  Co121  1  0.74993371  0.50514506  0.49127336  1
  Co  Co122  1  0.62193144  0.12432087  0.12272230  1
  Co  Co123  1  0.37534850  0.87259379  0.12071469  1
  Co  Co124  1  0.37870408  0.87636334  0.37959381  1
  Co  Co125  1  0.75013656  0.74963335  0.74680686  1
  Co  Co126  1  0.49805633  0.24705243  0.49644618  1
  Co  Co127  1  0.25234055  -0.00563520  0.25109120  1
