# generated using pymatgen
data_Fe45Co19
_symmetry_space_group_name_H-M   'P 1'
_cell_length_a   11.41520628
_cell_length_b   11.41368296
_cell_length_c   11.41441451
_cell_angle_alpha   90.00592075
_cell_angle_beta   90.00399374
_cell_angle_gamma   89.99867433
_symmetry_Int_Tables_number   1
_chemical_formula_structural   Fe45Co19
_chemical_formula_sum   'Fe90 Co38'
_cell_volume   1487.17886495
_cell_formula_units_Z   2
loop_
 _symmetry_equiv_pos_site_id
 _symmetry_equiv_pos_as_xyz
  1  'x, y, z'
loop_
 _atom_site_type_symbol
 _atom_site_label
 _atom_site_symmetry_multiplicity
 _atom_site_fract_x
 _atom_site_fract_y
 _atom_site_fract_z
 _atom_site_occupancy
  Fe  Fe0  1  0.24682847  0.75021187  0.75119409  1
  Fe  Fe1  1  0.62611200  0.62487082  0.62447650  1
  Fe  Fe2  1  0.62154242  0.12389161  0.87191932  1
  Fe  Fe3  1  0.24997645  0.49970289  -0.00107202  1
  Fe  Fe4  1  0.50030469  0.49821553  0.74836306  1
  Fe  Fe5  1  0.87563937  0.12565986  0.37483895  1
  Fe  Fe6  1  0.24929532  0.24619800  -0.00364654  1
  Fe  Fe7  1  0.37671095  0.12562246  0.12462761  1
  Fe  Fe8  1  0.36974454  0.37099913  0.62570401  1
  Fe  Fe9  1  -0.00403003  0.49750678  0.00013985  1
  Fe  Fe10  1  -0.00108342  0.75559050  0.24846875  1
  Fe  Fe11  1  0.75080573  0.50065425  0.75002719  1
  Fe  Fe12  1  0.74949830  0.74934806  -0.00356758  1
  Fe  Fe13  1  0.74807405  0.00240494  0.49915094  1
  Fe  Fe14  1  0.75176592  0.00322388  -0.00187521  1
  Fe  Fe15  1  0.24902136  0.24851278  0.25123852  1
  Fe  Fe16  1  0.87343605  0.62495245  0.12704817  1
  Fe  Fe17  1  0.37409913  0.12822615  0.62986072  1
  Fe  Fe18  1  0.50189488  0.75250586  0.74981975  1
  Fe  Fe19  1  0.49929611  0.75355699  0.25020150  1
  Fe  Fe20  1  0.50213090  0.24895602  0.50221327  1
  Fe  Fe21  1  0.38136856  0.12570822  0.37202151  1
  Fe  Fe22  1  0.50259749  0.25099153  0.00198574  1
  Fe  Fe23  1  0.75224269  0.24914753  -0.00219795  1
  Fe  Fe24  1  0.74777899  0.24940909  0.74862793  1
  Fe  Fe25  1  0.12229963  0.37455510  0.87503244  1
  Fe  Fe26  1  0.12499655  0.87576749  0.37553780  1
  Fe  Fe27  1  0.25259667  -0.00023423  0.25035114  1
  Fe  Fe28  1  0.87506216  0.36885095  0.37487488  1
  Fe  Fe29  1  0.62701494  0.37253180  0.37756166  1
  Fe  Fe30  1  0.12349005  0.62461689  0.12605300  1
  Fe  Fe31  1  0.24823111  0.75037862  -0.00075068  1
  Fe  Fe32  1  0.37473423  0.62584864  0.37473038  1
  Fe  Fe33  1  -0.00391356  0.24975799  -0.00011784  1
  Fe  Fe34  1  0.12479843  0.37084416  0.38170074  1
  Fe  Fe35  1  0.75374325  0.49906320  0.49909786  1
  Fe  Fe36  1  -0.00061986  0.75361237  0.00254465  1
  Fe  Fe37  1  -0.00023280  0.49661292  0.25232493  1
  Fe  Fe38  1  0.50086989  0.49775142  0.25028788  1
  Fe  Fe39  1  0.87889115  0.62822220  0.37634995  1
  Fe  Fe40  1  0.87702644  0.62635711  0.62423044  1
  Fe  Fe41  1  0.25198207  0.00493931  0.75738608  1
  Fe  Fe42  1  0.74887369  0.75149077  0.75021835  1
  Fe  Fe43  1  0.74761984  0.24810717  0.25131248  1
  Fe  Fe44  1  0.37318485  0.87624609  0.12126417  1
  Fe  Fe45  1  0.12428343  0.37270221  0.12432258  1
  Fe  Fe46  1  0.87446131  0.12676281  0.12723677  1
  Fe  Fe47  1  0.75383774  0.49883140  -0.00235410  1
  Fe  Fe48  1  0.62870917  0.87756477  0.12546521  1
  Fe  Fe49  1  0.62628979  0.37578321  0.87386159  1
  Fe  Fe50  1  0.62426709  0.62409380  0.37520710  1
  Fe  Fe51  1  0.37498359  0.37087393  0.87252478  1
  Fe  Fe52  1  0.62939797  0.37704486  0.12576320  1
  Fe  Fe53  1  -0.00043266  0.00008070  0.50262509  1
  Fe  Fe54  1  0.37494639  0.62601579  0.87361543  1
  Fe  Fe55  1  0.62343430  0.12168008  0.62603470  1
  Fe  Fe56  1  0.37454060  0.37293575  0.37595922  1
  Fe  Fe57  1  0.24961525  0.75095624  0.25059313  1
  Fe  Fe58  1  0.74920362  0.75182397  0.49910222  1
  Fe  Fe59  1  0.00197138  0.75307724  0.74732158  1
  Fe  Fe60  1  0.37479187  0.62609440  0.62563267  1
  Fe  Fe61  1  0.37283474  0.87515526  0.62493492  1
  Fe  Fe62  1  -0.00335534  -0.00322025  0.24688085  1
  Fe  Fe63  1  0.24756013  0.74774976  0.49928487  1
  Fe  Fe64  1  0.12878972  0.88036347  0.62422541  1
  Fe  Fe65  1  0.25451197  0.00350945  0.49734232  1
  Fe  Fe66  1  0.87368634  0.12309219  0.62776116  1
  Fe  Fe67  1  0.75101275  0.75322264  0.25361131  1
  Fe  Fe68  1  0.12460147  0.12235267  0.12305479  1
  Fe  Fe69  1  0.37290390  0.37391214  0.12508674  1
  Fe  Fe70  1  0.87682437  0.87960230  0.87360868  1
  Fe  Fe71  1  0.50249855  0.74990658  -0.00121014  1
  Fe  Fe72  1  0.87729889  0.62557265  0.87253838  1
  Fe  Fe73  1  0.24742140  0.49955244  0.25292210  1
  Fe  Fe74  1  0.37486763  0.62451770  0.12507311  1
  Fe  Fe75  1  0.00593920  0.24602802  0.74623338  1
  Fe  Fe76  1  0.12291001  0.62441241  0.87597562  1
  Fe  Fe77  1  0.12194575  0.62078063  0.62104934  1
  Fe  Fe78  1  0.62322529  0.12200543  0.12916205  1
  Fe  Fe79  1  0.49990861  0.50017450  -0.00069932  1
  Fe  Fe80  1  0.62316989  0.88103357  0.37628093  1
  Fe  Fe81  1  0.87277799  0.87625964  0.62448395  1
  Fe  Fe82  1  0.49862571  0.49888518  0.50117025  1
  Fe  Fe83  1  0.12306462  0.88074900  0.87839445  1
  Fe  Fe84  1  0.12238272  0.12447563  0.37619264  1
  Fe  Fe85  1  0.24671406  0.49810576  0.74863400  1
  Fe  Fe86  1  0.62402883  0.87855543  0.87308801  1
  Fe  Fe87  1  0.50040042  0.75286204  0.50070707  1
  Fe  Fe88  1  0.62788765  0.62401240  0.12649692  1
  Fe  Fe89  1  0.87730747  0.37409209  0.62682008  1
  Co  Co90  1  0.86837909  0.87396600  0.12288556  1
  Co  Co91  1  0.49772198  0.00168865  0.50327341  1
  Co  Co92  1  0.25133262  0.50226141  0.49897843  1
  Co  Co93  1  0.49666342  -0.00279896  0.74869255  1
  Co  Co94  1  0.12693580  0.37383478  0.61937383  1
  Co  Co95  1  0.00221894  0.00093871  0.74590442  1
  Co  Co96  1  0.25227660  0.24513361  0.49727404  1
  Co  Co97  1  0.74973166  0.24699735  0.50269871  1
  Co  Co98  1  0.62603418  0.87637061  0.62378276  1
  Co  Co99  1  0.75203383  0.49975360  0.25427398  1
  Co  Co100  1  0.62745414  0.37756285  0.62277017  1
  Co  Co101  1  0.49698356  -0.00420106  0.24827947  1
  Co  Co102  1  0.62441233  0.62247175  0.87286724  1
  Co  Co103  1  0.37550680  0.87279793  0.87588596  1
  Co  Co104  1  -0.00205978  0.24618907  0.50431037  1
  Co  Co105  1  0.87308437  0.37292175  0.12836390  1
  Co  Co106  1  0.24248176  0.24679458  0.75417300  1
  Co  Co107  1  0.11826674  0.12068763  0.88021360  1
  Co  Co108  1  0.00261125  0.50025353  0.74922992  1
  Co  Co109  1  0.00236405  0.24911413  0.24968447  1
  Co  Co110  1  0.13016743  0.12303106  0.62153900  1
  Co  Co111  1  0.87735092  0.12416595  0.87051615  1
  Co  Co112  1  0.12878725  0.87846944  0.12401398  1
  Co  Co113  1  0.87581171  0.87675579  0.37958257  1
  Co  Co114  1  0.87576222  0.37146803  0.86914461  1
  Co  Co115  1  -0.00606074  -0.00050251  0.00552425  1
  Co  Co116  1  -0.00323828  0.49732525  0.49726836  1
  Co  Co117  1  0.12160372  0.62786247  0.37504083  1
  Co  Co118  1  0.50044466  0.00007458  -0.00002178  1
  Co  Co119  1  0.50453716  0.25284138  0.74698074  1
  Co  Co120  1  0.75343232  0.00053677  0.25200332  1
  Co  Co121  1  0.74883237  -0.00058204  0.75025799  1
  Co  Co122  1  0.00237989  0.75441301  0.50405398  1
  Co  Co123  1  0.62183050  0.12382869  0.37337531  1
  Co  Co124  1  0.25455381  0.00387985  -0.00423538  1
  Co  Co125  1  0.37387809  0.87409925  0.37842156  1
  Co  Co126  1  0.38215456  0.13044580  0.87367117  1
  Co  Co127  1  0.50159392  0.25372022  0.24837408  1
