# generated using pymatgen
data_Fe45Co19
_symmetry_space_group_name_H-M   'P 1'
_cell_length_a   11.42256313
_cell_length_b   11.42329490
_cell_length_c   11.42306178
_cell_angle_alpha   90.00508670
_cell_angle_beta   89.99810316
_cell_angle_gamma   89.99197281
_symmetry_Int_Tables_number   1
_chemical_formula_structural   Fe45Co19
_chemical_formula_sum   'Fe90 Co38'
_cell_volume   1490.51885835
_cell_formula_units_Z   2
loop_
 _symmetry_equiv_pos_site_id
 _symmetry_equiv_pos_as_xyz
  1  'x, y, z'
loop_
 _atom_site_type_symbol
 _atom_site_label
 _atom_site_symmetry_multiplicity
 _atom_site_fract_x
 _atom_site_fract_y
 _atom_site_fract_z
 _atom_site_occupancy
  Fe  Fe0  1  0.75138553  0.75097103  0.74705241  1
  Fe  Fe1  1  0.37480827  0.62416899  0.62682447  1
  Fe  Fe2  1  -0.00100735  0.50069718  0.25048314  1
  Fe  Fe3  1  0.49756488  0.00207189  0.75326720  1
  Fe  Fe4  1  0.87481368  0.62440207  0.87357987  1
  Fe  Fe5  1  -0.00000057  0.24890241  0.50367054  1
  Fe  Fe6  1  0.25171293  0.74904791  -0.00137187  1
  Fe  Fe7  1  0.25054658  0.74942777  0.24923456  1
  Fe  Fe8  1  0.87400336  0.62704929  0.37682652  1
  Fe  Fe9  1  0.00063774  0.00173922  0.50098193  1
  Fe  Fe10  1  0.12151866  0.62476426  0.12370103  1
  Fe  Fe11  1  0.12327161  0.12708295  0.87062780  1
  Fe  Fe12  1  0.00041580  0.50154483  0.50275265  1
  Fe  Fe13  1  0.74686794  0.25243701  0.25068358  1
  Fe  Fe14  1  0.87393767  0.37590976  0.87313197  1
  Fe  Fe15  1  0.37675006  0.37409297  0.87371450  1
  Fe  Fe16  1  0.74901744  0.24959747  -0.00190844  1
  Fe  Fe17  1  0.12402033  0.12539457  0.12523614  1
  Fe  Fe18  1  0.37667141  0.62446500  0.37384719  1
  Fe  Fe19  1  0.00042160  0.25097652  0.24994876  1
  Fe  Fe20  1  0.50399668  0.50083707  0.75105335  1
  Fe  Fe21  1  0.49943928  0.75169213  0.24788441  1
  Fe  Fe22  1  0.62545326  0.87392054  0.87523693  1
  Fe  Fe23  1  0.25206969  0.49957265  0.50194288  1
  Fe  Fe24  1  0.62530760  0.62458259  0.12496590  1
  Fe  Fe25  1  0.12619734  0.87615450  0.62608373  1
  Fe  Fe26  1  0.74719780  0.49886635  0.25404708  1
  Fe  Fe27  1  0.37794292  0.37267954  0.37592453  1
  Fe  Fe28  1  0.12361281  0.37434067  0.87215511  1
  Fe  Fe29  1  0.49762688  0.74985010  -0.00144554  1
  Fe  Fe30  1  0.12696830  0.12606908  0.37553568  1
  Fe  Fe31  1  0.74890283  0.00186784  0.50033934  1
  Fe  Fe32  1  0.24854298  0.25214343  0.00004308  1
  Fe  Fe33  1  0.25279364  0.74995637  0.50141393  1
  Fe  Fe34  1  0.62548830  0.37621876  0.62123685  1
  Fe  Fe35  1  0.74681871  0.25086108  0.74956991  1
  Fe  Fe36  1  0.25386661  0.00113584  0.50152825  1
  Fe  Fe37  1  0.62352794  0.12825840  0.37510845  1
  Fe  Fe38  1  0.50008112  0.74784746  0.50103843  1
  Fe  Fe39  1  0.50233802  0.50100130  -0.00303449  1
  Fe  Fe40  1  0.12446444  0.62446129  0.87346463  1
  Fe  Fe41  1  0.25175271  -0.00117114  0.25090282  1
  Fe  Fe42  1  0.25363963  0.00250896  0.74980843  1
  Fe  Fe43  1  0.24934493  0.49867237  0.74850978  1
  Fe  Fe44  1  -0.00094497  0.74908516  0.50336905  1
  Fe  Fe45  1  -0.00048627  -0.00079162  -0.00247122  1
  Fe  Fe46  1  0.49626317  0.00229061  0.49875517  1
  Fe  Fe47  1  0.75161951  0.74937670  0.00115445  1
  Fe  Fe48  1  0.12601980  0.62446254  0.37687711  1
  Fe  Fe49  1  0.74975225  0.74982746  0.24986630  1
  Fe  Fe50  1  0.62424671  0.87409942  0.37628241  1
  Fe  Fe51  1  0.49902351  -0.00096883  -0.00153677  1
  Fe  Fe52  1  0.00030269  0.50047746  0.74726766  1
  Fe  Fe53  1  0.25284759  0.74960238  0.75083570  1
  Fe  Fe54  1  0.12483112  0.37546772  0.37720214  1
  Fe  Fe55  1  0.62255639  0.87620354  0.62497563  1
  Fe  Fe56  1  0.75087850  -0.00088971  0.00056632  1
  Fe  Fe57  1  -0.00054510  0.25168351  -0.00093572  1
  Fe  Fe58  1  0.25115047  0.24915077  0.50387132  1
  Fe  Fe59  1  0.87466206  0.37286643  0.37791899  1
  Fe  Fe60  1  0.62536943  0.12435474  0.12457562  1
  Fe  Fe61  1  0.12407585  0.87330109  0.12453490  1
  Fe  Fe62  1  0.12545910  0.87362598  0.37617482  1
  Fe  Fe63  1  0.50325096  0.25026607  -0.00164931  1
  Fe  Fe64  1  0.87408929  0.87462849  0.37756078  1
  Fe  Fe65  1  0.37584289  0.12642598  0.12451278  1
  Fe  Fe66  1  0.87137406  0.37794987  0.62465987  1
  Fe  Fe67  1  0.00018639  -0.00062645  0.25122390  1
  Fe  Fe68  1  0.87658050  0.12340287  0.62824322  1
  Fe  Fe69  1  0.37825497  0.37347236  0.62771304  1
  Fe  Fe70  1  0.25073818  0.25261610  0.24756188  1
  Fe  Fe71  1  0.62866704  0.62267299  0.62331405  1
  Fe  Fe72  1  0.87371558  0.37699591  0.12422662  1
  Fe  Fe73  1  0.74894762  0.50136963  -0.00253292  1
  Fe  Fe74  1  0.24788443  0.49783770  0.00042950  1
  Fe  Fe75  1  0.87498156  0.12610222  0.12553912  1
  Fe  Fe76  1  -0.00262051  0.75174791  0.74872260  1
  Fe  Fe77  1  0.37560163  0.62214706  0.12407442  1
  Fe  Fe78  1  0.87485314  0.12498620  0.87246863  1
  Fe  Fe79  1  0.87428359  0.12629447  0.37454067  1
  Fe  Fe80  1  0.49833352  -0.00081465  0.25031124  1
  Fe  Fe81  1  0.50310981  0.49544568  0.25153777  1
  Fe  Fe82  1  0.12619665  0.87468307  0.87394411  1
  Fe  Fe83  1  0.62295099  0.12442242  0.62576764  1
  Fe  Fe84  1  0.49958712  0.74740977  0.75168304  1
  Fe  Fe85  1  0.25021340  0.49795534  0.24880786  1
  Fe  Fe86  1  0.87745965  0.87339764  0.12518940  1
  Fe  Fe87  1  0.75030588  -0.00174820  0.74996308  1
  Fe  Fe88  1  0.74947888  -0.00084923  0.24990733  1
  Fe  Fe89  1  0.25075770  0.00111238  -0.00183568  1
  Co  Co90  1  0.74712682  0.49966049  0.75218495  1
  Co  Co91  1  0.62488540  0.37533984  0.87548763  1
  Co  Co92  1  0.37787751  0.37577723  0.12180488  1
  Co  Co93  1  0.62714828  0.37657785  0.12172719  1
  Co  Co94  1  0.37494580  0.12964111  0.87628033  1
  Co  Co95  1  -0.00044501  0.74870309  0.25173649  1
  Co  Co96  1  0.62705306  0.12202178  0.87528914  1
  Co  Co97  1  0.12538513  0.37507292  0.62410482  1
  Co  Co98  1  0.87417316  0.87738634  0.62198304  1
  Co  Co99  1  -0.00093778  -0.00369936  0.75158573  1
  Co  Co100  1  0.00010710  0.49902229  -0.00177445  1
  Co  Co101  1  0.37757274  0.87422129  0.62619659  1
  Co  Co102  1  0.12687294  0.62664963  0.62597401  1
  Co  Co103  1  -0.00166907  0.25302121  0.74752514  1
  Co  Co104  1  0.74917257  0.50120989  0.49434599  1
  Co  Co105  1  0.37691959  0.12769688  0.62841222  1
  Co  Co106  1  0.37344630  0.62097159  0.87465918  1
  Co  Co107  1  0.37534169  0.87528259  0.87414997  1
  Co  Co108  1  0.62755234  0.62865382  0.87529376  1
  Co  Co109  1  0.62282254  0.62703360  0.37455095  1
  Co  Co110  1  0.12413520  0.12339772  0.62796162  1
  Co  Co111  1  0.49865261  0.50193202  0.50047479  1
  Co  Co112  1  0.74820172  0.75057681  0.50122127  1
  Co  Co113  1  0.62333983  0.37104028  0.38205579  1
  Co  Co114  1  0.87130667  0.62208595  0.62509449  1
  Co  Co115  1  0.37595110  0.87249632  0.37563953  1
  Co  Co116  1  0.50509170  0.24993104  0.75173631  1
  Co  Co117  1  0.75102702  0.24645409  0.50305308  1
  Co  Co118  1  0.87168354  0.87505239  0.87548308  1
  Co  Co119  1  -0.00102116  0.74996719  -0.00331621  1
  Co  Co120  1  0.87444269  0.62257068  0.12477719  1
  Co  Co121  1  0.37329884  0.87570632  0.12372611  1
  Co  Co122  1  0.50251993  0.25232523  0.24722360  1
  Co  Co123  1  0.37442784  0.12850334  0.37251020  1
  Co  Co124  1  0.49850671  0.24756121  0.50233954  1
  Co  Co125  1  0.24965818  0.25026687  0.74816433  1
  Co  Co126  1  0.12185857  0.37563394  0.12615337  1
  Co  Co127  1  0.62472917  0.87465528  0.12341839  1
