# generated using pymatgen
data_Fe45Co19
_symmetry_space_group_name_H-M   'P 1'
_cell_length_a   11.41396646
_cell_length_b   11.41630631
_cell_length_c   11.41629172
_cell_angle_alpha   89.99724602
_cell_angle_beta   90.00230565
_cell_angle_gamma   89.99590091
_symmetry_Int_Tables_number   1
_chemical_formula_structural   Fe45Co19
_chemical_formula_sum   'Fe90 Co38'
_cell_volume   1487.60373712
_cell_formula_units_Z   2
loop_
 _symmetry_equiv_pos_site_id
 _symmetry_equiv_pos_as_xyz
  1  'x, y, z'
loop_
 _atom_site_type_symbol
 _atom_site_label
 _atom_site_symmetry_multiplicity
 _atom_site_fract_x
 _atom_site_fract_y
 _atom_site_fract_z
 _atom_site_occupancy
  Fe  Fe0  1  0.87928050  0.12451772  0.62728788  1
  Fe  Fe1  1  0.87687318  0.37629170  0.37582891  1
  Fe  Fe2  1  0.50178297  0.00251694  0.75098967  1
  Fe  Fe3  1  0.62307554  0.12473665  0.12244827  1
  Fe  Fe4  1  0.25128259  0.75193617  0.49889063  1
  Fe  Fe5  1  0.12375546  0.62526367  0.37370322  1
  Fe  Fe6  1  0.75253985  0.24839347  0.49758666  1
  Fe  Fe7  1  0.25196734  0.24912789  0.49656825  1
  Fe  Fe8  1  0.62377423  0.12440094  0.37601162  1
  Fe  Fe9  1  0.87261454  0.62447509  0.62263307  1
  Fe  Fe10  1  0.25383535  0.74934748  0.25157826  1
  Fe  Fe11  1  0.37421906  0.87606385  0.87389497  1
  Fe  Fe12  1  0.37516385  0.12326215  0.12358177  1
  Fe  Fe13  1  0.00024662  0.49930863  0.74801863  1
  Fe  Fe14  1  0.12317000  0.37624813  0.37328684  1
  Fe  Fe15  1  0.62381282  0.37386710  0.12650208  1
  Fe  Fe16  1  0.62830472  0.62708886  0.12284563  1
  Fe  Fe17  1  0.62464927  0.37379642  0.37318245  1
  Fe  Fe18  1  0.87606034  0.37452927  0.62241153  1
  Fe  Fe19  1  0.62520228  0.37144975  0.62686068  1
  Fe  Fe20  1  0.37441964  0.12238923  0.87555295  1
  Fe  Fe21  1  0.37789335  0.87530605  0.12689967  1
  Fe  Fe22  1  0.87568302  0.87630990  0.62571679  1
  Fe  Fe23  1  0.49996050  0.50053303  -0.00073635  1
  Fe  Fe24  1  0.12422205  0.12476663  0.37378811  1
  Fe  Fe25  1  0.87261399  0.62432877  0.87908905  1
  Fe  Fe26  1  0.24416217  0.00013713  0.74567535  1
  Fe  Fe27  1  0.75149897  0.24905158  -0.00130100  1
  Fe  Fe28  1  0.25163999  0.50347687  0.24875930  1
  Fe  Fe29  1  0.00555772  -0.00368614  0.00107328  1
  Fe  Fe30  1  0.49884326  0.50067159  0.75136952  1
  Fe  Fe31  1  0.74855829  0.00143500  0.50262103  1
  Fe  Fe32  1  0.24985407  0.50302573  0.00201113  1
  Fe  Fe33  1  0.25141181  0.24844315  0.25008052  1
  Fe  Fe34  1  0.37557049  0.37529247  0.62491700  1
  Fe  Fe35  1  0.12424282  0.37577832  0.87624231  1
  Fe  Fe36  1  0.24666750  0.24909093  0.00196610  1
  Fe  Fe37  1  0.50056783  0.75160315  0.49993846  1
  Fe  Fe38  1  0.87704309  0.37559325  0.87813896  1
  Fe  Fe39  1  0.74994464  0.00074045  0.24801922  1
  Fe  Fe40  1  0.12161876  0.12567537  0.87381552  1
  Fe  Fe41  1  0.12558029  0.62725445  0.62607530  1
  Fe  Fe42  1  0.75187759  0.75037044  0.75104941  1
  Fe  Fe43  1  0.75237767  0.24660842  0.25028610  1
  Fe  Fe44  1  0.12250789  0.37145724  0.62417931  1
  Fe  Fe45  1  0.62706096  0.62622993  0.37729156  1
  Fe  Fe46  1  0.62474348  0.37239492  0.87376575  1
  Fe  Fe47  1  0.50149256  0.75308094  -0.00020684  1
  Fe  Fe48  1  0.37366672  0.87788366  0.62378185  1
  Fe  Fe49  1  0.87496884  0.37485493  0.12474507  1
  Fe  Fe50  1  0.49614915  0.24687476  0.25244493  1
  Fe  Fe51  1  0.74444555  -0.00278982  -0.00225585  1
  Fe  Fe52  1  0.37306452  0.37710190  0.87558397  1
  Fe  Fe53  1  0.25075857  -0.00002977  0.24993936  1
  Fe  Fe54  1  0.87506057  0.87866702  0.87333997  1
  Fe  Fe55  1  0.12410648  0.87409121  0.37422619  1
  Fe  Fe56  1  -0.00181093  0.74910778  0.49838969  1
  Fe  Fe57  1  0.62676997  0.87444503  0.62819158  1
  Fe  Fe58  1  0.24785202  0.49939395  0.50024284  1
  Fe  Fe59  1  0.62323065  0.12868808  0.62591822  1
  Fe  Fe60  1  0.24735200  -0.00172801  0.00247844  1
  Fe  Fe61  1  0.50134767  0.49794193  0.49900237  1
  Fe  Fe62  1  0.00032790  0.24963422  0.24728313  1
  Fe  Fe63  1  0.87480668  0.87940554  0.37775311  1
  Fe  Fe64  1  0.87664274  0.87191137  0.12260658  1
  Fe  Fe65  1  -0.00032738  0.75137559  0.75251276  1
  Fe  Fe66  1  0.62787031  0.62510046  0.62342462  1
  Fe  Fe67  1  0.37334677  0.62300343  0.62431248  1
  Fe  Fe68  1  0.12062647  0.63029618  0.12792005  1
  Fe  Fe69  1  0.49769874  0.24947038  -0.00194713  1
  Fe  Fe70  1  0.87681365  0.12304938  0.12183799  1
  Fe  Fe71  1  0.49785218  0.50458529  0.25018090  1
  Fe  Fe72  1  0.12662556  0.62467828  0.87308337  1
  Fe  Fe73  1  0.37511594  0.12383344  0.62070284  1
  Fe  Fe74  1  0.75202803  0.50092256  0.24799403  1
  Fe  Fe75  1  0.62435715  0.87574845  0.37196010  1
  Fe  Fe76  1  0.25063212  0.25071801  0.75084902  1
  Fe  Fe77  1  0.00095887  -0.00214646  0.24778365  1
  Fe  Fe78  1  0.87363696  0.62196002  0.37743172  1
  Fe  Fe79  1  0.25091408  0.75045802  0.75020263  1
  Fe  Fe80  1  0.49796292  0.74835406  0.74908777  1
  Fe  Fe81  1  0.00491320  0.00162354  0.50331519  1
  Fe  Fe82  1  0.75035667  0.49902265  0.75057176  1
  Fe  Fe83  1  0.62683642  0.62617492  0.87624756  1
  Fe  Fe84  1  0.75309684  0.75056922  0.25005638  1
  Fe  Fe85  1  0.37826293  0.87820729  0.37548994  1
  Fe  Fe86  1  0.75458409  0.24649646  0.75427344  1
  Fe  Fe87  1  0.00045606  0.50143015  0.00391982  1
  Fe  Fe88  1  0.24884559  0.75087888  0.00030141  1
  Fe  Fe89  1  0.37425951  0.37596517  0.12585015  1
  Co  Co90  1  0.12444984  0.12350534  0.12695733  1
  Co  Co91  1  0.49821578  0.25196484  0.49719085  1
  Co  Co92  1  0.24916790  0.49782772  0.74884566  1
  Co  Co93  1  0.37394137  0.62619629  0.87507899  1
  Co  Co94  1  -0.00211706  0.25180069  0.75322216  1
  Co  Co95  1  0.62414204  0.12726780  0.87573227  1
  Co  Co96  1  0.37499137  0.62439561  0.37955499  1
  Co  Co97  1  0.24436050  -0.00053673  0.50116053  1
  Co  Co98  1  0.37506369  0.12015437  0.37892937  1
  Co  Co99  1  -0.00599155  0.75056621  0.25367926  1
  Co  Co100  1  0.37405876  0.37828260  0.37248983  1
  Co  Co101  1  0.87942244  0.11966713  0.87803818  1
  Co  Co102  1  0.00167302  0.25055222  0.00256299  1
  Co  Co103  1  0.49944052  0.74591106  0.25113448  1
  Co  Co104  1  0.87448106  0.62874631  0.12101670  1
  Co  Co105  1  0.87751985  0.12108570  0.37369806  1
  Co  Co106  1  0.00173578  0.75154060  -0.00419258  1
  Co  Co107  1  -0.00174879  0.24789446  0.49614613  1
  Co  Co108  1  0.74817135  0.75572297  -0.00059667  1
  Co  Co109  1  0.00549962  -0.00194718  0.74713252  1
  Co  Co110  1  0.49531346  0.24858923  0.75135480  1
  Co  Co111  1  0.12408243  0.13162962  0.62556555  1
  Co  Co112  1  0.12715561  0.37680008  0.12634723  1
  Co  Co113  1  -0.00263810  0.50100689  0.24794333  1
  Co  Co114  1  0.37612230  0.62712659  0.12205986  1
  Co  Co115  1  0.12413354  0.86899153  0.62429851  1
  Co  Co116  1  0.74843849  0.49597294  0.50016280  1
  Co  Co117  1  0.74912234  0.49652135  0.00121935  1
  Co  Co118  1  0.74824506  0.00348887  0.75004661  1
  Co  Co119  1  0.62388405  0.87356596  0.86924878  1
  Co  Co120  1  0.50177830  -0.00278401  -0.00122312  1
  Co  Co121  1  0.50407225  -0.00187973  0.50143062  1
  Co  Co122  1  0.49996881  0.00404942  0.24915831  1
  Co  Co123  1  0.12528256  0.87028201  0.12899050  1
  Co  Co124  1  0.00161853  0.50191040  0.50154514  1
  Co  Co125  1  0.75034736  0.75357594  0.49925598  1
  Co  Co126  1  0.12808206  0.87530081  0.87356884  1
  Co  Co127  1  0.62282580  0.87404432  0.13002342  1
