# generated using pymatgen
data_Fe45Co19
_symmetry_space_group_name_H-M   'P 1'
_cell_length_a   11.41564772
_cell_length_b   11.41479872
_cell_length_c   11.41442087
_cell_angle_alpha   90.01167361
_cell_angle_beta   89.99450334
_cell_angle_gamma   90.00015438
_symmetry_Int_Tables_number   1
_chemical_formula_structural   Fe45Co19
_chemical_formula_sum   'Fe90 Co38'
_cell_volume   1487.38256565
_cell_formula_units_Z   2
loop_
 _symmetry_equiv_pos_site_id
 _symmetry_equiv_pos_as_xyz
  1  'x, y, z'
loop_
 _atom_site_type_symbol
 _atom_site_label
 _atom_site_symmetry_multiplicity
 _atom_site_fract_x
 _atom_site_fract_y
 _atom_site_fract_z
 _atom_site_occupancy
  Fe  Fe0  1  0.62536759  0.12293036  0.62552868  1
  Fe  Fe1  1  0.86990257  0.12413993  0.87327217  1
  Fe  Fe2  1  0.00150310  0.25264742  0.49865238  1
  Fe  Fe3  1  0.87392964  0.37494576  0.62718483  1
  Fe  Fe4  1  0.12716952  0.62465143  0.62221580  1
  Fe  Fe5  1  0.24935999  -0.00007755  0.74810144  1
  Fe  Fe6  1  0.12338353  0.87391679  0.87418810  1
  Fe  Fe7  1  0.49979466  0.24869770  0.49765692  1
  Fe  Fe8  1  0.87214729  0.12266382  0.12501856  1
  Fe  Fe9  1  0.12405574  0.12687301  0.62477843  1
  Fe  Fe10  1  0.63014292  0.12194136  0.12417757  1
  Fe  Fe11  1  0.50091945  0.49920727  -0.00039914  1
  Fe  Fe12  1  -0.00124849  0.50242421  0.75004074  1
  Fe  Fe13  1  0.62899914  0.37488363  0.87147478  1
  Fe  Fe14  1  0.25013640  0.75014293  0.25255364  1
  Fe  Fe15  1  0.12453272  0.12634702  0.12433632  1
  Fe  Fe16  1  0.49897172  0.50053609  0.75005949  1
  Fe  Fe17  1  0.25121149  0.49868526  0.75202774  1
  Fe  Fe18  1  -0.00032920  0.24992967  0.25241335  1
  Fe  Fe19  1  0.61930085  0.87549574  0.62338587  1
  Fe  Fe20  1  0.75095491  0.24987435  0.25117048  1
  Fe  Fe21  1  0.62533928  0.37522986  0.12810330  1
  Fe  Fe22  1  0.25044710  0.75022505  0.00107202  1
  Fe  Fe23  1  -0.00117669  -0.00008596  -0.00205679  1
  Fe  Fe24  1  0.00131213  0.74712635  0.25020729  1
  Fe  Fe25  1  0.25091277  0.00000868  0.00273165  1
  Fe  Fe26  1  0.49798653  0.74873183  0.74771679  1
  Fe  Fe27  1  0.37486365  0.62262508  0.12724725  1
  Fe  Fe28  1  0.74982664  0.50137839  0.50167695  1
  Fe  Fe29  1  0.12534820  0.37451696  0.62792058  1
  Fe  Fe30  1  0.87396850  0.62687663  0.12367076  1
  Fe  Fe31  1  0.24848833  0.25132036  0.49825527  1
  Fe  Fe32  1  0.87692308  0.87285977  0.37761010  1
  Fe  Fe33  1  0.50223452  0.24966515  -0.00045993  1
  Fe  Fe34  1  0.37351717  0.12636134  0.87542883  1
  Fe  Fe35  1  0.49970968  0.00063256  0.00074166  1
  Fe  Fe36  1  0.25090331  0.25330981  -0.00042905  1
  Fe  Fe37  1  0.74913353  0.75165773  0.25159067  1
  Fe  Fe38  1  0.37414474  0.12160333  0.62373213  1
  Fe  Fe39  1  0.50018948  0.75066392  0.00110797  1
  Fe  Fe40  1  0.74963433  0.50120374  0.25142318  1
  Fe  Fe41  1  0.74981955  0.75499343  0.00086815  1
  Fe  Fe42  1  0.12369098  0.37603142  0.12780479  1
  Fe  Fe43  1  0.12397654  0.62035693  0.37514427  1
  Fe  Fe44  1  0.37495035  0.87510399  0.87323053  1
  Fe  Fe45  1  0.37503052  0.62493507  0.87613074  1
  Fe  Fe46  1  0.87619406  0.62524424  0.37792702  1
  Fe  Fe47  1  0.87394564  0.62697191  0.87599672  1
  Fe  Fe48  1  0.62528649  0.37663811  0.62534180  1
  Fe  Fe49  1  0.37787133  0.37481153  0.12904788  1
  Fe  Fe50  1  0.12066776  0.87262440  0.62804745  1
  Fe  Fe51  1  0.62326884  0.87565081  0.37609938  1
  Fe  Fe52  1  0.87705587  0.87474653  0.86883801  1
  Fe  Fe53  1  0.00023133  0.49928198  0.00048659  1
  Fe  Fe54  1  0.12731761  0.12677625  0.87475797  1
  Fe  Fe55  1  0.87533108  0.37735056  0.37572039  1
  Fe  Fe56  1  0.36952107  0.11953634  0.37583794  1
  Fe  Fe57  1  0.62915834  0.12333715  0.37674176  1
  Fe  Fe58  1  0.62423864  0.87623335  0.87295237  1
  Fe  Fe59  1  0.25105880  0.49561831  0.49686325  1
  Fe  Fe60  1  0.37562116  0.37330179  0.62510526  1
  Fe  Fe61  1  -0.00229005  0.25066838  -0.00196208  1
  Fe  Fe62  1  0.00146842  0.00196519  0.25128917  1
  Fe  Fe63  1  0.25211450  0.75554823  0.49736953  1
  Fe  Fe64  1  0.74836177  0.75031761  0.74438856  1
  Fe  Fe65  1  0.00213420  -0.00114095  0.50076396  1
  Fe  Fe66  1  0.49845126  0.74939843  0.25287262  1
  Fe  Fe67  1  0.87510852  0.87622592  0.12715696  1
  Fe  Fe68  1  0.24982412  0.49755125  0.00004070  1
  Fe  Fe69  1  0.12303047  0.87316547  0.12478459  1
  Fe  Fe70  1  0.49949317  0.24864240  0.74989167  1
  Fe  Fe71  1  0.75256645  -0.00319168  0.50346080  1
  Fe  Fe72  1  0.87555752  0.12433501  0.37771813  1
  Fe  Fe73  1  -0.00195339  0.24926461  0.75186966  1
  Fe  Fe74  1  0.24787709  0.24966621  0.25264865  1
  Fe  Fe75  1  0.87638966  0.62996673  0.62141976  1
  Fe  Fe76  1  0.37602883  0.87580075  0.12733693  1
  Fe  Fe77  1  0.49840229  0.49859379  0.49638124  1
  Fe  Fe78  1  0.87366039  0.37471088  0.12436259  1
  Fe  Fe79  1  0.25079665  0.74979428  0.74911682  1
  Fe  Fe80  1  0.62422550  0.62590049  0.37827869  1
  Fe  Fe81  1  0.75007827  0.25017566  0.50194203  1
  Fe  Fe82  1  0.50059964  0.00252605  0.24947394  1
  Fe  Fe83  1  0.12477666  0.62601604  0.87821104  1
  Fe  Fe84  1  0.62516590  0.62672513  0.12563099  1
  Fe  Fe85  1  0.62599023  0.62630265  0.87357634  1
  Fe  Fe86  1  0.74924342  0.49930103  -0.00088637  1
  Fe  Fe87  1  0.50200039  0.24762028  0.25314705  1
  Fe  Fe88  1  0.37509136  0.62591780  0.62176592  1
  Fe  Fe89  1  0.62959501  0.12273519  0.87361233  1
  Co  Co90  1  0.25240745  0.24935942  0.74873308  1
  Co  Co91  1  0.00560401  0.74909804  0.49683449  1
  Co  Co92  1  -0.00222369  0.50174613  0.24717698  1
  Co  Co93  1  0.12190975  0.37786145  0.37347906  1
  Co  Co94  1  0.74769046  0.75223995  0.50248667  1
  Co  Co95  1  0.25024621  0.49934247  0.25121332  1
  Co  Co96  1  0.87745338  0.12561648  0.62279417  1
  Co  Co97  1  0.75012649  0.24835995  0.74675059  1
  Co  Co98  1  0.12651816  0.62561186  0.12451949  1
  Co  Co99  1  0.75190900  0.50429726  0.74781814  1
  Co  Co100  1  -0.00186958  0.75150663  0.00077330  1
  Co  Co101  1  0.49883937  0.00209787  0.75219002  1
  Co  Co102  1  0.24735313  0.00069878  0.24512712  1
  Co  Co103  1  0.12423044  0.37439824  0.87247953  1
  Co  Co104  1  0.62342135  0.87584818  0.12684321  1
  Co  Co105  1  0.75097999  -0.00190179  0.25348791  1
  Co  Co106  1  0.50066134  0.00216779  0.49797323  1
  Co  Co107  1  0.87272881  0.37517063  0.87403866  1
  Co  Co108  1  0.50177477  0.50096743  0.25342465  1
  Co  Co109  1  0.62715832  0.37479986  0.37621289  1
  Co  Co110  1  0.12500874  0.87760836  0.37190980  1
  Co  Co111  1  0.37407658  0.88206731  0.37367144  1
  Co  Co112  1  0.00062624  0.00384000  0.75021354  1
  Co  Co113  1  0.62074553  0.62427819  0.62204099  1
  Co  Co114  1  0.37806448  0.87715119  0.62471135  1
  Co  Co115  1  0.37449887  0.12778417  0.12536737  1
  Co  Co116  1  0.12608682  0.12346128  0.37637887  1
  Co  Co117  1  0.00222973  0.74379612  0.75024848  1
  Co  Co118  1  0.75108304  -0.00453283  -0.00076923  1
  Co  Co119  1  0.49524875  0.75100984  0.49724052  1
  Co  Co120  1  0.74954251  0.25052001  0.00119932  1
  Co  Co121  1  0.75174737  -0.00257645  0.74351082  1
  Co  Co122  1  -0.00036070  0.49883329  0.50340973  1
  Co  Co123  1  0.88161796  0.87101365  0.62505570  1
  Co  Co124  1  0.37610492  0.37246751  0.37259655  1
  Co  Co125  1  0.37620567  0.37403124  0.87462279  1
  Co  Co126  1  0.37359704  0.62370642  0.37595667  1
  Co  Co127  1  0.24502125  -0.00455971  0.50454553  1
