# generated using pymatgen
data_Fe45Co19
_symmetry_space_group_name_H-M   'P 1'
_cell_length_a   11.41537086
_cell_length_b   11.41399078
_cell_length_c   11.41393064
_cell_angle_alpha   89.97682635
_cell_angle_beta   90.00736416
_cell_angle_gamma   89.99236699
_symmetry_Int_Tables_number   1
_chemical_formula_structural   Fe45Co19
_chemical_formula_sum   'Fe90 Co38'
_cell_volume   1487.17723627
_cell_formula_units_Z   2
loop_
 _symmetry_equiv_pos_site_id
 _symmetry_equiv_pos_as_xyz
  1  'x, y, z'
loop_
 _atom_site_type_symbol
 _atom_site_label
 _atom_site_symmetry_multiplicity
 _atom_site_fract_x
 _atom_site_fract_y
 _atom_site_fract_z
 _atom_site_occupancy
  Fe  Fe0  1  0.50240893  0.75102247  0.74762659  1
  Fe  Fe1  1  0.00130804  0.75010850  0.25164309  1
  Fe  Fe2  1  0.50323445  0.24957651  0.00076235  1
  Fe  Fe3  1  0.12308386  0.87905027  0.37598218  1
  Fe  Fe4  1  0.25269559  -0.00366138  0.00077182  1
  Fe  Fe5  1  0.24905530  0.25098998  0.00133470  1
  Fe  Fe6  1  0.37628369  0.62652587  0.87613999  1
  Fe  Fe7  1  0.62618066  0.62263666  0.62280475  1
  Fe  Fe8  1  0.37478728  0.12685661  0.62491567  1
  Fe  Fe9  1  0.50213511  0.75352928  0.00088769  1
  Fe  Fe10  1  0.37251148  0.63141613  0.12637679  1
  Fe  Fe11  1  0.74793377  0.24511927  0.50103068  1
  Fe  Fe12  1  -0.00230045  0.00190388  0.74781064  1
  Fe  Fe13  1  0.25081766  -0.00020289  0.24773758  1
  Fe  Fe14  1  0.87324802  0.62798706  0.12779933  1
  Fe  Fe15  1  0.74873289  0.75267019  0.74740828  1
  Fe  Fe16  1  0.12194211  0.87622198  0.87464091  1
  Fe  Fe17  1  0.50541359  0.75161391  0.25356690  1
  Fe  Fe18  1  0.62505194  0.12083898  0.87623689  1
  Fe  Fe19  1  0.37104503  0.37154570  0.37328684  1
  Fe  Fe20  1  0.12342178  0.37431989  0.12844819  1
  Fe  Fe21  1  0.49935784  0.24985814  0.49849473  1
  Fe  Fe22  1  0.87134283  0.62872165  0.37570825  1
  Fe  Fe23  1  -0.00050416  0.00427359  0.24661711  1
  Fe  Fe24  1  -0.00096158  0.74990989  0.74673002  1
  Fe  Fe25  1  0.12245130  0.62149928  0.37633042  1
  Fe  Fe26  1  0.87647294  0.12535684  0.87518365  1
  Fe  Fe27  1  0.49961529  0.50020474  0.74960970  1
  Fe  Fe28  1  0.25020241  0.49796588  0.50046003  1
  Fe  Fe29  1  0.12162126  0.62195038  0.62194272  1
  Fe  Fe30  1  0.75423146  0.49938869  0.50009713  1
  Fe  Fe31  1  0.75142711  0.49727999  0.75008249  1
  Fe  Fe32  1  0.62260983  0.12127548  0.37702310  1
  Fe  Fe33  1  0.12546656  0.87356358  0.12476742  1
  Fe  Fe34  1  0.62673585  0.37564184  0.37326227  1
  Fe  Fe35  1  0.50321921  0.24994214  0.75154197  1
  Fe  Fe36  1  0.49903822  -0.00034349  0.75000698  1
  Fe  Fe37  1  0.12499726  0.12151831  0.87686924  1
  Fe  Fe38  1  0.37547194  0.87322699  0.62254911  1
  Fe  Fe39  1  0.75220633  0.75458211  0.00012237  1
  Fe  Fe40  1  0.25090356  0.00213928  0.50037805  1
  Fe  Fe41  1  0.49784873  0.00109213  0.24948995  1
  Fe  Fe42  1  0.75470717  -0.00277992  0.00008130  1
  Fe  Fe43  1  0.37096034  0.12887411  0.37459309  1
  Fe  Fe44  1  0.87747083  0.36835085  0.62619433  1
  Fe  Fe45  1  -0.00336320  0.49943640  0.74951551  1
  Fe  Fe46  1  0.37664960  0.87274190  0.87485401  1
  Fe  Fe47  1  0.12492656  0.37672763  0.87491194  1
  Fe  Fe48  1  0.50008029  0.50001152  0.25047366  1
  Fe  Fe49  1  0.75099118  0.49835478  0.00101472  1
  Fe  Fe50  1  0.62582477  0.87948482  0.12604495  1
  Fe  Fe51  1  0.25176793  0.50281905  0.74953728  1
  Fe  Fe52  1  0.00178540  0.24791504  0.00124730  1
  Fe  Fe53  1  0.74727636  0.24970700  -0.00121230  1
  Fe  Fe54  1  0.87342421  0.62686691  0.87385001  1
  Fe  Fe55  1  0.12395496  0.87726313  0.62281989  1
  Fe  Fe56  1  0.37574232  0.62581858  0.37581149  1
  Fe  Fe57  1  0.62653789  0.37252190  0.62547388  1
  Fe  Fe58  1  -0.00354331  0.49948776  0.25079215  1
  Fe  Fe59  1  0.24921804  0.74837840  0.74855714  1
  Fe  Fe60  1  -0.00210953  0.50023996  0.00283791  1
  Fe  Fe61  1  0.87326559  0.36879305  0.12854003  1
  Fe  Fe62  1  0.62666419  0.62545582  0.87541561  1
  Fe  Fe63  1  0.37340832  0.37340819  0.62533116  1
  Fe  Fe64  1  0.87988928  0.12662670  0.37687712  1
  Fe  Fe65  1  0.12260779  0.62540136  0.87685438  1
  Fe  Fe66  1  0.37558568  0.37568031  0.87580642  1
  Fe  Fe67  1  0.37467324  0.87392917  0.37404134  1
  Fe  Fe68  1  0.75271227  0.00368134  0.25064228  1
  Fe  Fe69  1  0.24909454  0.50218569  0.00251414  1
  Fe  Fe70  1  0.50486608  0.75046987  0.49691642  1
  Fe  Fe71  1  0.50111607  0.49990466  0.00242039  1
  Fe  Fe72  1  0.25181468  -0.00125566  0.74984636  1
  Fe  Fe73  1  0.75236503  0.00380405  0.74504393  1
  Fe  Fe74  1  0.37576737  0.37243654  0.12715253  1
  Fe  Fe75  1  0.49951645  0.49855649  0.49961298  1
  Fe  Fe76  1  0.01092850  0.24968775  0.49989908  1
  Fe  Fe77  1  0.62865677  0.62442182  0.12802732  1
  Fe  Fe78  1  0.87648332  0.36895055  0.37433717  1
  Fe  Fe79  1  -0.00265492  0.75289636  -0.00012916  1
  Fe  Fe80  1  0.62487848  0.88174769  0.61896599  1
  Fe  Fe81  1  0.24560694  0.25006147  0.74835821  1
  Fe  Fe82  1  0.87491209  0.37103665  0.87407664  1
  Fe  Fe83  1  0.62761908  0.37282393  0.12988253  1
  Fe  Fe84  1  0.37577891  0.12633393  0.12470056  1
  Fe  Fe85  1  0.87500737  0.87442408  0.62030385  1
  Fe  Fe86  1  0.87321052  0.87454272  0.37592809  1
  Fe  Fe87  1  0.24949217  0.50265145  0.24824910  1
  Fe  Fe88  1  0.24743678  0.74987189  0.49836075  1
  Fe  Fe89  1  0.37497703  0.12565179  0.87567155  1
  Co  Co90  1  0.74823868  0.24411719  0.25374653  1
  Co  Co91  1  0.74502909  0.75345543  0.25187869  1
  Co  Co92  1  0.12325126  0.62807312  0.12475188  1
  Co  Co93  1  0.62645204  0.87785650  0.87419171  1
  Co  Co94  1  0.62086659  0.12304658  0.62311599  1
  Co  Co95  1  0.74604965  0.75025970  0.49874902  1
  Co  Co96  1  0.12641479  0.37665411  0.37077850  1
  Co  Co97  1  0.12329979  0.38047049  0.62664591  1
  Co  Co98  1  0.24694644  0.24832032  0.24795539  1
  Co  Co99  1  0.24429460  0.24997067  0.50310739  1
  Co  Co100  1  0.37638315  0.62679576  0.62159136  1
  Co  Co101  1  0.24615602  0.74976635  0.25516952  1
  Co  Co102  1  0.49642485  -0.00176320  0.00073797  1
  Co  Co103  1  0.12659098  0.12292768  0.12229086  1
  Co  Co104  1  0.62746271  0.88341330  0.37746492  1
  Co  Co105  1  0.49366299  0.00152011  0.49807545  1
  Co  Co106  1  0.50237009  0.24820902  0.25137883  1
  Co  Co107  1  -0.00125515  0.00077402  0.50009345  1
  Co  Co108  1  0.75496764  0.00555172  0.50110553  1
  Co  Co109  1  0.62795144  0.61961945  0.37457086  1
  Co  Co110  1  -0.00246788  -0.00175801  0.00261479  1
  Co  Co111  1  0.37453030  0.87075988  0.12817645  1
  Co  Co112  1  0.87322564  0.12762412  0.12267674  1
  Co  Co113  1  0.00253362  0.24579771  0.24868503  1
  Co  Co114  1  0.75460792  0.49771785  0.25162324  1
  Co  Co115  1  0.87597570  0.87570101  0.87038289  1
  Co  Co116  1  0.12493612  0.12005496  0.62601947  1
  Co  Co117  1  0.62424806  0.37677319  0.87488547  1
  Co  Co118  1  0.87401968  0.62650971  0.62447866  1
  Co  Co119  1  -0.00545751  0.49805470  0.49767580  1
  Co  Co120  1  0.00521333  0.24854844  0.75200487  1
  Co  Co121  1  0.88034186  0.13153975  0.62373625  1
  Co  Co122  1  0.87576693  0.87441654  0.13022745  1
  Co  Co123  1  0.74737154  0.24637418  0.75044226  1
  Co  Co124  1  0.62623286  0.12191273  0.12391397  1
  Co  Co125  1  0.24883274  0.75221940  -0.00298245  1
  Co  Co126  1  0.00008411  0.75047036  0.49919668  1
  Co  Co127  1  0.12772097  0.12272931  0.37331911  1
