# generated using pymatgen
data_Fe45Co19
_symmetry_space_group_name_H-M   'P 1'
_cell_length_a   11.41468311
_cell_length_b   11.41541041
_cell_length_c   11.41534197
_cell_angle_alpha   90.00537285
_cell_angle_beta   90.00504975
_cell_angle_gamma   89.99382536
_symmetry_Int_Tables_number   1
_chemical_formula_structural   Fe45Co19
_chemical_formula_sum   'Fe90 Co38'
_cell_volume   1487.45662211
_cell_formula_units_Z   2
loop_
 _symmetry_equiv_pos_site_id
 _symmetry_equiv_pos_as_xyz
  1  'x, y, z'
loop_
 _atom_site_type_symbol
 _atom_site_label
 _atom_site_symmetry_multiplicity
 _atom_site_fract_x
 _atom_site_fract_y
 _atom_site_fract_z
 _atom_site_occupancy
  Fe  Fe0  1  0.50146462  0.25317746  0.00104435  1
  Fe  Fe1  1  0.49995208  0.49935218  0.24674767  1
  Fe  Fe2  1  -0.00200584  0.24716437  0.74984987  1
  Fe  Fe3  1  0.62175099  0.62630203  0.37532689  1
  Fe  Fe4  1  0.75146770  0.24988878  0.49617542  1
  Fe  Fe5  1  0.49971995  0.49789757  0.50130745  1
  Fe  Fe6  1  0.12553518  0.12571703  0.62318038  1
  Fe  Fe7  1  -0.00282073  0.24733118  0.49717289  1
  Fe  Fe8  1  0.49490042  0.75483214  0.49521719  1
  Fe  Fe9  1  0.87257150  0.37167496  0.12811278  1
  Fe  Fe10  1  0.37267061  0.62750681  0.62081574  1
  Fe  Fe11  1  0.12454073  0.62331059  0.87546845  1
  Fe  Fe12  1  0.87452828  0.12218821  0.87555422  1
  Fe  Fe13  1  0.62636257  0.62710510  0.12490472  1
  Fe  Fe14  1  0.74786190  0.49983758  0.74728012  1
  Fe  Fe15  1  0.50058963  0.00081505  0.74745647  1
  Fe  Fe16  1  0.87531791  0.62523231  0.37603114  1
  Fe  Fe17  1  0.87402275  0.87621548  0.62683629  1
  Fe  Fe18  1  0.25271778  0.50091694  0.74748142  1
  Fe  Fe19  1  0.12364676  0.87745823  0.87498135  1
  Fe  Fe20  1  0.25165254  0.24817207  0.75149782  1
  Fe  Fe21  1  0.37389735  0.62514587  0.12453296  1
  Fe  Fe22  1  0.37273680  0.12838079  0.12454938  1
  Fe  Fe23  1  0.87547446  0.37626098  0.87500199  1
  Fe  Fe24  1  0.12340998  0.37478054  0.62397336  1
  Fe  Fe25  1  0.37858416  0.37864472  0.87506585  1
  Fe  Fe26  1  0.75009360  0.50017982  0.25150036  1
  Fe  Fe27  1  0.12176782  0.12383696  0.87808119  1
  Fe  Fe28  1  0.50068764  -0.00179470  0.00524111  1
  Fe  Fe29  1  0.87394284  0.62673556  0.12459930  1
  Fe  Fe30  1  0.25388613  -0.00217707  0.50146537  1
  Fe  Fe31  1  0.00084841  0.74917455  0.74968332  1
  Fe  Fe32  1  0.24905686  -0.00041347  0.00164794  1
  Fe  Fe33  1  0.12652586  0.87459996  0.62567595  1
  Fe  Fe34  1  0.12666424  0.37100393  0.12641156  1
  Fe  Fe35  1  0.00081116  0.00215273  0.24747973  1
  Fe  Fe36  1  0.75057010  0.49891755  0.49834624  1
  Fe  Fe37  1  0.62182986  0.37800957  0.87293599  1
  Fe  Fe38  1  0.62817921  0.12855136  0.12443858  1
  Fe  Fe39  1  0.62422909  0.12193199  0.37434728  1
  Fe  Fe40  1  0.12409150  0.37544175  0.87367384  1
  Fe  Fe41  1  0.12869488  0.62220644  0.38047483  1
  Fe  Fe42  1  0.25054399  0.49942842  0.24973259  1
  Fe  Fe43  1  0.49937994  0.74906596  0.75086200  1
  Fe  Fe44  1  0.87416402  0.87881148  0.87517031  1
  Fe  Fe45  1  0.74820796  0.75228986  0.25372443  1
  Fe  Fe46  1  0.12451246  0.87775506  0.37465557  1
  Fe  Fe47  1  0.87340040  0.12788879  0.12386343  1
  Fe  Fe48  1  0.74862897  0.49844757  0.00150818  1
  Fe  Fe49  1  0.87490208  0.62290514  0.87614309  1
  Fe  Fe50  1  0.37572909  0.37483531  0.37341672  1
  Fe  Fe51  1  0.62585928  0.87679623  0.87637496  1
  Fe  Fe52  1  0.62460007  0.62832403  0.62175207  1
  Fe  Fe53  1  0.00031918  0.75061851  0.00029619  1
  Fe  Fe54  1  0.74934919  -0.00298192  0.49972638  1
  Fe  Fe55  1  0.37673892  0.12377467  0.87608072  1
  Fe  Fe56  1  0.87515555  0.37408163  0.62359013  1
  Fe  Fe57  1  0.00231931  0.24612002  0.25285848  1
  Fe  Fe58  1  0.25057929  0.74992747  -0.00105345  1
  Fe  Fe59  1  0.62318521  0.37103558  0.62660912  1
  Fe  Fe60  1  0.62567810  0.12826473  0.62589000  1
  Fe  Fe61  1  0.24979451  0.50012726  0.00087609  1
  Fe  Fe62  1  0.37616643  0.12321119  0.37490185  1
  Fe  Fe63  1  0.24974405  0.74798046  0.75090053  1
  Fe  Fe64  1  -0.00214915  0.00083704  0.50078384  1
  Fe  Fe65  1  0.00067060  0.50156163  0.25055962  1
  Fe  Fe66  1  0.49943335  0.75141837  0.00276657  1
  Fe  Fe67  1  0.87265628  0.87281017  0.12423739  1
  Fe  Fe68  1  0.74910981  -0.00193142  0.24970718  1
  Fe  Fe69  1  0.62643357  0.12453899  0.87511460  1
  Fe  Fe70  1  0.25323598  0.74893585  0.25482129  1
  Fe  Fe71  1  0.00155490  0.49875293  0.00368000  1
  Fe  Fe72  1  0.49996362  0.24981549  0.24971855  1
  Fe  Fe73  1  0.00084794  0.50181943  0.74668718  1
  Fe  Fe74  1  0.24868432  0.00436028  0.24861790  1
  Fe  Fe75  1  0.25046273  0.00251076  0.74927096  1
  Fe  Fe76  1  0.62243952  0.62217214  0.87584715  1
  Fe  Fe77  1  0.37555799  0.87624374  0.87482439  1
  Fe  Fe78  1  0.87354087  0.62559031  0.62405966  1
  Fe  Fe79  1  0.00159665  0.74925801  0.50050288  1
  Fe  Fe80  1  0.49864123  -0.00154831  0.50366796  1
  Fe  Fe81  1  0.24983446  0.25094724  -0.00208667  1
  Fe  Fe82  1  0.62538998  0.37488849  0.37296975  1
  Fe  Fe83  1  0.00184446  0.74840930  0.25127827  1
  Fe  Fe84  1  0.37902765  0.36944633  0.62626274  1
  Fe  Fe85  1  0.74908848  0.75090614  0.75184450  1
  Fe  Fe86  1  0.25186652  0.25019185  0.49822592  1
  Fe  Fe87  1  0.12691462  0.87378100  0.12602188  1
  Fe  Fe88  1  0.74956460  0.75426430  0.49633481  1
  Fe  Fe89  1  0.12413769  0.37578182  0.37662576  1
  Co  Co90  1  0.12596031  0.12812427  0.12162801  1
  Co  Co91  1  0.62842668  0.37311513  0.12707583  1
  Co  Co92  1  0.87794438  0.87590773  0.37410039  1
  Co  Co93  1  0.37224114  0.87543465  0.12746488  1
  Co  Co94  1  0.49838251  0.50352784  0.74422985  1
  Co  Co95  1  0.12689568  0.62645362  0.12524342  1
  Co  Co96  1  0.74949923  0.74983323  -0.00319873  1
  Co  Co97  1  0.50067086  0.24925595  0.49539466  1
  Co  Co98  1  0.62688291  0.87226584  0.12598949  1
  Co  Co99  1  0.25338799  0.49425386  0.50291125  1
  Co  Co100  1  0.61944794  0.87766143  0.37265743  1
  Co  Co101  1  0.37459123  0.87397472  0.62974508  1
  Co  Co102  1  0.50153023  0.00289927  0.24294951  1
  Co  Co103  1  0.37679600  0.62369786  0.87743495  1
  Co  Co104  1  0.75101215  0.25080495  0.75251202  1
  Co  Co105  1  0.37639252  0.12760600  0.62490294  1
  Co  Co106  1  0.74917556  0.00037402  0.00228837  1
  Co  Co107  1  0.49779790  0.74878810  0.24936123  1
  Co  Co108  1  0.12825300  0.62490156  0.62185955  1
  Co  Co109  1  0.87339541  0.12203133  0.37394543  1
  Co  Co110  1  0.37200249  0.37287515  0.12524861  1
  Co  Co111  1  -0.00014267  -0.00161776  0.00403198  1
  Co  Co112  1  0.87614432  0.37493291  0.37249354  1
  Co  Co113  1  -0.00108965  0.25112709  -0.00051703  1
  Co  Co114  1  -0.00217954  0.50151807  0.49973319  1
  Co  Co115  1  0.74939821  0.25204044  -0.00405303  1
  Co  Co116  1  0.74707138  -0.00052325  0.74824431  1
  Co  Co117  1  0.12587140  0.12221831  0.37903800  1
  Co  Co118  1  0.87198775  0.12446145  0.62483296  1
  Co  Co119  1  0.49972304  0.24737820  0.75372945  1
  Co  Co120  1  0.50082652  0.49926789  0.00575415  1
  Co  Co121  1  0.62396237  0.87183403  0.62448110  1
  Co  Co122  1  0.25290713  0.75570550  0.49509940  1
  Co  Co123  1  0.37563288  0.62032605  0.37646402  1
  Co  Co124  1  0.74887830  0.24849740  0.25421109  1
  Co  Co125  1  0.37824793  0.88173522  0.36866899  1
  Co  Co126  1  0.00105802  0.00154130  0.74828203  1
  Co  Co127  1  0.24928057  0.24763541  0.25396949  1
