# generated using pymatgen
data_Fe45Co19
_symmetry_space_group_name_H-M   'P 1'
_cell_length_a   11.41562922
_cell_length_b   11.41715043
_cell_length_c   11.41499913
_cell_angle_alpha   89.99744426
_cell_angle_beta   90.01255829
_cell_angle_gamma   90.00329510
_symmetry_Int_Tables_number   1
_chemical_formula_structural   Fe45Co19
_chemical_formula_sum   'Fe90 Co38'
_cell_volume   1487.76195561
_cell_formula_units_Z   2
loop_
 _symmetry_equiv_pos_site_id
 _symmetry_equiv_pos_as_xyz
  1  'x, y, z'
loop_
 _atom_site_type_symbol
 _atom_site_label
 _atom_site_symmetry_multiplicity
 _atom_site_fract_x
 _atom_site_fract_y
 _atom_site_fract_z
 _atom_site_occupancy
  Fe  Fe0  1  0.62405241  0.37406546  0.62651432  1
  Fe  Fe1  1  0.49413910  0.24779001  0.75114113  1
  Fe  Fe2  1  0.87995395  0.61856799  0.12523294  1
  Fe  Fe3  1  0.87862395  0.87516464  0.12769681  1
  Fe  Fe4  1  0.75015219  0.00046338  0.00232698  1
  Fe  Fe5  1  0.74776258  0.49837208  0.00348276  1
  Fe  Fe6  1  0.75085280  0.00351742  0.74730373  1
  Fe  Fe7  1  0.12495907  0.87502220  0.62522510  1
  Fe  Fe8  1  0.49892179  0.25102964  0.49825073  1
  Fe  Fe9  1  0.37185735  0.37590512  0.62644862  1
  Fe  Fe10  1  -0.00024785  0.50112830  0.49504797  1
  Fe  Fe11  1  0.50384966  0.75075346  0.00302530  1
  Fe  Fe12  1  0.87596672  0.12774180  0.87493665  1
  Fe  Fe13  1  0.37423815  0.87101262  0.37134174  1
  Fe  Fe14  1  0.62485878  0.62368573  0.62425587  1
  Fe  Fe15  1  0.74859152  0.74834850  0.24739377  1
  Fe  Fe16  1  0.87394053  0.62402313  0.87681609  1
  Fe  Fe17  1  0.62611992  0.61914089  0.37031126  1
  Fe  Fe18  1  0.49802104  0.49870057  0.49693539  1
  Fe  Fe19  1  0.00103980  0.75013267  0.00056580  1
  Fe  Fe20  1  0.25268611  0.00137490  0.74805819  1
  Fe  Fe21  1  0.25144676  -0.00279828  0.49910842  1
  Fe  Fe22  1  0.25020737  0.74871595  0.74779248  1
  Fe  Fe23  1  0.00484846  0.25343432  0.00150524  1
  Fe  Fe24  1  0.87495772  0.62415906  0.62303880  1
  Fe  Fe25  1  0.00136806  0.50165769  0.75170573  1
  Fe  Fe26  1  0.74882643  0.24785081  0.50393492  1
  Fe  Fe27  1  0.00066878  0.74892969  0.49821239  1
  Fe  Fe28  1  0.24715871  0.24807514  0.24634580  1
  Fe  Fe29  1  0.12582253  0.37594283  0.37245914  1
  Fe  Fe30  1  0.37868517  0.87474699  0.12881790  1
  Fe  Fe31  1  0.87369782  0.87564537  0.62256648  1
  Fe  Fe32  1  0.62431010  0.87635705  0.62385633  1
  Fe  Fe33  1  0.62621712  0.87686416  0.37319634  1
  Fe  Fe34  1  0.74938179  0.49849737  0.74970516  1
  Fe  Fe35  1  0.00084129  0.25022037  0.74901073  1
  Fe  Fe36  1  0.62611758  0.12527809  0.37376662  1
  Fe  Fe37  1  0.12634456  0.62699130  0.87682376  1
  Fe  Fe38  1  0.87731567  0.12687364  0.12477100  1
  Fe  Fe39  1  0.12881250  0.12647114  0.87644996  1
  Fe  Fe40  1  0.24933828  0.00113389  0.00523810  1
  Fe  Fe41  1  0.74971328  0.74962559  0.75015751  1
  Fe  Fe42  1  0.50149262  0.00228206  0.00359426  1
  Fe  Fe43  1  0.00176744  0.25114670  0.49930589  1
  Fe  Fe44  1  -0.00246290  -0.00112261  0.49601734  1
  Fe  Fe45  1  0.00017878  0.00064246  0.75100762  1
  Fe  Fe46  1  0.37337315  0.37416081  0.37281030  1
  Fe  Fe47  1  0.49721192  0.24761215  0.00167988  1
  Fe  Fe48  1  0.87430622  0.87469822  0.87503316  1
  Fe  Fe49  1  0.13196612  0.37386730  0.87362399  1
  Fe  Fe50  1  0.24812127  0.75065114  0.00671796  1
  Fe  Fe51  1  0.24904257  0.25151230  0.50005857  1
  Fe  Fe52  1  0.12706810  0.87425503  0.87627729  1
  Fe  Fe53  1  0.50070520  0.24939657  0.24972710  1
  Fe  Fe54  1  0.37503121  0.62666830  0.87733612  1
  Fe  Fe55  1  0.87401954  0.37442251  0.87559568  1
  Fe  Fe56  1  0.75192259  0.25478510  0.24661264  1
  Fe  Fe57  1  0.37316135  0.12591530  0.37382021  1
  Fe  Fe58  1  0.37486886  0.87498397  0.87632650  1
  Fe  Fe59  1  0.24859009  0.00040652  0.24773152  1
  Fe  Fe60  1  0.62215549  0.37416963  0.87477183  1
  Fe  Fe61  1  0.49672300  0.00177991  0.74814802  1
  Fe  Fe62  1  0.87502016  0.12745596  0.37560402  1
  Fe  Fe63  1  0.50009465  0.74912288  0.49742542  1
  Fe  Fe64  1  0.49887553  0.74856023  0.74984019  1
  Fe  Fe65  1  0.87493428  0.37552971  0.62297327  1
  Fe  Fe66  1  0.00067846  -0.00005647  0.00035985  1
  Fe  Fe67  1  0.12762123  0.37841722  0.62665310  1
  Fe  Fe68  1  0.25070781  0.50014075  0.00074840  1
  Fe  Fe69  1  0.62811633  0.37727984  0.37311576  1
  Fe  Fe70  1  0.12612693  0.12448453  0.62325746  1
  Fe  Fe71  1  0.75189515  -0.00003463  0.25005662  1
  Fe  Fe72  1  -0.00064000  0.25375018  0.24937404  1
  Fe  Fe73  1  0.62503327  0.12621708  0.87370661  1
  Fe  Fe74  1  0.37844131  0.62712727  0.12885313  1
  Fe  Fe75  1  0.74873953  0.74862873  0.49778519  1
  Fe  Fe76  1  0.49859898  0.00054821  0.49860164  1
  Fe  Fe77  1  0.12499328  0.12488658  0.37394852  1
  Fe  Fe78  1  0.37058839  0.62477041  0.61934987  1
  Fe  Fe79  1  0.12424029  0.87397613  0.37093613  1
  Fe  Fe80  1  0.00038456  0.74863884  0.74967952  1
  Fe  Fe81  1  0.25098411  0.50417565  0.25180249  1
  Fe  Fe82  1  0.62534040  0.87539625  0.87511114  1
  Fe  Fe83  1  0.49673075  0.50168085  0.75062543  1
  Fe  Fe84  1  0.74879861  0.25142260  0.00177494  1
  Fe  Fe85  1  0.62551401  0.62488299  0.87672548  1
  Fe  Fe86  1  0.00331801  0.74563231  0.25086125  1
  Fe  Fe87  1  0.49943508  0.49982709  0.00198670  1
  Fe  Fe88  1  0.37427413  0.37355348  0.12566076  1
  Fe  Fe89  1  0.74896986  0.74967372  0.00365915  1
  Co  Co90  1  0.88020778  0.37788900  0.12127032  1
  Co  Co91  1  0.12059541  0.61837207  0.12514616  1
  Co  Co92  1  0.62357099  0.62087906  0.12833431  1
  Co  Co93  1  0.12653138  0.62230638  0.62122295  1
  Co  Co94  1  0.74905824  0.50056300  0.50128136  1
  Co  Co95  1  0.87858075  0.12502215  0.62321801  1
  Co  Co96  1  0.37205234  0.12287159  0.87811496  1
  Co  Co97  1  -0.00218459  0.49787711  0.25835917  1
  Co  Co98  1  0.87134030  0.62539626  0.37338088  1
  Co  Co99  1  0.75176543  0.24981807  0.74858377  1
  Co  Co100  1  0.12511354  0.38044554  0.12789650  1
  Co  Co101  1  0.12106227  0.87671592  0.12680229  1
  Co  Co102  1  0.37572286  0.12551367  0.12844815  1
  Co  Co103  1  0.37632864  0.87297159  0.62472965  1
  Co  Co104  1  0.25247213  0.24759149  0.74897698  1
  Co  Co105  1  0.87449771  0.87183791  0.37273603  1
  Co  Co106  1  0.25058120  0.49607593  0.49567019  1
  Co  Co107  1  -0.00128858  0.00245907  0.25216346  1
  Co  Co108  1  0.25002081  0.24985925  0.00395462  1
  Co  Co109  1  0.75404578  0.49508250  0.24642454  1
  Co  Co110  1  0.87089557  0.37311389  0.37982130  1
  Co  Co111  1  0.24789865  0.75399009  0.49962930  1
  Co  Co112  1  0.50329306  0.74930675  0.25216610  1
  Co  Co113  1  0.49659370  0.49791118  0.25142168  1
  Co  Co114  1  0.24664463  0.74798587  0.24573721  1
  Co  Co115  1  0.62396854  0.87701914  0.12670662  1
  Co  Co116  1  0.50046768  0.00194572  0.25175838  1
  Co  Co117  1  0.12918125  0.62566341  0.37756934  1
  Co  Co118  1  0.37383875  0.37536623  0.87638836  1
  Co  Co119  1  0.75088168  0.00205498  0.49899018  1
  Co  Co120  1  0.62138479  0.37466103  0.12556338  1
  Co  Co121  1  0.37407796  0.12643580  0.61961695  1
  Co  Co122  1  0.37328801  0.62845356  0.37619118  1
  Co  Co123  1  0.12180143  0.12532540  0.12571399  1
  Co  Co124  1  0.25117685  0.50385259  0.75261885  1
  Co  Co125  1  0.62093635  0.12604390  0.62474874  1
  Co  Co126  1  0.62619800  0.12609203  0.12751047  1
  Co  Co127  1  0.00392145  0.49669645  -0.00631229  1
