# generated using pymatgen
data_Fe45Co19
_symmetry_space_group_name_H-M   'P 1'
_cell_length_a   11.41452838
_cell_length_b   11.41431662
_cell_length_c   11.41545418
_cell_angle_alpha   90.00840556
_cell_angle_beta   90.01770549
_cell_angle_gamma   89.99236941
_symmetry_Int_Tables_number   1
_chemical_formula_structural   Fe45Co19
_chemical_formula_sum   'Fe90 Co38'
_cell_volume   1487.30847703
_cell_formula_units_Z   2
loop_
 _symmetry_equiv_pos_site_id
 _symmetry_equiv_pos_as_xyz
  1  'x, y, z'
loop_
 _atom_site_type_symbol
 _atom_site_label
 _atom_site_symmetry_multiplicity
 _atom_site_fract_x
 _atom_site_fract_y
 _atom_site_fract_z
 _atom_site_occupancy
  Fe  Fe0  1  0.24906919  0.24970281  0.49963596  1
  Fe  Fe1  1  0.74856131  0.75090975  0.75023592  1
  Fe  Fe2  1  0.62386788  0.62570007  0.87756256  1
  Fe  Fe3  1  0.25109817  0.25002921  0.00076421  1
  Fe  Fe4  1  0.25308039  0.50262732  0.49823773  1
  Fe  Fe5  1  0.49982234  0.50196321  0.49622487  1
  Fe  Fe6  1  0.62528615  0.62289960  0.62457525  1
  Fe  Fe7  1  0.62361025  0.87520143  0.87854517  1
  Fe  Fe8  1  0.12386093  0.62549459  0.87365420  1
  Fe  Fe9  1  0.37546075  0.37696761  0.62470752  1
  Fe  Fe10  1  0.74967980  0.25139016  -0.00075448  1
  Fe  Fe11  1  -0.00122482  0.25095312  0.24987216  1
  Fe  Fe12  1  -0.00100086  0.75049182  0.74750604  1
  Fe  Fe13  1  0.87182937  0.62365513  0.62482363  1
  Fe  Fe14  1  0.37572287  0.12232508  0.12615670  1
  Fe  Fe15  1  0.87724232  0.87398889  0.87563153  1
  Fe  Fe16  1  0.49996542  0.24842645  0.50126902  1
  Fe  Fe17  1  0.75094326  0.74923038  0.50112604  1
  Fe  Fe18  1  0.75228273  0.75129196  0.00081990  1
  Fe  Fe19  1  0.87390808  0.12390561  0.62608703  1
  Fe  Fe20  1  0.74907316  0.49787445  -0.00101165  1
  Fe  Fe21  1  0.12476977  0.12525855  0.37506323  1
  Fe  Fe22  1  0.37613751  0.87394708  0.37350224  1
  Fe  Fe23  1  0.12849645  0.62700483  0.62475880  1
  Fe  Fe24  1  0.74799616  0.49742112  0.75265206  1
  Fe  Fe25  1  0.00312402  -0.00232351  0.74707915  1
  Fe  Fe26  1  0.37538581  0.62390669  0.12802862  1
  Fe  Fe27  1  0.62427504  0.62506390  0.12758132  1
  Fe  Fe28  1  -0.00119092  0.50237156  0.49901397  1
  Fe  Fe29  1  0.62618548  0.12531790  0.62550932  1
  Fe  Fe30  1  0.25373271  0.74788651  0.75135547  1
  Fe  Fe31  1  0.12463144  0.37790823  0.62688090  1
  Fe  Fe32  1  0.87670080  0.37673041  0.12564260  1
  Fe  Fe33  1  0.24979828  0.00120118  -0.00109088  1
  Fe  Fe34  1  0.87095779  0.12184522  0.12747742  1
  Fe  Fe35  1  0.87667718  0.12758464  0.87261689  1
  Fe  Fe36  1  0.49861659  0.75257500  0.00505200  1
  Fe  Fe37  1  0.62492409  0.87458188  0.62360684  1
  Fe  Fe38  1  0.62759033  0.12148413  0.12677426  1
  Fe  Fe39  1  0.24965155  0.25030512  0.74920324  1
  Fe  Fe40  1  0.37609331  0.12461031  0.37409988  1
  Fe  Fe41  1  0.37459763  0.87433160  0.62478680  1
  Fe  Fe42  1  0.24745928  -0.00324349  0.49906549  1
  Fe  Fe43  1  0.00087168  0.50268753  0.00104713  1
  Fe  Fe44  1  0.49953319  0.50051649  0.75080346  1
  Fe  Fe45  1  0.49897038  0.00146460  0.75120922  1
  Fe  Fe46  1  0.87414208  0.62498188  0.37363587  1
  Fe  Fe47  1  0.37876585  0.37208204  0.87616303  1
  Fe  Fe48  1  0.00270003  -0.00257063  0.50264757  1
  Fe  Fe49  1  0.00093039  0.24899129  0.50189954  1
  Fe  Fe50  1  0.74804585  0.75595798  0.24788959  1
  Fe  Fe51  1  0.62368524  0.37149239  0.37401116  1
  Fe  Fe52  1  0.62125716  0.12767356  0.87653948  1
  Fe  Fe53  1  0.37494828  0.87529181  0.87731333  1
  Fe  Fe54  1  0.00110139  0.74881969  0.24713836  1
  Fe  Fe55  1  0.25006312  0.74813811  0.00044632  1
  Fe  Fe56  1  0.00053306  -0.00089976  0.24961919  1
  Fe  Fe57  1  0.49680023  0.74719210  0.50021420  1
  Fe  Fe58  1  0.12515234  0.62712589  0.37560954  1
  Fe  Fe59  1  0.75028055  0.49671318  0.25209897  1
  Fe  Fe60  1  0.87699046  0.87395267  0.37602328  1
  Fe  Fe61  1  0.12542626  0.37697994  0.12617682  1
  Fe  Fe62  1  0.87467796  0.37749540  0.62462387  1
  Fe  Fe63  1  -0.00062099  0.24980183  0.00074362  1
  Fe  Fe64  1  0.74791685  -0.00011693  0.49696603  1
  Fe  Fe65  1  0.74814455  -0.00115171  0.75249607  1
  Fe  Fe66  1  0.87451189  0.62424280  0.12639325  1
  Fe  Fe67  1  0.49988601  0.49980436  0.00195612  1
  Fe  Fe68  1  0.74840139  0.25436182  0.75103797  1
  Fe  Fe69  1  0.50530702  -0.00436072  0.25048269  1
  Fe  Fe70  1  0.24878503  -0.00084415  0.75038640  1
  Fe  Fe71  1  0.37274923  0.12407041  0.62491534  1
  Fe  Fe72  1  0.87357506  0.12582341  0.37379635  1
  Fe  Fe73  1  0.12107414  0.37585489  0.87211962  1
  Fe  Fe74  1  0.62288430  0.37379315  0.12625663  1
  Fe  Fe75  1  0.12447570  0.12602208  0.87341110  1
  Fe  Fe76  1  0.74964377  0.25144710  0.49990647  1
  Fe  Fe77  1  0.62343167  0.62753312  0.37123255  1
  Fe  Fe78  1  0.25231349  0.49862829  0.25221051  1
  Fe  Fe79  1  0.50205128  0.00126043  0.49882478  1
  Fe  Fe80  1  0.25325716  0.25107025  0.25022014  1
  Fe  Fe81  1  0.24970028  0.75084031  0.25001008  1
  Fe  Fe82  1  0.87430721  0.62370378  0.87504744  1
  Fe  Fe83  1  0.24722532  -0.00122035  0.25081295  1
  Fe  Fe84  1  0.12516548  0.12659582  0.12599786  1
  Fe  Fe85  1  0.49987561  0.74899769  0.74980357  1
  Fe  Fe86  1  0.12389475  0.37503684  0.37452897  1
  Fe  Fe87  1  0.12406466  0.87378086  0.12282917  1
  Fe  Fe88  1  0.25045927  0.50034207  -0.00287657  1
  Fe  Fe89  1  0.00011722  0.00017110  0.00013823  1
  Co  Co90  1  -0.00019635  0.74705287  0.00186242  1
  Co  Co91  1  0.87165567  0.87671302  0.62510257  1
  Co  Co92  1  0.25477427  0.74907419  0.49740035  1
  Co  Co93  1  0.25283838  0.50081400  0.75282975  1
  Co  Co94  1  0.49742311  0.00096078  -0.00043212  1
  Co  Co95  1  0.49691162  0.24997134  0.24706820  1
  Co  Co96  1  0.75272514  0.00184772  -0.00487815  1
  Co  Co97  1  -0.00217631  0.74923128  0.50256538  1
  Co  Co98  1  0.49975097  0.24711081  0.00532708  1
  Co  Co99  1  0.37516448  0.62298629  0.62541503  1
  Co  Co100  1  0.37453230  0.12754770  0.87402490  1
  Co  Co101  1  0.12853738  0.86929207  0.62404975  1
  Co  Co102  1  0.62013502  0.37417176  0.87648949  1
  Co  Co103  1  0.50212167  0.75623697  0.24521622  1
  Co  Co104  1  0.62505064  0.13017751  0.37214635  1
  Co  Co105  1  0.74870043  0.50008524  0.49568490  1
  Co  Co106  1  0.62972290  0.87979297  0.11870898  1
  Co  Co107  1  0.87687596  0.37450982  0.37590660  1
  Co  Co108  1  0.00010112  0.50108917  0.25112500  1
  Co  Co109  1  0.00016819  0.24942477  0.74677361  1
  Co  Co110  1  0.12518373  0.87298903  0.87620354  1
  Co  Co111  1  0.37372913  0.37758140  0.12318109  1
  Co  Co112  1  0.87830713  0.37616918  0.87546163  1
  Co  Co113  1  0.37739402  0.62733956  0.36915791  1
  Co  Co114  1  0.12811909  0.62308121  0.12607300  1
  Co  Co115  1  0.50004146  0.24909713  0.74608455  1
  Co  Co116  1  0.87504693  0.87734441  0.12428155  1
  Co  Co117  1  0.62355860  0.37783283  0.62332069  1
  Co  Co118  1  -0.00091875  0.50312253  0.74808582  1
  Co  Co119  1  0.12692823  0.12434611  0.62475431  1
  Co  Co120  1  0.75152297  0.25253851  0.24870015  1
  Co  Co121  1  0.62390235  0.87001813  0.38064823  1
  Co  Co122  1  0.37137458  0.87712642  0.12539932  1
  Co  Co123  1  0.49923699  0.49689618  0.25136477  1
  Co  Co124  1  0.37890728  0.62532550  0.87782572  1
  Co  Co125  1  0.12352527  0.87239586  0.37491017  1
  Co  Co126  1  0.74720971  -0.00464054  0.25579981  1
  Co  Co127  1  0.37589282  0.37297408  0.37727527  1
