# generated using pymatgen
data_Fe45Co19
_symmetry_space_group_name_H-M   'P 1'
_cell_length_a   11.41479100
_cell_length_b   11.41527157
_cell_length_c   11.41392683
_cell_angle_alpha   89.99409119
_cell_angle_beta   90.00684602
_cell_angle_gamma   90.00123585
_symmetry_Int_Tables_number   1
_chemical_formula_structural   Fe45Co19
_chemical_formula_sum   'Fe90 Co38'
_cell_volume   1487.26819566
_cell_formula_units_Z   2
loop_
 _symmetry_equiv_pos_site_id
 _symmetry_equiv_pos_as_xyz
  1  'x, y, z'
loop_
 _atom_site_type_symbol
 _atom_site_label
 _atom_site_symmetry_multiplicity
 _atom_site_fract_x
 _atom_site_fract_y
 _atom_site_fract_z
 _atom_site_occupancy
  Fe  Fe0  1  -0.00108794  -0.00021240  0.25117079  1
  Fe  Fe1  1  0.74978784  0.74965640  0.74869098  1
  Fe  Fe2  1  -0.00384816  0.50455973  -0.00291291  1
  Fe  Fe3  1  0.62748201  0.62417484  0.12332898  1
  Fe  Fe4  1  0.50007575  0.74821185  0.49974121  1
  Fe  Fe5  1  0.12271863  0.87341279  0.12311191  1
  Fe  Fe6  1  0.86889967  0.87361785  0.37734502  1
  Fe  Fe7  1  0.25061416  0.74947607  0.00195063  1
  Fe  Fe8  1  0.37559850  0.62302715  0.12740640  1
  Fe  Fe9  1  0.62431392  0.12844936  0.87344978  1
  Fe  Fe10  1  0.74988233  0.00174103  0.74971828  1
  Fe  Fe11  1  0.75371495  0.25370437  -0.00299068  1
  Fe  Fe12  1  0.25035938  0.25327704  0.00205203  1
  Fe  Fe13  1  0.50185820  -0.00155252  0.24861434  1
  Fe  Fe14  1  0.75215691  0.00133175  -0.00308655  1
  Fe  Fe15  1  0.12520659  0.87191451  0.62293755  1
  Fe  Fe16  1  0.12549244  0.87237382  0.37610232  1
  Fe  Fe17  1  0.37135926  0.37932684  0.62399797  1
  Fe  Fe18  1  0.62824824  0.37424124  0.37593933  1
  Fe  Fe19  1  0.25149521  0.49846016  0.00128385  1
  Fe  Fe20  1  0.37356939  0.37738644  0.37565184  1
  Fe  Fe21  1  0.24570269  0.50084301  0.25425244  1
  Fe  Fe22  1  0.49778886  0.25372466  0.00112665  1
  Fe  Fe23  1  0.87747304  0.12612747  0.62724377  1
  Fe  Fe24  1  0.50187012  0.00047553  0.75102638  1
  Fe  Fe25  1  0.37506355  0.12412127  0.62625718  1
  Fe  Fe26  1  0.75156204  0.24807658  0.50205909  1
  Fe  Fe27  1  0.87641332  0.87546818  0.12196405  1
  Fe  Fe28  1  0.37554021  0.12604047  0.87438056  1
  Fe  Fe29  1  0.62672430  0.62382009  0.87574964  1
  Fe  Fe30  1  -0.00110213  -0.00151210  0.49871777  1
  Fe  Fe31  1  0.12184658  0.12599428  0.12600532  1
  Fe  Fe32  1  0.12531164  0.37706289  0.87502746  1
  Fe  Fe33  1  0.62655133  0.62645107  0.37568967  1
  Fe  Fe34  1  0.00203474  0.74784793  0.75258569  1
  Fe  Fe35  1  0.75003177  -0.00054751  0.25119751  1
  Fe  Fe36  1  -0.00252455  0.75092823  0.25019404  1
  Fe  Fe37  1  0.12217775  0.12796479  0.37415286  1
  Fe  Fe38  1  0.49798705  0.75050424  0.00045485  1
  Fe  Fe39  1  0.00229633  0.49541165  0.25613842  1
  Fe  Fe40  1  0.37357393  0.87489164  0.62536440  1
  Fe  Fe41  1  0.24797048  0.24958547  0.50252489  1
  Fe  Fe42  1  0.62636821  0.87462258  0.12203203  1
  Fe  Fe43  1  0.12500489  0.12451851  0.87622316  1
  Fe  Fe44  1  0.12177418  0.62444524  0.12574455  1
  Fe  Fe45  1  0.62410265  0.62328597  0.62569279  1
  Fe  Fe46  1  0.50105888  0.25178583  0.25034960  1
  Fe  Fe47  1  0.87562423  0.37796776  0.12503187  1
  Fe  Fe48  1  0.37487134  0.87562817  0.87497303  1
  Fe  Fe49  1  -0.00033246  0.25307302  0.49931710  1
  Fe  Fe50  1  0.12238487  0.87287431  0.87857890  1
  Fe  Fe51  1  0.87921947  0.37508476  0.62824835  1
  Fe  Fe52  1  -0.00168397  0.24999215  -0.00169043  1
  Fe  Fe53  1  0.50049235  0.00131974  0.49981096  1
  Fe  Fe54  1  0.87513460  0.62479604  0.37559584  1
  Fe  Fe55  1  0.24929531  -0.00001122  0.24913568  1
  Fe  Fe56  1  0.00100782  0.00041079  0.75231010  1
  Fe  Fe57  1  0.25073674  0.74745016  0.25217381  1
  Fe  Fe58  1  0.75032843  0.49848018  0.75032006  1
  Fe  Fe59  1  0.49998636  0.49646037  0.00154140  1
  Fe  Fe60  1  0.75127821  0.50012917  0.50185430  1
  Fe  Fe61  1  0.24726608  0.25086858  0.74838634  1
  Fe  Fe62  1  0.62540736  0.37473638  0.87374231  1
  Fe  Fe63  1  0.25049675  -0.00065004  0.00207501  1
  Fe  Fe64  1  0.24749420  0.25291967  0.24672319  1
  Fe  Fe65  1  0.49948589  0.74861698  0.74931371  1
  Fe  Fe66  1  0.24853260  0.74623554  0.74918939  1
  Fe  Fe67  1  0.62646552  0.87306442  0.87635257  1
  Fe  Fe68  1  0.87905129  0.62440432  0.62416561  1
  Fe  Fe69  1  0.37348293  0.12637043  0.37390644  1
  Fe  Fe70  1  0.62483473  0.37316022  0.62617783  1
  Fe  Fe71  1  0.87650506  0.12444308  0.12516059  1
  Fe  Fe72  1  0.75677092  0.74537661  0.00054530  1
  Fe  Fe73  1  0.37416380  0.62304596  0.87546903  1
  Fe  Fe74  1  0.37584211  0.87438022  0.37415182  1
  Fe  Fe75  1  0.62562403  0.12660420  0.12326915  1
  Fe  Fe76  1  0.74928939  0.49963134  0.24908690  1
  Fe  Fe77  1  0.37226018  0.62131417  0.62099417  1
  Fe  Fe78  1  0.87388451  0.87430871  0.62588697  1
  Fe  Fe79  1  0.62628610  0.87577248  0.62173333  1
  Fe  Fe80  1  0.37608425  0.12482639  0.12510468  1
  Fe  Fe81  1  0.49791985  0.49858378  0.75016632  1
  Fe  Fe82  1  0.00606312  0.50327992  0.75002449  1
  Fe  Fe83  1  0.24724537  0.00028324  0.74921812  1
  Fe  Fe84  1  0.50287048  0.49790924  0.24992200  1
  Fe  Fe85  1  0.75302348  0.24955293  0.25034815  1
  Fe  Fe86  1  0.50186773  0.75166041  0.24976869  1
  Fe  Fe87  1  0.62723032  0.12374705  0.37639029  1
  Fe  Fe88  1  0.49998636  0.25101664  0.50089556  1
  Fe  Fe89  1  0.24821066  0.00036391  0.49967289  1
  Co  Co90  1  0.62762925  0.87477857  0.37875379  1
  Co  Co91  1  0.50338415  0.49833495  0.49965154  1
  Co  Co92  1  0.87828483  0.37799780  0.87086635  1
  Co  Co93  1  0.62849731  0.37354941  0.12535762  1
  Co  Co94  1  0.12673168  0.36827183  0.37579451  1
  Co  Co95  1  0.12774740  0.62498731  0.87894426  1
  Co  Co96  1  0.12132410  0.37828339  0.12204481  1
  Co  Co97  1  0.49713524  0.25225765  0.74751540  1
  Co  Co98  1  0.37437862  0.37705824  0.12938710  1
  Co  Co99  1  -0.00219372  0.25317143  0.24839782  1
  Co  Co100  1  0.87603747  0.87424188  0.87425668  1
  Co  Co101  1  0.87693498  0.62077964  0.13090662  1
  Co  Co102  1  0.87214965  0.62441556  0.86932963  1
  Co  Co103  1  0.00162704  0.49591325  0.49668863  1
  Co  Co104  1  0.24339663  0.50138516  0.49510256  1
  Co  Co105  1  -0.00420951  0.74485945  -0.00056892  1
  Co  Co106  1  0.75231745  0.49968182  -0.00094823  1
  Co  Co107  1  -0.00029576  0.00208559  -0.00077993  1
  Co  Co108  1  0.37862089  0.62166504  0.37517980  1
  Co  Co109  1  0.00358194  0.24898062  0.75259247  1
  Co  Co110  1  0.12356178  0.62771579  0.61803591  1
  Co  Co111  1  0.37451131  0.87519480  0.12591335  1
  Co  Co112  1  0.75196232  0.00396685  0.50189275  1
  Co  Co113  1  0.75024371  0.74557354  0.50287629  1
  Co  Co114  1  -0.00438823  0.75326650  0.49927310  1
  Co  Co115  1  0.87731271  0.12600511  0.37499332  1
  Co  Co116  1  0.87500206  0.12470628  0.87277321  1
  Co  Co117  1  0.75235843  0.25083738  0.75024193  1
  Co  Co118  1  0.24636776  0.50343666  0.74867179  1
  Co  Co119  1  0.11936980  0.63011724  0.37833570  1
  Co  Co120  1  0.37241100  0.37577463  0.87216536  1
  Co  Co121  1  0.87128899  0.37486871  0.37560795  1
  Co  Co122  1  0.12475633  0.37646368  0.62577042  1
  Co  Co123  1  0.62465744  0.12687020  0.62641537  1
  Co  Co124  1  0.75017253  0.75074233  0.24804547  1
  Co  Co125  1  0.25335032  0.74882388  0.49738002  1
  Co  Co126  1  0.49995578  0.00049832  -0.00060636  1
  Co  Co127  1  0.12153880  0.12444110  0.62304223  1
