# generated using pymatgen
data_Fe45Co19
_symmetry_space_group_name_H-M   'P 1'
_cell_length_a   11.41551428
_cell_length_b   11.41394376
_cell_length_c   11.41467803
_cell_angle_alpha   89.99772520
_cell_angle_beta   89.99483375
_cell_angle_gamma   89.99427430
_symmetry_Int_Tables_number   1
_chemical_formula_structural   Fe45Co19
_chemical_formula_sum   'Fe90 Co38'
_cell_volume   1487.28730827
_cell_formula_units_Z   2
loop_
 _symmetry_equiv_pos_site_id
 _symmetry_equiv_pos_as_xyz
  1  'x, y, z'
loop_
 _atom_site_type_symbol
 _atom_site_label
 _atom_site_symmetry_multiplicity
 _atom_site_fract_x
 _atom_site_fract_y
 _atom_site_fract_z
 _atom_site_occupancy
  Fe  Fe0  1  0.49932708  0.49841709  0.50037706  1
  Fe  Fe1  1  0.25155558  0.50123460  0.49800436  1
  Fe  Fe2  1  0.62180315  0.12622813  0.37622136  1
  Fe  Fe3  1  0.37825450  0.12277374  0.62864645  1
  Fe  Fe4  1  0.75136519  0.74720543  0.75341945  1
  Fe  Fe5  1  0.49841208  0.75179852  0.25124121  1
  Fe  Fe6  1  0.12804663  0.37153045  0.37524848  1
  Fe  Fe7  1  0.49826969  0.25087186  -0.00092785  1
  Fe  Fe8  1  0.00129039  0.49937582  0.00203464  1
  Fe  Fe9  1  0.24973126  0.24877508  0.00110182  1
  Fe  Fe10  1  0.37432364  0.37311595  0.37391203  1
  Fe  Fe11  1  0.25006677  0.50274034  0.25221425  1
  Fe  Fe12  1  0.37343656  0.62604709  0.62398393  1
  Fe  Fe13  1  0.74892560  0.50317549  0.75304122  1
  Fe  Fe14  1  0.87525776  0.37608363  0.12514112  1
  Fe  Fe15  1  0.12336897  0.12697086  0.87412687  1
  Fe  Fe16  1  0.62421193  0.37695152  0.87684491  1
  Fe  Fe17  1  0.62241675  0.12537783  0.12369397  1
  Fe  Fe18  1  0.49977772  0.49892024  0.74928483  1
  Fe  Fe19  1  0.12752074  0.37168615  0.62133071  1
  Fe  Fe20  1  0.87453355  0.62563972  0.12427935  1
  Fe  Fe21  1  0.87497430  0.37701598  0.87499033  1
  Fe  Fe22  1  0.12627049  0.62679249  0.62244320  1
  Fe  Fe23  1  0.24659525  0.00627714  0.50158347  1
  Fe  Fe24  1  0.37265732  0.87726600  0.37682361  1
  Fe  Fe25  1  0.00104524  0.25046423  0.00152375  1
  Fe  Fe26  1  0.37150745  0.87532677  0.12495556  1
  Fe  Fe27  1  0.37828250  0.12149085  0.87198631  1
  Fe  Fe28  1  0.37515744  0.62557429  0.12703249  1
  Fe  Fe29  1  0.49676120  0.25233381  0.50054222  1
  Fe  Fe30  1  0.37506226  0.62472401  0.87429312  1
  Fe  Fe31  1  0.74988586  -0.00162722  0.00206580  1
  Fe  Fe32  1  0.62292722  0.62407303  0.12150809  1
  Fe  Fe33  1  0.87953115  0.12395689  0.62209334  1
  Fe  Fe34  1  0.00076725  0.75015866  0.75021495  1
  Fe  Fe35  1  0.13032514  0.87284264  0.62533115  1
  Fe  Fe36  1  0.75350190  0.24907760  0.49883303  1
  Fe  Fe37  1  0.49708482  0.75314306  0.50133016  1
  Fe  Fe38  1  0.24679730  0.00117868  0.00011124  1
  Fe  Fe39  1  -0.00120818  0.25265490  0.74805962  1
  Fe  Fe40  1  -0.00166398  0.49777129  0.49895099  1
  Fe  Fe41  1  0.75112243  0.74909269  -0.00121583  1
  Fe  Fe42  1  0.12643684  0.37503976  0.87571086  1
  Fe  Fe43  1  0.74849162  0.24842936  0.25063218  1
  Fe  Fe44  1  0.12719550  0.87200776  0.87687447  1
  Fe  Fe45  1  0.00018322  0.24863389  0.25114376  1
  Fe  Fe46  1  0.00230561  -0.00034423  0.24920604  1
  Fe  Fe47  1  0.74914073  0.00057637  0.50047847  1
  Fe  Fe48  1  0.50044328  -0.00203615  0.00050984  1
  Fe  Fe49  1  0.50119435  0.49754193  0.25084551  1
  Fe  Fe50  1  0.62490659  0.87495865  0.37468304  1
  Fe  Fe51  1  0.62298851  0.62527669  0.37558240  1
  Fe  Fe52  1  0.62417248  0.37584178  0.12259635  1
  Fe  Fe53  1  0.74893560  0.75067227  0.24885854  1
  Fe  Fe54  1  0.75172202  0.74896068  0.49795131  1
  Fe  Fe55  1  0.37344245  0.37302774  0.12685809  1
  Fe  Fe56  1  0.74755299  0.50014056  0.25036660  1
  Fe  Fe57  1  0.87597031  0.12343784  0.87595584  1
  Fe  Fe58  1  0.62361450  0.62855040  0.62633241  1
  Fe  Fe59  1  0.62446721  0.87533297  0.87394476  1
  Fe  Fe60  1  0.74579590  0.00294843  0.74788631  1
  Fe  Fe61  1  0.87639772  0.62461866  0.62555057  1
  Fe  Fe62  1  0.50228659  -0.00335058  0.50509240  1
  Fe  Fe63  1  0.00334552  -0.00127136  0.74913300  1
  Fe  Fe64  1  0.12860429  0.87499838  0.37407291  1
  Fe  Fe65  1  0.00120082  0.49847840  0.74838702  1
  Fe  Fe66  1  0.62581415  0.37349466  0.62527568  1
  Fe  Fe67  1  0.24988939  0.00400370  0.24931287  1
  Fe  Fe68  1  0.87654159  0.87623550  0.87599561  1
  Fe  Fe69  1  0.37359883  0.37513917  0.87234715  1
  Fe  Fe70  1  0.24889397  0.50097905  0.74881576  1
  Fe  Fe71  1  0.49955914  0.00072018  0.24861446  1
  Fe  Fe72  1  0.12765944  0.62800218  0.12536624  1
  Fe  Fe73  1  0.87396911  0.87651346  0.37329864  1
  Fe  Fe74  1  0.49490403  0.75655536  0.74843475  1
  Fe  Fe75  1  0.74821304  0.00020119  0.24864296  1
  Fe  Fe76  1  0.87337122  0.87568744  0.62560161  1
  Fe  Fe77  1  0.74815546  0.24739186  0.75056208  1
  Fe  Fe78  1  0.25105074  0.49981915  0.00147774  1
  Fe  Fe79  1  0.00004893  0.75236413  0.49841512  1
  Fe  Fe80  1  0.25165811  0.24327008  0.25081067  1
  Fe  Fe81  1  0.87316740  0.37611187  0.37306047  1
  Fe  Fe82  1  0.00179370  0.50058635  0.25047930  1
  Fe  Fe83  1  0.12489793  0.62642643  0.87639932  1
  Fe  Fe84  1  0.87734383  0.12259895  0.12490099  1
  Fe  Fe85  1  0.00143521  0.75090929  0.25014980  1
  Fe  Fe86  1  0.49693481  0.75169505  -0.00078082  1
  Fe  Fe87  1  0.75055039  0.24976187  0.00008112  1
  Fe  Fe88  1  0.25063462  0.24800199  0.74718638  1
  Fe  Fe89  1  0.75024693  0.50156770  0.49955685  1
  Co  Co90  1  0.12359492  0.12524757  0.12490655  1
  Co  Co91  1  0.12750130  0.37335231  0.12746209  1
  Co  Co92  1  0.50470834  -0.00384719  0.74600420  1
  Co  Co93  1  0.63029350  0.87009533  0.62583428  1
  Co  Co94  1  0.11994408  0.12873373  0.62379799  1
  Co  Co95  1  0.87571523  0.62498933  0.37365837  1
  Co  Co96  1  0.87645970  0.12154972  0.37519901  1
  Co  Co97  1  0.87148461  0.37605684  0.62712311  1
  Co  Co98  1  -0.00357315  0.25372514  0.49782994  1
  Co  Co99  1  0.62304363  0.12285655  0.87809882  1
  Co  Co100  1  0.25307811  0.74938166  -0.00083823  1
  Co  Co101  1  0.37326376  0.88076413  0.87467601  1
  Co  Co102  1  0.50218474  0.25044336  0.75202284  1
  Co  Co103  1  0.37373362  0.37527188  0.62703539  1
  Co  Co104  1  0.87662452  0.87575238  0.12503217  1
  Co  Co105  1  0.50003278  0.24976938  0.24928514  1
  Co  Co106  1  0.62245777  0.12929150  0.62154837  1
  Co  Co107  1  0.62334735  0.87388693  0.12455060  1
  Co  Co108  1  0.49543169  0.49835378  0.00025915  1
  Co  Co109  1  0.00283677  -0.00504733  0.50051553  1
  Co  Co110  1  0.24586058  0.00194826  0.75021166  1
  Co  Co111  1  0.75123978  0.50221294  -0.00190531  1
  Co  Co112  1  0.37856287  0.62471196  0.37523126  1
  Co  Co113  1  0.61883736  0.62693876  0.87554936  1
  Co  Co114  1  -0.00048816  0.75065916  0.00121135  1
  Co  Co115  1  0.25124293  0.74764468  0.49628867  1
  Co  Co116  1  0.25455220  0.24508036  0.50121950  1
  Co  Co117  1  0.37633077  0.12411175  0.12210495  1
  Co  Co118  1  0.12174934  0.12723452  0.37779242  1
  Co  Co119  1  0.12795567  0.87330700  0.12498187  1
  Co  Co120  1  0.62502841  0.37339985  0.37689508  1
  Co  Co121  1  0.36740841  0.87842347  0.62396962  1
  Co  Co122  1  0.00310213  -0.00072561  -0.00079728  1
  Co  Co123  1  0.25147144  0.74893418  0.25317081  1
  Co  Co124  1  0.88002275  0.62372747  0.87513698  1
  Co  Co125  1  0.25205079  0.74897021  0.75194362  1
  Co  Co126  1  0.12293988  0.62516804  0.37632529  1
  Co  Co127  1  0.37956307  0.12261183  0.37733464  1
