# generated using pymatgen
data_Fe45Co19
_symmetry_space_group_name_H-M   'P 1'
_cell_length_a   11.41504261
_cell_length_b   11.41424959
_cell_length_c   11.41652035
_cell_angle_alpha   89.99760634
_cell_angle_beta   89.99745884
_cell_angle_gamma   89.99221836
_symmetry_Int_Tables_number   1
_chemical_formula_structural   Fe45Co19
_chemical_formula_sum   'Fe90 Co38'
_cell_volume   1487.50574629
_cell_formula_units_Z   2
loop_
 _symmetry_equiv_pos_site_id
 _symmetry_equiv_pos_as_xyz
  1  'x, y, z'
loop_
 _atom_site_type_symbol
 _atom_site_label
 _atom_site_symmetry_multiplicity
 _atom_site_fract_x
 _atom_site_fract_y
 _atom_site_fract_z
 _atom_site_occupancy
  Fe  Fe0  1  0.87680631  0.12596535  0.62560755  1
  Fe  Fe1  1  0.00205427  0.00138450  0.49913403  1
  Fe  Fe2  1  0.62593786  0.87553628  0.87535278  1
  Fe  Fe3  1  0.37162010  0.87663643  0.87664637  1
  Fe  Fe4  1  0.37148280  0.12315071  0.62392603  1
  Fe  Fe5  1  0.87591827  0.87575800  0.62311679  1
  Fe  Fe6  1  0.50417925  0.74726325  0.49731757  1
  Fe  Fe7  1  0.24840303  0.00026698  0.24699379  1
  Fe  Fe8  1  0.74877653  0.49963310  0.50166767  1
  Fe  Fe9  1  0.62480621  0.12551527  0.87654649  1
  Fe  Fe10  1  0.49777776  0.00082033  0.75006262  1
  Fe  Fe11  1  0.75225578  0.25162107  0.50084778  1
  Fe  Fe12  1  -0.00345398  0.25459484  0.75336458  1
  Fe  Fe13  1  0.00192079  0.50095373  0.49940588  1
  Fe  Fe14  1  0.00017729  0.74974036  0.74985236  1
  Fe  Fe15  1  0.24996106  0.50042679  0.25001666  1
  Fe  Fe16  1  0.62833592  0.37343089  0.87484664  1
  Fe  Fe17  1  0.00044421  0.75043912  0.00021469  1
  Fe  Fe18  1  0.37465830  0.37251238  0.12629709  1
  Fe  Fe19  1  0.87365939  0.87576872  0.37434296  1
  Fe  Fe20  1  0.37530154  0.87451780  0.12538859  1
  Fe  Fe21  1  0.24979844  0.49984823  0.00132692  1
  Fe  Fe22  1  0.62370992  0.37489651  0.62632253  1
  Fe  Fe23  1  0.25008167  0.75012703  0.74954231  1
  Fe  Fe24  1  0.49841314  0.00161068  -0.00123410  1
  Fe  Fe25  1  0.37543420  0.62344576  0.37563593  1
  Fe  Fe26  1  0.87465377  0.12691159  0.37326165  1
  Fe  Fe27  1  0.75333516  0.49804290  0.74897292  1
  Fe  Fe28  1  0.50155838  0.74691730  -0.00241088  1
  Fe  Fe29  1  0.37365561  0.37472289  0.37623209  1
  Fe  Fe30  1  0.49985898  0.74770194  0.75182321  1
  Fe  Fe31  1  0.62411639  0.87600779  0.12474677  1
  Fe  Fe32  1  0.24725951  0.50063869  0.50025932  1
  Fe  Fe33  1  0.37317942  0.12393537  0.37719818  1
  Fe  Fe34  1  0.12437677  0.87416366  0.62229949  1
  Fe  Fe35  1  0.74841800  0.74807369  0.49882699  1
  Fe  Fe36  1  0.37667337  0.62338458  0.62400803  1
  Fe  Fe37  1  0.12779612  0.87671531  0.87700735  1
  Fe  Fe38  1  0.12441200  0.37575530  0.37119945  1
  Fe  Fe39  1  0.75064822  0.74916205  0.74955717  1
  Fe  Fe40  1  0.00036328  0.25077004  0.49942667  1
  Fe  Fe41  1  0.37734857  0.62486130  0.12476071  1
  Fe  Fe42  1  0.37306426  0.37507733  0.87445498  1
  Fe  Fe43  1  0.25020162  0.24994667  -0.00001135  1
  Fe  Fe44  1  0.62443262  0.87501185  0.62390835  1
  Fe  Fe45  1  0.12444520  0.12732611  0.37113289  1
  Fe  Fe46  1  0.62716512  0.37340826  0.37332188  1
  Fe  Fe47  1  0.00242615  0.25198227  0.00038070  1
  Fe  Fe48  1  0.74953060  0.00069448  0.49907547  1
  Fe  Fe49  1  0.74931608  0.74924578  0.00157034  1
  Fe  Fe50  1  0.13015171  0.12534512  0.87168437  1
  Fe  Fe51  1  0.87532766  0.62332114  0.87677082  1
  Fe  Fe52  1  0.00133883  -0.00037083  0.74997400  1
  Fe  Fe53  1  0.87467735  0.87674132  0.87655983  1
  Fe  Fe54  1  0.50255544  0.00325275  0.25306872  1
  Fe  Fe55  1  0.24955358  0.49990754  0.74883840  1
  Fe  Fe56  1  0.62294183  0.37134647  0.12680810  1
  Fe  Fe57  1  0.37638059  0.37630625  0.62421553  1
  Fe  Fe58  1  0.50143774  0.74913622  0.25262184  1
  Fe  Fe59  1  0.00385622  0.00152618  0.00203789  1
  Fe  Fe60  1  0.37695935  0.12815888  0.12511147  1
  Fe  Fe61  1  0.74715845  0.00548525  0.24725603  1
  Fe  Fe62  1  0.24735506  0.74671398  0.49795613  1
  Fe  Fe63  1  0.50029805  0.50177222  0.75288549  1
  Fe  Fe64  1  0.74889140  0.50238198  0.00344842  1
  Fe  Fe65  1  0.00100234  0.49642052  0.00198256  1
  Fe  Fe66  1  0.12380963  0.62492406  0.12839469  1
  Fe  Fe67  1  0.24686501  0.24971149  0.50070747  1
  Fe  Fe68  1  0.87809472  0.62449325  0.62448735  1
  Fe  Fe69  1  0.87670643  0.62253320  0.37414556  1
  Fe  Fe70  1  0.50095418  0.49976892  -0.00179015  1
  Fe  Fe71  1  0.12626772  0.87304403  0.37368445  1
  Fe  Fe72  1  0.87392637  0.12526045  0.87679262  1
  Fe  Fe73  1  0.37500494  0.87626852  0.62092873  1
  Fe  Fe74  1  0.37430365  0.87725884  0.37651236  1
  Fe  Fe75  1  0.87542906  0.87706770  0.12414164  1
  Fe  Fe76  1  0.49801997  0.24836713  0.75223410  1
  Fe  Fe77  1  0.49931242  0.25003024  0.49857087  1
  Fe  Fe78  1  -0.00115400  0.74996578  0.25052189  1
  Fe  Fe79  1  0.62510455  0.12564939  0.62391380  1
  Fe  Fe80  1  0.75338434  0.49955698  0.24673075  1
  Fe  Fe81  1  0.74982096  0.24655791  0.00434616  1
  Fe  Fe82  1  0.75032205  0.00131631  0.75090637  1
  Fe  Fe83  1  0.49919504  0.49811209  0.25135561  1
  Fe  Fe84  1  -0.00403330  0.25507660  0.24681060  1
  Fe  Fe85  1  0.12496106  0.62259139  0.87324325  1
  Fe  Fe86  1  0.00164356  -0.00055164  0.24818149  1
  Fe  Fe87  1  0.74899811  0.74818541  0.24878014  1
  Fe  Fe88  1  0.12275874  0.37462225  0.62819250  1
  Fe  Fe89  1  0.24952512  0.74923094  0.00273046  1
  Co  Co90  1  0.37248503  0.62444037  0.87556064  1
  Co  Co91  1  0.87734373  0.37454090  0.62283898  1
  Co  Co92  1  0.74969526  0.00089489  0.00149447  1
  Co  Co93  1  0.75176245  0.25005582  0.74872501  1
  Co  Co94  1  0.25215894  0.74928954  0.24992606  1
  Co  Co95  1  0.62727865  0.12856674  0.37765773  1
  Co  Co96  1  0.62668092  0.87656117  0.37461119  1
  Co  Co97  1  0.50226526  0.00105433  0.49881255  1
  Co  Co98  1  0.12838400  0.37334372  0.12694245  1
  Co  Co99  1  0.49770724  0.25225331  -0.00386535  1
  Co  Co100  1  0.62668544  0.62109293  0.37226238  1
  Co  Co101  1  0.87351428  0.37347196  0.12177871  1
  Co  Co102  1  0.62135759  0.62434593  0.12627617  1
  Co  Co103  1  0.87773800  0.62623403  0.12436839  1
  Co  Co104  1  0.25248813  0.25290278  0.74819833  1
  Co  Co105  1  0.12338202  0.12795407  0.62920090  1
  Co  Co106  1  0.12303750  0.62438984  0.37084158  1
  Co  Co107  1  0.62384940  0.62359275  0.62666929  1
  Co  Co108  1  -0.00150564  0.49670898  0.24682042  1
  Co  Co109  1  0.25003230  -0.00326375  0.74673700  1
  Co  Co110  1  0.87882563  0.12395206  0.12467944  1
  Co  Co111  1  0.12468007  0.87242836  0.12594425  1
  Co  Co112  1  0.12385524  0.62427760  0.62778837  1
  Co  Co113  1  0.75130129  0.24779693  0.24690219  1
  Co  Co114  1  0.87090116  0.37479345  0.88038591  1
  Co  Co115  1  0.25272940  0.25007061  0.25173375  1
  Co  Co116  1  0.50194041  0.49917630  0.49761947  1
  Co  Co117  1  0.12767675  0.37563367  0.87433557  1
  Co  Co118  1  -0.00337999  0.49688109  0.75251361  1
  Co  Co119  1  0.37027416  0.12345002  0.87460233  1
  Co  Co120  1  0.00006501  0.74939563  0.49829270  1
  Co  Co121  1  0.12491791  0.13008037  0.12774508  1
  Co  Co122  1  0.49947962  0.24932100  0.25434415  1
  Co  Co123  1  0.87449109  0.37598293  0.37551740  1
  Co  Co124  1  0.24421984  0.00205592  0.49966611  1
  Co  Co125  1  0.61935991  0.12748613  0.12287545  1
  Co  Co126  1  0.62800948  0.62396206  0.87430121  1
  Co  Co127  1  0.24851139  0.00201802  0.00560897  1
