# generated using pymatgen
data_Fe45Co19
_symmetry_space_group_name_H-M   'P 1'
_cell_length_a   11.41411535
_cell_length_b   11.41445913
_cell_length_c   11.41405944
_cell_angle_alpha   90.00557750
_cell_angle_beta   89.99775841
_cell_angle_gamma   90.00558398
_symmetry_Int_Tables_number   1
_chemical_formula_structural   Fe45Co19
_chemical_formula_sum   'Fe90 Co38'
_cell_volume   1487.09159805
_cell_formula_units_Z   2
loop_
 _symmetry_equiv_pos_site_id
 _symmetry_equiv_pos_as_xyz
  1  'x, y, z'
loop_
 _atom_site_type_symbol
 _atom_site_label
 _atom_site_symmetry_multiplicity
 _atom_site_fract_x
 _atom_site_fract_y
 _atom_site_fract_z
 _atom_site_occupancy
  Fe  Fe0  1  0.62417477  0.37468850  0.37384850  1
  Fe  Fe1  1  0.87668807  0.87407421  0.37608831  1
  Fe  Fe2  1  0.12599054  0.62412501  0.87462872  1
  Fe  Fe3  1  0.75013309  0.25092978  0.74848185  1
  Fe  Fe4  1  0.37536002  0.62252882  0.12541882  1
  Fe  Fe5  1  -0.00001737  0.75191279  0.50454332  1
  Fe  Fe6  1  0.87467496  0.37652839  0.87332522  1
  Fe  Fe7  1  0.75164221  0.50220804  0.49847599  1
  Fe  Fe8  1  0.62358267  0.62577147  0.12606113  1
  Fe  Fe9  1  0.49801718  0.25040301  0.49813471  1
  Fe  Fe10  1  0.37425573  0.87425987  0.87382387  1
  Fe  Fe11  1  0.24927988  0.49870981  0.49912008  1
  Fe  Fe12  1  0.12814301  0.12572093  0.12218776  1
  Fe  Fe13  1  0.74841131  0.50006163  -0.00074544  1
  Fe  Fe14  1  -0.00149694  0.25350230  0.49941440  1
  Fe  Fe15  1  0.12446817  0.87361142  0.12488146  1
  Fe  Fe16  1  0.49934646  0.50190186  0.75046280  1
  Fe  Fe17  1  0.75208374  0.74798494  0.50224345  1
  Fe  Fe18  1  0.12300080  0.62606246  0.37695057  1
  Fe  Fe19  1  0.00016977  0.49945755  -0.00160169  1
  Fe  Fe20  1  0.87438423  0.12409664  0.12448519  1
  Fe  Fe21  1  0.62348253  0.37753060  0.62431470  1
  Fe  Fe22  1  0.62365348  0.12487440  0.37571231  1
  Fe  Fe23  1  0.74955744  0.25003998  0.00127026  1
  Fe  Fe24  1  0.62607887  0.12510821  0.87682080  1
  Fe  Fe25  1  0.87383458  0.37527378  0.12780369  1
  Fe  Fe26  1  0.75129866  0.75096463  0.00050972  1
  Fe  Fe27  1  0.87470609  0.12538363  0.87547506  1
  Fe  Fe28  1  0.87519204  0.38052480  0.62695674  1
  Fe  Fe29  1  0.24971910  0.75004299  0.49943619  1
  Fe  Fe30  1  0.00154899  0.25086977  0.75068397  1
  Fe  Fe31  1  0.74953370  0.24820742  0.25022269  1
  Fe  Fe32  1  0.37444025  0.37442060  0.87365548  1
  Fe  Fe33  1  0.00100196  0.25261700  0.00105641  1
  Fe  Fe34  1  0.25090507  0.74923254  0.25097244  1
  Fe  Fe35  1  -0.00130876  0.50021404  0.25273992  1
  Fe  Fe36  1  0.37509206  0.87696266  0.37590688  1
  Fe  Fe37  1  0.37330227  0.87583315  0.12479586  1
  Fe  Fe38  1  0.12458868  0.37410276  0.37243827  1
  Fe  Fe39  1  0.37558171  0.62377566  0.62494979  1
  Fe  Fe40  1  0.37242011  0.12547281  0.62023786  1
  Fe  Fe41  1  0.62275326  0.62798169  0.37488869  1
  Fe  Fe42  1  0.49824673  0.74987511  0.00040002  1
  Fe  Fe43  1  0.50093094  0.25048701  0.00598023  1
  Fe  Fe44  1  0.37734937  0.37769378  0.12914105  1
  Fe  Fe45  1  0.49889676  0.75097395  0.50125015  1
  Fe  Fe46  1  0.25052545  0.49826646  -0.00146223  1
  Fe  Fe47  1  0.12377958  0.12710558  0.37763300  1
  Fe  Fe48  1  0.75214200  0.25046006  0.50085475  1
  Fe  Fe49  1  0.62457523  0.12519654  0.62405856  1
  Fe  Fe50  1  0.87693182  0.87308768  0.87355704  1
  Fe  Fe51  1  0.37652272  0.62312921  0.37360341  1
  Fe  Fe52  1  0.00125016  0.74789545  0.74622845  1
  Fe  Fe53  1  0.75031255  0.50325094  0.25275577  1
  Fe  Fe54  1  0.50014687  0.00054006  0.00104749  1
  Fe  Fe55  1  0.12453058  0.37608503  0.12727575  1
  Fe  Fe56  1  0.74982655  0.74699801  0.74624833  1
  Fe  Fe57  1  0.37329435  0.87643934  0.62478189  1
  Fe  Fe58  1  0.49829692  0.00144693  0.74871256  1
  Fe  Fe59  1  0.62334937  0.87337798  0.37405454  1
  Fe  Fe60  1  -0.00077778  0.74944851  0.24946013  1
  Fe  Fe61  1  0.24502054  -0.00081251  0.49945703  1
  Fe  Fe62  1  0.49865235  0.24749357  0.74889524  1
  Fe  Fe63  1  0.62395770  0.37399735  0.87507484  1
  Fe  Fe64  1  0.75120886  -0.00028136  0.49952587  1
  Fe  Fe65  1  0.24787875  0.00342095  0.75053157  1
  Fe  Fe66  1  0.37415175  0.37494445  0.62624410  1
  Fe  Fe67  1  0.24903514  0.00046727  0.25097009  1
  Fe  Fe68  1  0.12724412  0.37565478  0.62802221  1
  Fe  Fe69  1  0.87670747  0.87405719  0.12333660  1
  Fe  Fe70  1  0.75027217  0.00049586  0.75047790  1
  Fe  Fe71  1  0.24865171  0.75097075  -0.00073695  1
  Fe  Fe72  1  0.49733685  0.00318653  0.24963821  1
  Fe  Fe73  1  0.00384056  0.00027505  0.74787420  1
  Fe  Fe74  1  0.25000230  0.74784572  0.74944899  1
  Fe  Fe75  1  0.87513978  0.62552420  0.12563304  1
  Fe  Fe76  1  0.75178065  -0.00148145  0.25085586  1
  Fe  Fe77  1  0.25214700  0.24815782  0.25015524  1
  Fe  Fe78  1  0.62214711  0.62599650  0.87426261  1
  Fe  Fe79  1  0.62445434  0.87466065  0.87392818  1
  Fe  Fe80  1  0.00176606  -0.00202663  -0.00202346  1
  Fe  Fe81  1  0.62457888  0.87476309  0.62560223  1
  Fe  Fe82  1  0.12500328  0.62455062  0.12512143  1
  Fe  Fe83  1  0.37240627  0.12661084  0.88048436  1
  Fe  Fe84  1  0.00095979  0.00152239  0.25220404  1
  Fe  Fe85  1  0.87534416  0.62371460  0.87225936  1
  Fe  Fe86  1  0.87762879  0.12323595  0.62308061  1
  Fe  Fe87  1  0.12819717  0.12846107  0.87858375  1
  Fe  Fe88  1  0.62523458  0.87502522  0.12609609  1
  Fe  Fe89  1  0.37631116  0.37587368  0.37199756  1
  Co  Co90  1  0.12786713  0.87418923  0.62610338  1
  Co  Co91  1  0.12424043  0.87202069  0.37401831  1
  Co  Co92  1  0.87701117  0.61970189  0.62517234  1
  Co  Co93  1  0.25021736  0.24663398  0.74973772  1
  Co  Co94  1  0.87626470  0.12563990  0.37676300  1
  Co  Co95  1  0.49809223  0.49975256  0.49870625  1
  Co  Co96  1  0.12427828  0.87202528  0.87223146  1
  Co  Co97  1  0.62646441  0.37653552  0.12767330  1
  Co  Co98  1  0.75190296  0.75034279  0.24982946  1
  Co  Co99  1  0.37377798  0.12357494  0.37857689  1
  Co  Co100  1  0.87451467  0.87682978  0.62603224  1
  Co  Co101  1  0.12725051  0.37441785  0.87295587  1
  Co  Co102  1  0.12393436  0.12798570  0.62118079  1
  Co  Co103  1  0.49885681  0.24680865  0.24960713  1
  Co  Co104  1  0.25064364  0.25689886  0.00258842  1
  Co  Co105  1  0.62759907  0.12277451  0.12521795  1
  Co  Co106  1  0.49919658  0.75040023  0.74792119  1
  Co  Co107  1  0.12544985  0.62309585  0.62243423  1
  Co  Co108  1  0.37103656  0.12378131  0.12190801  1
  Co  Co109  1  0.87370536  0.37386227  0.37244168  1
  Co  Co110  1  0.75180039  -0.00257572  -0.00112627  1
  Co  Co111  1  0.87884788  0.62749226  0.37689666  1
  Co  Co112  1  0.24782065  0.50168238  0.25215972  1
  Co  Co113  1  0.25005503  0.25417745  0.49871321  1
  Co  Co114  1  0.00345047  0.50017200  0.75164196  1
  Co  Co115  1  0.37548251  0.62590221  0.87603268  1
  Co  Co116  1  0.74601999  0.50014294  0.75068800  1
  Co  Co117  1  0.49651523  0.75044784  0.24961812  1
  Co  Co118  1  0.62258391  0.62321380  0.62383540  1
  Co  Co119  1  0.00062617  0.24846702  0.24907548  1
  Co  Co120  1  0.50038997  0.49923295  -0.00037028  1
  Co  Co121  1  0.50320343  0.50125893  0.25111165  1
  Co  Co122  1  0.00145522  0.49609288  0.49743719  1
  Co  Co123  1  0.00191152  -0.00268418  0.50002478  1
  Co  Co124  1  0.24770509  -0.00504305  -0.00147988  1
  Co  Co125  1  0.00023531  0.74799657  -0.00061894  1
  Co  Co126  1  0.50156857  -0.00094917  0.50132343  1
  Co  Co127  1  0.25116076  0.50166677  0.75027901  1
