# generated using pymatgen
data_Fe45Co19
_symmetry_space_group_name_H-M   'P 1'
_cell_length_a   11.41594480
_cell_length_b   11.41539891
_cell_length_c   11.41540651
_cell_angle_alpha   89.99690565
_cell_angle_beta   89.98886661
_cell_angle_gamma   90.00595734
_symmetry_Int_Tables_number   1
_chemical_formula_structural   Fe45Co19
_chemical_formula_sum   'Fe90 Co38'
_cell_volume   1487.62792872
_cell_formula_units_Z   2
loop_
 _symmetry_equiv_pos_site_id
 _symmetry_equiv_pos_as_xyz
  1  'x, y, z'
loop_
 _atom_site_type_symbol
 _atom_site_label
 _atom_site_symmetry_multiplicity
 _atom_site_fract_x
 _atom_site_fract_y
 _atom_site_fract_z
 _atom_site_occupancy
  Fe  Fe0  1  0.12567828  0.87662012  0.37365931  1
  Fe  Fe1  1  0.37497143  0.37532389  0.87681703  1
  Fe  Fe2  1  -0.00293360  0.50139773  0.24962785  1
  Fe  Fe3  1  0.50039892  0.49942245  0.24985583  1
  Fe  Fe4  1  0.75093712  0.24747544  0.50061904  1
  Fe  Fe5  1  0.75176230  0.50023429  0.24832984  1
  Fe  Fe6  1  0.12416265  0.62630278  0.37203282  1
  Fe  Fe7  1  0.37267480  0.87655895  0.12377792  1
  Fe  Fe8  1  0.50147124  -0.00088702  -0.00049535  1
  Fe  Fe9  1  0.37296163  0.37664364  0.62228658  1
  Fe  Fe10  1  0.50289857  0.49958397  0.00088220  1
  Fe  Fe11  1  0.49888082  0.00007886  0.49746420  1
  Fe  Fe12  1  0.87590647  0.12156226  0.12664307  1
  Fe  Fe13  1  0.87756879  0.12353821  0.62845353  1
  Fe  Fe14  1  0.62303736  0.12421442  0.37283302  1
  Fe  Fe15  1  0.12386900  0.37322375  0.87478944  1
  Fe  Fe16  1  0.62574322  0.87501662  0.12559734  1
  Fe  Fe17  1  0.12805661  0.12784615  0.13184512  1
  Fe  Fe18  1  0.74544256  0.49975181  0.50461915  1
  Fe  Fe19  1  -0.00626755  0.75270105  0.24982189  1
  Fe  Fe20  1  0.24741767  0.24564233  0.49610283  1
  Fe  Fe21  1  0.00117095  0.50259623  0.00047287  1
  Fe  Fe22  1  0.24862987  0.74935770  0.49996397  1
  Fe  Fe23  1  0.75607271  0.25308043  0.74982573  1
  Fe  Fe24  1  0.74798881  0.00101876  0.00035465  1
  Fe  Fe25  1  0.37390474  0.87679861  0.62175845  1
  Fe  Fe26  1  0.00163665  -0.00037353  0.50096376  1
  Fe  Fe27  1  0.74800989  0.50049047  -0.00026390  1
  Fe  Fe28  1  0.24893539  0.50066503  -0.00154067  1
  Fe  Fe29  1  0.50154117  0.25057438  0.50092209  1
  Fe  Fe30  1  0.12684953  0.62382621  0.62741266  1
  Fe  Fe31  1  0.25336386  0.74974664  0.75152169  1
  Fe  Fe32  1  0.62448751  0.12509323  0.62697565  1
  Fe  Fe33  1  0.87423378  0.87781323  0.87673979  1
  Fe  Fe34  1  -0.00262307  0.49734194  0.74987147  1
  Fe  Fe35  1  -0.00143721  0.75024320  0.49953505  1
  Fe  Fe36  1  0.74906527  0.75399652  0.74789839  1
  Fe  Fe37  1  0.50152742  0.49937307  0.74695085  1
  Fe  Fe38  1  0.25220169  0.74825404  -0.00300113  1
  Fe  Fe39  1  0.49853630  -0.00094974  0.75184176  1
  Fe  Fe40  1  0.62577656  0.62564305  0.37492287  1
  Fe  Fe41  1  -0.00048743  0.24799560  0.49983624  1
  Fe  Fe42  1  0.12449710  0.62787407  0.12620976  1
  Fe  Fe43  1  0.49830630  0.75353516  0.75090279  1
  Fe  Fe44  1  0.62506732  0.87649238  0.37445717  1
  Fe  Fe45  1  0.00156750  0.24522043  -0.00241331  1
  Fe  Fe46  1  0.49690583  0.24798511  0.75109686  1
  Fe  Fe47  1  0.25016976  0.49858569  0.25024190  1
  Fe  Fe48  1  0.37530034  0.62454175  0.12305242  1
  Fe  Fe49  1  -0.00079757  0.75290927  0.75079856  1
  Fe  Fe50  1  0.37027945  0.12262803  0.87899001  1
  Fe  Fe51  1  0.62536142  0.62640441  0.12554144  1
  Fe  Fe52  1  0.87550918  0.37523555  0.12189477  1
  Fe  Fe53  1  -0.00012204  0.75126179  -0.00041679  1
  Fe  Fe54  1  0.12426188  0.12361528  0.62946552  1
  Fe  Fe55  1  0.37407223  0.12412273  0.62218661  1
  Fe  Fe56  1  0.62501120  0.37253777  0.87395453  1
  Fe  Fe57  1  0.12658122  0.87715411  0.62628860  1
  Fe  Fe58  1  0.49913985  0.25144384  0.24914547  1
  Fe  Fe59  1  0.49912771  0.75130241  0.24943320  1
  Fe  Fe60  1  0.12370145  0.37246878  0.37275199  1
  Fe  Fe61  1  0.25031336  0.24982459  0.75107465  1
  Fe  Fe62  1  0.75047781  -0.00315616  0.74867934  1
  Fe  Fe63  1  0.75177456  0.24902734  0.24947989  1
  Fe  Fe64  1  0.12586489  0.62453591  0.87288170  1
  Fe  Fe65  1  0.37525559  0.37591782  0.37820705  1
  Fe  Fe66  1  0.87372726  0.62484970  0.62531957  1
  Fe  Fe67  1  0.62319377  0.62784566  0.87346872  1
  Fe  Fe68  1  0.00495174  0.00083250  0.00063364  1
  Fe  Fe69  1  0.87812702  0.12033213  0.37109646  1
  Fe  Fe70  1  0.12455838  0.37274252  0.12652760  1
  Fe  Fe71  1  0.37351766  0.62153888  0.62366723  1
  Fe  Fe72  1  0.37489299  0.37268358  0.12188196  1
  Fe  Fe73  1  0.50100546  0.74912674  0.50047858  1
  Fe  Fe74  1  0.62539287  0.37416971  0.37455712  1
  Fe  Fe75  1  0.12528461  0.37433262  0.62573750  1
  Fe  Fe76  1  0.75082785  0.75335082  0.50117229  1
  Fe  Fe77  1  0.62252457  0.12592541  0.12688202  1
  Fe  Fe78  1  0.12978114  0.87846622  0.87415561  1
  Fe  Fe79  1  0.75494732  0.75205298  0.25029397  1
  Fe  Fe80  1  0.74927062  0.24856978  0.00055817  1
  Fe  Fe81  1  0.62650310  0.12532454  0.87253094  1
  Fe  Fe82  1  0.25212028  0.75119799  0.25099673  1
  Fe  Fe83  1  0.37432866  0.12630229  0.12501122  1
  Fe  Fe84  1  0.87468011  0.37611418  0.37768031  1
  Fe  Fe85  1  0.37516784  0.62362462  0.37699408  1
  Fe  Fe86  1  0.00280505  0.50174866  0.49980176  1
  Fe  Fe87  1  0.74994691  0.00023369  0.50124614  1
  Fe  Fe88  1  0.87357563  0.62381541  0.87406042  1
  Fe  Fe89  1  0.75037213  0.75055006  0.00064989  1
  Co  Co90  1  0.87421597  0.87834277  0.12216713  1
  Co  Co91  1  0.37485222  0.87307878  0.37690730  1
  Co  Co92  1  0.50426826  0.49980035  0.50169021  1
  Co  Co93  1  0.49773571  -0.00167993  0.24945244  1
  Co  Co94  1  0.87550753  0.62540661  0.12269547  1
  Co  Co95  1  0.12030813  0.12462438  0.36966943  1
  Co  Co96  1  0.00326013  -0.00482274  0.24531593  1
  Co  Co97  1  0.24846301  0.00320781  0.49604984  1
  Co  Co98  1  0.24585274  0.50081767  0.49727016  1
  Co  Co99  1  0.12768055  0.86984169  0.12583650  1
  Co  Co100  1  0.87519367  0.88003383  0.37565459  1
  Co  Co101  1  -0.00075596  -0.00187285  0.75304821  1
  Co  Co102  1  0.74990422  0.49759688  0.74982725  1
  Co  Co103  1  0.12790332  0.12289384  0.86993144  1
  Co  Co104  1  0.87649436  0.37591637  0.62108640  1
  Co  Co105  1  0.62440271  0.36930115  0.62758600  1
  Co  Co106  1  0.25350186  -0.00025131  0.74732202  1
  Co  Co107  1  0.87324311  0.62338588  0.37878426  1
  Co  Co108  1  0.25020530  0.49908876  0.75248915  1
  Co  Co109  1  0.50158758  0.24823105  -0.00196081  1
  Co  Co110  1  0.37295700  0.87823514  0.87807416  1
  Co  Co111  1  0.25179722  0.00077438  0.25332332  1
  Co  Co112  1  0.87635632  0.37553586  0.88056028  1
  Co  Co113  1  0.62525222  0.87504502  0.87572711  1
  Co  Co114  1  0.24706116  0.24978753  -0.00122343  1
  Co  Co115  1  0.25336246  0.25080803  0.25299197  1
  Co  Co116  1  0.62527960  0.37331202  0.12545958  1
  Co  Co117  1  0.62550115  0.62818934  0.62740462  1
  Co  Co118  1  0.62168196  0.87778678  0.62363334  1
  Co  Co119  1  0.74792721  0.00011443  0.24922895  1
  Co  Co120  1  -0.00491926  0.25188700  0.24971798  1
  Co  Co121  1  0.24560796  0.00174272  0.00485729  1
  Co  Co122  1  0.87391753  0.12255115  0.87433040  1
  Co  Co123  1  0.87744472  0.87577808  0.62441017  1
  Co  Co124  1  0.37785345  0.12622279  0.37428660  1
  Co  Co125  1  0.37894501  0.62339186  0.87536752  1
  Co  Co126  1  -0.00215598  0.25124300  0.75202781  1
  Co  Co127  1  0.49915382  0.75261839  0.00116838  1
