# generated using pymatgen
data_Fe45Co19
_symmetry_space_group_name_H-M   'P 1'
_cell_length_a   11.41522980
_cell_length_b   11.41694197
_cell_length_c   11.41457482
_cell_angle_alpha   90.00349564
_cell_angle_beta   89.98517236
_cell_angle_gamma   90.00041171
_symmetry_Int_Tables_number   1
_chemical_formula_structural   Fe45Co19
_chemical_formula_sum   'Fe90 Co38'
_cell_volume   1487.62742552
_cell_formula_units_Z   2
loop_
 _symmetry_equiv_pos_site_id
 _symmetry_equiv_pos_as_xyz
  1  'x, y, z'
loop_
 _atom_site_type_symbol
 _atom_site_label
 _atom_site_symmetry_multiplicity
 _atom_site_fract_x
 _atom_site_fract_y
 _atom_site_fract_z
 _atom_site_occupancy
  Fe  Fe0  1  0.87755155  0.62851230  0.62582239  1
  Fe  Fe1  1  0.12163971  0.63076967  0.62590743  1
  Fe  Fe2  1  0.74861220  -0.00022832  0.74700182  1
  Fe  Fe3  1  0.62556965  0.62651531  0.12260996  1
  Fe  Fe4  1  0.25009441  0.24891793  0.50225840  1
  Fe  Fe5  1  0.37658567  0.12410658  0.37490072  1
  Fe  Fe6  1  0.37623855  0.62584428  0.62713438  1
  Fe  Fe7  1  0.87695822  0.12287145  0.62616426  1
  Fe  Fe8  1  0.37147684  0.87570256  0.12606624  1
  Fe  Fe9  1  0.12419005  0.12429368  0.87210441  1
  Fe  Fe10  1  0.24880509  0.24721439  0.24992161  1
  Fe  Fe11  1  0.37263409  0.87571354  0.37335593  1
  Fe  Fe12  1  0.12592290  0.87424692  0.87623891  1
  Fe  Fe13  1  0.37669860  0.62575952  0.87378850  1
  Fe  Fe14  1  0.25031483  0.50116233  0.50297628  1
  Fe  Fe15  1  0.87718249  0.62381704  0.87374548  1
  Fe  Fe16  1  0.37650391  0.37280309  0.12680717  1
  Fe  Fe17  1  0.24826606  0.00176974  0.50288522  1
  Fe  Fe18  1  -0.00216609  0.24768050  -0.00346563  1
  Fe  Fe19  1  0.62645679  0.37405537  0.37640794  1
  Fe  Fe20  1  -0.00057252  0.49971617  0.50235753  1
  Fe  Fe21  1  0.50298803  0.49712551  -0.00080674  1
  Fe  Fe22  1  0.87377758  0.37412649  0.12332621  1
  Fe  Fe23  1  0.37564270  0.62514150  0.12603600  1
  Fe  Fe24  1  0.24752896  0.00318000  0.00184989  1
  Fe  Fe25  1  0.62513384  0.87362366  0.87547300  1
  Fe  Fe26  1  0.74899528  0.50033888  0.24982743  1
  Fe  Fe27  1  0.37474248  0.12423436  0.87299086  1
  Fe  Fe28  1  0.12402999  0.37313022  0.12446934  1
  Fe  Fe29  1  0.37390928  0.37520376  0.87096446  1
  Fe  Fe30  1  0.50257721  -0.00176950  0.24940269  1
  Fe  Fe31  1  0.87040756  0.37731835  0.62900911  1
  Fe  Fe32  1  -0.00297047  0.25071530  0.75132795  1
  Fe  Fe33  1  0.86994237  0.87538272  0.37168930  1
  Fe  Fe34  1  0.62438000  0.62785545  0.62587132  1
  Fe  Fe35  1  0.62489730  0.11895786  0.37992127  1
  Fe  Fe36  1  0.75057662  0.75270854  0.50083601  1
  Fe  Fe37  1  0.87638814  0.12296989  0.37445137  1
  Fe  Fe38  1  -0.00150640  0.25180072  0.50157736  1
  Fe  Fe39  1  0.62569740  0.62826818  0.37504720  1
  Fe  Fe40  1  0.12508747  0.37608928  0.87237057  1
  Fe  Fe41  1  0.87530875  0.62701570  0.37450718  1
  Fe  Fe42  1  0.12270057  0.62540558  0.87355657  1
  Fe  Fe43  1  0.74941599  0.24728670  0.25066774  1
  Fe  Fe44  1  0.74710433  0.49883587  -0.00408835  1
  Fe  Fe45  1  0.12149936  0.12553619  0.37472580  1
  Fe  Fe46  1  0.49925170  0.75220061  0.00004585  1
  Fe  Fe47  1  0.37649623  0.12551651  0.12580223  1
  Fe  Fe48  1  0.87659709  0.87725065  0.12426740  1
  Fe  Fe49  1  0.74994383  0.50295713  0.50113588  1
  Fe  Fe50  1  0.37089590  0.87433286  0.62782566  1
  Fe  Fe51  1  0.87943045  0.12302977  0.12602841  1
  Fe  Fe52  1  0.62522434  0.12548086  0.87296327  1
  Fe  Fe53  1  0.50320155  0.49815338  0.24938666  1
  Fe  Fe54  1  0.87552449  0.62473267  0.12465801  1
  Fe  Fe55  1  0.49996403  -0.00254885  0.74923522  1
  Fe  Fe56  1  0.50052145  0.25183238  -0.00106709  1
  Fe  Fe57  1  0.50393033  0.50000550  0.75031712  1
  Fe  Fe58  1  0.12338114  0.62455312  0.37460737  1
  Fe  Fe59  1  0.75343817  0.24841679  -0.00503960  1
  Fe  Fe60  1  0.74962432  0.00193354  0.00043581  1
  Fe  Fe61  1  0.50054434  0.75471002  0.50041036  1
  Fe  Fe62  1  0.50070144  0.49828516  0.50160738  1
  Fe  Fe63  1  0.50047948  0.25084455  0.50259506  1
  Fe  Fe64  1  0.12722641  0.37372901  0.62791729  1
  Fe  Fe65  1  0.12506834  0.37494189  0.37593058  1
  Fe  Fe66  1  0.50364488  0.75380842  0.25001464  1
  Fe  Fe67  1  0.37183147  0.87516272  0.87443512  1
  Fe  Fe68  1  0.75238270  0.75059338  -0.00030351  1
  Fe  Fe69  1  0.00032348  0.50000679  -0.00049606  1
  Fe  Fe70  1  0.74964705  0.75071253  0.75089945  1
  Fe  Fe71  1  0.00336864  -0.00409402  0.74754204  1
  Fe  Fe72  1  0.37524834  0.37428644  0.37544367  1
  Fe  Fe73  1  0.74969551  0.24677896  0.50293714  1
  Fe  Fe74  1  0.25019652  0.50053398  0.24967467  1
  Fe  Fe75  1  0.37352702  0.12466856  0.62695037  1
  Fe  Fe76  1  0.37627738  0.62546959  0.37373132  1
  Fe  Fe77  1  0.24950032  0.24785061  -0.00100673  1
  Fe  Fe78  1  0.62360891  0.12605302  0.12353468  1
  Fe  Fe79  1  0.25087439  0.74816374  0.49961540  1
  Fe  Fe80  1  -0.00053157  -0.00497231  0.50102571  1
  Fe  Fe81  1  0.12849262  0.87494624  0.37346699  1
  Fe  Fe82  1  0.00147927  0.75114282  0.24822930  1
  Fe  Fe83  1  0.87311233  0.37510037  0.37674377  1
  Fe  Fe84  1  0.25030758  0.50009694  -0.00031661  1
  Fe  Fe85  1  -0.00156987  0.49750671  0.25057526  1
  Fe  Fe86  1  0.87625290  0.87824449  0.87610139  1
  Fe  Fe87  1  0.50228085  0.25063839  0.74676171  1
  Fe  Fe88  1  0.50005366  -0.00106717  -0.00067022  1
  Fe  Fe89  1  0.24724376  0.74762753  0.00243784  1
  Co  Co90  1  0.50296388  0.24844174  0.25224928  1
  Co  Co91  1  0.62566027  0.87636249  0.62349583  1
  Co  Co92  1  0.62654954  0.87462082  0.12097393  1
  Co  Co93  1  0.75218323  0.24648610  0.75043700  1
  Co  Co94  1  0.62837176  0.87858338  0.37887506  1
  Co  Co95  1  0.24867874  0.74769439  0.24878244  1
  Co  Co96  1  0.37342229  0.37561726  0.62682701  1
  Co  Co97  1  -0.00107178  0.75421473  0.49546991  1
  Co  Co98  1  0.49970857  0.75304233  0.74993641  1
  Co  Co99  1  0.24963059  0.00398141  0.24902088  1
  Co  Co100  1  -0.00081183  0.75314320  0.75370660  1
  Co  Co101  1  0.00082515  -0.00323549  0.25210329  1
  Co  Co102  1  0.12055772  0.12595147  0.12709305  1
  Co  Co103  1  0.62462016  0.12165413  0.62324506  1
  Co  Co104  1  0.62903982  0.37537404  0.62504054  1
  Co  Co105  1  -0.00190409  0.25299447  0.25144406  1
  Co  Co106  1  0.87565811  0.87256388  0.62697618  1
  Co  Co107  1  0.62689502  0.37124091  0.87230859  1
  Co  Co108  1  0.75556277  -0.00148620  0.50365978  1
  Co  Co109  1  0.00342666  0.00084802  -0.00064227  1
  Co  Co110  1  0.87456370  0.37856400  0.87250630  1
  Co  Co111  1  0.87624601  0.11853572  0.87209641  1
  Co  Co112  1  0.24738342  0.00016525  0.74870869  1
  Co  Co113  1  0.12661919  0.87053308  0.62368962  1
  Co  Co114  1  0.24984001  0.24789663  0.75084428  1
  Co  Co115  1  0.12329825  0.62289436  0.12607079  1
  Co  Co116  1  0.74708926  0.50471966  0.75191707  1
  Co  Co117  1  0.24887039  0.50380018  0.74914410  1
  Co  Co118  1  0.12179925  0.12619435  0.62490821  1
  Co  Co119  1  0.74858262  0.75088868  0.24739683  1
  Co  Co120  1  0.24984933  0.74807920  0.75208230  1
  Co  Co121  1  0.62308764  0.62977417  0.87699342  1
  Co  Co122  1  0.00056681  0.50070764  0.74721827  1
  Co  Co123  1  0.12572200  0.87643065  0.12508413  1
  Co  Co124  1  0.49531855  -0.00317271  0.50263318  1
  Co  Co125  1  0.74756923  0.00187330  0.24663337  1
  Co  Co126  1  0.00016612  0.75030720  0.00081787  1
  Co  Co127  1  0.62755117  0.37237402  0.12386988  1
