# generated using pymatgen
data_Fe45Co19
_symmetry_space_group_name_H-M   'P 1'
_cell_length_a   11.41618024
_cell_length_b   11.41567028
_cell_length_c   11.41681396
_cell_angle_alpha   90.00515589
_cell_angle_beta   90.00216410
_cell_angle_gamma   89.99236194
_symmetry_Int_Tables_number   1
_chemical_formula_structural   Fe45Co19
_chemical_formula_sum   'Fe90 Co38'
_cell_volume   1487.87741649
_cell_formula_units_Z   2
loop_
 _symmetry_equiv_pos_site_id
 _symmetry_equiv_pos_as_xyz
  1  'x, y, z'
loop_
 _atom_site_type_symbol
 _atom_site_label
 _atom_site_symmetry_multiplicity
 _atom_site_fract_x
 _atom_site_fract_y
 _atom_site_fract_z
 _atom_site_occupancy
  Fe  Fe0  1  0.87596309  0.37703464  0.87224137  1
  Fe  Fe1  1  0.37658084  0.12389441  0.62736472  1
  Fe  Fe2  1  -0.00402536  0.74628054  0.49655150  1
  Fe  Fe3  1  0.37548620  0.13009861  0.12312435  1
  Fe  Fe4  1  0.00126050  0.50106168  0.25110717  1
  Fe  Fe5  1  0.62531102  0.87431820  0.37706852  1
  Fe  Fe6  1  0.12530582  0.12418379  0.62347252  1
  Fe  Fe7  1  0.75059372  0.50201016  0.74937085  1
  Fe  Fe8  1  0.87340567  0.87418138  0.62334449  1
  Fe  Fe9  1  0.25089841  0.75119357  0.00229369  1
  Fe  Fe10  1  0.75030578  0.25053286  0.50171694  1
  Fe  Fe11  1  0.12825259  0.12649543  0.87420363  1
  Fe  Fe12  1  0.00209970  0.74411342  0.75061301  1
  Fe  Fe13  1  0.74908689  0.00083141  0.24982246  1
  Fe  Fe14  1  0.62208831  0.12968621  0.12202379  1
  Fe  Fe15  1  0.24990422  0.25005521  0.50251325  1
  Fe  Fe16  1  0.87880929  0.37799927  0.62748858  1
  Fe  Fe17  1  0.62598113  0.62365141  0.87659774  1
  Fe  Fe18  1  -0.00125846  0.50385712  0.49963861  1
  Fe  Fe19  1  0.00233237  0.25053878  -0.00094080  1
  Fe  Fe20  1  0.12222013  0.37629111  0.62719428  1
  Fe  Fe21  1  0.50175927  0.49706463  0.25220964  1
  Fe  Fe22  1  0.49717705  0.25127278  0.75784319  1
  Fe  Fe23  1  0.75240771  0.25005562  0.74887603  1
  Fe  Fe24  1  0.37545614  0.87435878  0.87354086  1
  Fe  Fe25  1  -0.00024296  0.74811937  -0.00053625  1
  Fe  Fe26  1  0.62464207  0.12626244  0.37634862  1
  Fe  Fe27  1  0.62379282  0.62452043  0.37771703  1
  Fe  Fe28  1  0.74841759  0.25427052  -0.00002514  1
  Fe  Fe29  1  0.12481916  0.87195881  0.62318814  1
  Fe  Fe30  1  -0.00023699  0.24899886  0.50098284  1
  Fe  Fe31  1  0.24868928  -0.00195011  0.00162974  1
  Fe  Fe32  1  0.62527345  0.87483250  0.62268598  1
  Fe  Fe33  1  0.74718949  0.49683690  0.24843392  1
  Fe  Fe34  1  -0.00098802  0.00072750  0.74958738  1
  Fe  Fe35  1  0.49999644  0.49515670  -0.00381998  1
  Fe  Fe36  1  0.37577326  0.87396799  0.12746193  1
  Fe  Fe37  1  0.50067601  0.00131032  0.24925754  1
  Fe  Fe38  1  0.24746259  0.50346550  0.74791984  1
  Fe  Fe39  1  0.87566377  0.12329541  0.37623196  1
  Fe  Fe40  1  0.87294063  0.12511520  0.87475381  1
  Fe  Fe41  1  0.62153390  0.37619872  0.62647362  1
  Fe  Fe42  1  0.62154067  0.62530375  0.62244452  1
  Fe  Fe43  1  0.49854244  -0.00060807  0.49927985  1
  Fe  Fe44  1  -0.00050959  0.50229764  -0.00344299  1
  Fe  Fe45  1  0.37691722  0.62695098  0.62701978  1
  Fe  Fe46  1  0.75073324  0.74955590  0.00136620  1
  Fe  Fe47  1  0.87641651  0.87508592  0.12655637  1
  Fe  Fe48  1  0.00120631  0.74932354  0.25293289  1
  Fe  Fe49  1  0.24890379  -0.00150245  0.74804841  1
  Fe  Fe50  1  0.37692670  0.37631398  0.62794972  1
  Fe  Fe51  1  0.00408635  0.24860087  0.25027120  1
  Fe  Fe52  1  0.62398589  0.62247817  0.12326805  1
  Fe  Fe53  1  0.00057110  -0.00061779  -0.00079245  1
  Fe  Fe54  1  0.00253911  0.00113411  0.24983435  1
  Fe  Fe55  1  0.87397468  0.12198672  0.62428161  1
  Fe  Fe56  1  0.37704347  0.62566665  0.12718359  1
  Fe  Fe57  1  0.37339357  0.62524638  0.87383044  1
  Fe  Fe58  1  0.62442362  0.12447349  0.62771971  1
  Fe  Fe59  1  0.74842507  0.25210784  0.24986771  1
  Fe  Fe60  1  0.74888898  0.75022057  0.25106896  1
  Fe  Fe61  1  0.24974823  0.49802029  0.00278255  1
  Fe  Fe62  1  0.37469247  0.37245471  0.37439480  1
  Fe  Fe63  1  0.87461244  0.62406687  0.12591408  1
  Fe  Fe64  1  0.12608082  0.87625243  0.37701124  1
  Fe  Fe65  1  0.49957080  0.75025960  -0.00043543  1
  Fe  Fe66  1  0.37222310  0.12661669  0.37446940  1
  Fe  Fe67  1  0.25231814  0.50047644  0.50082190  1
  Fe  Fe68  1  0.37828842  0.37026735  0.12534086  1
  Fe  Fe69  1  0.87415528  0.87284601  0.87351032  1
  Fe  Fe70  1  0.50057984  0.00195486  -0.00263395  1
  Fe  Fe71  1  0.49965549  0.25136360  0.49973375  1
  Fe  Fe72  1  0.87459639  0.37556994  0.37518470  1
  Fe  Fe73  1  0.24717083  0.00178415  0.24824728  1
  Fe  Fe74  1  0.37688161  0.87316949  0.62800855  1
  Fe  Fe75  1  0.25266746  0.75017218  0.49933533  1
  Fe  Fe76  1  0.75090863  0.50030408  0.50117538  1
  Fe  Fe77  1  0.75031660  -0.00083265  -0.00077735  1
  Fe  Fe78  1  0.12667426  0.37415882  0.87194743  1
  Fe  Fe79  1  0.87568652  0.12562395  0.12403688  1
  Fe  Fe80  1  0.24963136  0.49851828  0.24862018  1
  Fe  Fe81  1  0.12548032  0.87258451  0.87454242  1
  Fe  Fe82  1  0.62403602  0.87553189  0.12357628  1
  Fe  Fe83  1  0.87721445  0.37574708  0.12506004  1
  Fe  Fe84  1  0.74718730  0.74985965  0.74933897  1
  Fe  Fe85  1  0.50281927  -0.00081481  0.75467932  1
  Fe  Fe86  1  0.37507811  0.87428637  0.37171049  1
  Fe  Fe87  1  0.12585506  0.37551166  0.37591233  1
  Fe  Fe88  1  0.37591226  0.62676869  0.37229100  1
  Fe  Fe89  1  0.12572014  0.62563063  0.12537417  1
  Co  Co90  1  0.50326813  0.75004365  0.24905926  1
  Co  Co91  1  0.24544227  0.25028098  0.24842209  1
  Co  Co92  1  0.62052540  0.37257288  0.12318466  1
  Co  Co93  1  0.62854134  0.37677540  0.87120290  1
  Co  Co94  1  0.75045998  -0.00228377  0.75003780  1
  Co  Co95  1  0.13002762  0.62619338  0.87816494  1
  Co  Co96  1  0.49688108  0.75113927  0.49931460  1
  Co  Co97  1  0.36808110  0.37772709  0.87203811  1
  Co  Co98  1  0.87211404  0.62214735  0.37209617  1
  Co  Co99  1  0.12228703  0.37682869  0.12478116  1
  Co  Co100  1  -0.00061510  -0.00046891  0.50194996  1
  Co  Co101  1  0.62602939  0.87436521  0.87778223  1
  Co  Co102  1  0.62899685  0.12568504  0.87429510  1
  Co  Co103  1  0.12567335  0.62612274  0.62078643  1
  Co  Co104  1  0.87543309  0.62464481  0.62678435  1
  Co  Co105  1  0.24789926  0.74997931  0.24898681  1
  Co  Co106  1  0.00276904  0.50595727  0.75320524  1
  Co  Co107  1  0.87110638  0.62604220  0.87437156  1
  Co  Co108  1  0.12803921  0.62343495  0.37608348  1
  Co  Co109  1  0.36963598  0.12280345  0.87560241  1
  Co  Co110  1  0.12689286  0.12395977  0.37945123  1
  Co  Co111  1  0.75280164  0.74779020  0.49855817  1
  Co  Co112  1  0.49900858  0.50145599  0.75244316  1
  Co  Co113  1  0.87450703  0.87786307  0.37485870  1
  Co  Co114  1  0.50267161  0.74979329  0.75202094  1
  Co  Co115  1  0.50171243  0.25071250  0.25324231  1
  Co  Co116  1  0.12571518  0.12511715  0.12145241  1
  Co  Co117  1  0.25317018  -0.00148093  0.50265406  1
  Co  Co118  1  -0.00062359  0.24673107  0.74940419  1
  Co  Co119  1  0.62569332  0.37535693  0.37900975  1
  Co  Co120  1  0.12334958  0.87352344  0.12449165  1
  Co  Co121  1  0.49690706  0.49981227  0.49925100  1
  Co  Co122  1  0.24943471  0.74941742  0.74988845  1
  Co  Co123  1  0.74910916  0.00140080  0.49965777  1
  Co  Co124  1  0.49848189  0.25240507  -0.00966799  1
  Co  Co125  1  0.75147368  0.49759680  0.00161182  1
  Co  Co126  1  0.25090718  0.24911967  0.74665885  1
  Co  Co127  1  0.24961676  0.25311545  0.00143209  1
