# generated using pymatgen
data_Fe45Co19
_symmetry_space_group_name_H-M   'P 1'
_cell_length_a   11.41483018
_cell_length_b   11.41451657
_cell_length_c   11.41380449
_cell_angle_alpha   89.98978923
_cell_angle_beta   90.00887163
_cell_angle_gamma   90.00242012
_symmetry_Int_Tables_number   1
_chemical_formula_structural   Fe45Co19
_chemical_formula_sum   'Fe90 Co38'
_cell_volume   1487.15896774
_cell_formula_units_Z   2
loop_
 _symmetry_equiv_pos_site_id
 _symmetry_equiv_pos_as_xyz
  1  'x, y, z'
loop_
 _atom_site_type_symbol
 _atom_site_label
 _atom_site_symmetry_multiplicity
 _atom_site_fract_x
 _atom_site_fract_y
 _atom_site_fract_z
 _atom_site_occupancy
  Fe  Fe0  1  0.24636006  0.00143338  0.49972100  1
  Fe  Fe1  1  0.24491289  0.00356901  -0.00480152  1
  Fe  Fe2  1  0.12418170  0.62190109  0.12680586  1
  Fe  Fe3  1  0.74977819  0.24876090  0.25285848  1
  Fe  Fe4  1  0.75204519  0.24947451  -0.00285668  1
  Fe  Fe5  1  0.75082239  0.75039417  0.74871574  1
  Fe  Fe6  1  0.62384618  0.62605275  0.37694152  1
  Fe  Fe7  1  0.37412095  0.62484521  0.87378001  1
  Fe  Fe8  1  0.12416189  0.87593566  0.37590108  1
  Fe  Fe9  1  0.50088502  0.49796841  -0.00243076  1
  Fe  Fe10  1  0.37535495  0.87860552  0.37247749  1
  Fe  Fe11  1  0.12384777  0.87552945  0.12361464  1
  Fe  Fe12  1  0.49872626  0.75311758  0.49992774  1
  Fe  Fe13  1  0.62591023  0.12612230  0.12446744  1
  Fe  Fe14  1  0.24919605  0.24675400  0.50365292  1
  Fe  Fe15  1  0.25045247  0.75110147  0.24921221  1
  Fe  Fe16  1  0.12585511  0.37122563  0.87375942  1
  Fe  Fe17  1  0.37514009  0.62279546  0.12525767  1
  Fe  Fe18  1  0.62095285  0.12129971  0.38115181  1
  Fe  Fe19  1  0.50040687  0.49850886  0.25037238  1
  Fe  Fe20  1  0.50071477  0.75242519  0.24945999  1
  Fe  Fe21  1  0.62515892  0.12686560  0.87024672  1
  Fe  Fe22  1  0.62673573  0.87742582  0.12438256  1
  Fe  Fe23  1  0.62636324  0.87827035  0.62352835  1
  Fe  Fe24  1  0.12438673  0.37164965  0.37692971  1
  Fe  Fe25  1  0.49988750  0.49811525  0.74722192  1
  Fe  Fe26  1  0.75098730  0.74998818  0.25176348  1
  Fe  Fe27  1  0.24785907  0.50242882  0.50079516  1
  Fe  Fe28  1  0.87576510  0.87838361  0.12474775  1
  Fe  Fe29  1  0.37419540  0.87594433  0.87571878  1
  Fe  Fe30  1  -0.00209895  0.49727606  0.25348674  1
  Fe  Fe31  1  0.74876753  0.74950953  0.50077690  1
  Fe  Fe32  1  0.37086840  0.87777221  0.62649082  1
  Fe  Fe33  1  0.62732318  0.62338166  0.12401466  1
  Fe  Fe34  1  0.74966792  0.50198656  0.74485446  1
  Fe  Fe35  1  0.87908109  0.12361540  0.62514285  1
  Fe  Fe36  1  0.12473539  0.62491874  0.87393685  1
  Fe  Fe37  1  0.37358241  0.62438836  0.62656232  1
  Fe  Fe38  1  0.37420007  0.87857674  0.12427453  1
  Fe  Fe39  1  0.12728056  0.37669397  0.62599347  1
  Fe  Fe40  1  0.87576323  0.62253673  0.37966283  1
  Fe  Fe41  1  0.87348785  0.37685809  0.87324846  1
  Fe  Fe42  1  0.87447883  0.37379011  0.12545811  1
  Fe  Fe43  1  0.62718955  0.37249351  0.87066602  1
  Fe  Fe44  1  0.87641227  0.87634210  0.37709924  1
  Fe  Fe45  1  -0.00118374  0.24747807  -0.00082308  1
  Fe  Fe46  1  0.25032773  0.49563036  0.00088730  1
  Fe  Fe47  1  0.12216195  0.12216127  0.63106780  1
  Fe  Fe48  1  0.24655643  0.75221734  0.75064747  1
  Fe  Fe49  1  -0.00256005  0.50147557  -0.00037530  1
  Fe  Fe50  1  0.50297173  0.49815138  0.50411316  1
  Fe  Fe51  1  0.00130346  0.75107323  0.74802755  1
  Fe  Fe52  1  0.75184698  0.74822722  -0.00092768  1
  Fe  Fe53  1  0.00134575  0.00231002  0.25081752  1
  Fe  Fe54  1  0.50044834  0.00213845  -0.00165790  1
  Fe  Fe55  1  0.88045653  0.12398750  0.87253347  1
  Fe  Fe56  1  0.37282383  0.37252603  0.87222046  1
  Fe  Fe57  1  0.00312875  0.74860824  0.50150984  1
  Fe  Fe58  1  0.74947811  0.24736443  0.50202737  1
  Fe  Fe59  1  -0.00119474  0.25078631  0.25168236  1
  Fe  Fe60  1  0.37232125  0.12584568  0.12755018  1
  Fe  Fe61  1  0.74963783  0.00170725  0.25329912  1
  Fe  Fe62  1  0.37146660  0.12697070  0.87101094  1
  Fe  Fe63  1  0.37358490  0.12386509  0.37570427  1
  Fe  Fe64  1  0.24965814  0.74965652  0.49958548  1
  Fe  Fe65  1  0.62731557  0.62491069  0.87334895  1
  Fe  Fe66  1  0.12549629  0.62455098  0.37388304  1
  Fe  Fe67  1  0.12733678  0.12898568  0.12745709  1
  Fe  Fe68  1  0.25012587  0.49450163  0.24814385  1
  Fe  Fe69  1  0.62548989  0.37307546  0.12422940  1
  Fe  Fe70  1  0.50106327  0.75255564  0.75078821  1
  Fe  Fe71  1  -0.00111664  0.74871719  0.24981436  1
  Fe  Fe72  1  0.87381007  0.37629012  0.61969879  1
  Fe  Fe73  1  0.87892989  0.12675159  0.37744322  1
  Fe  Fe74  1  0.75166514  0.00127317  0.74926267  1
  Fe  Fe75  1  0.49895504  0.24892422  0.25262101  1
  Fe  Fe76  1  0.37492850  0.37367045  0.37919702  1
  Fe  Fe77  1  0.00043722  0.50066514  0.74718932  1
  Fe  Fe78  1  0.62560879  0.37375349  0.37858277  1
  Fe  Fe79  1  0.87723451  0.87638825  0.62201293  1
  Fe  Fe80  1  0.24959869  0.74919727  0.00040199  1
  Fe  Fe81  1  0.75201405  0.49840824  0.25266543  1
  Fe  Fe82  1  0.50152161  0.75064673  -0.00108949  1
  Fe  Fe83  1  0.37516344  0.62376974  0.37463388  1
  Fe  Fe84  1  0.49866343  0.24933150  -0.00148314  1
  Fe  Fe85  1  0.87761872  0.87600569  0.87739290  1
  Fe  Fe86  1  0.49717720  0.25012556  0.74165092  1
  Fe  Fe87  1  -0.00254911  0.74623789  0.00140267  1
  Fe  Fe88  1  0.49974181  -0.00008184  0.74891791  1
  Fe  Fe89  1  0.75115147  0.00300055  -0.00172788  1
  Co  Co90  1  0.74644437  0.50204915  0.50159469  1
  Co  Co91  1  0.00356595  0.00503757  0.00118987  1
  Co  Co92  1  0.24678811  -0.00134045  0.25080950  1
  Co  Co93  1  0.24993077  0.25096027  0.00021734  1
  Co  Co94  1  0.87435061  0.62486860  0.87074827  1
  Co  Co95  1  0.12131487  0.87255196  0.87866111  1
  Co  Co96  1  0.00150626  -0.00546835  0.75115682  1
  Co  Co97  1  0.00327614  0.49945491  0.50041271  1
  Co  Co98  1  0.11982891  0.37309417  0.12418472  1
  Co  Co99  1  0.12644004  0.62515729  0.62600333  1
  Co  Co100  1  0.50199455  0.00083349  0.24926852  1
  Co  Co101  1  0.00234631  0.00220978  0.49847555  1
  Co  Co102  1  0.25223581  0.25522411  0.25016136  1
  Co  Co103  1  0.00323720  0.24911326  0.50386466  1
  Co  Co104  1  0.62688054  0.87714404  0.87479594  1
  Co  Co105  1  0.75334405  0.00149152  0.49963787  1
  Co  Co106  1  -0.00293627  0.25506126  0.74758860  1
  Co  Co107  1  0.25093285  0.24947848  0.74597884  1
  Co  Co108  1  0.49822017  0.25073612  0.50401236  1
  Co  Co109  1  0.24931480  0.49979517  0.75223130  1
  Co  Co110  1  0.62202325  0.62837677  0.62542251  1
  Co  Co111  1  0.12254843  0.13046600  0.86910130  1
  Co  Co112  1  0.37937291  0.37290752  0.12452860  1
  Co  Co113  1  0.24640620  -0.00200603  0.75383032  1
  Co  Co114  1  0.49772413  -0.00298014  0.50201725  1
  Co  Co115  1  0.87489005  0.37262736  0.38052261  1
  Co  Co116  1  0.87420414  0.62265519  0.12693736  1
  Co  Co117  1  0.75504699  0.24714962  0.74878864  1
  Co  Co118  1  0.62877266  0.37008802  0.62595768  1
  Co  Co119  1  0.75064506  0.49835265  -0.00080721  1
  Co  Co120  1  0.37066624  0.37792267  0.62288161  1
  Co  Co121  1  0.87396101  0.12571565  0.12694050  1
  Co  Co122  1  0.87772747  0.62503785  0.62230200  1
  Co  Co123  1  0.62534452  0.87655953  0.37672625  1
  Co  Co124  1  0.37387579  0.12038396  0.62451371  1
  Co  Co125  1  0.12587249  0.12824100  0.37216655  1
  Co  Co126  1  0.62494791  0.12349414  0.62433966  1
  Co  Co127  1  0.12524326  0.87668854  0.62250798  1
