# generated using pymatgen
data_Fe45Co19
_symmetry_space_group_name_H-M   'P 1'
_cell_length_a   11.41574183
_cell_length_b   11.41651516
_cell_length_c   11.41415169
_cell_angle_alpha   89.98692341
_cell_angle_beta   90.00444661
_cell_angle_gamma   90.00583290
_symmetry_Int_Tables_number   1
_chemical_formula_structural   Fe45Co19
_chemical_formula_sum   'Fe90 Co38'
_cell_volume   1487.58339123
_cell_formula_units_Z   2
loop_
 _symmetry_equiv_pos_site_id
 _symmetry_equiv_pos_as_xyz
  1  'x, y, z'
loop_
 _atom_site_type_symbol
 _atom_site_label
 _atom_site_symmetry_multiplicity
 _atom_site_fract_x
 _atom_site_fract_y
 _atom_site_fract_z
 _atom_site_occupancy
  Fe  Fe0  1  0.37741863  0.62422877  0.12359195  1
  Fe  Fe1  1  -0.00100231  0.49744970  0.25131054  1
  Fe  Fe2  1  0.74702886  0.24851993  -0.00147201  1
  Fe  Fe3  1  0.12517287  0.62321599  0.87630853  1
  Fe  Fe4  1  0.50070212  -0.00057212  0.25162098  1
  Fe  Fe5  1  0.62765271  0.62419373  0.87297462  1
  Fe  Fe6  1  0.12337141  0.37111065  0.37499038  1
  Fe  Fe7  1  0.24964004  0.74930994  0.00080425  1
  Fe  Fe8  1  0.87523813  0.12464068  0.62569064  1
  Fe  Fe9  1  0.87592673  0.12864881  0.37444172  1
  Fe  Fe10  1  0.24941962  0.74980351  0.24949760  1
  Fe  Fe11  1  0.88021504  0.62896995  0.62555029  1
  Fe  Fe12  1  0.62900368  0.87822189  0.12671093  1
  Fe  Fe13  1  0.87443939  0.87516097  0.87379692  1
  Fe  Fe14  1  0.37680971  0.12528330  0.12448788  1
  Fe  Fe15  1  0.74902451  0.25068371  0.50269221  1
  Fe  Fe16  1  0.62851168  0.37780262  0.86727651  1
  Fe  Fe17  1  0.75061158  0.75022448  0.50203762  1
  Fe  Fe18  1  0.50079482  0.49807822  -0.00408161  1
  Fe  Fe19  1  0.37725959  0.12396881  0.62496369  1
  Fe  Fe20  1  -0.00124833  0.75259759  0.00297440  1
  Fe  Fe21  1  0.50031248  0.50170873  0.50144416  1
  Fe  Fe22  1  0.12353216  0.12825866  0.37359217  1
  Fe  Fe23  1  0.87326725  0.62404501  0.87703369  1
  Fe  Fe24  1  0.24941992  0.24982662  0.50004918  1
  Fe  Fe25  1  0.37499869  0.12504387  0.37603481  1
  Fe  Fe26  1  0.00024987  -0.00029767  0.49975931  1
  Fe  Fe27  1  0.75097959  0.50250915  0.50321407  1
  Fe  Fe28  1  0.62551907  0.12559305  0.37646635  1
  Fe  Fe29  1  0.62154656  0.62658232  0.62879800  1
  Fe  Fe30  1  0.88077887  0.87225898  0.62812032  1
  Fe  Fe31  1  0.37491905  0.37534181  0.12303909  1
  Fe  Fe32  1  0.37503098  0.62737147  0.37832310  1
  Fe  Fe33  1  0.87553102  0.62771014  0.37265967  1
  Fe  Fe34  1  0.00010788  0.24995265  0.74990957  1
  Fe  Fe35  1  -0.00034511  0.24868129  0.00252071  1
  Fe  Fe36  1  -0.00126856  0.49861018  0.49807769  1
  Fe  Fe37  1  0.12600412  0.87595661  0.37588593  1
  Fe  Fe38  1  0.50281281  0.00027331  -0.00084917  1
  Fe  Fe39  1  0.86914174  0.12273309  0.12584599  1
  Fe  Fe40  1  0.87210401  0.37480892  0.87413333  1
  Fe  Fe41  1  0.25150987  0.50202320  0.74748637  1
  Fe  Fe42  1  0.12393588  0.37681279  0.62430675  1
  Fe  Fe43  1  0.75063504  0.74804276  0.00499246  1
  Fe  Fe44  1  0.75161085  -0.00189196  0.50097982  1
  Fe  Fe45  1  0.25036899  0.00102986  0.25046272  1
  Fe  Fe46  1  0.37614664  0.37403386  0.37676668  1
  Fe  Fe47  1  0.37698649  0.37619581  0.62503350  1
  Fe  Fe48  1  0.24966724  -0.00144698  0.74769933  1
  Fe  Fe49  1  0.12409152  0.62468236  0.37720556  1
  Fe  Fe50  1  0.62686152  0.87299795  0.37409081  1
  Fe  Fe51  1  0.00064124  -0.00121760  0.24702211  1
  Fe  Fe52  1  0.12411560  0.12352510  0.62453195  1
  Fe  Fe53  1  0.62541150  0.12269738  0.86770881  1
  Fe  Fe54  1  0.50228474  0.25033749  -0.00383865  1
  Fe  Fe55  1  0.25119492  0.25043259  0.74984423  1
  Fe  Fe56  1  0.62715547  0.87481942  0.87175468  1
  Fe  Fe57  1  0.87368925  0.87120518  0.37049819  1
  Fe  Fe58  1  0.49952203  -0.00224839  0.49885449  1
  Fe  Fe59  1  0.50358412  0.25051660  0.50332309  1
  Fe  Fe60  1  0.62523672  0.62649294  0.37552178  1
  Fe  Fe61  1  0.25106233  0.49926411  0.25198521  1
  Fe  Fe62  1  0.87350101  0.12454712  0.87279792  1
  Fe  Fe63  1  0.62536653  0.37511733  0.12513908  1
  Fe  Fe64  1  0.37434868  0.87523787  0.87509479  1
  Fe  Fe65  1  0.37418321  0.87554687  0.12515046  1
  Fe  Fe66  1  0.24913521  0.00136682  0.00108085  1
  Fe  Fe67  1  0.37412923  0.62427017  0.87591721  1
  Fe  Fe68  1  0.12405087  0.87635392  0.87463827  1
  Fe  Fe69  1  0.24733333  0.74880600  0.74736303  1
  Fe  Fe70  1  0.12443650  0.12432088  0.87510063  1
  Fe  Fe71  1  0.62759317  0.37692393  0.37679614  1
  Fe  Fe72  1  0.25062007  0.24920511  0.00016869  1
  Fe  Fe73  1  0.24714126  0.75051000  0.50283307  1
  Fe  Fe74  1  0.87451319  0.37440162  0.62508582  1
  Fe  Fe75  1  0.87119721  0.37583716  0.12482277  1
  Fe  Fe76  1  0.37660133  0.12496461  0.87311610  1
  Fe  Fe77  1  0.12303526  0.62525528  0.12514842  1
  Fe  Fe78  1  0.50154299  0.25000212  0.24993397  1
  Fe  Fe79  1  0.74917852  0.50273426  0.24792558  1
  Fe  Fe80  1  0.12673561  0.37529063  0.87550313  1
  Fe  Fe81  1  -0.00045773  -0.00061075  0.00292025  1
  Fe  Fe82  1  0.50138614  0.75176885  -0.00085803  1
  Fe  Fe83  1  -0.00023491  0.49793754  0.00059741  1
  Fe  Fe84  1  0.50085822  0.75098009  0.25041640  1
  Fe  Fe85  1  0.12727950  0.37266067  0.12605433  1
  Fe  Fe86  1  0.62320161  0.87443929  0.62730200  1
  Fe  Fe87  1  0.37642823  0.87281575  0.62346038  1
  Fe  Fe88  1  -0.00119531  0.50078948  0.75148378  1
  Fe  Fe89  1  0.49953467  0.50040308  0.25148677  1
  Co  Co90  1  0.62509637  0.37842026  0.62710243  1
  Co  Co91  1  0.75210675  -0.00231604  0.74740575  1
  Co  Co92  1  0.12605903  0.12612906  0.12629358  1
  Co  Co93  1  0.74874143  0.50058499  0.00150908  1
  Co  Co94  1  0.74913784  0.00294680  0.25510999  1
  Co  Co95  1  0.24931317  0.00049437  0.50090042  1
  Co  Co96  1  0.00087438  0.75158170  0.49691268  1
  Co  Co97  1  0.49844874  -0.00272131  0.74983211  1
  Co  Co98  1  0.74882589  0.25054708  0.25132072  1
  Co  Co99  1  0.62415185  0.12119694  0.62543376  1
  Co  Co100  1  0.74974780  0.24846759  0.74621230  1
  Co  Co101  1  0.24929593  0.50080877  0.00229546  1
  Co  Co102  1  0.37308929  0.87346888  0.37616534  1
  Co  Co103  1  0.12754557  0.87508562  0.12349897  1
  Co  Co104  1  0.25058309  0.49811460  0.49921898  1
  Co  Co105  1  0.12184175  0.62284395  0.62259258  1
  Co  Co106  1  0.61996388  0.62308553  0.12309500  1
  Co  Co107  1  0.75407407  0.50330618  0.74636558  1
  Co  Co108  1  0.87170578  0.37477598  0.37622164  1
  Co  Co109  1  0.00290292  0.74737308  0.75427698  1
  Co  Co110  1  -0.00030658  0.25066838  0.50213259  1
  Co  Co111  1  0.49983363  0.25133923  0.74935038  1
  Co  Co112  1  -0.00021314  0.00171490  0.75101587  1
  Co  Co113  1  0.74774928  0.74491331  0.24598843  1
  Co  Co114  1  0.50160441  0.75086116  0.49888528  1
  Co  Co115  1  0.25302906  0.25016141  0.25090449  1
  Co  Co116  1  0.00224846  0.75256482  0.24864463  1
  Co  Co117  1  0.37184906  0.37542815  0.87518769  1
  Co  Co118  1  0.62608193  0.12404842  0.12633380  1
  Co  Co119  1  -0.00407320  0.25098531  0.24624208  1
  Co  Co120  1  0.87885534  0.62389037  0.12571649  1
  Co  Co121  1  0.87010274  0.87711315  0.12804332  1
  Co  Co122  1  0.74876862  0.00096939  -0.00388727  1
  Co  Co123  1  0.49821377  0.74945374  0.75286080  1
  Co  Co124  1  0.12050458  0.87547249  0.62613907  1
  Co  Co125  1  0.75159517  0.74981537  0.74862104  1
  Co  Co126  1  0.37595317  0.62669202  0.62219893  1
  Co  Co127  1  0.49690968  0.50102485  0.75092385  1
