# generated using pymatgen
data_Fe45Co19
_symmetry_space_group_name_H-M   'P 1'
_cell_length_a   11.41562622
_cell_length_b   11.41550643
_cell_length_c   11.41500097
_cell_angle_alpha   90.00718441
_cell_angle_beta   89.99498373
_cell_angle_gamma   89.98740598
_symmetry_Int_Tables_number   1
_chemical_formula_structural   Fe45Co19
_chemical_formula_sum   'Fe90 Co38'
_cell_volume   1487.54756204
_cell_formula_units_Z   2
loop_
 _symmetry_equiv_pos_site_id
 _symmetry_equiv_pos_as_xyz
  1  'x, y, z'
loop_
 _atom_site_type_symbol
 _atom_site_label
 _atom_site_symmetry_multiplicity
 _atom_site_fract_x
 _atom_site_fract_y
 _atom_site_fract_z
 _atom_site_occupancy
  Fe  Fe0  1  0.24922136  0.49877484  0.50011001  1
  Fe  Fe1  1  0.37711121  0.62585248  0.37573190  1
  Fe  Fe2  1  0.37279040  0.37465019  0.62660145  1
  Fe  Fe3  1  0.12337471  0.87399511  0.62734244  1
  Fe  Fe4  1  0.00235963  0.74893545  0.00127534  1
  Fe  Fe5  1  0.12239058  0.12388651  0.87405014  1
  Fe  Fe6  1  0.75251643  -0.00091496  0.50143693  1
  Fe  Fe7  1  0.37629557  0.12449149  0.37733215  1
  Fe  Fe8  1  0.12296289  0.12510409  0.37395165  1
  Fe  Fe9  1  0.00031476  0.49982175  0.00056515  1
  Fe  Fe10  1  0.62747674  0.12611284  0.12401311  1
  Fe  Fe11  1  0.74970102  0.49873846  0.25318767  1
  Fe  Fe12  1  -0.00025372  0.25384860  0.50196272  1
  Fe  Fe13  1  0.12341083  0.62541513  0.62615495  1
  Fe  Fe14  1  0.87631719  0.12484985  0.37571293  1
  Fe  Fe15  1  0.87357570  0.62436593  0.87268360  1
  Fe  Fe16  1  0.00033823  0.25191067  -0.00143425  1
  Fe  Fe17  1  0.00053961  -0.00163946  0.00228251  1
  Fe  Fe18  1  0.00175338  0.49682637  0.74869753  1
  Fe  Fe19  1  0.62455707  0.12439091  0.87595015  1
  Fe  Fe20  1  0.13031471  0.87657520  0.12756011  1
  Fe  Fe21  1  0.87336996  0.37522801  0.12590549  1
  Fe  Fe22  1  0.49860344  -0.00124071  0.50270423  1
  Fe  Fe23  1  0.25009612  0.50098211  -0.00014825  1
  Fe  Fe24  1  0.50104849  0.75178916  0.50360261  1
  Fe  Fe25  1  0.87847674  0.87151789  0.62582050  1
  Fe  Fe26  1  0.62820484  0.87359327  0.12217176  1
  Fe  Fe27  1  0.24902499  0.00136375  0.50127031  1
  Fe  Fe28  1  0.12467119  0.87739294  0.37233090  1
  Fe  Fe29  1  0.75156751  0.24909564  0.75038630  1
  Fe  Fe30  1  0.87753018  0.87465337  0.37358733  1
  Fe  Fe31  1  0.49682741  -0.00178265  0.74816595  1
  Fe  Fe32  1  0.62337504  0.62596526  0.37464499  1
  Fe  Fe33  1  0.75226745  0.74945064  0.50240771  1
  Fe  Fe34  1  0.62687048  0.37538457  0.62646318  1
  Fe  Fe35  1  0.37358251  0.87451931  0.37543861  1
  Fe  Fe36  1  0.24934655  0.24929944  -0.00144453  1
  Fe  Fe37  1  0.74978845  0.49925026  0.49944515  1
  Fe  Fe38  1  0.25216804  0.00117572  0.74981378  1
  Fe  Fe39  1  0.12244550  0.12664755  0.62757465  1
  Fe  Fe40  1  0.50150856  0.49965280  0.50117025  1
  Fe  Fe41  1  0.75287346  -0.00111000  0.74940337  1
  Fe  Fe42  1  0.62667911  0.62644678  0.12470713  1
  Fe  Fe43  1  0.37311119  0.12148096  0.12162996  1
  Fe  Fe44  1  0.62700019  0.62700263  0.62749569  1
  Fe  Fe45  1  0.75250690  -0.00019336  0.24850895  1
  Fe  Fe46  1  0.49913776  0.25089832  0.00170366  1
  Fe  Fe47  1  0.50018035  0.50062714  0.00216720  1
  Fe  Fe48  1  0.87424342  0.37580984  0.87356179  1
  Fe  Fe49  1  -0.00119358  0.25163965  0.25018941  1
  Fe  Fe50  1  0.87371527  0.12523432  0.12295073  1
  Fe  Fe51  1  0.75132279  0.75069645  0.24982964  1
  Fe  Fe52  1  0.00207360  0.74997264  0.24844729  1
  Fe  Fe53  1  0.25201633  0.24884325  0.25027302  1
  Fe  Fe54  1  0.49858683  -0.00130671  0.24816316  1
  Fe  Fe55  1  0.12585638  0.12307265  0.12549193  1
  Fe  Fe56  1  0.24920927  0.25140111  0.49889682  1
  Fe  Fe57  1  0.62468077  0.12496015  0.37378122  1
  Fe  Fe58  1  0.37460041  0.62773083  0.87440120  1
  Fe  Fe59  1  0.00037693  0.49664021  0.50082215  1
  Fe  Fe60  1  0.87508676  0.87344490  0.87778871  1
  Fe  Fe61  1  0.62465457  0.37303811  0.12909034  1
  Fe  Fe62  1  0.12605381  0.62330586  0.87452165  1
  Fe  Fe63  1  0.62432992  0.37459611  0.87443542  1
  Fe  Fe64  1  0.24897345  0.24990163  0.75253145  1
  Fe  Fe65  1  0.74981869  0.25174339  0.49813921  1
  Fe  Fe66  1  0.49849243  0.75155569  0.24757939  1
  Fe  Fe67  1  0.50108187  0.25119713  0.50028319  1
  Fe  Fe68  1  0.00039947  0.00000649  0.50105706  1
  Fe  Fe69  1  0.37340794  0.62757023  0.62619941  1
  Fe  Fe70  1  0.62561378  0.87490835  0.37591279  1
  Fe  Fe71  1  0.74812355  0.49905432  -0.00083791  1
  Fe  Fe72  1  0.37399314  0.37565042  0.87576710  1
  Fe  Fe73  1  0.62560271  0.12273591  0.62515420  1
  Fe  Fe74  1  0.87763193  0.62446221  0.37523954  1
  Fe  Fe75  1  0.62677312  0.87202757  0.87546002  1
  Fe  Fe76  1  0.49878107  0.24905122  0.74937927  1
  Fe  Fe77  1  0.62505425  0.62825922  0.87388783  1
  Fe  Fe78  1  0.37851299  0.37641801  0.37187099  1
  Fe  Fe79  1  0.87656236  0.12458968  0.87598619  1
  Fe  Fe80  1  0.24641883  0.74991804  0.49909821  1
  Fe  Fe81  1  0.12572610  0.37681086  0.12536107  1
  Fe  Fe82  1  0.49935103  0.50131011  0.74973353  1
  Fe  Fe83  1  0.12286712  0.62221999  0.37312148  1
  Fe  Fe84  1  0.87553128  0.62493458  0.12556271  1
  Fe  Fe85  1  0.37250608  0.62927037  0.12348136  1
  Fe  Fe86  1  0.12501015  0.87583236  0.87326830  1
  Fe  Fe87  1  0.37342025  0.87144187  0.87640682  1
  Fe  Fe88  1  0.49886702  -0.00260318  -0.00054408  1
  Fe  Fe89  1  0.25060433  0.50125991  0.25000241  1
  Co  Co90  1  -0.00290797  -0.00084526  0.74982654  1
  Co  Co91  1  0.87634360  0.37616476  0.37569257  1
  Co  Co92  1  0.49675533  0.24600671  0.24788882  1
  Co  Co93  1  0.25013335  0.50106317  0.74967040  1
  Co  Co94  1  0.24889503  0.74727814  0.25294945  1
  Co  Co95  1  -0.00048765  0.49867642  0.24910275  1
  Co  Co96  1  0.36950367  0.87491053  0.12419075  1
  Co  Co97  1  0.25205742  0.00338781  0.25322213  1
  Co  Co98  1  0.12503453  0.62269123  0.12540717  1
  Co  Co99  1  0.62592628  0.87692145  0.62485354  1
  Co  Co100  1  0.49976745  0.75033679  0.00218505  1
  Co  Co101  1  0.87790045  0.62377495  0.62561093  1
  Co  Co102  1  -0.00015753  0.25321342  0.75107177  1
  Co  Co103  1  0.87286534  0.37592499  0.62631497  1
  Co  Co104  1  0.24596024  0.74962727  -0.00159947  1
  Co  Co105  1  0.50002975  0.75139769  0.74771263  1
  Co  Co106  1  0.00190839  0.74992189  0.49822708  1
  Co  Co107  1  0.12619832  0.37676992  0.87670483  1
  Co  Co108  1  0.62098922  0.37504384  0.37143981  1
  Co  Co109  1  0.12552613  0.37541920  0.37209146  1
  Co  Co110  1  0.12741483  0.37394494  0.62638732  1
  Co  Co111  1  0.37180462  0.87317493  0.62318835  1
  Co  Co112  1  0.87432860  0.87293765  0.12328757  1
  Co  Co113  1  0.49908388  0.50387147  0.24702798  1
  Co  Co114  1  0.75059582  0.00064384  -0.00082440  1
  Co  Co115  1  0.00051049  0.74866578  0.75278768  1
  Co  Co116  1  0.75178938  0.74710389  -0.00106915  1
  Co  Co117  1  0.24915320  0.00030453  -0.00390912  1
  Co  Co118  1  0.24815962  0.74933756  0.74965383  1
  Co  Co119  1  0.37649768  0.12589894  0.87607145  1
  Co  Co120  1  -0.00179833  0.00064229  0.24771814  1
  Co  Co121  1  0.75190279  0.24934138  0.25253711  1
  Co  Co122  1  0.87674094  0.12679033  0.62453244  1
  Co  Co123  1  0.74833559  0.50084912  0.75063024  1
  Co  Co124  1  0.37431632  0.12666067  0.62468019  1
  Co  Co125  1  0.37329363  0.37604097  0.12471960  1
  Co  Co126  1  0.75181959  0.75105172  0.74817240  1
  Co  Co127  1  0.74974092  0.25136708  -0.00199591  1
