# generated using pymatgen
data_Fe45Co19
_symmetry_space_group_name_H-M   'P 1'
_cell_length_a   11.41495334
_cell_length_b   11.41543358
_cell_length_c   11.41644459
_cell_angle_alpha   90.00794844
_cell_angle_beta   90.00216640
_cell_angle_gamma   90.00705893
_symmetry_Int_Tables_number   1
_chemical_formula_structural   Fe45Co19
_chemical_formula_sum   'Fe90 Co38'
_cell_volume   1487.63852857
_cell_formula_units_Z   2
loop_
 _symmetry_equiv_pos_site_id
 _symmetry_equiv_pos_as_xyz
  1  'x, y, z'
loop_
 _atom_site_type_symbol
 _atom_site_label
 _atom_site_symmetry_multiplicity
 _atom_site_fract_x
 _atom_site_fract_y
 _atom_site_fract_z
 _atom_site_occupancy
  Fe  Fe0  1  0.00311392  0.49843168  0.74942565  1
  Fe  Fe1  1  0.62427720  0.12534067  0.12356644  1
  Fe  Fe2  1  0.37716367  0.12640150  0.12461497  1
  Fe  Fe3  1  0.75300899  0.75186505  0.25565668  1
  Fe  Fe4  1  0.62589220  0.62608528  0.12480397  1
  Fe  Fe5  1  0.12616706  0.87473803  0.62233248  1
  Fe  Fe6  1  0.87545576  0.87581951  0.12643446  1
  Fe  Fe7  1  0.75450231  0.74736325  -0.00122915  1
  Fe  Fe8  1  0.24959172  0.49721034  0.24829829  1
  Fe  Fe9  1  0.12410136  0.62313074  0.12350376  1
  Fe  Fe10  1  0.87273204  0.12834819  0.63068563  1
  Fe  Fe11  1  0.87268588  0.87595064  0.62267424  1
  Fe  Fe12  1  0.49728645  0.24823212  0.49748460  1
  Fe  Fe13  1  0.37332352  0.62576379  0.37384304  1
  Fe  Fe14  1  0.62760621  0.87499493  0.12410988  1
  Fe  Fe15  1  0.87777200  0.37602089  0.37568203  1
  Fe  Fe16  1  0.87350890  0.62463544  0.62620327  1
  Fe  Fe17  1  0.62472488  0.12548645  0.62608978  1
  Fe  Fe18  1  0.12381817  0.62225816  0.37675690  1
  Fe  Fe19  1  0.50169372  0.74989309  0.74963157  1
  Fe  Fe20  1  0.00217168  0.49717584  0.24811018  1
  Fe  Fe21  1  0.24927231  0.49726131  0.50008869  1
  Fe  Fe22  1  -0.00357646  0.74626090  -0.00120192  1
  Fe  Fe23  1  0.74869579  0.24994137  -0.00106645  1
  Fe  Fe24  1  0.12643850  0.12823268  0.62422448  1
  Fe  Fe25  1  0.37395296  0.87744215  0.87622482  1
  Fe  Fe26  1  0.37547315  0.37170528  0.37149613  1
  Fe  Fe27  1  0.74817432  0.75000366  0.75057883  1
  Fe  Fe28  1  0.37484231  0.62498432  0.62462920  1
  Fe  Fe29  1  0.87618648  0.37148270  0.62798861  1
  Fe  Fe30  1  0.74987878  0.49938072  0.50124293  1
  Fe  Fe31  1  0.49915048  0.75044946  0.49772502  1
  Fe  Fe32  1  0.25293769  0.00336108  0.49870932  1
  Fe  Fe33  1  0.00056350  0.24990172  -0.00067863  1
  Fe  Fe34  1  0.00206319  0.00199880  0.24947125  1
  Fe  Fe35  1  0.75200612  0.50297100  -0.00014595  1
  Fe  Fe36  1  0.37526614  0.62288521  0.87415974  1
  Fe  Fe37  1  0.24873161  0.00059929  0.24838082  1
  Fe  Fe38  1  0.25370853  0.25086705  0.00034489  1
  Fe  Fe39  1  0.50059348  -0.00113212  0.25098254  1
  Fe  Fe40  1  0.50035848  -0.00128992  0.75023786  1
  Fe  Fe41  1  0.49949969  0.24879390  0.75469245  1
  Fe  Fe42  1  0.12533336  0.87604814  0.37735323  1
  Fe  Fe43  1  0.12300292  0.87498626  0.12307623  1
  Fe  Fe44  1  0.87514475  0.12666654  0.12695323  1
  Fe  Fe45  1  0.12372403  0.37050348  0.62195213  1
  Fe  Fe46  1  0.25635042  0.49831771  0.00440732  1
  Fe  Fe47  1  0.49916328  0.49960748  0.49875606  1
  Fe  Fe48  1  -0.00331944  0.74860713  0.49738948  1
  Fe  Fe49  1  0.87652437  0.37482567  0.12372818  1
  Fe  Fe50  1  0.37419274  0.87435279  0.12622844  1
  Fe  Fe51  1  0.25079448  0.74999253  0.00032888  1
  Fe  Fe52  1  -0.00153320  0.74937655  0.25268684  1
  Fe  Fe53  1  0.49678240  0.00172520  0.49675877  1
  Fe  Fe54  1  0.62797563  0.87608225  0.87781021  1
  Fe  Fe55  1  0.24763153  0.74979380  0.25088691  1
  Fe  Fe56  1  0.50234357  0.50261436  0.74953157  1
  Fe  Fe57  1  0.62196750  0.37841523  0.87824109  1
  Fe  Fe58  1  0.74831546  0.25251479  0.25027446  1
  Fe  Fe59  1  0.62101948  0.37432738  0.12285816  1
  Fe  Fe60  1  0.37346204  0.87519175  0.62276145  1
  Fe  Fe61  1  0.75073937  0.25007993  0.49948961  1
  Fe  Fe62  1  -0.00008877  0.75113276  0.75078907  1
  Fe  Fe63  1  0.62746736  0.87492630  0.61971271  1
  Fe  Fe64  1  0.49903056  0.74897394  0.00036753  1
  Fe  Fe65  1  0.87241754  0.12524201  0.87180568  1
  Fe  Fe66  1  0.00001982  0.00006210  0.74962841  1
  Fe  Fe67  1  0.87565737  0.37502226  0.87325147  1
  Fe  Fe68  1  0.37627701  0.37385218  0.62758441  1
  Fe  Fe69  1  0.12765798  0.12301554  0.87733781  1
  Fe  Fe70  1  0.12559353  0.12992635  0.37567161  1
  Fe  Fe71  1  0.62284395  0.37329074  0.62333534  1
  Fe  Fe72  1  0.12555610  0.62235542  0.87602039  1
  Fe  Fe73  1  0.74631223  0.49960024  0.74941615  1
  Fe  Fe74  1  0.50027362  0.50015316  0.24873102  1
  Fe  Fe75  1  0.12693943  0.37719292  0.87790944  1
  Fe  Fe76  1  0.74834376  0.49768507  0.25001854  1
  Fe  Fe77  1  0.12543863  0.62638938  0.62355233  1
  Fe  Fe78  1  0.25009493  0.74933159  0.74975457  1
  Fe  Fe79  1  0.62594577  0.12141264  0.87624810  1
  Fe  Fe80  1  0.62665868  0.12432905  0.37416832  1
  Fe  Fe81  1  0.25024308  0.00002716  0.74922704  1
  Fe  Fe82  1  0.25192582  0.24989257  0.75150984  1
  Fe  Fe83  1  -0.00173108  0.00447265  0.50099081  1
  Fe  Fe84  1  -0.00237645  0.00131367  -0.00001735  1
  Fe  Fe85  1  0.12422932  0.87598174  0.87666630  1
  Fe  Fe86  1  0.50102850  0.75191271  0.25265840  1
  Fe  Fe87  1  0.87417998  0.12469303  0.37145475  1
  Fe  Fe88  1  0.62662076  0.62398756  0.37641345  1
  Fe  Fe89  1  0.24548709  0.25203285  0.24681076  1
  Co  Co90  1  0.37541343  0.62849648  0.12817379  1
  Co  Co91  1  0.37629852  0.12544720  0.62783333  1
  Co  Co92  1  0.62721053  0.87746847  0.37845318  1
  Co  Co93  1  0.25058071  -0.00127058  0.00382710  1
  Co  Co94  1  0.62412305  0.37502248  0.37681959  1
  Co  Co95  1  0.75259912  0.00124404  0.00162795  1
  Co  Co96  1  0.24766442  0.49961612  0.74603390  1
  Co  Co97  1  0.00052720  0.49954337  0.50396136  1
  Co  Co98  1  0.75346793  0.74795601  0.49543733  1
  Co  Co99  1  0.74857549  -0.00219340  0.74896323  1
  Co  Co100  1  0.62438819  0.62468372  0.87713715  1
  Co  Co101  1  0.62556628  0.62645335  0.62179465  1
  Co  Co102  1  -0.00416290  0.24735631  0.49970703  1
  Co  Co103  1  0.25431192  0.25108805  0.50108667  1
  Co  Co104  1  0.25003509  0.74817243  0.49941965  1
  Co  Co105  1  0.50045554  -0.00185040  0.00179488  1
  Co  Co106  1  0.12297027  0.37232924  0.37779042  1
  Co  Co107  1  0.75124472  0.00495617  0.50119098  1
  Co  Co108  1  0.50509487  0.24864113  0.25171578  1
  Co  Co109  1  0.12283503  0.37614241  0.12069343  1
  Co  Co110  1  0.37392640  0.12069552  0.87600269  1
  Co  Co111  1  0.74809664  -0.00068933  0.24800543  1
  Co  Co112  1  0.37236279  0.87457414  0.37432222  1
  Co  Co113  1  0.87573494  0.88082095  0.37609245  1
  Co  Co114  1  0.38051080  0.36997887  0.12837513  1
  Co  Co115  1  0.87571329  0.61890763  0.37374000  1
  Co  Co116  1  0.74427340  0.25255277  0.75231287  1
  Co  Co117  1  0.87428366  0.62385645  0.12917609  1
  Co  Co118  1  0.37312067  0.12814168  0.36979516  1
  Co  Co119  1  0.49613043  0.50212728  0.00377746  1
  Co  Co120  1  -0.00363165  0.50183749  -0.00039763  1
  Co  Co121  1  0.12410407  0.12573950  0.12261403  1
  Co  Co122  1  0.49864445  0.24895175  -0.00466479  1
  Co  Co123  1  0.00111314  0.25175399  0.24871035  1
  Co  Co124  1  0.87457711  0.87591802  0.87426576  1
  Co  Co125  1  0.87494575  0.62309467  0.86952421  1
  Co  Co126  1  0.00464396  0.25012888  0.75330017  1
  Co  Co127  1  0.37577487  0.37882439  0.87233452  1
