# generated using pymatgen
data_Fe45Co19
_symmetry_space_group_name_H-M   'P 1'
_cell_length_a   11.41403207
_cell_length_b   11.41406443
_cell_length_c   11.41432604
_cell_angle_alpha   90.00413147
_cell_angle_beta   89.99714279
_cell_angle_gamma   90.00181950
_symmetry_Int_Tables_number   1
_chemical_formula_structural   Fe45Co19
_chemical_formula_sum   'Fe90 Co38'
_cell_volume   1487.06406779
_cell_formula_units_Z   2
loop_
 _symmetry_equiv_pos_site_id
 _symmetry_equiv_pos_as_xyz
  1  'x, y, z'
loop_
 _atom_site_type_symbol
 _atom_site_label
 _atom_site_symmetry_multiplicity
 _atom_site_fract_x
 _atom_site_fract_y
 _atom_site_fract_z
 _atom_site_occupancy
  Fe  Fe0  1  0.24935322  0.00009589  0.75029803  1
  Fe  Fe1  1  0.13031367  0.63084221  0.37374388  1
  Fe  Fe2  1  0.87597657  0.87415283  0.87509894  1
  Fe  Fe3  1  0.62529094  0.12724924  0.87636887  1
  Fe  Fe4  1  0.24954852  0.74879350  0.00095186  1
  Fe  Fe5  1  0.00197269  0.25136048  -0.00035036  1
  Fe  Fe6  1  0.62296253  0.37573342  0.62469460  1
  Fe  Fe7  1  0.75014157  0.25070193  0.74780823  1
  Fe  Fe8  1  0.62286711  0.12487952  0.62387998  1
  Fe  Fe9  1  0.87647042  0.87366451  0.62574432  1
  Fe  Fe10  1  0.24988980  -0.00052906  0.50125483  1
  Fe  Fe11  1  0.75208379  0.00055580  0.50206354  1
  Fe  Fe12  1  0.74916808  0.00014281  0.74999166  1
  Fe  Fe13  1  0.37707257  0.87476078  0.62541484  1
  Fe  Fe14  1  0.00349143  0.00184401  -0.00203862  1
  Fe  Fe15  1  0.37421406  0.87714813  0.87766678  1
  Fe  Fe16  1  0.62256159  0.62311897  0.87203002  1
  Fe  Fe17  1  0.25123391  0.24923782  0.74788048  1
  Fe  Fe18  1  -0.00091506  0.00022106  0.49835025  1
  Fe  Fe19  1  0.74957893  0.74680998  0.00006988  1
  Fe  Fe20  1  0.24836241  -0.00326893  0.24879409  1
  Fe  Fe21  1  0.49797707  0.25088244  0.49857179  1
  Fe  Fe22  1  0.00009163  0.74917286  0.49839641  1
  Fe  Fe23  1  0.37722099  0.37703604  0.12870924  1
  Fe  Fe24  1  0.00029060  -0.00085579  0.25145835  1
  Fe  Fe25  1  0.49852621  0.25004988  0.00117597  1
  Fe  Fe26  1  0.25100043  0.25218932  0.24974223  1
  Fe  Fe27  1  0.00074134  0.50293398  0.49846587  1
  Fe  Fe28  1  -0.00133022  0.24926143  0.50090652  1
  Fe  Fe29  1  0.75006521  0.25351598  0.24745209  1
  Fe  Fe30  1  0.50143171  -0.00075096  0.75308106  1
  Fe  Fe31  1  0.50168146  0.50085662  0.25548019  1
  Fe  Fe32  1  0.24844635  0.50192664  0.75090900  1
  Fe  Fe33  1  0.12518781  0.37707226  0.12481097  1
  Fe  Fe34  1  0.12116698  0.87292392  0.12433261  1
  Fe  Fe35  1  0.74862540  0.74991386  0.74979284  1
  Fe  Fe36  1  0.12567345  0.37803972  0.62370282  1
  Fe  Fe37  1  0.87482705  0.62434031  0.62474956  1
  Fe  Fe38  1  0.12746240  0.37397772  0.37675162  1
  Fe  Fe39  1  0.37569073  0.62438421  0.87427870  1
  Fe  Fe40  1  0.50102738  0.00009210  0.25036904  1
  Fe  Fe41  1  0.87645523  0.62128742  0.12355955  1
  Fe  Fe42  1  0.87279815  0.37619545  0.37576834  1
  Fe  Fe43  1  0.12645021  0.12545799  0.37421349  1
  Fe  Fe44  1  0.87239095  0.12639192  0.37480834  1
  Fe  Fe45  1  0.00084881  0.25298591  0.75018580  1
  Fe  Fe46  1  0.37242046  0.87007638  0.37424124  1
  Fe  Fe47  1  0.00227754  0.50133329  0.25303787  1
  Fe  Fe48  1  0.12335308  0.62385138  0.12284759  1
  Fe  Fe49  1  0.37727983  0.87706837  0.12250513  1
  Fe  Fe50  1  0.37284741  0.12639674  0.37537997  1
  Fe  Fe51  1  0.74953321  -0.00016102  -0.00067844  1
  Fe  Fe52  1  0.49917216  -0.00014058  0.49797331  1
  Fe  Fe53  1  0.62506122  0.12557722  0.12556913  1
  Fe  Fe54  1  0.74678383  0.49828495  0.24683362  1
  Fe  Fe55  1  0.87611304  0.37694222  0.62453959  1
  Fe  Fe56  1  -0.00036293  0.49676818  -0.00487770  1
  Fe  Fe57  1  0.49743975  0.25134081  0.75031344  1
  Fe  Fe58  1  0.74993774  0.74926999  0.24628924  1
  Fe  Fe59  1  0.87628553  0.87508163  0.12448026  1
  Fe  Fe60  1  0.87565449  0.62221994  0.87533492  1
  Fe  Fe61  1  0.87091333  0.62583619  0.37447073  1
  Fe  Fe62  1  0.50120360  0.74641908  0.49870558  1
  Fe  Fe63  1  0.62448111  0.87506277  0.12357374  1
  Fe  Fe64  1  0.37754322  0.62468217  0.12954809  1
  Fe  Fe65  1  0.37744280  0.62511446  0.62616752  1
  Fe  Fe66  1  0.00121314  0.00027601  0.75209601  1
  Fe  Fe67  1  0.74606906  0.50114182  0.50083113  1
  Fe  Fe68  1  0.62761789  0.87264210  0.37493876  1
  Fe  Fe69  1  0.75061965  0.25667014  0.00218342  1
  Fe  Fe70  1  0.50078785  0.49884417  -0.00186699  1
  Fe  Fe71  1  0.12452550  0.87287192  0.62435864  1
  Fe  Fe72  1  0.50122235  0.75010516  -0.00139029  1
  Fe  Fe73  1  0.50076601  0.50297352  0.49619752  1
  Fe  Fe74  1  0.25206352  0.50276331  0.49645621  1
  Fe  Fe75  1  0.62750352  0.12772796  0.37509459  1
  Fe  Fe76  1  0.62365212  0.87290025  0.62544674  1
  Fe  Fe77  1  0.37336147  0.12185050  0.87715574  1
  Fe  Fe78  1  0.12479994  0.12492047  0.62518315  1
  Fe  Fe79  1  0.00333010  0.74550827  0.75170418  1
  Fe  Fe80  1  0.87601173  0.12497300  0.12531421  1
  Fe  Fe81  1  0.74930443  0.49823946  0.75103067  1
  Fe  Fe82  1  0.24911410  0.74814676  0.75034076  1
  Fe  Fe83  1  0.24876047  0.24942301  0.00150055  1
  Fe  Fe84  1  -0.00090067  0.25208931  0.24984882  1
  Fe  Fe85  1  0.37400335  0.37622135  0.62193100  1
  Fe  Fe86  1  0.87546023  0.12735630  0.87472770  1
  Fe  Fe87  1  0.37290227  0.37602099  0.87599342  1
  Fe  Fe88  1  0.37371418  0.12159372  0.12422860  1
  Fe  Fe89  1  0.87336126  0.87291613  0.37414917  1
  Co  Co90  1  0.87466271  0.37461211  0.87374868  1
  Co  Co91  1  0.12539892  0.87182177  0.87491472  1
  Co  Co92  1  0.75140800  0.25014582  0.50329600  1
  Co  Co93  1  -0.00194064  0.74922446  -0.00124080  1
  Co  Co94  1  0.37218752  0.62946250  0.37080215  1
  Co  Co95  1  0.74931327  -0.00034764  0.24936893  1
  Co  Co96  1  0.24352202  -0.00030671  0.00082625  1
  Co  Co97  1  0.74904290  0.74964735  0.50316135  1
  Co  Co98  1  0.62294035  0.62464967  0.62911477  1
  Co  Co99  1  0.87801391  0.37911637  0.12547195  1
  Co  Co100  1  0.49715210  0.49628624  0.74991342  1
  Co  Co101  1  0.87639561  0.12415208  0.62714524  1
  Co  Co102  1  0.62632152  0.87330758  0.87623488  1
  Co  Co103  1  0.12708557  0.87219239  0.37590291  1
  Co  Co104  1  0.62219203  0.62384597  0.12461864  1
  Co  Co105  1  -0.00113962  0.74778367  0.25123563  1
  Co  Co106  1  0.12624422  0.12735457  0.87319903  1
  Co  Co107  1  0.37734727  0.12324259  0.62467124  1
  Co  Co108  1  0.62011875  0.37622908  0.12576145  1
  Co  Co109  1  0.49881229  0.75219857  0.75182905  1
  Co  Co110  1  0.24901206  0.75191204  0.24306027  1
  Co  Co111  1  0.62370061  0.37445295  0.87489965  1
  Co  Co112  1  0.74729491  0.49865693  -0.00075826  1
  Co  Co113  1  0.24834685  0.49989857  0.25084882  1
  Co  Co114  1  0.62578356  0.37268370  0.37504526  1
  Co  Co115  1  0.50219879  0.75270383  0.25033495  1
  Co  Co116  1  0.12548634  0.62407987  0.62284230  1
  Co  Co117  1  0.50384983  0.00082807  -0.00061999  1
  Co  Co118  1  0.25187815  0.74959979  0.50414378  1
  Co  Co119  1  0.12881739  0.37622194  0.87517967  1
  Co  Co120  1  0.25347539  0.50102347  0.00252383  1
  Co  Co121  1  0.49867933  0.24707754  0.25032399  1
  Co  Co122  1  0.00162012  0.50084756  0.75044772  1
  Co  Co123  1  0.62830225  0.62750071  0.37306023  1
  Co  Co124  1  0.25033540  0.24860382  0.50192304  1
  Co  Co125  1  0.37456133  0.37430401  0.37470734  1
  Co  Co126  1  0.12580048  0.62286141  0.87889565  1
  Co  Co127  1  0.12474847  0.12612941  0.12806920  1
