# generated using pymatgen
data_Fe45Co19
_symmetry_space_group_name_H-M   'P 1'
_cell_length_a   11.41478342
_cell_length_b   11.41501675
_cell_length_c   11.41535691
_cell_angle_alpha   90.00559127
_cell_angle_beta   90.00165190
_cell_angle_gamma   89.98899727
_symmetry_Int_Tables_number   1
_chemical_formula_structural   Fe45Co19
_chemical_formula_sum   'Fe90 Co38'
_cell_volume   1487.42033048
_cell_formula_units_Z   2
loop_
 _symmetry_equiv_pos_site_id
 _symmetry_equiv_pos_as_xyz
  1  'x, y, z'
loop_
 _atom_site_type_symbol
 _atom_site_label
 _atom_site_symmetry_multiplicity
 _atom_site_fract_x
 _atom_site_fract_y
 _atom_site_fract_z
 _atom_site_occupancy
  Fe  Fe0  1  -0.00268330  -0.00584758  0.75284829  1
  Fe  Fe1  1  0.12634046  0.37542616  0.12378658  1
  Fe  Fe2  1  -0.00205765  0.49821273  0.24595144  1
  Fe  Fe3  1  0.75080393  0.50252142  0.49836808  1
  Fe  Fe4  1  0.12417302  0.37553615  0.62544297  1
  Fe  Fe5  1  0.37260570  0.12872503  0.12575841  1
  Fe  Fe6  1  0.00108680  0.75103293  0.24740817  1
  Fe  Fe7  1  0.87680117  0.62481211  0.37263288  1
  Fe  Fe8  1  0.37374076  0.37478318  0.37537479  1
  Fe  Fe9  1  0.87507811  0.87521346  0.37491474  1
  Fe  Fe10  1  0.12409522  0.37562350  0.37572264  1
  Fe  Fe11  1  0.00049476  0.75059842  0.50044533  1
  Fe  Fe12  1  0.74854024  0.75018828  0.24930719  1
  Fe  Fe13  1  0.62537392  0.37673542  0.62337279  1
  Fe  Fe14  1  0.49845162  0.24966416  0.25114693  1
  Fe  Fe15  1  0.12713907  0.62502738  0.62609024  1
  Fe  Fe16  1  0.62378396  0.12342589  0.37403844  1
  Fe  Fe17  1  0.87711921  0.37916854  0.87697372  1
  Fe  Fe18  1  0.37723369  0.12596369  0.87343856  1
  Fe  Fe19  1  0.24816856  0.25184449  -0.00411014  1
  Fe  Fe20  1  0.12476221  0.87402627  0.62733463  1
  Fe  Fe21  1  0.37328817  0.62745961  0.37994034  1
  Fe  Fe22  1  0.87641288  0.12501907  0.37507042  1
  Fe  Fe23  1  -0.00091975  0.25244853  0.75125452  1
  Fe  Fe24  1  0.00170729  0.74946369  -0.00124623  1
  Fe  Fe25  1  0.74976636  0.00082895  0.24638323  1
  Fe  Fe26  1  0.25013065  0.00174630  0.24944780  1
  Fe  Fe27  1  0.25191143  0.74814614  -0.00176990  1
  Fe  Fe28  1  0.25081387  -0.00046614  0.75163536  1
  Fe  Fe29  1  0.87565101  0.12679303  0.12336458  1
  Fe  Fe30  1  0.12244043  0.62090443  0.87457487  1
  Fe  Fe31  1  0.87614131  0.62614210  0.87283274  1
  Fe  Fe32  1  0.38170938  0.62147528  0.87633032  1
  Fe  Fe33  1  0.12878084  0.87412887  0.12329158  1
  Fe  Fe34  1  0.37646582  0.37739095  0.62457372  1
  Fe  Fe35  1  0.62622255  0.37557141  0.12768038  1
  Fe  Fe36  1  0.00102899  -0.00076932  -0.00228484  1
  Fe  Fe37  1  0.87340632  0.62515192  0.12598514  1
  Fe  Fe38  1  0.50031385  -0.00101293  0.50141246  1
  Fe  Fe39  1  0.37721112  0.62414520  0.12306573  1
  Fe  Fe40  1  0.62626289  0.37590408  0.37564306  1
  Fe  Fe41  1  0.37808019  0.87473347  0.87714756  1
  Fe  Fe42  1  0.12639804  0.62411036  0.12408151  1
  Fe  Fe43  1  0.00232966  0.25057295  -0.00173591  1
  Fe  Fe44  1  0.00069414  0.25120278  0.24832525  1
  Fe  Fe45  1  0.25067780  0.00248609  -0.00214573  1
  Fe  Fe46  1  0.87209265  0.87472824  0.12086101  1
  Fe  Fe47  1  0.50084722  -0.00079003  0.74926992  1
  Fe  Fe48  1  0.49898243  -0.00086304  0.24469302  1
  Fe  Fe49  1  0.74951806  0.50087236  0.00323610  1
  Fe  Fe50  1  0.75188247  -0.00420956  0.75124975  1
  Fe  Fe51  1  0.25109717  -0.00070195  0.50091491  1
  Fe  Fe52  1  0.74574754  0.74651543  -0.00094024  1
  Fe  Fe53  1  0.12271821  0.12490894  0.62790651  1
  Fe  Fe54  1  0.25093895  0.74788700  0.75219346  1
  Fe  Fe55  1  0.25044394  0.24913481  0.49918824  1
  Fe  Fe56  1  0.50009963  0.24887105  0.50006278  1
  Fe  Fe57  1  -0.00084607  0.50155139  0.50336356  1
  Fe  Fe58  1  0.62829549  0.12549383  0.62834021  1
  Fe  Fe59  1  0.24987075  0.25216224  0.75234937  1
  Fe  Fe60  1  0.50159968  0.25117625  0.74952330  1
  Fe  Fe61  1  0.37387068  0.87363988  0.37483907  1
  Fe  Fe62  1  0.25148026  0.50091175  0.24999950  1
  Fe  Fe63  1  0.62166003  0.37908421  0.87382302  1
  Fe  Fe64  1  0.37573537  0.87099209  0.62635221  1
  Fe  Fe65  1  0.12420509  0.12585864  0.37548801  1
  Fe  Fe66  1  0.25322219  0.49661153  -0.00179991  1
  Fe  Fe67  1  -0.00268809  0.00013735  0.50267008  1
  Fe  Fe68  1  0.12645679  0.87315374  0.37343608  1
  Fe  Fe69  1  0.62819390  0.87057487  0.62263189  1
  Fe  Fe70  1  0.87347685  0.12468321  0.87278873  1
  Fe  Fe71  1  0.37535024  0.12501857  0.62507198  1
  Fe  Fe72  1  0.87380851  0.37377188  0.62431432  1
  Fe  Fe73  1  0.75161950  0.24985445  0.25034112  1
  Fe  Fe74  1  0.12565600  0.62491084  0.37539865  1
  Fe  Fe75  1  0.49871224  0.75228067  0.24561887  1
  Fe  Fe76  1  0.50148411  0.24967513  -0.00070058  1
  Fe  Fe77  1  0.74709691  0.24820683  -0.00312949  1
  Fe  Fe78  1  0.62296511  0.87883456  0.88181423  1
  Fe  Fe79  1  0.50453710  0.74525957  0.74989639  1
  Fe  Fe80  1  0.74807401  0.50200848  0.74983741  1
  Fe  Fe81  1  0.62466202  0.87538991  0.37419386  1
  Fe  Fe82  1  0.87095289  0.63286955  0.62826162  1
  Fe  Fe83  1  0.00036772  -0.00060622  0.24705845  1
  Fe  Fe84  1  0.49892618  0.49917369  0.25001047  1
  Fe  Fe85  1  0.25292978  0.49890181  0.75105622  1
  Fe  Fe86  1  0.87572370  0.37519928  0.37564922  1
  Fe  Fe87  1  0.62373677  0.62533972  0.37484581  1
  Fe  Fe88  1  0.75130953  0.24702758  0.50121190  1
  Fe  Fe89  1  0.75241230  0.00052104  0.50167055  1
  Co  Co90  1  0.75087496  0.50024349  0.24970775  1
  Co  Co91  1  -0.00268070  0.50119254  0.74603850  1
  Co  Co92  1  0.24864294  0.75252752  0.50155976  1
  Co  Co93  1  0.87295663  0.37286189  0.12246722  1
  Co  Co94  1  0.62400718  0.12285624  0.87022670  1
  Co  Co95  1  0.62482305  0.12780002  0.12768267  1
  Co  Co96  1  0.24846608  0.24943161  0.25223862  1
  Co  Co97  1  0.87281768  0.86889240  0.62547928  1
  Co  Co98  1  0.75085567  0.74965487  0.49382075  1
  Co  Co99  1  0.50113875  0.75062270  0.00210798  1
  Co  Co100  1  0.24940105  0.49807071  0.50002098  1
  Co  Co101  1  0.87207965  0.87172950  0.87953355  1
  Co  Co102  1  0.62842093  0.62638293  0.62075446  1
  Co  Co103  1  0.12126232  0.37998072  0.87439947  1
  Co  Co104  1  0.74228081  0.75048803  0.75685132  1
  Co  Co105  1  0.37114975  0.87494176  0.12181319  1
  Co  Co106  1  0.37403789  0.62532458  0.62268966  1
  Co  Co107  1  0.37951329  0.37556599  0.87355115  1
  Co  Co108  1  0.25120418  0.74761599  0.24853854  1
  Co  Co109  1  0.49995822  0.75103698  0.50097220  1
  Co  Co110  1  0.62730883  0.87549340  0.12145231  1
  Co  Co111  1  0.49880323  0.00478739  0.00387536  1
  Co  Co112  1  0.62296728  0.62334327  0.12658076  1
  Co  Co113  1  0.49998789  0.50059786  0.49951608  1
  Co  Co114  1  0.49958859  0.49554238  0.00492558  1
  Co  Co115  1  0.74865892  0.00597027  0.00046303  1
  Co  Co116  1  0.12847407  0.87434224  0.87658783  1
  Co  Co117  1  0.87484140  0.12524991  0.63041453  1
  Co  Co118  1  -0.00195430  0.50196628  0.00377158  1
  Co  Co119  1  0.37339726  0.37243709  0.12604270  1
  Co  Co120  1  0.12513242  0.12516486  0.12406180  1
  Co  Co121  1  0.62071539  0.61888922  0.87909722  1
  Co  Co122  1  0.74994490  0.25445772  0.75289969  1
  Co  Co123  1  0.12436152  0.12423974  0.87135867  1
  Co  Co124  1  0.50128305  0.50360360  0.74467774  1
  Co  Co125  1  -0.00085201  0.24921202  0.50136987  1
  Co  Co126  1  0.37645797  0.12304005  0.37542725  1
  Co  Co127  1  0.00247085  0.75216221  0.75305801  1
