# generated using pymatgen
data_Fe45Co19
_symmetry_space_group_name_H-M   'P 1'
_cell_length_a   11.41545140
_cell_length_b   11.41622184
_cell_length_c   11.41441092
_cell_angle_alpha   90.00340354
_cell_angle_beta   90.01340758
_cell_angle_gamma   89.99394424
_symmetry_Int_Tables_number   1
_chemical_formula_structural   Fe45Co19
_chemical_formula_sum   'Fe90 Co38'
_cell_volume   1487.54111093
_cell_formula_units_Z   2
loop_
 _symmetry_equiv_pos_site_id
 _symmetry_equiv_pos_as_xyz
  1  'x, y, z'
loop_
 _atom_site_type_symbol
 _atom_site_label
 _atom_site_symmetry_multiplicity
 _atom_site_fract_x
 _atom_site_fract_y
 _atom_site_fract_z
 _atom_site_occupancy
  Fe  Fe0  1  0.62781837  0.87738200  0.87929211  1
  Fe  Fe1  1  0.49966125  0.25000457  0.74925637  1
  Fe  Fe2  1  0.37533860  0.12647149  0.37471330  1
  Fe  Fe3  1  0.00143474  0.49947006  0.75210485  1
  Fe  Fe4  1  0.87591893  0.87734614  0.62490550  1
  Fe  Fe5  1  0.62564589  0.62452560  0.87714615  1
  Fe  Fe6  1  0.37629669  0.37625805  0.12296203  1
  Fe  Fe7  1  0.75089333  0.25142157  0.50137916  1
  Fe  Fe8  1  0.12513441  0.62845246  0.37526187  1
  Fe  Fe9  1  0.24781764  0.24800950  0.74971332  1
  Fe  Fe10  1  0.87657772  0.11955487  0.87222659  1
  Fe  Fe11  1  0.74758786  -0.00083057  0.25031685  1
  Fe  Fe12  1  0.12592955  0.87778999  0.87489971  1
  Fe  Fe13  1  0.62591804  0.12304108  0.87415621  1
  Fe  Fe14  1  0.24726325  0.50100585  0.75381593  1
  Fe  Fe15  1  0.24984793  0.74994179  0.75048177  1
  Fe  Fe16  1  0.25042750  0.49962362  0.24805304  1
  Fe  Fe17  1  0.49962976  0.75072878  0.75245941  1
  Fe  Fe18  1  0.87597699  0.62486963  0.87487931  1
  Fe  Fe19  1  0.37613978  0.12342930  0.62372680  1
  Fe  Fe20  1  0.37220801  0.62414114  0.88008756  1
  Fe  Fe21  1  0.50088762  0.50017635  0.75284026  1
  Fe  Fe22  1  -0.00130399  0.50071456  0.24675150  1
  Fe  Fe23  1  0.37211046  0.87730478  0.87575572  1
  Fe  Fe24  1  0.00253253  -0.00083597  0.25364511  1
  Fe  Fe25  1  0.24679215  -0.00126056  0.49729981  1
  Fe  Fe26  1  0.62422853  0.87311895  0.62400695  1
  Fe  Fe27  1  0.75412617  0.50088324  0.00334747  1
  Fe  Fe28  1  0.49844803  0.74997908  0.49824844  1
  Fe  Fe29  1  0.62127380  0.12046273  0.12643057  1
  Fe  Fe30  1  0.00208073  0.24933539  0.25203120  1
  Fe  Fe31  1  0.87514512  0.37507035  0.87494955  1
  Fe  Fe32  1  0.37444000  0.37555799  0.62563316  1
  Fe  Fe33  1  0.49699481  0.75293808  0.00297885  1
  Fe  Fe34  1  0.24763976  0.00289479  -0.00056241  1
  Fe  Fe35  1  0.75135530  0.24582926  0.00145084  1
  Fe  Fe36  1  0.37468974  0.37387801  0.37579800  1
  Fe  Fe37  1  0.00086823  0.24593067  -0.00087828  1
  Fe  Fe38  1  0.24849828  0.24841034  0.00025847  1
  Fe  Fe39  1  -0.00025380  0.75258801  0.75097762  1
  Fe  Fe40  1  0.62577504  0.37380206  0.12378377  1
  Fe  Fe41  1  0.49876865  0.75656196  0.24734053  1
  Fe  Fe42  1  0.50059915  0.49965640  0.49921032  1
  Fe  Fe43  1  0.87614758  0.12550587  0.37717559  1
  Fe  Fe44  1  0.37580789  0.62473732  0.62648259  1
  Fe  Fe45  1  0.24932449  0.50237863  0.49951709  1
  Fe  Fe46  1  0.74866676  0.75157616  0.24727371  1
  Fe  Fe47  1  0.75238750  0.24816414  0.74807652  1
  Fe  Fe48  1  -0.00099728  0.24745696  0.74766619  1
  Fe  Fe49  1  0.87212666  0.87859015  0.87634844  1
  Fe  Fe50  1  0.87568596  0.62582700  0.37308898  1
  Fe  Fe51  1  0.87503339  0.87338315  0.37513257  1
  Fe  Fe52  1  0.37304507  0.12388500  0.87210903  1
  Fe  Fe53  1  0.75232565  0.49984463  0.24654508  1
  Fe  Fe54  1  0.62728642  0.37512681  0.87631374  1
  Fe  Fe55  1  0.12545959  0.37354533  0.37450299  1
  Fe  Fe56  1  0.87482272  0.37479708  0.37429889  1
  Fe  Fe57  1  0.25255053  0.75074585  0.24637877  1
  Fe  Fe58  1  0.37412180  0.37476235  0.87580971  1
  Fe  Fe59  1  0.37480448  0.87564113  0.62386186  1
  Fe  Fe60  1  0.74874902  0.24948865  0.25012295  1
  Fe  Fe61  1  0.12282580  0.37343433  0.12326884  1
  Fe  Fe62  1  0.74903525  0.74880639  0.74934048  1
  Fe  Fe63  1  -0.00050347  0.50055418  0.50010812  1
  Fe  Fe64  1  0.75127232  0.50227688  0.50332636  1
  Fe  Fe65  1  0.62453389  0.12483272  0.62416664  1
  Fe  Fe66  1  0.37475440  0.62692774  0.37280958  1
  Fe  Fe67  1  0.12410134  0.37495452  0.62573382  1
  Fe  Fe68  1  0.37686235  0.12151296  0.12825160  1
  Fe  Fe69  1  0.74983783  -0.00006092  0.49979125  1
  Fe  Fe70  1  0.24710802  0.00054311  0.25353645  1
  Fe  Fe71  1  0.49992419  0.24791019  -0.00118269  1
  Fe  Fe72  1  0.12441699  0.87353357  0.62180121  1
  Fe  Fe73  1  0.12298539  0.62764877  0.62523906  1
  Fe  Fe74  1  0.62528010  0.62647504  0.37434145  1
  Fe  Fe75  1  0.50052828  0.49971202  0.24916006  1
  Fe  Fe76  1  0.12170898  0.12250482  0.62366416  1
  Fe  Fe77  1  0.12578208  0.62478366  0.12006897  1
  Fe  Fe78  1  0.62410065  0.62714091  0.12431173  1
  Fe  Fe79  1  0.87344533  0.87563604  0.12331414  1
  Fe  Fe80  1  0.50078875  -0.00116982  0.75080687  1
  Fe  Fe81  1  0.87811874  0.12398195  0.12724404  1
  Fe  Fe82  1  0.24909969  0.25022463  0.50042634  1
  Fe  Fe83  1  0.12572066  0.87703473  0.12462804  1
  Fe  Fe84  1  0.62536321  0.37655077  0.62622492  1
  Fe  Fe85  1  0.50195059  0.25115769  0.25341618  1
  Fe  Fe86  1  0.50165556  -0.00107436  0.49505548  1
  Fe  Fe87  1  -0.00031569  0.75199865  -0.00070273  1
  Fe  Fe88  1  0.00046401  0.75054846  0.24909433  1
  Fe  Fe89  1  0.75272037  0.74643683  0.50275656  1
  Co  Co90  1  0.24886243  -0.00103635  0.74780029  1
  Co  Co91  1  0.37131928  0.87433492  0.37543822  1
  Co  Co92  1  0.74808823  -0.00044599  0.74780777  1
  Co  Co93  1  0.12389846  0.62742273  0.87779916  1
  Co  Co94  1  0.00200692  -0.00184849  0.49528437  1
  Co  Co95  1  0.12528523  0.12906009  0.37512547  1
  Co  Co96  1  0.50274463  -0.00461296  0.25613026  1
  Co  Co97  1  0.87681260  0.62919771  0.12460020  1
  Co  Co98  1  0.87697500  0.37001157  0.12520761  1
  Co  Co99  1  0.62792551  0.37723419  0.37511337  1
  Co  Co100  1  0.12461063  0.12478248  0.12678239  1
  Co  Co101  1  0.37406725  0.62348715  0.12256246  1
  Co  Co102  1  0.25178267  0.74783828  0.50179921  1
  Co  Co103  1  0.00013474  -0.00045163  0.00133992  1
  Co  Co104  1  0.50130184  0.25183546  0.49966109  1
  Co  Co105  1  0.62577783  0.87848266  0.12077473  1
  Co  Co106  1  0.24709709  0.49660380  -0.00128913  1
  Co  Co107  1  0.62879641  0.87185844  0.37744142  1
  Co  Co108  1  0.37384289  0.88248887  0.12510114  1
  Co  Co109  1  -0.00222020  0.50020097  0.00142112  1
  Co  Co110  1  0.62178948  0.62595556  0.62573206  1
  Co  Co111  1  0.00029346  -0.00193748  0.74827676  1
  Co  Co112  1  0.12375462  0.12306167  0.87281101  1
  Co  Co113  1  0.87564343  0.37657059  0.62697397  1
  Co  Co114  1  0.49819103  0.00077949  -0.00373174  1
  Co  Co115  1  0.12607840  0.86882952  0.37558887  1
  Co  Co116  1  0.74901898  0.50217437  0.74955682  1
  Co  Co117  1  0.75223961  0.00428132  0.00223086  1
  Co  Co118  1  -0.00074758  0.25134889  0.50064728  1
  Co  Co119  1  0.25094094  0.25175524  0.24764726  1
  Co  Co120  1  0.50175491  0.49971461  0.00036774  1
  Co  Co121  1  0.75119854  0.74828355  0.00025889  1
  Co  Co122  1  0.87857572  0.62436395  0.62920275  1
  Co  Co123  1  0.12217364  0.37198911  0.87520359  1
  Co  Co124  1  0.87654074  0.12189501  0.62273716  1
  Co  Co125  1  0.62633284  0.12574793  0.37576051  1
  Co  Co126  1  0.25054166  0.75322096  0.00121484  1
  Co  Co127  1  -0.00350625  0.74961581  0.49977904  1
