# generated using pymatgen
data_Fe45Co19
_symmetry_space_group_name_H-M   'P 1'
_cell_length_a   11.41490876
_cell_length_b   11.41492444
_cell_length_c   11.41512394
_cell_angle_alpha   89.99957367
_cell_angle_beta   89.99597464
_cell_angle_gamma   90.00166677
_symmetry_Int_Tables_number   1
_chemical_formula_structural   Fe45Co19
_chemical_formula_sum   'Fe90 Co38'
_cell_volume   1487.39430950
_cell_formula_units_Z   2
loop_
 _symmetry_equiv_pos_site_id
 _symmetry_equiv_pos_as_xyz
  1  'x, y, z'
loop_
 _atom_site_type_symbol
 _atom_site_label
 _atom_site_symmetry_multiplicity
 _atom_site_fract_x
 _atom_site_fract_y
 _atom_site_fract_z
 _atom_site_occupancy
  Fe  Fe0  1  0.00139085  -0.00036837  -0.00045989  1
  Fe  Fe1  1  0.00166216  0.25051853  0.49813315  1
  Fe  Fe2  1  0.37751074  0.87527690  0.12432368  1
  Fe  Fe3  1  0.12683496  0.87581761  0.62787255  1
  Fe  Fe4  1  0.49828889  0.24790816  0.49725286  1
  Fe  Fe5  1  -0.00173829  0.00006967  0.49931736  1
  Fe  Fe6  1  0.87579281  0.37359867  0.62564813  1
  Fe  Fe7  1  0.12777248  0.87424462  0.87046124  1
  Fe  Fe8  1  -0.00197586  0.50211924  0.24888173  1
  Fe  Fe9  1  0.74982010  0.49785213  0.49874113  1
  Fe  Fe10  1  0.87350093  0.62629164  0.62406003  1
  Fe  Fe11  1  0.00180647  0.24777329  0.24998190  1
  Fe  Fe12  1  0.12315804  0.37612186  0.87563931  1
  Fe  Fe13  1  0.74690886  0.75294648  0.24733638  1
  Fe  Fe14  1  0.12350736  0.62558412  0.62365932  1
  Fe  Fe15  1  0.62160106  0.37520520  0.37304133  1
  Fe  Fe16  1  0.62376187  0.87434133  0.87207533  1
  Fe  Fe17  1  0.25252262  0.49867883  0.00007865  1
  Fe  Fe18  1  0.12502223  0.37568099  0.12536324  1
  Fe  Fe19  1  0.87089736  0.87661838  0.62995306  1
  Fe  Fe20  1  0.74484393  0.75573672  0.50229597  1
  Fe  Fe21  1  0.87369928  0.87460980  0.87330194  1
  Fe  Fe22  1  -0.00127693  0.75184962  0.50061452  1
  Fe  Fe23  1  0.62562353  0.12069458  0.62290663  1
  Fe  Fe24  1  0.49896630  0.49958035  0.00304586  1
  Fe  Fe25  1  0.75169962  0.25436744  -0.00038321  1
  Fe  Fe26  1  0.87655639  0.37424791  0.37332794  1
  Fe  Fe27  1  0.12620093  0.12611491  0.87607288  1
  Fe  Fe28  1  0.00011540  0.74904869  0.25008761  1
  Fe  Fe29  1  0.37933854  0.87634841  0.37316767  1
  Fe  Fe30  1  0.37422578  0.12748188  0.62330439  1
  Fe  Fe31  1  0.25214675  -0.00190456  -0.00141092  1
  Fe  Fe32  1  0.50021081  0.50439854  0.24750989  1
  Fe  Fe33  1  0.74778737  0.24747746  0.25203295  1
  Fe  Fe34  1  0.87373398  0.12382803  0.62349817  1
  Fe  Fe35  1  0.74838120  0.50080761  0.74892718  1
  Fe  Fe36  1  0.00058254  0.50077826  0.74998527  1
  Fe  Fe37  1  0.25052469  0.75133996  0.25112520  1
  Fe  Fe38  1  0.87175049  0.62633092  0.37625253  1
  Fe  Fe39  1  0.87260159  0.87658480  0.37211760  1
  Fe  Fe40  1  0.13016490  0.12468716  0.12638206  1
  Fe  Fe41  1  0.62538079  0.62384587  0.87715384  1
  Fe  Fe42  1  0.87577844  0.62426227  0.87585674  1
  Fe  Fe43  1  0.50072886  0.49964665  0.50036283  1
  Fe  Fe44  1  0.00140623  0.74953216  -0.00129312  1
  Fe  Fe45  1  0.49798720  0.00256720  0.75246639  1
  Fe  Fe46  1  0.75217684  0.49535239  0.00200930  1
  Fe  Fe47  1  0.37888310  0.37323713  0.87277739  1
  Fe  Fe48  1  0.37645333  0.62533053  0.62370396  1
  Fe  Fe49  1  0.12470918  0.87607058  0.37513957  1
  Fe  Fe50  1  0.50009111  0.74994631  0.00021007  1
  Fe  Fe51  1  0.74871018  0.75242816  0.00111746  1
  Fe  Fe52  1  0.62308686  0.37362936  0.87378273  1
  Fe  Fe53  1  0.25292832  0.25291625  0.00171143  1
  Fe  Fe54  1  0.25049283  0.50003105  0.74884043  1
  Fe  Fe55  1  0.24967065  0.75086529  -0.00162428  1
  Fe  Fe56  1  -0.00118771  0.00114087  0.24993163  1
  Fe  Fe57  1  0.37455620  0.87386708  0.63061674  1
  Fe  Fe58  1  0.12413324  0.87532961  0.12574677  1
  Fe  Fe59  1  0.62619923  0.11890137  0.37754170  1
  Fe  Fe60  1  0.00028103  0.00149998  0.75090785  1
  Fe  Fe61  1  0.62605803  0.62627648  0.37615182  1
  Fe  Fe62  1  -0.00020829  0.24880585  0.75108268  1
  Fe  Fe63  1  0.87213552  0.62542355  0.12451229  1
  Fe  Fe64  1  0.62361133  0.12684327  0.87953027  1
  Fe  Fe65  1  0.62262647  0.37377176  0.62497639  1
  Fe  Fe66  1  0.25104104  0.25560879  0.49586460  1
  Fe  Fe67  1  0.50429230  0.75463154  0.50359420  1
  Fe  Fe68  1  0.74775216  -0.00295142  0.00301281  1
  Fe  Fe69  1  0.25066902  0.25128888  0.74989747  1
  Fe  Fe70  1  0.74951244  0.24963942  0.49906632  1
  Fe  Fe71  1  0.37527744  0.62700851  0.87460706  1
  Fe  Fe72  1  0.50076854  0.00605513  0.24535894  1
  Fe  Fe73  1  -0.00213979  0.25260288  0.00127268  1
  Fe  Fe74  1  0.62301663  0.37311581  0.12777941  1
  Fe  Fe75  1  0.12707567  0.12557616  0.62401992  1
  Fe  Fe76  1  0.24968722  0.49570590  0.50009527  1
  Fe  Fe77  1  0.74829934  0.24786537  0.75019099  1
  Fe  Fe78  1  0.25300668  -0.00224773  0.49950071  1
  Fe  Fe79  1  0.87460301  0.12548933  0.87757218  1
  Fe  Fe80  1  0.12685962  0.62421578  0.12316267  1
  Fe  Fe81  1  0.25243566  0.49819606  0.25016110  1
  Fe  Fe82  1  0.12959077  0.12355568  0.37362966  1
  Fe  Fe83  1  0.25042555  0.75149653  0.49952357  1
  Fe  Fe84  1  0.50094507  0.74627810  0.24788416  1
  Fe  Fe85  1  0.87297986  0.12449395  0.12480881  1
  Fe  Fe86  1  0.12499761  0.62399953  0.37648997  1
  Fe  Fe87  1  0.37538886  0.62520559  0.37677478  1
  Fe  Fe88  1  0.37650546  0.12700300  0.87833335  1
  Fe  Fe89  1  0.50081498  0.50151108  0.74829517  1
  Co  Co90  1  -0.00351391  0.49783181  0.00279643  1
  Co  Co91  1  0.75136026  -0.00360455  0.49828122  1
  Co  Co92  1  0.62818217  0.62437350  0.12233730  1
  Co  Co93  1  0.87390926  0.37258635  0.13070051  1
  Co  Co94  1  0.74939253  0.00540621  0.75469559  1
  Co  Co95  1  0.37887990  0.37368829  0.12830388  1
  Co  Co96  1  0.25231200  0.25428966  0.25217983  1
  Co  Co97  1  0.49832287  0.25075567  0.00302717  1
  Co  Co98  1  0.37231937  0.62700512  0.12349805  1
  Co  Co99  1  -0.00190356  0.50035149  0.49980809  1
  Co  Co100  1  0.49943931  0.24320812  0.25126346  1
  Co  Co101  1  0.87556368  0.37518240  0.87087836  1
  Co  Co102  1  0.74924859  0.00009864  0.24633158  1
  Co  Co103  1  0.74720201  0.74587164  0.75020371  1
  Co  Co104  1  0.62535997  0.62313338  0.62223450  1
  Co  Co105  1  0.37073852  0.12515420  0.12382626  1
  Co  Co106  1  0.50335507  0.74730177  0.74813506  1
  Co  Co107  1  0.37139756  0.12298009  0.37397223  1
  Co  Co108  1  0.87394958  0.12470434  0.37507972  1
  Co  Co109  1  0.74873353  0.49951933  0.25120544  1
  Co  Co110  1  0.62699583  0.88080676  0.63133557  1
  Co  Co111  1  0.12365047  0.37422716  0.62637429  1
  Co  Co112  1  0.37505877  0.87205097  0.87205905  1
  Co  Co113  1  0.12427220  0.62254594  0.87707527  1
  Co  Co114  1  0.62110736  0.87455459  0.12617720  1
  Co  Co115  1  0.49717155  -0.00230210  0.50262010  1
  Co  Co116  1  0.49941511  -0.00076394  -0.00055918  1
  Co  Co117  1  0.12179544  0.37716827  0.37291694  1
  Co  Co118  1  0.62758641  0.12842730  0.12029132  1
  Co  Co119  1  0.00005131  0.74988456  0.75047223  1
  Co  Co120  1  0.37795471  0.37349777  0.62509912  1
  Co  Co121  1  0.25197095  0.00451514  0.75126046  1
  Co  Co122  1  0.24891338  0.74498190  0.74955346  1
  Co  Co123  1  0.25156048  -0.00436825  0.24942139  1
  Co  Co124  1  0.38018456  0.37719323  0.37305172  1
  Co  Co125  1  0.87754549  0.87512825  0.12450371  1
  Co  Co126  1  0.50197956  0.24648506  0.74889511  1
  Co  Co127  1  0.62212089  0.87857729  0.37106258  1
