# generated using pymatgen
data_Fe45Co19
_symmetry_space_group_name_H-M   'P 1'
_cell_length_a   11.41457742
_cell_length_b   11.41441243
_cell_length_c   11.41634075
_cell_angle_alpha   90.00433704
_cell_angle_beta   90.00158596
_cell_angle_gamma   90.00784191
_symmetry_Int_Tables_number   1
_chemical_formula_structural   Fe45Co19
_chemical_formula_sum   'Fe90 Co38'
_cell_volume   1487.44294409
_cell_formula_units_Z   2
loop_
 _symmetry_equiv_pos_site_id
 _symmetry_equiv_pos_as_xyz
  1  'x, y, z'
loop_
 _atom_site_type_symbol
 _atom_site_label
 _atom_site_symmetry_multiplicity
 _atom_site_fract_x
 _atom_site_fract_y
 _atom_site_fract_z
 _atom_site_occupancy
  Fe  Fe0  1  0.62744883  0.37504528  0.62883975  1
  Fe  Fe1  1  0.75461248  0.00338207  0.25454627  1
  Fe  Fe2  1  0.24999887  0.75240044  0.24833520  1
  Fe  Fe3  1  0.12339421  0.12574986  0.87351776  1
  Fe  Fe4  1  0.87891699  0.87854595  0.38025672  1
  Fe  Fe5  1  0.87667816  0.62196041  0.62409090  1
  Fe  Fe6  1  0.87519063  0.62399863  0.37747397  1
  Fe  Fe7  1  0.24684755  -0.00394963  0.00065198  1
  Fe  Fe8  1  -0.00134336  0.75084438  0.25187306  1
  Fe  Fe9  1  0.50099224  0.24967517  0.50112963  1
  Fe  Fe10  1  0.62215012  0.62588584  0.87184673  1
  Fe  Fe11  1  -0.00225692  0.24762175  0.24819152  1
  Fe  Fe12  1  0.75222032  0.24664465  0.25325817  1
  Fe  Fe13  1  0.37436038  0.87434232  0.62467346  1
  Fe  Fe14  1  0.00152857  0.49618033  0.74728764  1
  Fe  Fe15  1  0.12421355  0.62512340  0.37613110  1
  Fe  Fe16  1  0.12130321  0.12261055  0.12346854  1
  Fe  Fe17  1  0.12289025  0.12634695  0.37534723  1
  Fe  Fe18  1  0.87521000  0.37398056  0.37717027  1
  Fe  Fe19  1  0.12589333  0.37145061  0.37500313  1
  Fe  Fe20  1  0.62894895  0.12503172  0.62569513  1
  Fe  Fe21  1  0.00072355  0.75043513  0.00001672  1
  Fe  Fe22  1  0.62339239  0.37507642  0.37422634  1
  Fe  Fe23  1  0.24888028  0.75026979  0.50048801  1
  Fe  Fe24  1  0.62832191  0.62639274  0.12610532  1
  Fe  Fe25  1  0.87690745  0.37726671  0.87217252  1
  Fe  Fe26  1  0.62463712  0.87391105  0.87446579  1
  Fe  Fe27  1  0.87679794  0.87429612  0.87410770  1
  Fe  Fe28  1  0.37285084  0.37183427  0.62616212  1
  Fe  Fe29  1  0.37669085  0.37349337  0.87431590  1
  Fe  Fe30  1  0.50105094  0.00101058  0.49982381  1
  Fe  Fe31  1  0.49927387  0.24952845  0.24776492  1
  Fe  Fe32  1  0.24903576  -0.00187960  0.75025966  1
  Fe  Fe33  1  0.62529253  0.87410983  0.37405078  1
  Fe  Fe34  1  -0.00073934  0.25091281  -0.00112824  1
  Fe  Fe35  1  0.37558483  0.87458424  0.87591267  1
  Fe  Fe36  1  0.62766784  0.12443499  0.12563214  1
  Fe  Fe37  1  0.12513495  0.62267773  0.62204647  1
  Fe  Fe38  1  0.25147444  0.49929259  0.75175185  1
  Fe  Fe39  1  0.62414949  0.37667739  0.87198487  1
  Fe  Fe40  1  0.87604196  0.87669430  0.12368577  1
  Fe  Fe41  1  0.25123241  0.49819153  0.25190482  1
  Fe  Fe42  1  0.49943566  0.00052665  0.24960532  1
  Fe  Fe43  1  0.75039144  0.74953819  0.49926135  1
  Fe  Fe44  1  0.37397531  0.12761262  0.37407820  1
  Fe  Fe45  1  0.37381710  0.12642106  0.62695914  1
  Fe  Fe46  1  0.24980886  0.74897534  0.74943511  1
  Fe  Fe47  1  0.75012941  0.25041957  -0.00284974  1
  Fe  Fe48  1  0.37579446  0.12386286  0.87569179  1
  Fe  Fe49  1  0.37440732  0.12260162  0.12309533  1
  Fe  Fe50  1  0.00017709  0.25348726  0.50610640  1
  Fe  Fe51  1  0.49955855  0.74789132  0.49951642  1
  Fe  Fe52  1  0.49715246  0.50083790  0.49937020  1
  Fe  Fe53  1  0.12445188  0.62406039  0.12537167  1
  Fe  Fe54  1  0.24859464  0.25070715  -0.00022585  1
  Fe  Fe55  1  0.12109674  0.87713153  0.37772844  1
  Fe  Fe56  1  0.24745198  -0.00105527  0.24877872  1
  Fe  Fe57  1  0.49810143  0.50287776  0.25224268  1
  Fe  Fe58  1  0.62288905  0.62419459  0.62688717  1
  Fe  Fe59  1  0.50168470  0.24896471  -0.00009268  1
  Fe  Fe60  1  0.87489169  0.87733609  0.62212031  1
  Fe  Fe61  1  0.00134256  -0.00062496  0.74727859  1
  Fe  Fe62  1  0.50075432  -0.00041393  0.74960941  1
  Fe  Fe63  1  0.37495355  0.37563772  0.12571491  1
  Fe  Fe64  1  0.62764618  0.87474731  0.12640629  1
  Fe  Fe65  1  0.37464837  0.87499755  0.37540682  1
  Fe  Fe66  1  0.49876489  0.74705834  0.25003170  1
  Fe  Fe67  1  0.86986658  0.12600003  0.62330602  1
  Fe  Fe68  1  0.25142224  0.49765231  0.49785957  1
  Fe  Fe69  1  0.62589339  0.12399786  0.87287665  1
  Fe  Fe70  1  0.24818910  0.00148354  0.50066715  1
  Fe  Fe71  1  0.62709523  0.37612179  0.12517110  1
  Fe  Fe72  1  0.25021692  0.49984438  -0.00135157  1
  Fe  Fe73  1  0.75016279  -0.00066313  -0.00147603  1
  Fe  Fe74  1  0.74937894  0.49914543  0.50020970  1
  Fe  Fe75  1  0.75239908  0.50386192  -0.00398884  1
  Fe  Fe76  1  0.00158312  0.75110446  0.74606145  1
  Fe  Fe77  1  0.24965184  0.75098870  0.00187586  1
  Fe  Fe78  1  0.87592622  0.12408918  0.87344530  1
  Fe  Fe79  1  0.49890985  0.50206373  0.00012263  1
  Fe  Fe80  1  0.12306358  0.62353486  0.87601242  1
  Fe  Fe81  1  0.87399000  0.62653046  0.12474123  1
  Fe  Fe82  1  -0.00062016  0.49976234  0.25052699  1
  Fe  Fe83  1  0.49874051  0.74961310  0.00191038  1
  Fe  Fe84  1  0.75125761  0.74827868  0.75018581  1
  Fe  Fe85  1  0.87327490  0.37455917  0.12400738  1
  Fe  Fe86  1  0.12362559  0.37576755  0.12376632  1
  Fe  Fe87  1  0.75074002  0.50133851  0.25128717  1
  Fe  Fe88  1  0.62623335  0.87535577  0.62512371  1
  Fe  Fe89  1  0.12803651  0.12921470  0.62839702  1
  Co  Co90  1  0.00078500  -0.00128024  -0.00345238  1
  Co  Co91  1  -0.00142504  0.25150789  0.74724404  1
  Co  Co92  1  0.12039963  0.87556450  0.12584878  1
  Co  Co93  1  0.74773596  0.25154443  0.49781336  1
  Co  Co94  1  0.75117696  0.74898461  -0.00314019  1
  Co  Co95  1  0.37553983  0.62668297  0.87462187  1
  Co  Co96  1  0.75038361  -0.00222085  0.75079084  1
  Co  Co97  1  0.49604740  0.49940726  0.74846709  1
  Co  Co98  1  0.00485665  0.00350770  0.50693062  1
  Co  Co99  1  0.62259734  0.12633481  0.37439460  1
  Co  Co100  1  0.00136120  0.49639944  0.49956610  1
  Co  Co101  1  0.37685355  0.87572676  0.12459377  1
  Co  Co102  1  0.62691417  0.62508329  0.37558437  1
  Co  Co103  1  0.37543361  0.37062980  0.37383336  1
  Co  Co104  1  0.12629395  0.87377926  0.62432650  1
  Co  Co105  1  -0.00237535  0.50020751  0.00225616  1
  Co  Co106  1  0.24871912  0.24844324  0.24608819  1
  Co  Co107  1  0.50085208  0.24807689  0.75010990  1
  Co  Co108  1  0.12995011  0.37440550  0.62589430  1
  Co  Co109  1  0.37288470  0.62397921  0.12598588  1
  Co  Co110  1  0.75382572  0.75213088  0.25310293  1
  Co  Co111  1  0.37270449  0.62676401  0.37561526  1
  Co  Co112  1  0.88093322  0.62587370  0.87243217  1
  Co  Co113  1  0.75070677  0.50332771  0.75253349  1
  Co  Co114  1  0.25055006  0.25168291  0.75465016  1
  Co  Co115  1  0.00000074  0.74818026  0.50107684  1
  Co  Co116  1  0.50273438  0.00005637  -0.00023328  1
  Co  Co117  1  0.37400134  0.62622033  0.62462866  1
  Co  Co118  1  0.49876833  0.75190395  0.74893959  1
  Co  Co119  1  0.24999199  0.24876592  0.49952156  1
  Co  Co120  1  -0.00278224  0.00249465  0.25047761  1
  Co  Co121  1  0.87050966  0.37619718  0.62635851  1
  Co  Co122  1  0.87917051  0.12579633  0.38236025  1
  Co  Co123  1  0.74688046  0.00029306  0.49608543  1
  Co  Co124  1  0.12443179  0.87336105  0.87312732  1
  Co  Co125  1  0.75082737  0.25085419  0.75226383  1
  Co  Co126  1  0.12221822  0.37547683  0.87565203  1
  Co  Co127  1  0.87498547  0.12433629  0.12084729  1
