# generated using pymatgen
data_Fe45Co19
_symmetry_space_group_name_H-M   'P 1'
_cell_length_a   11.41514749
_cell_length_b   11.41596072
_cell_length_c   11.41606049
_cell_angle_alpha   90.00167621
_cell_angle_beta   89.99406777
_cell_angle_gamma   90.01361987
_symmetry_Int_Tables_number   1
_chemical_formula_structural   Fe45Co19
_chemical_formula_sum   'Fe90 Co38'
_cell_volume   1487.68244852
_cell_formula_units_Z   2
loop_
 _symmetry_equiv_pos_site_id
 _symmetry_equiv_pos_as_xyz
  1  'x, y, z'
loop_
 _atom_site_type_symbol
 _atom_site_label
 _atom_site_symmetry_multiplicity
 _atom_site_fract_x
 _atom_site_fract_y
 _atom_site_fract_z
 _atom_site_occupancy
  Fe  Fe0  1  0.87574193  0.12713203  0.12338537  1
  Fe  Fe1  1  0.74697255  0.75088446  0.49744713  1
  Fe  Fe2  1  0.87296693  0.12624735  0.37622447  1
  Fe  Fe3  1  0.62782692  0.13059858  0.62586220  1
  Fe  Fe4  1  0.24589497  0.75127145  -0.00119318  1
  Fe  Fe5  1  0.24530453  0.24886380  0.75247407  1
  Fe  Fe6  1  0.74943722  0.75061870  0.75274155  1
  Fe  Fe7  1  -0.00336019  0.00395586  0.50402515  1
  Fe  Fe8  1  0.49798436  0.49997742  0.75083026  1
  Fe  Fe9  1  0.62423525  0.37154390  0.62603616  1
  Fe  Fe10  1  0.75279805  0.49734675  0.50160923  1
  Fe  Fe11  1  0.75173104  0.00145053  0.24688496  1
  Fe  Fe12  1  0.88137274  0.37421338  0.87466294  1
  Fe  Fe13  1  0.50423489  0.74987581  -0.00229649  1
  Fe  Fe14  1  0.50192639  0.24982505  0.24898571  1
  Fe  Fe15  1  0.87676907  0.37294421  0.12499106  1
  Fe  Fe16  1  0.87347481  0.87599671  0.37521752  1
  Fe  Fe17  1  0.87556647  0.62820964  0.62533521  1
  Fe  Fe18  1  0.12272989  0.87402968  0.12839912  1
  Fe  Fe19  1  0.24581307  0.50009041  0.00293365  1
  Fe  Fe20  1  0.37764407  0.62809795  0.62355984  1
  Fe  Fe21  1  0.49921508  -0.00013060  0.50165639  1
  Fe  Fe22  1  0.37335979  0.37451337  0.12436902  1
  Fe  Fe23  1  0.87797385  0.37384005  0.37481784  1
  Fe  Fe24  1  0.62587067  0.12439981  0.87487776  1
  Fe  Fe25  1  0.49913685  0.00180062  0.74940050  1
  Fe  Fe26  1  0.37650895  0.87440713  0.87357484  1
  Fe  Fe27  1  -0.00170260  -0.00230919  0.00218043  1
  Fe  Fe28  1  0.24779026  0.24761958  0.24948706  1
  Fe  Fe29  1  0.87408057  0.62433059  0.37612976  1
  Fe  Fe30  1  0.75186727  -0.00004571  0.74954433  1
  Fe  Fe31  1  0.49982443  0.49859519  0.50022892  1
  Fe  Fe32  1  0.62283950  0.87256379  0.62654167  1
  Fe  Fe33  1  0.12272346  0.87604679  0.62512941  1
  Fe  Fe34  1  0.12389227  0.62479538  0.37589133  1
  Fe  Fe35  1  0.50094789  0.25002054  0.00146689  1
  Fe  Fe36  1  0.12049152  0.62219068  0.87417743  1
  Fe  Fe37  1  0.37377728  0.12441463  0.12533698  1
  Fe  Fe38  1  0.12339601  0.87853123  0.87190611  1
  Fe  Fe39  1  0.00699958  0.25030720  0.00006065  1
  Fe  Fe40  1  0.12191651  0.62591385  0.62488865  1
  Fe  Fe41  1  0.74930237  0.74911956  0.25045570  1
  Fe  Fe42  1  0.24928629  -0.00194674  0.00304715  1
  Fe  Fe43  1  0.37588694  0.87271441  0.12547125  1
  Fe  Fe44  1  0.87696243  0.62825096  0.12126017  1
  Fe  Fe45  1  0.25109857  0.75307544  0.50081809  1
  Fe  Fe46  1  0.12097474  0.37326285  0.62488816  1
  Fe  Fe47  1  0.87311985  0.87347241  0.87648394  1
  Fe  Fe48  1  0.62283463  0.37708948  0.87691762  1
  Fe  Fe49  1  0.62805795  0.61898592  0.12307276  1
  Fe  Fe50  1  0.37667316  0.62564157  0.37647356  1
  Fe  Fe51  1  0.62404200  0.62568736  0.62412051  1
  Fe  Fe52  1  0.49896179  0.50029894  0.24813393  1
  Fe  Fe53  1  0.25202916  0.00021907  0.74703917  1
  Fe  Fe54  1  0.75394702  0.49700711  0.75011150  1
  Fe  Fe55  1  0.75088514  0.00053492  0.50353962  1
  Fe  Fe56  1  0.37458507  0.37395273  0.37500428  1
  Fe  Fe57  1  0.87660713  0.12741529  0.87459166  1
  Fe  Fe58  1  0.62675875  0.62054867  0.87618632  1
  Fe  Fe59  1  0.74787372  0.25075407  -0.00018160  1
  Fe  Fe60  1  0.37478233  0.62717447  0.12409913  1
  Fe  Fe61  1  0.50049435  0.00015361  0.24853264  1
  Fe  Fe62  1  0.12759981  0.12301403  0.37627884  1
  Fe  Fe63  1  0.62972950  0.87831270  0.12171009  1
  Fe  Fe64  1  0.24871471  0.75058240  0.25128614  1
  Fe  Fe65  1  0.24425941  0.24930029  -0.00017635  1
  Fe  Fe66  1  0.24884781  0.50240637  0.24914288  1
  Fe  Fe67  1  0.12126347  0.37518444  0.37336961  1
  Fe  Fe68  1  0.62630255  0.37854904  0.37259858  1
  Fe  Fe69  1  0.87782459  0.36752414  0.62497131  1
  Fe  Fe70  1  0.37600366  0.37154709  0.62493213  1
  Fe  Fe71  1  0.37260683  0.12539797  0.87632127  1
  Fe  Fe72  1  0.74884103  0.25059282  0.24915912  1
  Fe  Fe73  1  -0.00424203  0.00312072  0.74570789  1
  Fe  Fe74  1  0.37270773  0.12939059  0.62209744  1
  Fe  Fe75  1  0.37260660  0.12431108  0.37650932  1
  Fe  Fe76  1  -0.00120018  0.75077138  0.49909209  1
  Fe  Fe77  1  0.50613616  0.74957492  0.25182969  1
  Fe  Fe78  1  0.12349025  0.87686492  0.37523411  1
  Fe  Fe79  1  0.37305657  0.37492024  0.87564468  1
  Fe  Fe80  1  0.87893365  0.62504796  0.87680399  1
  Fe  Fe81  1  -0.00063472  0.50252780  0.24766350  1
  Fe  Fe82  1  0.24908719  0.74999605  0.74999678  1
  Fe  Fe83  1  0.37611413  0.87578412  0.37446136  1
  Fe  Fe84  1  0.37365365  0.62433772  0.87605754  1
  Fe  Fe85  1  0.24890211  0.49820863  0.50037153  1
  Fe  Fe86  1  0.62586252  0.12351954  0.37471322  1
  Fe  Fe87  1  -0.00156025  0.00100570  0.24922102  1
  Fe  Fe88  1  0.50068026  0.00051300  -0.00011412  1
  Fe  Fe89  1  0.24898884  0.50023035  0.74782092  1
  Co  Co90  1  0.25209865  -0.00419824  0.50208862  1
  Co  Co91  1  0.87277582  0.87365120  0.12550930  1
  Co  Co92  1  0.24753014  0.25342460  0.49829883  1
  Co  Co93  1  0.62609782  0.37811273  0.12472655  1
  Co  Co94  1  0.86976712  0.13278842  0.62667377  1
  Co  Co95  1  0.74868522  0.74881186  -0.00109353  1
  Co  Co96  1  0.50168957  0.24977376  0.49683348  1
  Co  Co97  1  0.75539837  0.49740745  -0.00201853  1
  Co  Co98  1  0.87373044  0.87146093  0.62381629  1
  Co  Co99  1  0.12364000  0.62800303  0.12583491  1
  Co  Co100  1  0.00228335  0.49859746  0.00417319  1
  Co  Co101  1  0.12339990  0.37954098  0.87242234  1
  Co  Co102  1  -0.00182692  0.50086987  0.50122946  1
  Co  Co103  1  0.00033263  0.24640321  0.25087590  1
  Co  Co104  1  0.12504221  0.37457038  0.12950974  1
  Co  Co105  1  0.12801764  0.12417982  0.62344336  1
  Co  Co106  1  0.49907886  0.24904522  0.75258781  1
  Co  Co107  1  0.75561684  0.49984733  0.24829408  1
  Co  Co108  1  -0.00318545  0.50016873  0.74645045  1
  Co  Co109  1  0.62626780  0.12387091  0.12465547  1
  Co  Co110  1  0.12445776  0.11897650  0.87583966  1
  Co  Co111  1  -0.00235654  0.75011824  0.25204381  1
  Co  Co112  1  0.75309533  0.00315510  -0.00114860  1
  Co  Co113  1  0.49681127  0.49969399  -0.00003784  1
  Co  Co114  1  0.00506905  0.24513240  0.75056478  1
  Co  Co115  1  0.62787688  0.87985216  0.37445604  1
  Co  Co116  1  -0.00058470  0.75172113  0.75100356  1
  Co  Co117  1  0.12444541  0.12260281  0.12489619  1
  Co  Co118  1  0.62632814  0.87881602  0.87498756  1
  Co  Co119  1  0.62675214  0.61906186  0.37567075  1
  Co  Co120  1  0.50158024  0.74770185  0.75539771  1
  Co  Co121  1  0.00244939  0.75387989  -0.00144798  1
  Co  Co122  1  0.24996818  -0.00133684  0.24842068  1
  Co  Co123  1  0.50230039  0.75171830  0.49509010  1
  Co  Co124  1  0.00074917  0.24504554  0.49885172  1
  Co  Co125  1  0.74861393  0.25216863  0.49550641  1
  Co  Co126  1  0.37899519  0.87104814  0.62762061  1
  Co  Co127  1  0.74929538  0.25338799  0.75542128  1
