# generated using pymatgen
data_Fe45Co19
_symmetry_space_group_name_H-M   'P 1'
_cell_length_a   11.41601196
_cell_length_b   11.41574012
_cell_length_c   11.41565495
_cell_angle_alpha   89.98555849
_cell_angle_beta   90.00153093
_cell_angle_gamma   89.99213765
_symmetry_Int_Tables_number   1
_chemical_formula_structural   Fe45Co19
_chemical_formula_sum   'Fe90 Co38'
_cell_volume   1487.71349944
_cell_formula_units_Z   2
loop_
 _symmetry_equiv_pos_site_id
 _symmetry_equiv_pos_as_xyz
  1  'x, y, z'
loop_
 _atom_site_type_symbol
 _atom_site_label
 _atom_site_symmetry_multiplicity
 _atom_site_fract_x
 _atom_site_fract_y
 _atom_site_fract_z
 _atom_site_occupancy
  Fe  Fe0  1  0.25247949  0.24918255  0.49962430  1
  Fe  Fe1  1  0.75152509  0.74961763  0.00148552  1
  Fe  Fe2  1  0.87672830  0.12486571  0.37295161  1
  Fe  Fe3  1  0.12402830  0.37515085  0.62382509  1
  Fe  Fe4  1  0.37409848  0.87407154  0.87220437  1
  Fe  Fe5  1  0.87299767  0.88042585  0.62697600  1
  Fe  Fe6  1  0.24945842  0.00020556  0.00191296  1
  Fe  Fe7  1  0.50282861  0.49975053  0.25086430  1
  Fe  Fe8  1  0.50182690  0.49868871  0.75228424  1
  Fe  Fe9  1  0.88239583  0.37757868  0.12756989  1
  Fe  Fe10  1  -0.00178268  0.49758556  0.75117978  1
  Fe  Fe11  1  -0.00001905  0.75061263  0.25179061  1
  Fe  Fe12  1  0.12539759  0.87463869  0.87326533  1
  Fe  Fe13  1  0.37548281  0.12516266  0.87500166  1
  Fe  Fe14  1  0.50153774  0.49841064  0.49782602  1
  Fe  Fe15  1  0.25000134  0.50219771  0.74737137  1
  Fe  Fe16  1  -0.00156268  0.75081500  0.50206095  1
  Fe  Fe17  1  0.24940589  0.24825656  0.74931947  1
  Fe  Fe18  1  0.74762944  0.75010252  0.74996270  1
  Fe  Fe19  1  0.49950176  0.74992333  0.50084948  1
  Fe  Fe20  1  0.74892125  0.49919230  0.49959893  1
  Fe  Fe21  1  0.50039726  0.75079893  0.24977382  1
  Fe  Fe22  1  0.37270283  0.37630989  0.37311033  1
  Fe  Fe23  1  0.87273939  0.62327805  0.87493033  1
  Fe  Fe24  1  0.37288752  0.37476222  0.87681731  1
  Fe  Fe25  1  0.75093372  0.75018471  0.50173678  1
  Fe  Fe26  1  0.50005337  0.75067848  -0.00122149  1
  Fe  Fe27  1  0.37591292  0.87397983  0.62901215  1
  Fe  Fe28  1  0.75335763  0.24717290  0.00410950  1
  Fe  Fe29  1  0.87205551  0.62560922  0.37382445  1
  Fe  Fe30  1  0.00165524  -0.00023327  0.50084872  1
  Fe  Fe31  1  0.12376820  0.62635767  0.87435743  1
  Fe  Fe32  1  0.12503040  0.87341845  0.12584021  1
  Fe  Fe33  1  0.74984629  0.00213135  0.24922907  1
  Fe  Fe34  1  0.37474107  0.62452378  0.37567289  1
  Fe  Fe35  1  0.87499137  0.62274654  0.62654184  1
  Fe  Fe36  1  0.49830022  0.25028923  0.00144210  1
  Fe  Fe37  1  0.12741303  0.87254917  0.37707542  1
  Fe  Fe38  1  0.87313297  0.87471172  0.37434162  1
  Fe  Fe39  1  0.87573387  0.87582218  0.12690529  1
  Fe  Fe40  1  0.62421660  0.62469701  0.62445137  1
  Fe  Fe41  1  0.62534707  0.87710216  0.62503738  1
  Fe  Fe42  1  0.25102542  0.74625671  0.50656677  1
  Fe  Fe43  1  0.37401454  0.37570336  0.62511541  1
  Fe  Fe44  1  0.87238038  0.37478874  0.87570155  1
  Fe  Fe45  1  0.24661817  0.24806125  0.00392024  1
  Fe  Fe46  1  0.24631012  0.50289768  0.24833441  1
  Fe  Fe47  1  0.24681295  0.24926767  0.24667411  1
  Fe  Fe48  1  -0.00153337  0.75147337  -0.00095476  1
  Fe  Fe49  1  0.12586391  0.37434341  0.87639075  1
  Fe  Fe50  1  0.25060449  0.75029810  0.00030566  1
  Fe  Fe51  1  0.24718299  0.50189569  0.00081271  1
  Fe  Fe52  1  0.37244192  0.37725930  0.12417187  1
  Fe  Fe53  1  0.25008720  -0.00210840  0.24899808  1
  Fe  Fe54  1  0.75188269  0.24900166  0.49911739  1
  Fe  Fe55  1  0.62542200  0.87515413  0.12563697  1
  Fe  Fe56  1  0.62736755  0.87207865  0.37338089  1
  Fe  Fe57  1  0.12601932  0.62667704  0.37729056  1
  Fe  Fe58  1  0.12648261  0.12397565  0.37476133  1
  Fe  Fe59  1  0.00092167  0.75181846  0.74776140  1
  Fe  Fe60  1  0.50336472  0.00297327  0.75028291  1
  Fe  Fe61  1  0.88380361  0.12375783  0.12530833  1
  Fe  Fe62  1  0.12608862  0.37601722  0.37432069  1
  Fe  Fe63  1  0.74688698  0.50127807  0.24930494  1
  Fe  Fe64  1  0.37601798  0.62601578  0.12448267  1
  Fe  Fe65  1  0.62264241  0.12972494  0.36872579  1
  Fe  Fe66  1  -0.00148612  0.49840002  0.49860577  1
  Fe  Fe67  1  0.49664264  0.24961093  0.49752036  1
  Fe  Fe68  1  0.49846922  0.00275414  0.49701619  1
  Fe  Fe69  1  0.87357350  0.37525566  0.37164063  1
  Fe  Fe70  1  0.75138239  0.24399981  0.74934037  1
  Fe  Fe71  1  0.87402118  0.87978400  0.87142807  1
  Fe  Fe72  1  0.62682142  0.87686693  0.87602022  1
  Fe  Fe73  1  0.62725595  0.37241040  0.62428219  1
  Fe  Fe74  1  0.62468468  0.37420231  0.12474552  1
  Fe  Fe75  1  0.50012414  0.24963441  0.75054975  1
  Fe  Fe76  1  0.37565930  0.62620377  0.87292161  1
  Fe  Fe77  1  0.50028725  0.00045878  0.00053419  1
  Fe  Fe78  1  0.25251452  0.00231380  0.50254183  1
  Fe  Fe79  1  0.37267598  0.87336073  0.37479492  1
  Fe  Fe80  1  0.37756954  0.12261691  0.12851156  1
  Fe  Fe81  1  0.74736853  0.00285457  0.49787100  1
  Fe  Fe82  1  0.87784405  0.62321931  0.12524689  1
  Fe  Fe83  1  0.75025082  0.00399565  0.00068602  1
  Fe  Fe84  1  0.62736209  0.62170246  0.87928740  1
  Fe  Fe85  1  0.12104294  0.12436262  0.87775129  1
  Fe  Fe86  1  0.62794700  0.37392725  0.87813146  1
  Fe  Fe87  1  -0.00236231  0.24765968  0.74898722  1
  Fe  Fe88  1  0.24701109  0.00231600  0.74778927  1
  Fe  Fe89  1  -0.00184234  0.25076406  0.49901581  1
  Co  Co90  1  0.87348811  0.37466985  0.62518123  1
  Co  Co91  1  0.00293513  0.24961522  0.25260740  1
  Co  Co92  1  0.37923296  0.62402936  0.62647358  1
  Co  Co93  1  0.00344423  0.00157641  0.74705056  1
  Co  Co94  1  0.37557407  0.87435884  0.12420590  1
  Co  Co95  1  0.87886424  0.12213642  0.87719114  1
  Co  Co96  1  0.37564939  0.12567638  0.62710590  1
  Co  Co97  1  0.12008588  0.12211989  0.12500573  1
  Co  Co98  1  0.62368544  0.12666574  0.62185582  1
  Co  Co99  1  0.24803458  0.74766648  0.74710184  1
  Co  Co100  1  0.62621289  0.62806365  0.37568467  1
  Co  Co101  1  0.00295379  0.50290694  0.25398892  1
  Co  Co102  1  0.00172350  -0.00331595  0.25359248  1
  Co  Co103  1  0.49683374  0.25479898  0.24857803  1
  Co  Co104  1  0.25026027  0.74925756  0.24903964  1
  Co  Co105  1  0.12456176  0.12841322  0.62220635  1
  Co  Co106  1  0.62739532  0.37063763  0.37391869  1
  Co  Co107  1  0.00075650  0.25327182  -0.00101220  1
  Co  Co108  1  0.12063977  0.62164623  0.62441149  1
  Co  Co109  1  0.50454886  0.74931225  0.75250523  1
  Co  Co110  1  0.37466377  0.12599238  0.36968087  1
  Co  Co111  1  0.62366241  0.62572026  0.12276875  1
  Co  Co112  1  0.62458927  0.12802733  0.87867834  1
  Co  Co113  1  0.00091991  -0.00497692  -0.00049889  1
  Co  Co114  1  0.62136615  0.12545047  0.12797425  1
  Co  Co115  1  0.50011181  -0.00477168  0.25277938  1
  Co  Co116  1  0.00069341  0.49976372  -0.00414346  1
  Co  Co117  1  0.75423850  0.24927540  0.24549998  1
  Co  Co118  1  0.12206520  0.62727521  0.12334317  1
  Co  Co119  1  0.75057749  0.74892294  0.24756139  1
  Co  Co120  1  0.74632357  0.00482556  0.75109850  1
  Co  Co121  1  0.12181101  0.37745888  0.12478937  1
  Co  Co122  1  0.12605334  0.87491820  0.62356238  1
  Co  Co123  1  0.49862936  0.49836146  -0.00089744  1
  Co  Co124  1  0.75229167  0.49791848  0.00399457  1
  Co  Co125  1  0.25034918  0.50054252  0.50167446  1
  Co  Co126  1  0.87498402  0.12152590  0.62310411  1
  Co  Co127  1  0.74816615  0.49965374  0.74894652  1
