# generated using pymatgen
data_Fe45Co19
_symmetry_space_group_name_H-M   'P 1'
_cell_length_a   11.41491137
_cell_length_b   11.41432653
_cell_length_c   11.41442275
_cell_angle_alpha   89.99403081
_cell_angle_beta   89.99330248
_cell_angle_gamma   89.99726260
_symmetry_Int_Tables_number   1
_chemical_formula_structural   Fe45Co19
_chemical_formula_sum   'Fe90 Co38'
_cell_volume   1487.22536382
_cell_formula_units_Z   2
loop_
 _symmetry_equiv_pos_site_id
 _symmetry_equiv_pos_as_xyz
  1  'x, y, z'
loop_
 _atom_site_type_symbol
 _atom_site_label
 _atom_site_symmetry_multiplicity
 _atom_site_fract_x
 _atom_site_fract_y
 _atom_site_fract_z
 _atom_site_occupancy
  Fe  Fe0  1  0.62398758  0.87357959  0.87508614  1
  Fe  Fe1  1  0.37587919  0.37704278  0.62628757  1
  Fe  Fe2  1  0.87328522  0.12628129  0.37422326  1
  Fe  Fe3  1  0.87576451  0.62282412  0.62884591  1
  Fe  Fe4  1  0.24908561  0.75165176  0.49910975  1
  Fe  Fe5  1  0.62527807  0.87398471  0.37467697  1
  Fe  Fe6  1  0.37531588  0.37563227  0.87601692  1
  Fe  Fe7  1  0.37145085  0.87576957  0.62754740  1
  Fe  Fe8  1  0.87298324  0.87591940  0.12635715  1
  Fe  Fe9  1  -0.00027155  0.00277963  0.24781593  1
  Fe  Fe10  1  0.75105030  0.74898894  0.50157606  1
  Fe  Fe11  1  0.37453067  0.87532818  0.37294250  1
  Fe  Fe12  1  0.62317110  0.62279563  0.62505327  1
  Fe  Fe13  1  -0.00012620  0.25072125  0.00231450  1
  Fe  Fe14  1  -0.00277086  0.25230594  0.50097522  1
  Fe  Fe15  1  0.37539135  0.62062818  0.12180874  1
  Fe  Fe16  1  0.49891337  0.74778912  0.74958115  1
  Fe  Fe17  1  0.62501940  0.62388418  0.37719649  1
  Fe  Fe18  1  0.62416007  0.37693036  0.87303034  1
  Fe  Fe19  1  0.50277562  0.00169657  0.25044035  1
  Fe  Fe20  1  0.12825876  0.37781965  0.12735731  1
  Fe  Fe21  1  0.12610126  0.62554768  0.87915802  1
  Fe  Fe22  1  0.75180083  0.25333727  0.50621593  1
  Fe  Fe23  1  0.00134218  -0.00198964  0.49903993  1
  Fe  Fe24  1  0.62517996  0.12541081  0.37957331  1
  Fe  Fe25  1  0.12763408  0.87464502  0.62783531  1
  Fe  Fe26  1  0.25370969  -0.00153537  -0.00020179  1
  Fe  Fe27  1  0.25377883  0.75312953  0.00073495  1
  Fe  Fe28  1  0.87363074  0.87565693  0.37294012  1
  Fe  Fe29  1  0.62510144  0.62334857  0.87668319  1
  Fe  Fe30  1  0.37569230  0.62510534  0.87752340  1
  Fe  Fe31  1  0.37616232  0.12933000  0.12637990  1
  Fe  Fe32  1  0.87470200  0.87490547  0.62797702  1
  Fe  Fe33  1  0.24970633  0.74611102  0.24893934  1
  Fe  Fe34  1  0.49905718  0.00083603  0.74922560  1
  Fe  Fe35  1  0.74964809  0.00260223  0.74897815  1
  Fe  Fe36  1  0.87414317  0.12610797  0.87543547  1
  Fe  Fe37  1  -0.00145857  0.74875019  0.75315724  1
  Fe  Fe38  1  0.12493733  0.62251177  0.37536864  1
  Fe  Fe39  1  0.49901712  0.49794342  0.49970296  1
  Fe  Fe40  1  0.12566664  0.12576772  0.62320139  1
  Fe  Fe41  1  0.87381020  0.62177759  0.37381505  1
  Fe  Fe42  1  0.12604094  0.37448431  0.87362899  1
  Fe  Fe43  1  0.25089183  0.24847372  0.74892555  1
  Fe  Fe44  1  0.00004278  0.74750517  0.24985455  1
  Fe  Fe45  1  0.25088219  0.50266776  0.74991571  1
  Fe  Fe46  1  0.75277951  0.74947181  -0.00371249  1
  Fe  Fe47  1  0.12636055  0.12656364  0.87822005  1
  Fe  Fe48  1  0.62481393  0.12624590  0.87458960  1
  Fe  Fe49  1  0.87425291  0.37485451  0.12735952  1
  Fe  Fe50  1  -0.00183084  0.00094000  0.00159114  1
  Fe  Fe51  1  0.24890375  0.00166600  0.24989281  1
  Fe  Fe52  1  0.74636657  0.49654830  0.24957785  1
  Fe  Fe53  1  0.12616718  0.87404237  0.12607963  1
  Fe  Fe54  1  0.12807677  0.87543953  0.87387864  1
  Fe  Fe55  1  0.62591849  0.87434549  0.62639970  1
  Fe  Fe56  1  0.62491684  0.12761383  0.12233407  1
  Fe  Fe57  1  0.12590960  0.12569964  0.37599351  1
  Fe  Fe58  1  0.74960820  0.25348417  -0.00176415  1
  Fe  Fe59  1  0.37518123  0.12353332  0.62244825  1
  Fe  Fe60  1  0.75126242  0.49657559  0.50232578  1
  Fe  Fe61  1  -0.00176521  0.49779032  0.49988144  1
  Fe  Fe62  1  0.87550742  0.37850303  0.87013889  1
  Fe  Fe63  1  0.50002251  0.25126098  0.49985833  1
  Fe  Fe64  1  0.37498415  0.12464263  0.37590887  1
  Fe  Fe65  1  0.37651319  0.37643196  0.36874592  1
  Fe  Fe66  1  -0.00006381  0.49952858  0.00071317  1
  Fe  Fe67  1  0.49767440  -0.00171194  0.00044040  1
  Fe  Fe68  1  0.74579528  0.25147916  0.25028279  1
  Fe  Fe69  1  0.00149750  0.24834451  0.24785139  1
  Fe  Fe70  1  0.62566164  0.62400491  0.12141428  1
  Fe  Fe71  1  0.12673063  0.62428960  0.62288367  1
  Fe  Fe72  1  0.37492556  0.12609477  0.87583876  1
  Fe  Fe73  1  0.00141945  0.00181310  0.75180562  1
  Fe  Fe74  1  0.75053016  -0.00000963  0.00068626  1
  Fe  Fe75  1  -0.00091182  0.24878805  0.74922080  1
  Fe  Fe76  1  0.25160038  0.25271459  0.00283432  1
  Fe  Fe77  1  0.50060686  0.25005741  0.75032018  1
  Fe  Fe78  1  0.62411825  0.87299798  0.12434739  1
  Fe  Fe79  1  0.49918950  0.75242951  0.50082127  1
  Fe  Fe80  1  -0.00391030  0.75099721  -0.00190561  1
  Fe  Fe81  1  -0.00060577  0.75113866  0.49835292  1
  Fe  Fe82  1  0.12422311  0.37729939  0.37223781  1
  Fe  Fe83  1  0.50007401  0.74649137  0.24857297  1
  Fe  Fe84  1  0.74962206  0.00031286  0.50141685  1
  Fe  Fe85  1  0.12527651  0.37543965  0.62584060  1
  Fe  Fe86  1  0.87425396  0.62325232  0.12435750  1
  Fe  Fe87  1  0.74928756  0.74930267  0.25039282  1
  Fe  Fe88  1  0.25057624  0.25279679  0.49801579  1
  Fe  Fe89  1  0.37540299  0.62317366  0.37765573  1
  Co  Co90  1  0.87315990  0.87812775  0.87297266  1
  Co  Co91  1  0.37508321  0.62438668  0.62126272  1
  Co  Co92  1  0.87650892  0.12370513  0.62520019  1
  Co  Co93  1  0.49973420  -0.00305864  0.50021138  1
  Co  Co94  1  0.49874359  0.75075249  0.00051811  1
  Co  Co95  1  0.12510229  0.62615860  0.12094787  1
  Co  Co96  1  0.49695731  0.50161383  0.75200738  1
  Co  Co97  1  0.62149749  0.37589183  0.62677701  1
  Co  Co98  1  0.75067364  0.49699910  0.00080624  1
  Co  Co99  1  0.12518828  0.87381716  0.37063606  1
  Co  Co100  1  0.49995039  0.25077835  -0.00219861  1
  Co  Co101  1  0.24842338  0.25015896  0.25023587  1
  Co  Co102  1  0.50042325  0.49814936  -0.00022825  1
  Co  Co103  1  0.37827715  0.37392502  0.12834541  1
  Co  Co104  1  0.62472019  0.37512717  0.37867630  1
  Co  Co105  1  0.74688541  0.00105798  0.24961572  1
  Co  Co106  1  0.50331501  0.50225289  0.24944986  1
  Co  Co107  1  0.37545082  0.87401262  0.87062660  1
  Co  Co108  1  0.37605307  0.87485798  0.12920828  1
  Co  Co109  1  0.00626418  0.50253043  0.75101209  1
  Co  Co110  1  0.61986380  0.37372418  0.12314496  1
  Co  Co111  1  0.00034548  0.50149095  0.24820543  1
  Co  Co112  1  0.87122848  0.12754974  0.12471899  1
  Co  Co113  1  0.12802476  0.12446094  0.12169458  1
  Co  Co114  1  0.24959274  0.00478263  0.75096427  1
  Co  Co115  1  0.25077367  0.74455120  0.75048590  1
  Co  Co116  1  0.62243762  0.12652804  0.62426066  1
  Co  Co117  1  0.87748942  0.37792157  0.63040943  1
  Co  Co118  1  0.50412664  0.24848851  0.25206829  1
  Co  Co119  1  0.87469660  0.61965291  0.87361944  1
  Co  Co120  1  0.25092557  0.50242169  0.24911077  1
  Co  Co121  1  0.87483950  0.37388668  0.37239046  1
  Co  Co122  1  0.24810725  -0.00150834  0.49918182  1
  Co  Co123  1  0.25032211  0.49680010  0.49943114  1
  Co  Co124  1  0.74716139  0.50012491  0.74867300  1
  Co  Co125  1  0.74986861  0.25020265  0.74796199  1
  Co  Co126  1  0.75010356  0.74755344  0.75165404  1
  Co  Co127  1  0.25040456  0.49666160  -0.00045392  1
