# generated using pymatgen
data_Fe45Co19
_symmetry_space_group_name_H-M   'P 1'
_cell_length_a   11.41511426
_cell_length_b   11.41503098
_cell_length_c   11.41547006
_cell_angle_alpha   90.00678937
_cell_angle_beta   89.99244149
_cell_angle_gamma   90.00581133
_symmetry_Int_Tables_number   1
_chemical_formula_structural   Fe45Co19
_chemical_formula_sum   'Fe90 Co38'
_cell_volume   1487.48004407
_cell_formula_units_Z   2
loop_
 _symmetry_equiv_pos_site_id
 _symmetry_equiv_pos_as_xyz
  1  'x, y, z'
loop_
 _atom_site_type_symbol
 _atom_site_label
 _atom_site_symmetry_multiplicity
 _atom_site_fract_x
 _atom_site_fract_y
 _atom_site_fract_z
 _atom_site_occupancy
  Fe  Fe0  1  0.37358440  0.12664178  0.12507768  1
  Fe  Fe1  1  0.74684161  0.50111337  0.49666329  1
  Fe  Fe2  1  0.50151206  0.75156243  0.50084482  1
  Fe  Fe3  1  0.87136211  0.37380267  0.87666947  1
  Fe  Fe4  1  0.87359365  0.37298712  0.37734345  1
  Fe  Fe5  1  0.75077567  0.00102107  0.49849267  1
  Fe  Fe6  1  -0.00013502  0.75072085  0.50100886  1
  Fe  Fe7  1  0.12541927  0.87502985  0.87368068  1
  Fe  Fe8  1  0.25221314  0.74652658  -0.00489422  1
  Fe  Fe9  1  -0.00315958  0.25305122  0.74657535  1
  Fe  Fe10  1  0.61724720  0.62355074  0.87684277  1
  Fe  Fe11  1  0.87512860  0.87552265  0.37478927  1
  Fe  Fe12  1  0.37532098  0.12407248  0.87696688  1
  Fe  Fe13  1  0.12133239  0.62295495  0.12395224  1
  Fe  Fe14  1  0.75163904  0.50469985  0.25181275  1
  Fe  Fe15  1  0.87357768  0.62345323  0.62439320  1
  Fe  Fe16  1  0.62961731  0.12604832  0.87417526  1
  Fe  Fe17  1  0.24950017  0.50095800  0.25004118  1
  Fe  Fe18  1  0.50152305  0.25009022  0.00155100  1
  Fe  Fe19  1  0.37325142  0.87567669  0.12316484  1
  Fe  Fe20  1  0.12254582  0.12541778  0.87335157  1
  Fe  Fe21  1  0.12251766  0.62474201  0.37537876  1
  Fe  Fe22  1  0.74888357  0.74891134  0.49953442  1
  Fe  Fe23  1  0.75224395  0.24741080  0.24926554  1
  Fe  Fe24  1  0.37134261  0.37155792  0.12568404  1
  Fe  Fe25  1  0.12680609  0.37491527  0.12472311  1
  Fe  Fe26  1  0.12568352  0.37465483  0.37527158  1
  Fe  Fe27  1  0.50187813  0.49812461  0.50015402  1
  Fe  Fe28  1  -0.00140944  0.25085432  0.24864108  1
  Fe  Fe29  1  0.00058324  0.49621879  0.50292245  1
  Fe  Fe30  1  0.50046016  0.24942671  0.74946891  1
  Fe  Fe31  1  0.25219118  0.24740362  0.74944765  1
  Fe  Fe32  1  0.12642519  0.12711666  0.12431813  1
  Fe  Fe33  1  0.62387487  0.62757942  0.12372370  1
  Fe  Fe34  1  -0.00102175  0.49711618  0.74875568  1
  Fe  Fe35  1  0.25137705  0.50193864  0.50057952  1
  Fe  Fe36  1  -0.00178484  0.74994756  0.75110897  1
  Fe  Fe37  1  0.87216610  0.87613952  0.12210283  1
  Fe  Fe38  1  0.12477371  0.62562782  0.62820577  1
  Fe  Fe39  1  0.37533512  0.87684095  0.37759779  1
  Fe  Fe40  1  0.12636981  0.87386468  0.12486464  1
  Fe  Fe41  1  0.87381230  0.87841160  0.87777352  1
  Fe  Fe42  1  0.62489687  0.37379803  0.87649378  1
  Fe  Fe43  1  0.37833903  0.12072445  0.62051579  1
  Fe  Fe44  1  -0.00425854  0.00086296  0.74918198  1
  Fe  Fe45  1  0.50341884  0.25015982  0.49801437  1
  Fe  Fe46  1  0.24896853  0.24758078  0.49896138  1
  Fe  Fe47  1  0.87301870  0.12840926  0.62269424  1
  Fe  Fe48  1  0.87247784  0.12106568  0.12112500  1
  Fe  Fe49  1  0.25089775  0.50140295  -0.00308876  1
  Fe  Fe50  1  0.62368874  0.62567217  0.62642677  1
  Fe  Fe51  1  0.62415679  0.87798175  0.62826607  1
  Fe  Fe52  1  0.50280405  0.00073296  0.00084713  1
  Fe  Fe53  1  0.24995226  0.00288626  0.25251266  1
  Fe  Fe54  1  0.49890545  0.24980595  0.25037714  1
  Fe  Fe55  1  0.62753920  0.87375282  0.12625948  1
  Fe  Fe56  1  0.37799386  0.62662448  0.62904314  1
  Fe  Fe57  1  0.87592332  0.62303145  0.87839191  1
  Fe  Fe58  1  0.37851453  0.62589044  0.37449255  1
  Fe  Fe59  1  -0.00281520  0.74729481  0.24895447  1
  Fe  Fe60  1  0.50058918  0.50007978  0.24901672  1
  Fe  Fe61  1  0.87374606  0.37966073  0.12296637  1
  Fe  Fe62  1  0.49959507  -0.00071599  0.24992147  1
  Fe  Fe63  1  0.74876392  0.74862270  0.75318118  1
  Fe  Fe64  1  0.62733676  0.37423342  0.12635532  1
  Fe  Fe65  1  0.25367712  -0.00201806  0.74831749  1
  Fe  Fe66  1  0.12330324  0.87596522  0.37506556  1
  Fe  Fe67  1  0.12328542  0.12433428  0.62462020  1
  Fe  Fe68  1  0.37741700  0.37577575  0.87463595  1
  Fe  Fe69  1  0.12580860  0.37329930  0.87325765  1
  Fe  Fe70  1  0.37738580  0.62636777  0.12366179  1
  Fe  Fe71  1  0.12514639  0.87519599  0.62615112  1
  Fe  Fe72  1  -0.00140896  0.24964842  -0.00004378  1
  Fe  Fe73  1  -0.00167995  -0.00035633  0.24833654  1
  Fe  Fe74  1  0.62840845  0.37289833  0.62477937  1
  Fe  Fe75  1  0.87270983  0.87322781  0.62574506  1
  Fe  Fe76  1  0.62663829  0.12557656  0.37089539  1
  Fe  Fe77  1  -0.00050088  0.75101700  0.00000061  1
  Fe  Fe78  1  0.62618431  0.12348292  0.62705536  1
  Fe  Fe79  1  0.62523058  0.87715616  0.87344227  1
  Fe  Fe80  1  0.25081430  0.75137416  0.50235974  1
  Fe  Fe81  1  0.24740857  0.00174235  -0.00056333  1
  Fe  Fe82  1  0.75390151  0.74539298  0.25026945  1
  Fe  Fe83  1  0.37366638  0.37369660  0.62517723  1
  Fe  Fe84  1  0.74777345  0.49996699  0.75199767  1
  Fe  Fe85  1  0.25121609  0.50334538  0.75263944  1
  Fe  Fe86  1  0.62650189  0.87285562  0.37184452  1
  Fe  Fe87  1  0.25088088  0.74898553  0.25122634  1
  Fe  Fe88  1  0.37497412  0.37408025  0.37458918  1
  Fe  Fe89  1  0.11950552  0.12424719  0.37743522  1
  Co  Co90  1  0.49786653  0.75238206  0.24889512  1
  Co  Co91  1  0.37741633  0.12473251  0.37679184  1
  Co  Co92  1  0.00145092  0.25445427  0.50432980  1
  Co  Co93  1  0.87409657  0.12543141  0.87663328  1
  Co  Co94  1  0.13108729  0.37599662  0.62734234  1
  Co  Co95  1  0.24840250  0.24750521  0.25433475  1
  Co  Co96  1  0.12204036  0.62657176  0.87351984  1
  Co  Co97  1  0.86795651  0.37626343  0.62267967  1
  Co  Co98  1  0.87738417  0.62225972  0.12014961  1
  Co  Co99  1  0.74627783  0.00066871  -0.00028331  1
  Co  Co100  1  0.50255897  0.49515405  0.74605708  1
  Co  Co101  1  0.87772367  0.62441716  0.37945665  1
  Co  Co102  1  0.50020145  0.75380848  -0.00042520  1
  Co  Co103  1  0.74879549  0.74882254  -0.00268537  1
  Co  Co104  1  0.74996026  0.24930890  0.00295905  1
  Co  Co105  1  0.75126294  0.00083219  0.25096912  1
  Co  Co106  1  0.00237521  0.00046247  0.00062559  1
  Co  Co107  1  -0.00122333  0.49860604  0.25185568  1
  Co  Co108  1  0.25384273  0.75158469  0.75084116  1
  Co  Co109  1  0.87736968  0.12647732  0.37682790  1
  Co  Co110  1  0.24710714  -0.00010692  0.49972569  1
  Co  Co111  1  0.75087838  0.25104126  0.75014851  1
  Co  Co112  1  0.62473022  0.12534794  0.12767828  1
  Co  Co113  1  0.50651385  -0.00000371  0.49587179  1
  Co  Co114  1  0.24946493  0.25015458  -0.00314029  1
  Co  Co115  1  0.37891343  0.87914655  0.62220213  1
  Co  Co116  1  0.74639669  0.24737838  0.49784597  1
  Co  Co117  1  0.38329233  0.62274271  0.87369339  1
  Co  Co118  1  0.49957955  0.49603273  0.00516702  1
  Co  Co119  1  0.00217308  0.49648544  -0.00252107  1
  Co  Co120  1  0.37468949  0.87676248  0.87762222  1
  Co  Co121  1  0.74628690  0.50141815  -0.00087782  1
  Co  Co122  1  -0.00322901  -0.00181298  0.50226674  1
  Co  Co123  1  0.49872631  0.00192806  0.75305439  1
  Co  Co124  1  0.62149427  0.62683218  0.37358978  1
  Co  Co125  1  0.62615845  0.37468130  0.37097200  1
  Co  Co126  1  0.75367981  0.00075032  0.74955555  1
  Co  Co127  1  0.49839796  0.75496109  0.75043983  1
