# generated using pymatgen
data_Fe45Co19
_symmetry_space_group_name_H-M   'P 1'
_cell_length_a   11.41612556
_cell_length_b   11.41435623
_cell_length_c   11.41553691
_cell_angle_alpha   90.00887854
_cell_angle_beta   90.00046597
_cell_angle_gamma   89.99151189
_symmetry_Int_Tables_number   1
_chemical_formula_structural   Fe45Co19
_chemical_formula_sum   'Fe90 Co38'
_cell_volume   1487.53259797
_cell_formula_units_Z   2
loop_
 _symmetry_equiv_pos_site_id
 _symmetry_equiv_pos_as_xyz
  1  'x, y, z'
loop_
 _atom_site_type_symbol
 _atom_site_label
 _atom_site_symmetry_multiplicity
 _atom_site_fract_x
 _atom_site_fract_y
 _atom_site_fract_z
 _atom_site_occupancy
  Fe  Fe0  1  0.00210686  0.24791617  0.24885706  1
  Fe  Fe1  1  0.62075248  0.12478248  0.37242687  1
  Fe  Fe2  1  -0.00215307  0.00021210  0.24775410  1
  Fe  Fe3  1  0.74697289  0.75013393  0.25053118  1
  Fe  Fe4  1  0.62485678  0.61968622  0.62243262  1
  Fe  Fe5  1  0.37337032  0.87467145  0.62466575  1
  Fe  Fe6  1  0.62383665  0.87690925  0.37740600  1
  Fe  Fe7  1  0.12453966  0.37307271  0.37614989  1
  Fe  Fe8  1  0.00370736  0.75288481  0.00002931  1
  Fe  Fe9  1  0.75177410  0.49937162  0.74987634  1
  Fe  Fe10  1  0.37338419  0.62452563  0.62553629  1
  Fe  Fe11  1  0.50380021  0.25121862  0.50644028  1
  Fe  Fe12  1  0.24980133  0.49914010  -0.00291236  1
  Fe  Fe13  1  0.74776732  0.75041471  -0.00159723  1
  Fe  Fe14  1  0.24946988  0.75169178  0.24970822  1
  Fe  Fe15  1  0.74726297  0.75074778  0.74900711  1
  Fe  Fe16  1  0.87564606  0.87387486  0.37398412  1
  Fe  Fe17  1  0.50151354  0.75078062  0.74723677  1
  Fe  Fe18  1  0.37613788  0.87460789  0.37667422  1
  Fe  Fe19  1  0.87319129  0.37121553  0.12411357  1
  Fe  Fe20  1  0.12463884  0.62376628  0.62575330  1
  Fe  Fe21  1  0.24860234  0.49745267  0.75242810  1
  Fe  Fe22  1  0.25021281  0.49693498  0.25096278  1
  Fe  Fe23  1  0.37432601  0.62741870  0.87500172  1
  Fe  Fe24  1  0.24750457  0.75106929  0.75163933  1
  Fe  Fe25  1  0.00036140  0.49822723  0.25003918  1
  Fe  Fe26  1  0.87497559  0.36977368  0.87552461  1
  Fe  Fe27  1  0.74226190  0.24759347  0.00201258  1
  Fe  Fe28  1  -0.00565529  0.00360462  0.75204105  1
  Fe  Fe29  1  0.87680662  0.62819345  0.12665721  1
  Fe  Fe30  1  0.75161363  0.50010315  -0.00132721  1
  Fe  Fe31  1  0.75349582  0.49981628  0.25164967  1
  Fe  Fe32  1  0.12511977  0.88089291  0.37593941  1
  Fe  Fe33  1  0.75065512  0.00128647  0.25211106  1
  Fe  Fe34  1  0.62415422  0.87982437  0.12499912  1
  Fe  Fe35  1  0.25101451  0.49968601  0.49852868  1
  Fe  Fe36  1  0.12706423  0.37256207  0.12325160  1
  Fe  Fe37  1  0.49730521  0.00185693  0.50431412  1
  Fe  Fe38  1  0.37389757  0.87763540  0.12233188  1
  Fe  Fe39  1  0.25673981  0.00697921  0.25414637  1
  Fe  Fe40  1  0.36984750  0.37161327  0.62423426  1
  Fe  Fe41  1  0.37486371  0.62598314  0.37455778  1
  Fe  Fe42  1  0.62151142  0.87924176  0.87093946  1
  Fe  Fe43  1  0.37439098  0.36797026  0.37520534  1
  Fe  Fe44  1  0.37665769  0.36787374  0.87680599  1
  Fe  Fe45  1  0.62322311  0.62155718  0.37714134  1
  Fe  Fe46  1  0.74727270  0.24864739  0.50140136  1
  Fe  Fe47  1  0.37150662  0.36724669  0.12320986  1
  Fe  Fe48  1  0.87612100  0.37091542  0.37557960  1
  Fe  Fe49  1  0.75079708  0.00226766  0.50191287  1
  Fe  Fe50  1  0.62270821  0.62363655  0.87530132  1
  Fe  Fe51  1  0.12733991  0.88143392  0.87798715  1
  Fe  Fe52  1  0.75175957  0.74707397  0.50148007  1
  Fe  Fe53  1  0.00423896  0.24480084  0.50379411  1
  Fe  Fe54  1  0.87311350  0.87469204  0.12413186  1
  Fe  Fe55  1  -0.00116715  0.49928981  -0.00190977  1
  Fe  Fe56  1  0.00173150  0.49699605  0.75059100  1
  Fe  Fe57  1  0.49930964  0.49593215  0.00027716  1
  Fe  Fe58  1  0.50002747  0.74910861  0.50192805  1
  Fe  Fe59  1  0.00357950  0.24695011  0.74860608  1
  Fe  Fe60  1  0.12891120  0.12238862  0.12301133  1
  Fe  Fe61  1  0.87287301  0.87643487  0.62582798  1
  Fe  Fe62  1  0.00009944  0.75219422  0.50089074  1
  Fe  Fe63  1  0.00249549  0.24675048  -0.00117242  1
  Fe  Fe64  1  0.62387905  0.37435267  0.87282343  1
  Fe  Fe65  1  0.00319730  0.75306059  0.75029035  1
  Fe  Fe66  1  0.50073046  0.75207824  0.24959114  1
  Fe  Fe67  1  0.50014603  0.75188764  0.00057827  1
  Fe  Fe68  1  0.87702756  0.62739397  0.87254322  1
  Fe  Fe69  1  0.74844859  0.00266255  -0.00342104  1
  Fe  Fe70  1  0.24561192  0.24734479  0.75291042  1
  Fe  Fe71  1  0.24475008  0.24238096  0.49862944  1
  Fe  Fe72  1  0.49640138  0.49607596  0.25033381  1
  Fe  Fe73  1  0.87664531  0.12617857  0.37555521  1
  Fe  Fe74  1  0.12763709  0.88435043  0.62436967  1
  Fe  Fe75  1  0.12565084  0.62511489  0.12449451  1
  Fe  Fe76  1  0.61825827  0.12295852  0.86899733  1
  Fe  Fe77  1  0.25894583  0.00425718  0.75650179  1
  Fe  Fe78  1  0.74785656  0.24753965  0.74773239  1
  Fe  Fe79  1  0.49725600  0.49620030  0.74780348  1
  Fe  Fe80  1  0.37445074  0.62545820  0.12437314  1
  Fe  Fe81  1  0.24774349  0.75169502  0.50047169  1
  Fe  Fe82  1  0.12418271  0.62614024  0.37408674  1
  Fe  Fe83  1  0.62323103  0.62277694  0.12437454  1
  Fe  Fe84  1  0.62550837  0.37640096  0.37513262  1
  Fe  Fe85  1  -0.00282730  0.50121082  0.50095277  1
  Fe  Fe86  1  0.87362843  0.87580415  0.87640252  1
  Fe  Fe87  1  0.87478954  0.37228403  0.62462983  1
  Fe  Fe88  1  0.12976266  0.88146407  0.12228678  1
  Fe  Fe89  1  0.87162560  0.12604719  0.12361285  1
  Co  Co90  1  0.38298191  0.13172522  0.37544461  1
  Co  Co91  1  0.62869581  0.37972687  0.62441616  1
  Co  Co92  1  0.49711566  0.00117628  -0.00198756  1
  Co  Co93  1  0.12637305  0.37550947  0.62322510  1
  Co  Co94  1  0.49225513  -0.00143308  0.74732446  1
  Co  Co95  1  0.38475145  0.13525819  0.87574070  1
  Co  Co96  1  0.49473037  0.49627744  0.50076939  1
  Co  Co97  1  0.12353152  0.37396455  0.87707440  1
  Co  Co98  1  0.37668486  0.12978943  0.12390305  1
  Co  Co99  1  0.49548693  -0.00132030  0.25059989  1
  Co  Co100  1  0.74825499  0.24839770  0.25066213  1
  Co  Co101  1  0.87708945  0.62596439  0.62978467  1
  Co  Co102  1  0.75333024  0.00175949  0.75050613  1
  Co  Co103  1  -0.00361831  0.00154255  0.00098065  1
  Co  Co104  1  0.62588923  0.87815431  0.62461976  1
  Co  Co105  1  0.37325787  0.12929185  0.62593662  1
  Co  Co106  1  0.12102011  0.11999306  0.37518748  1
  Co  Co107  1  0.24704244  0.24559321  0.25281701  1
  Co  Co108  1  0.62436127  0.12049831  0.62917143  1
  Co  Co109  1  0.75632892  0.50046904  0.49910019  1
  Co  Co110  1  0.12277930  0.12056663  0.87473909  1
  Co  Co111  1  0.25610161  0.00473853  0.49571442  1
  Co  Co112  1  0.24821049  0.75020511  -0.00026255  1
  Co  Co113  1  0.62890043  0.37989787  0.12836323  1
  Co  Co114  1  0.87791201  0.62833503  0.37090757  1
  Co  Co115  1  0.12745929  0.11636094  0.62699668  1
  Co  Co116  1  0.62283230  0.11778703  0.12966433  1
  Co  Co117  1  0.24672273  0.24578547  -0.00417201  1
  Co  Co118  1  0.50934189  0.25113025  0.00586195  1
  Co  Co119  1  0.37670062  0.86957453  0.87580285  1
  Co  Co120  1  0.12495132  0.62414338  0.87484436  1
  Co  Co121  1  0.50184255  0.25367119  0.74296102  1
  Co  Co122  1  0.87416091  0.12664560  0.62443246  1
  Co  Co123  1  0.25888695  0.00587171  -0.00605214  1
  Co  Co124  1  0.50348905  0.25225022  0.24464709  1
  Co  Co125  1  0.87332625  0.12909026  0.87676184  1
  Co  Co126  1  -0.00411502  0.00001555  0.50115091  1
  Co  Co127  1  0.00435145  0.75493992  0.24824853  1
