# generated using pymatgen
data_Fe45Co19
_symmetry_space_group_name_H-M   'P 1'
_cell_length_a   11.41542453
_cell_length_b   11.41579290
_cell_length_c   11.41538693
_cell_angle_alpha   90.00052380
_cell_angle_beta   90.00614018
_cell_angle_gamma   90.00403543
_symmetry_Int_Tables_number   1
_chemical_formula_structural   Fe45Co19
_chemical_formula_sum   'Fe90 Co38'
_cell_volume   1487.60894583
_cell_formula_units_Z   2
loop_
 _symmetry_equiv_pos_site_id
 _symmetry_equiv_pos_as_xyz
  1  'x, y, z'
loop_
 _atom_site_type_symbol
 _atom_site_label
 _atom_site_symmetry_multiplicity
 _atom_site_fract_x
 _atom_site_fract_y
 _atom_site_fract_z
 _atom_site_occupancy
  Fe  Fe0  1  0.37531922  0.62046733  0.12726880  1
  Fe  Fe1  1  0.00152114  -0.00278386  0.24918327  1
  Fe  Fe2  1  0.12663959  0.37457886  0.37853095  1
  Fe  Fe3  1  0.62385057  0.62389021  0.62655600  1
  Fe  Fe4  1  0.87607260  0.62562262  0.87504036  1
  Fe  Fe5  1  0.37528301  0.37397735  0.87657282  1
  Fe  Fe6  1  0.00000806  0.00031979  0.49844651  1
  Fe  Fe7  1  -0.00185412  0.25124636  0.24897577  1
  Fe  Fe8  1  0.37445721  0.37607398  0.62405225  1
  Fe  Fe9  1  0.62501854  0.37266531  0.87594926  1
  Fe  Fe10  1  0.50033667  0.75384646  0.74962639  1
  Fe  Fe11  1  0.12654299  0.87508789  0.62424308  1
  Fe  Fe12  1  0.12587266  0.87287714  0.37605014  1
  Fe  Fe13  1  -0.00127001  -0.00161204  0.74951330  1
  Fe  Fe14  1  0.87412498  0.12385128  0.62387684  1
  Fe  Fe15  1  0.50111011  0.75037962  0.24635742  1
  Fe  Fe16  1  0.74667583  0.25016547  0.74690232  1
  Fe  Fe17  1  0.62482639  0.12487372  0.12708792  1
  Fe  Fe18  1  0.50151559  0.00126615  -0.00228470  1
  Fe  Fe19  1  0.74891354  0.74795581  0.00337813  1
  Fe  Fe20  1  0.37295865  0.37922989  0.37461592  1
  Fe  Fe21  1  0.37708527  0.12602964  0.37371243  1
  Fe  Fe22  1  0.87536645  0.62327471  0.62771809  1
  Fe  Fe23  1  -0.00010743  0.75321195  0.74984123  1
  Fe  Fe24  1  0.00069433  0.49844352  -0.00357857  1
  Fe  Fe25  1  0.25254295  0.00262826  0.49875241  1
  Fe  Fe26  1  0.74799366  0.00173969  -0.00218734  1
  Fe  Fe27  1  0.12234838  0.62529933  0.12469163  1
  Fe  Fe28  1  0.87571849  0.12462523  0.37588043  1
  Fe  Fe29  1  0.75087374  0.50188851  0.50021028  1
  Fe  Fe30  1  0.49823190  0.24795311  0.50227829  1
  Fe  Fe31  1  0.49910498  0.25548996  0.24610163  1
  Fe  Fe32  1  0.50157479  0.25032904  0.00274782  1
  Fe  Fe33  1  0.87499631  0.87594899  0.87722182  1
  Fe  Fe34  1  0.12801800  0.62515438  0.62952803  1
  Fe  Fe35  1  0.49985732  0.49738877  0.75074975  1
  Fe  Fe36  1  0.24694426  0.50056299  -0.00231356  1
  Fe  Fe37  1  0.25060403  0.25088809  0.24993240  1
  Fe  Fe38  1  0.25359800  0.74585253  0.50141229  1
  Fe  Fe39  1  0.00107597  0.75330153  0.00084483  1
  Fe  Fe40  1  0.37343017  0.62420174  0.87192757  1
  Fe  Fe41  1  0.50114427  0.74863338  0.00238109  1
  Fe  Fe42  1  0.50332562  -0.00209235  0.25344703  1
  Fe  Fe43  1  0.87395410  0.37319700  0.87273955  1
  Fe  Fe44  1  0.74932041  0.75132375  0.74836560  1
  Fe  Fe45  1  -0.00007270  0.50024593  0.50143606  1
  Fe  Fe46  1  0.86961817  0.87673550  0.61942157  1
  Fe  Fe47  1  0.25151516  0.25003408  0.74905409  1
  Fe  Fe48  1  0.49784776  0.50331142  0.49874550  1
  Fe  Fe49  1  0.24871116  0.74886611  -0.00032475  1
  Fe  Fe50  1  0.74858086  0.49870208  0.75056535  1
  Fe  Fe51  1  -0.00086980  0.74903361  0.50145014  1
  Fe  Fe52  1  0.37562453  0.87284949  0.37510395  1
  Fe  Fe53  1  0.50000180  0.74890892  0.50193070  1
  Fe  Fe54  1  0.12083973  0.12673467  0.87701808  1
  Fe  Fe55  1  0.62684411  0.87555236  0.87561086  1
  Fe  Fe56  1  0.24591296  0.00157301  0.00113450  1
  Fe  Fe57  1  0.74989613  0.24870635  0.00037809  1
  Fe  Fe58  1  0.87527542  0.62663560  0.37479332  1
  Fe  Fe59  1  0.87624896  0.12104440  0.12462796  1
  Fe  Fe60  1  0.61976167  0.11842272  0.62923691  1
  Fe  Fe61  1  0.24995095  0.00067987  0.75036020  1
  Fe  Fe62  1  0.12586716  0.37269181  0.12356004  1
  Fe  Fe63  1  0.12724547  0.37339290  0.62126490  1
  Fe  Fe64  1  0.75131233  0.25107570  0.24936638  1
  Fe  Fe65  1  0.25048684  0.24797449  0.00078404  1
  Fe  Fe66  1  0.62390923  0.62527657  0.87440461  1
  Fe  Fe67  1  0.62368872  0.62608564  0.37158128  1
  Fe  Fe68  1  0.87125106  0.38014393  0.12401136  1
  Fe  Fe69  1  0.74691858  -0.00228167  0.25487609  1
  Fe  Fe70  1  0.87722257  0.12565807  0.87568534  1
  Fe  Fe71  1  0.25083685  0.74807599  0.24934462  1
  Fe  Fe72  1  0.12610993  0.62502134  0.37533564  1
  Fe  Fe73  1  0.00319733  0.49715032  0.75173785  1
  Fe  Fe74  1  0.12595050  0.12676269  0.62243290  1
  Fe  Fe75  1  0.12429733  0.12757331  0.37525791  1
  Fe  Fe76  1  0.75195706  0.75081691  0.24660838  1
  Fe  Fe77  1  0.00003494  0.25121776  0.74716986  1
  Fe  Fe78  1  -0.00295650  0.75223903  0.24809780  1
  Fe  Fe79  1  0.37477198  0.87711006  0.12436299  1
  Fe  Fe80  1  0.62562434  0.37380906  0.37642629  1
  Fe  Fe81  1  -0.00014920  0.49939959  0.25082738  1
  Fe  Fe82  1  0.24855653  0.00074587  0.24989451  1
  Fe  Fe83  1  0.74871743  0.24775550  0.50363236  1
  Fe  Fe84  1  0.37192951  0.87453890  0.87717250  1
  Fe  Fe85  1  0.37583478  0.12404694  0.12642829  1
  Fe  Fe86  1  0.87442000  0.37398397  0.37906415  1
  Fe  Fe87  1  0.50266940  0.49905847  0.00305008  1
  Fe  Fe88  1  0.37727751  0.87825988  0.62387146  1
  Fe  Fe89  1  0.37780529  0.12670586  0.87274096  1
  Co  Co90  1  0.12369017  0.12812607  0.12540379  1
  Co  Co91  1  0.74900253  0.50156824  -0.00479864  1
  Co  Co92  1  0.75226464  -0.00056778  0.75254218  1
  Co  Co93  1  0.24640995  0.50032626  0.24951875  1
  Co  Co94  1  0.87552318  0.62176066  0.12297735  1
  Co  Co95  1  0.37590621  0.62435723  0.63112975  1
  Co  Co96  1  0.62372755  0.12649799  0.87173581  1
  Co  Co97  1  0.25429724  0.24747272  0.49903920  1
  Co  Co98  1  0.50188696  0.49556743  0.24763688  1
  Co  Co99  1  0.25220928  0.75310937  0.74910861  1
  Co  Co100  1  0.49838238  -0.00512041  0.75536134  1
  Co  Co101  1  0.62275234  0.13231433  0.37222811  1
  Co  Co102  1  0.24924960  0.49585686  0.75118157  1
  Co  Co103  1  0.63054990  0.37683027  0.12461954  1
  Co  Co104  1  0.12553555  0.62836746  0.87206870  1
  Co  Co105  1  -0.00186609  0.24933532  0.50009822  1
  Co  Co106  1  0.50219228  0.00013416  0.49412831  1
  Co  Co107  1  0.87482779  0.37587113  0.62525522  1
  Co  Co108  1  0.62681555  0.86860229  0.37707558  1
  Co  Co109  1  0.12526632  0.36981926  0.87660034  1
  Co  Co110  1  0.12771023  0.87358985  0.12693391  1
  Co  Co111  1  -0.00465173  0.25238460  0.00339662  1
  Co  Co112  1  0.62342793  0.37800064  0.62198994  1
  Co  Co113  1  0.50054357  0.25281750  0.74819291  1
  Co  Co114  1  0.62670212  0.87885703  0.62372808  1
  Co  Co115  1  0.74916466  0.74524396  0.50216647  1
  Co  Co116  1  0.12581991  0.87513979  0.87328808  1
  Co  Co117  1  0.74498332  0.00436041  0.49520229  1
  Co  Co118  1  0.62455647  0.87781380  0.12359822  1
  Co  Co119  1  0.37901842  0.12223126  0.62719825  1
  Co  Co120  1  0.75065419  0.50021783  0.25477552  1
  Co  Co121  1  0.62766111  0.62098481  0.12701011  1
  Co  Co122  1  0.00334335  -0.00239792  0.00154508  1
  Co  Co123  1  0.87275204  0.87875331  0.12395614  1
  Co  Co124  1  0.37081453  0.37701203  0.12330139  1
  Co  Co125  1  0.25199922  0.50497258  0.50074885  1
  Co  Co126  1  0.87396722  0.87433557  0.37840460  1
  Co  Co127  1  0.37681706  0.62387598  0.36977292  1
