# generated using pymatgen
data_Fe45Co19
_symmetry_space_group_name_H-M   'P 1'
_cell_length_a   11.41436606
_cell_length_b   11.41532640
_cell_length_c   11.41468494
_cell_angle_alpha   89.99326820
_cell_angle_beta   90.00082392
_cell_angle_gamma   90.00053965
_symmetry_Int_Tables_number   1
_chemical_formula_structural   Fe45Co19
_chemical_formula_sum   'Fe90 Co38'
_cell_volume   1487.31876060
_cell_formula_units_Z   2
loop_
 _symmetry_equiv_pos_site_id
 _symmetry_equiv_pos_as_xyz
  1  'x, y, z'
loop_
 _atom_site_type_symbol
 _atom_site_label
 _atom_site_symmetry_multiplicity
 _atom_site_fract_x
 _atom_site_fract_y
 _atom_site_fract_z
 _atom_site_occupancy
  Fe  Fe0  1  0.50073968  0.74758672  0.25161536  1
  Fe  Fe1  1  0.75138543  0.00060106  0.49961853  1
  Fe  Fe2  1  0.61808653  0.37679453  0.13244669  1
  Fe  Fe3  1  0.49959301  0.50156724  0.00166336  1
  Fe  Fe4  1  0.24884740  0.75130044  0.25041123  1
  Fe  Fe5  1  0.87334319  0.12489199  0.12452886  1
  Fe  Fe6  1  0.25195628  0.25212577  0.00126500  1
  Fe  Fe7  1  0.24617155  -0.00461101  0.50137183  1
  Fe  Fe8  1  -0.00032726  0.50147771  0.49595202  1
  Fe  Fe9  1  0.62324176  0.37540046  0.87161933  1
  Fe  Fe10  1  0.25366094  0.00082494  0.25100330  1
  Fe  Fe11  1  0.87493618  0.37413064  0.62358150  1
  Fe  Fe12  1  0.62372054  0.62398442  0.87360737  1
  Fe  Fe13  1  0.25121310  0.49977932  -0.00030008  1
  Fe  Fe14  1  -0.00163515  0.25001812  0.75100923  1
  Fe  Fe15  1  0.50236065  0.49849024  0.50097485  1
  Fe  Fe16  1  0.24905154  0.25280774  0.49918579  1
  Fe  Fe17  1  -0.00188838  0.00106606  0.74958593  1
  Fe  Fe18  1  0.00013462  0.25196305  -0.00085862  1
  Fe  Fe19  1  0.00108307  0.24916313  0.49851243  1
  Fe  Fe20  1  0.74755784  0.49823351  0.00096052  1
  Fe  Fe21  1  0.62662713  0.12683131  0.37151136  1
  Fe  Fe22  1  0.74851624  -0.00134897  0.00064677  1
  Fe  Fe23  1  0.00093515  -0.00138045  0.00041190  1
  Fe  Fe24  1  0.87620330  0.37601922  0.12665525  1
  Fe  Fe25  1  0.25060451  0.24890643  0.75009450  1
  Fe  Fe26  1  0.50237912  0.75010821  0.74462602  1
  Fe  Fe27  1  0.37729038  0.37602745  0.87435642  1
  Fe  Fe28  1  0.37209270  0.62733635  0.38033035  1
  Fe  Fe29  1  0.00158947  0.74586862  0.25278073  1
  Fe  Fe30  1  0.37749356  0.37422061  0.62614107  1
  Fe  Fe31  1  0.25196895  0.50142513  0.74827133  1
  Fe  Fe32  1  0.00216219  0.75057045  0.00078221  1
  Fe  Fe33  1  0.75084003  0.49836618  0.25268021  1
  Fe  Fe34  1  0.74928692  0.75045252  0.25068873  1
  Fe  Fe35  1  0.87190690  0.12925851  0.37541412  1
  Fe  Fe36  1  0.62207703  0.12140575  0.12766776  1
  Fe  Fe37  1  0.87209090  0.87324868  0.62541221  1
  Fe  Fe38  1  0.37376275  0.12308218  0.62182447  1
  Fe  Fe39  1  0.75007984  0.50097906  0.74897113  1
  Fe  Fe40  1  -0.00031927  0.24885512  0.25036992  1
  Fe  Fe41  1  0.74782565  0.75069563  -0.00004610  1
  Fe  Fe42  1  0.87410889  0.12628469  0.87762204  1
  Fe  Fe43  1  0.62201812  0.87707382  0.12837383  1
  Fe  Fe44  1  0.74767347  0.25264748  0.00276204  1
  Fe  Fe45  1  0.87616156  0.87409433  0.12562624  1
  Fe  Fe46  1  0.00051940  -0.00025978  0.49909392  1
  Fe  Fe47  1  0.25245457  0.50061488  0.25157540  1
  Fe  Fe48  1  0.50413879  0.75320710  0.50328679  1
  Fe  Fe49  1  0.87505186  0.87327940  0.37478969  1
  Fe  Fe50  1  0.25080084  -0.00616731  0.00184961  1
  Fe  Fe51  1  -0.00061780  0.74634019  0.74831484  1
  Fe  Fe52  1  0.37422405  0.87380840  0.87018461  1
  Fe  Fe53  1  0.49909583  0.25048950  0.00335146  1
  Fe  Fe54  1  -0.00126217  0.00233185  0.25143084  1
  Fe  Fe55  1  0.50140003  0.75220591  0.00080265  1
  Fe  Fe56  1  0.12400519  0.37656600  0.62601131  1
  Fe  Fe57  1  0.37553227  0.87493632  0.37665436  1
  Fe  Fe58  1  0.62430006  0.12374593  0.87520941  1
  Fe  Fe59  1  0.00029171  0.49874819  0.00035763  1
  Fe  Fe60  1  0.12432779  0.37583163  0.37293574  1
  Fe  Fe61  1  0.87031423  0.62670933  0.62045607  1
  Fe  Fe62  1  0.12875178  0.62482359  0.62047877  1
  Fe  Fe63  1  0.12650748  0.12405566  0.87555454  1
  Fe  Fe64  1  0.62555536  0.87708356  0.37336174  1
  Fe  Fe65  1  0.12711858  0.12420549  0.12544209  1
  Fe  Fe66  1  0.50261834  -0.00209207  0.50175911  1
  Fe  Fe67  1  0.12668004  0.87325339  0.87117030  1
  Fe  Fe68  1  0.00275700  0.74956850  0.49690321  1
  Fe  Fe69  1  0.87356720  0.62491771  0.12546190  1
  Fe  Fe70  1  0.12634903  0.37484462  0.12763630  1
  Fe  Fe71  1  0.12446096  0.12444832  0.62460223  1
  Fe  Fe72  1  0.87356496  0.87347014  0.87358658  1
  Fe  Fe73  1  0.12577969  0.62487339  0.87473632  1
  Fe  Fe74  1  0.25673940  0.24660102  0.25051395  1
  Fe  Fe75  1  0.50381142  0.25029285  0.49984031  1
  Fe  Fe76  1  0.75195720  0.24898247  0.74868495  1
  Fe  Fe77  1  0.37503898  0.12216789  0.87746903  1
  Fe  Fe78  1  0.37987708  0.37457798  0.37344160  1
  Fe  Fe79  1  0.12583872  0.62466549  0.12493335  1
  Fe  Fe80  1  0.62673700  0.62447185  0.37672472  1
  Fe  Fe81  1  0.49842163  0.24680686  0.74963461  1
  Fe  Fe82  1  0.62617985  0.87702085  0.86915098  1
  Fe  Fe83  1  0.37400525  0.62658346  0.62104417  1
  Fe  Fe84  1  0.12358566  0.37737966  0.87209200  1
  Fe  Fe85  1  0.37471328  0.62783002  0.12312792  1
  Fe  Fe86  1  0.74706436  0.49432269  0.49728671  1
  Fe  Fe87  1  0.37553843  0.62764510  0.87480466  1
  Fe  Fe88  1  0.87475456  0.62327112  0.87628100  1
  Fe  Fe89  1  0.62721391  0.12341742  0.62671691  1
  Co  Co90  1  0.87418473  0.37623876  0.87392764  1
  Co  Co91  1  0.37380473  0.12303006  0.38365962  1
  Co  Co92  1  0.37495283  0.87590754  0.62547935  1
  Co  Co93  1  0.74926253  0.74685568  0.75115794  1
  Co  Co94  1  0.25026149  0.00182192  0.74789008  1
  Co  Co95  1  0.24721743  0.75676154  0.50057864  1
  Co  Co96  1  0.49693305  0.50782544  0.25245520  1
  Co  Co97  1  0.49836218  0.00141892  0.74809324  1
  Co  Co98  1  0.75006666  0.25230713  0.24776465  1
  Co  Co99  1  0.87141854  0.62591843  0.37585512  1
  Co  Co100  1  0.49565823  0.00286658  0.25361214  1
  Co  Co101  1  0.12176746  0.87439187  0.62798760  1
  Co  Co102  1  0.62727405  0.62420970  0.62288088  1
  Co  Co103  1  0.25209700  0.49456275  0.49969672  1
  Co  Co104  1  0.37851697  0.87357857  0.12814336  1
  Co  Co105  1  0.25005703  0.74726866  0.74692776  1
  Co  Co106  1  0.49357383  0.24261834  0.24984915  1
  Co  Co107  1  0.74632494  0.75290534  0.49775251  1
  Co  Co108  1  0.12404509  0.87636620  0.37178334  1
  Co  Co109  1  0.62638697  0.62496613  0.12592479  1
  Co  Co110  1  0.12690284  0.12511175  0.37529289  1
  Co  Co111  1  0.75234182  -0.00108514  0.25045569  1
  Co  Co112  1  0.63061994  0.87735836  0.62827011  1
  Co  Co113  1  -0.00133026  0.50353209  0.74610249  1
  Co  Co114  1  0.75358911  0.00340135  0.75043064  1
  Co  Co115  1  0.50063709  -0.00469973  -0.00279629  1
  Co  Co116  1  0.12330811  0.87587597  0.12860006  1
  Co  Co117  1  0.37736188  0.37784754  0.12684765  1
  Co  Co118  1  0.62409877  0.37452021  0.62943380  1
  Co  Co119  1  0.49803837  0.50285471  0.74742860  1
  Co  Co120  1  0.13022788  0.62393109  0.37757741  1
  Co  Co121  1  0.24905360  0.75328574  0.00070101  1
  Co  Co122  1  -0.00029728  0.50266706  0.25264436  1
  Co  Co123  1  0.37643086  0.12015461  0.11932072  1
  Co  Co124  1  0.74592318  0.25215306  0.50025438  1
  Co  Co125  1  0.87652750  0.37206412  0.37607322  1
  Co  Co126  1  0.61998598  0.37243774  0.36907957  1
  Co  Co127  1  0.87604306  0.12626902  0.62239068  1
