# generated using pymatgen
data_Fe45Co19
_symmetry_space_group_name_H-M   'P 1'
_cell_length_a   11.41470200
_cell_length_b   11.41549868
_cell_length_c   11.41577570
_cell_angle_alpha   90.00566287
_cell_angle_beta   89.99399545
_cell_angle_gamma   89.99665688
_symmetry_Int_Tables_number   1
_chemical_formula_structural   Fe45Co19
_chemical_formula_sum   'Fe90 Co38'
_cell_volume   1487.52710529
_cell_formula_units_Z   2
loop_
 _symmetry_equiv_pos_site_id
 _symmetry_equiv_pos_as_xyz
  1  'x, y, z'
loop_
 _atom_site_type_symbol
 _atom_site_label
 _atom_site_symmetry_multiplicity
 _atom_site_fract_x
 _atom_site_fract_y
 _atom_site_fract_z
 _atom_site_occupancy
  Fe  Fe0  1  0.25094987  0.25228832  -0.00187007  1
  Fe  Fe1  1  0.87548438  0.62296635  0.62457143  1
  Fe  Fe2  1  0.25012435  0.50222425  0.25162727  1
  Fe  Fe3  1  0.37367116  0.62387000  0.12243648  1
  Fe  Fe4  1  0.74866353  0.75222357  0.50034879  1
  Fe  Fe5  1  0.37408925  0.37848839  0.37592512  1
  Fe  Fe6  1  0.49746192  0.49989519  0.50426461  1
  Fe  Fe7  1  0.87648424  0.62121816  0.87449703  1
  Fe  Fe8  1  0.12300428  0.87609958  0.87168851  1
  Fe  Fe9  1  0.62395652  0.87636814  0.87367400  1
  Fe  Fe10  1  0.12547800  0.37180476  0.12870251  1
  Fe  Fe11  1  0.25140257  0.00159491  0.74855202  1
  Fe  Fe12  1  0.74670569  0.00255836  0.74848180  1
  Fe  Fe13  1  0.24716376  -0.00150601  0.00228809  1
  Fe  Fe14  1  0.62304517  0.62224450  0.87561010  1
  Fe  Fe15  1  0.50186299  0.49911819  0.24685471  1
  Fe  Fe16  1  0.74436431  -0.00028552  0.49955620  1
  Fe  Fe17  1  0.87565970  0.12458732  0.37697875  1
  Fe  Fe18  1  0.49593119  0.24833551  0.25091035  1
  Fe  Fe19  1  0.12714884  0.62405831  0.62521997  1
  Fe  Fe20  1  0.87805344  0.87700537  0.87124107  1
  Fe  Fe21  1  0.62070301  0.37141631  0.62739088  1
  Fe  Fe22  1  0.50157688  0.75163505  0.49831418  1
  Fe  Fe23  1  0.49944705  0.00386275  0.74969491  1
  Fe  Fe24  1  0.13077133  0.12740734  0.62318837  1
  Fe  Fe25  1  0.00142289  0.25174507  -0.00122957  1
  Fe  Fe26  1  0.12939636  0.37727913  0.87013540  1
  Fe  Fe27  1  0.87433470  0.12687423  0.87288130  1
  Fe  Fe28  1  0.74884476  0.25250826  -0.00216173  1
  Fe  Fe29  1  0.12585936  0.62180356  0.87223293  1
  Fe  Fe30  1  0.12481467  0.62612355  0.12689752  1
  Fe  Fe31  1  -0.00219580  0.74805647  0.25209481  1
  Fe  Fe32  1  0.74803905  0.25045752  0.50026091  1
  Fe  Fe33  1  0.62405447  0.62573935  0.62677225  1
  Fe  Fe34  1  0.50021851  0.75076159  0.00037430  1
  Fe  Fe35  1  0.00199258  0.49791692  -0.00044720  1
  Fe  Fe36  1  -0.00119898  0.49998318  0.25222048  1
  Fe  Fe37  1  0.62673944  0.62418174  0.12275426  1
  Fe  Fe38  1  0.87495523  0.37523223  0.12420110  1
  Fe  Fe39  1  0.87554260  0.37558773  0.37629711  1
  Fe  Fe40  1  0.87475119  0.62361537  0.12354706  1
  Fe  Fe41  1  -0.00055512  0.75033504  -0.00269538  1
  Fe  Fe42  1  -0.00142822  0.74867051  0.49998346  1
  Fe  Fe43  1  0.75075600  0.75030819  0.75000694  1
  Fe  Fe44  1  0.36838881  0.12075521  0.37771224  1
  Fe  Fe45  1  0.87592070  0.37375700  0.62515638  1
  Fe  Fe46  1  0.12352096  0.87185586  0.12638848  1
  Fe  Fe47  1  0.75182541  0.75241604  -0.00053444  1
  Fe  Fe48  1  0.50399450  -0.00000997  0.49825837  1
  Fe  Fe49  1  0.24939065  0.74949021  -0.00109109  1
  Fe  Fe50  1  0.87647042  0.87684921  0.62710045  1
  Fe  Fe51  1  0.75193197  0.75053338  0.25006333  1
  Fe  Fe52  1  0.75078908  0.49592482  0.75098355  1
  Fe  Fe53  1  0.49834719  0.25043569  -0.00062715  1
  Fe  Fe54  1  0.00396432  0.00442544  0.24912403  1
  Fe  Fe55  1  0.87601967  0.12569902  0.12463075  1
  Fe  Fe56  1  0.12446418  0.87247728  0.62754633  1
  Fe  Fe57  1  0.37363307  0.37635487  0.12336860  1
  Fe  Fe58  1  0.37183481  0.12368557  0.12304030  1
  Fe  Fe59  1  0.37378168  0.87662672  0.37203583  1
  Fe  Fe60  1  0.49857095  0.74931507  0.24924038  1
  Fe  Fe61  1  0.74762596  0.49818478  0.50068679  1
  Fe  Fe62  1  0.12696145  0.37251135  0.37350752  1
  Fe  Fe63  1  0.62425672  0.62485066  0.37555180  1
  Fe  Fe64  1  0.75051135  -0.00093727  0.00128620  1
  Fe  Fe65  1  0.49753090  0.74723436  0.75223922  1
  Fe  Fe66  1  0.37642004  0.87533897  0.62474428  1
  Fe  Fe67  1  0.00288467  0.25042354  0.49983969  1
  Fe  Fe68  1  0.00242205  0.49999339  0.49924809  1
  Fe  Fe69  1  0.87471545  0.87708642  0.37434778  1
  Fe  Fe70  1  0.00127125  0.25008403  0.74898928  1
  Fe  Fe71  1  0.62268997  0.37324391  0.37487628  1
  Fe  Fe72  1  0.87309436  0.12646478  0.62508719  1
  Fe  Fe73  1  0.62448822  0.12643115  0.12767883  1
  Fe  Fe74  1  0.37375614  0.87606536  0.12644660  1
  Fe  Fe75  1  0.62528825  0.87731438  0.12897822  1
  Fe  Fe76  1  0.75146024  0.25018219  0.25150284  1
  Fe  Fe77  1  0.13215399  0.37567391  0.62702498  1
  Fe  Fe78  1  0.12669677  0.12486908  0.87553829  1
  Fe  Fe79  1  0.25170202  0.74833475  0.49610477  1
  Fe  Fe80  1  0.49644604  0.24831333  0.49873673  1
  Fe  Fe81  1  0.74833255  0.49847743  0.25012497  1
  Fe  Fe82  1  0.49309107  0.24634160  0.75255349  1
  Fe  Fe83  1  0.25301039  0.74756050  0.75238827  1
  Fe  Fe84  1  0.12637062  0.87367563  0.37290570  1
  Fe  Fe85  1  0.00419375  0.00101775  0.50119945  1
  Fe  Fe86  1  0.00065775  0.00055939  0.00066440  1
  Fe  Fe87  1  0.37516334  0.87690032  0.87604085  1
  Fe  Fe88  1  0.62031453  0.37568216  0.87419713  1
  Fe  Fe89  1  0.50172159  0.00042514  0.00103252  1
  Co  Co90  1  0.37333767  0.12137494  0.87976718  1
  Co  Co91  1  0.24629021  0.00090844  0.24701966  1
  Co  Co92  1  -0.00079453  0.74734582  0.74930469  1
  Co  Co93  1  0.62246446  0.87427161  0.62808269  1
  Co  Co94  1  0.00206864  0.00507075  0.74724225  1
  Co  Co95  1  0.25518162  0.24621088  0.75273354  1
  Co  Co96  1  0.24647524  -0.00451312  0.50159148  1
  Co  Co97  1  0.87795165  0.87571036  0.12677406  1
  Co  Co98  1  0.49434964  0.50212307  0.74664285  1
  Co  Co99  1  0.87294126  0.62354007  0.37686162  1
  Co  Co100  1  0.74942661  0.25288929  0.75072357  1
  Co  Co101  1  0.62307896  0.12876983  0.62515439  1
  Co  Co102  1  0.87760262  0.37427132  0.87516554  1
  Co  Co103  1  0.12423789  0.62564483  0.37475669  1
  Co  Co104  1  0.37619400  0.62144574  0.88205043  1
  Co  Co105  1  -0.00222954  0.24830508  0.25181758  1
  Co  Co106  1  0.37896165  0.62290060  0.37465373  1
  Co  Co107  1  0.37257045  0.37131094  0.62555753  1
  Co  Co108  1  0.62540464  0.12560080  0.87606860  1
  Co  Co109  1  0.25412764  0.24901175  0.25110628  1
  Co  Co110  1  0.37385485  0.12286800  0.62037387  1
  Co  Co111  1  0.62538378  0.12805659  0.37319115  1
  Co  Co112  1  -0.00016406  0.49772123  0.74789921  1
  Co  Co113  1  0.74869943  0.49730079  -0.00172144  1
  Co  Co114  1  0.25187385  0.25311931  0.49805403  1
  Co  Co115  1  0.25120071  0.50169660  0.49852126  1
  Co  Co116  1  0.75092968  0.00199047  0.25038753  1
  Co  Co117  1  0.62486244  0.87410990  0.37010607  1
  Co  Co118  1  0.12627557  0.13057971  0.12375302  1
  Co  Co119  1  0.25779353  0.50355620  0.74787229  1
  Co  Co120  1  0.49795569  0.00341829  0.25159779  1
  Co  Co121  1  0.62542333  0.37093230  0.12583275  1
  Co  Co122  1  0.37469999  0.62943474  0.62111352  1
  Co  Co123  1  0.37463431  0.37969018  0.87662941  1
  Co  Co124  1  0.25243883  0.74806788  0.25075273  1
  Co  Co125  1  0.50230097  0.49833938  0.00360841  1
  Co  Co126  1  0.24648479  0.49928902  0.00260062  1
  Co  Co127  1  0.12808462  0.12808328  0.37616189  1
