# generated using pymatgen
data_Fe45Co19
_symmetry_space_group_name_H-M   'P 1'
_cell_length_a   11.41450755
_cell_length_b   11.41500291
_cell_length_c   11.41456008
_cell_angle_alpha   90.00248443
_cell_angle_beta   90.01257758
_cell_angle_gamma   89.99525413
_symmetry_Int_Tables_number   1
_chemical_formula_structural   Fe45Co19
_chemical_formula_sum   'Fe90 Co38'
_cell_volume   1487.27874700
_cell_formula_units_Z   2
loop_
 _symmetry_equiv_pos_site_id
 _symmetry_equiv_pos_as_xyz
  1  'x, y, z'
loop_
 _atom_site_type_symbol
 _atom_site_label
 _atom_site_symmetry_multiplicity
 _atom_site_fract_x
 _atom_site_fract_y
 _atom_site_fract_z
 _atom_site_occupancy
  Fe  Fe0  1  0.12396364  0.87350282  0.62487173  1
  Fe  Fe1  1  0.87598494  0.61870881  0.87567325  1
  Fe  Fe2  1  0.50085169  0.50042933  0.00093561  1
  Fe  Fe3  1  0.24800158  0.25125102  -0.00156327  1
  Fe  Fe4  1  -0.00017640  0.00063296  0.75080283  1
  Fe  Fe5  1  0.00257787  0.25023873  -0.00308899  1
  Fe  Fe6  1  0.50085421  0.74935266  0.25204626  1
  Fe  Fe7  1  0.62467655  0.62386239  0.12613860  1
  Fe  Fe8  1  0.24455854  0.50460473  0.75003597  1
  Fe  Fe9  1  0.50493026  0.49820061  0.74417233  1
  Fe  Fe10  1  0.25038871  0.75231491  0.25136394  1
  Fe  Fe11  1  0.37119023  0.37266607  0.37527418  1
  Fe  Fe12  1  0.62880426  0.12440242  0.62392694  1
  Fe  Fe13  1  0.50184743  0.49854612  0.50333878  1
  Fe  Fe14  1  0.37729090  0.87273752  0.87395779  1
  Fe  Fe15  1  0.25068249  -0.00222867  0.74919444  1
  Fe  Fe16  1  0.75034674  0.00083396  0.25153768  1
  Fe  Fe17  1  0.49726051  0.25086712  0.50216666  1
  Fe  Fe18  1  0.87572944  0.87457929  0.37339668  1
  Fe  Fe19  1  0.12713197  0.12056078  0.12456878  1
  Fe  Fe20  1  0.87535417  0.37690804  0.62667970  1
  Fe  Fe21  1  0.62520512  0.62257549  0.87360727  1
  Fe  Fe22  1  0.75140261  0.25448846  0.75425577  1
  Fe  Fe23  1  0.62531756  0.37509994  0.12639040  1
  Fe  Fe24  1  0.25118120  -0.00124857  0.50041859  1
  Fe  Fe25  1  0.75101862  -0.00032902  -0.00126915  1
  Fe  Fe26  1  0.87582942  0.37590007  0.12454611  1
  Fe  Fe27  1  0.37349109  0.62756555  0.62260801  1
  Fe  Fe28  1  0.87506373  0.62470507  0.12545581  1
  Fe  Fe29  1  0.37563479  0.62647320  0.12522360  1
  Fe  Fe30  1  0.49580963  0.00281979  0.25048814  1
  Fe  Fe31  1  0.62370660  0.12253922  0.37781846  1
  Fe  Fe32  1  0.87632517  0.87544285  0.87406154  1
  Fe  Fe33  1  -0.00065615  0.50247501  0.25114120  1
  Fe  Fe34  1  0.75211020  0.49974844  0.25285000  1
  Fe  Fe35  1  0.24718796  0.74897965  0.74883052  1
  Fe  Fe36  1  0.37695252  0.62495425  0.87291903  1
  Fe  Fe37  1  0.24713444  0.50098364  -0.00124822  1
  Fe  Fe38  1  -0.00056014  0.24818436  0.50007769  1
  Fe  Fe39  1  0.00083030  0.24913431  0.25032672  1
  Fe  Fe40  1  0.12312019  0.37508661  0.62736612  1
  Fe  Fe41  1  -0.00099493  -0.00334864  0.24624265  1
  Fe  Fe42  1  0.12523625  0.12463464  0.62617685  1
  Fe  Fe43  1  0.12486336  0.62650207  0.37543552  1
  Fe  Fe44  1  0.37287806  0.12572975  0.62367869  1
  Fe  Fe45  1  0.12421120  0.87583559  0.37435558  1
  Fe  Fe46  1  0.24784744  0.24949505  0.75038967  1
  Fe  Fe47  1  0.50187941  0.75028078  0.74626407  1
  Fe  Fe48  1  0.37431497  0.37776647  0.87178429  1
  Fe  Fe49  1  -0.00301376  -0.00004322  0.50143459  1
  Fe  Fe50  1  0.87262241  0.12276153  0.62707028  1
  Fe  Fe51  1  0.12536340  0.62824016  0.12627458  1
  Fe  Fe52  1  -0.00181043  0.75237663  0.00338974  1
  Fe  Fe53  1  0.75470311  0.24867803  0.49603660  1
  Fe  Fe54  1  0.49891927  -0.00078153  0.00096556  1
  Fe  Fe55  1  0.24875768  0.49879797  0.50032462  1
  Fe  Fe56  1  -0.00177597  0.50093795  0.49878506  1
  Fe  Fe57  1  0.37807283  0.87443537  0.37841043  1
  Fe  Fe58  1  0.25184806  0.75084540  0.00002848  1
  Fe  Fe59  1  0.49780205  0.49948025  0.25208747  1
  Fe  Fe60  1  0.87628290  0.12416559  0.87477192  1
  Fe  Fe61  1  0.75037795  0.75120106  0.75021933  1
  Fe  Fe62  1  0.74892508  0.74846951  -0.00072273  1
  Fe  Fe63  1  0.12650698  0.37638042  0.12799740  1
  Fe  Fe64  1  0.75158097  0.24873256  0.25207436  1
  Fe  Fe65  1  0.75063717  0.25398090  -0.00245959  1
  Fe  Fe66  1  -0.00089098  0.75007011  0.50009620  1
  Fe  Fe67  1  0.50023415  0.25206809  0.74798763  1
  Fe  Fe68  1  0.12562011  0.37386976  0.37352909  1
  Fe  Fe69  1  0.62452062  0.12610308  0.12418432  1
  Fe  Fe70  1  0.12325617  0.87471384  0.87626347  1
  Fe  Fe71  1  0.25217631  -0.00271224  0.00098504  1
  Fe  Fe72  1  0.12693091  0.12363085  0.37353161  1
  Fe  Fe73  1  0.37257208  0.37529317  0.12662393  1
  Fe  Fe74  1  0.37473643  0.62561214  0.37860159  1
  Fe  Fe75  1  0.49671452  0.24826695  0.25065046  1
  Fe  Fe76  1  0.62645477  0.87777890  0.62263180  1
  Fe  Fe77  1  0.62410237  0.87444284  0.12563289  1
  Fe  Fe78  1  0.62413386  0.12572869  0.87437881  1
  Fe  Fe79  1  0.74903069  0.75374559  0.49882700  1
  Fe  Fe80  1  0.37438445  0.12525322  0.87497412  1
  Fe  Fe81  1  0.62391388  0.87537459  0.87515438  1
  Fe  Fe82  1  0.00087431  0.74607210  0.74802120  1
  Fe  Fe83  1  0.87530988  0.12499633  0.12419813  1
  Fe  Fe84  1  0.62563084  0.62413571  0.37797705  1
  Fe  Fe85  1  0.87109648  0.62312302  0.62404451  1
  Fe  Fe86  1  0.62602436  0.37421939  0.37595290  1
  Fe  Fe87  1  0.49857956  0.25161425  0.00013378  1
  Fe  Fe88  1  0.49960616  0.00024974  0.74692034  1
  Fe  Fe89  1  0.74920737  0.75015270  0.25176052  1
  Co  Co90  1  0.24866732  0.75216396  0.49855735  1
  Co  Co91  1  0.87877593  0.12273172  0.37212710  1
  Co  Co92  1  0.63008790  0.37057745  0.62113404  1
  Co  Co93  1  0.88110349  0.38084777  0.87462343  1
  Co  Co94  1  0.25010992  0.50272131  0.25103154  1
  Co  Co95  1  0.63014233  0.62645063  0.62370260  1
  Co  Co96  1  0.50265741  0.74810021  -0.00111530  1
  Co  Co97  1  0.12236220  0.37593920  0.87032901  1
  Co  Co98  1  0.12606417  0.12189047  0.87526732  1
  Co  Co99  1  -0.00238243  -0.00092385  0.00019553  1
  Co  Co100  1  0.25436556  -0.00232604  0.25024994  1
  Co  Co101  1  0.00359740  0.50572450  0.74776286  1
  Co  Co102  1  0.87459779  0.62786348  0.37624371  1
  Co  Co103  1  0.37121273  0.37690505  0.62730668  1
  Co  Co104  1  0.74848925  0.49871566  0.00036228  1
  Co  Co105  1  0.00471758  0.49942363  0.00301671  1
  Co  Co106  1  0.75342210  -0.00141671  0.49794010  1
  Co  Co107  1  0.74965367  -0.00146511  0.75153578  1
  Co  Co108  1  0.24968175  0.24714442  0.24877180  1
  Co  Co109  1  0.62154819  0.37621235  0.87637266  1
  Co  Co110  1  0.74727235  0.49595187  0.75058653  1
  Co  Co111  1  -0.00122196  0.24719856  0.75093990  1
  Co  Co112  1  0.12619135  0.87578251  0.12419946  1
  Co  Co113  1  0.50321486  0.74973210  0.50188711  1
  Co  Co114  1  0.12566492  0.62650050  0.61912120  1
  Co  Co115  1  0.75013728  0.49842525  0.49774060  1
  Co  Co116  1  0.37403934  0.87150600  0.62426726  1
  Co  Co117  1  0.37341344  0.12648009  0.12264855  1
  Co  Co118  1  0.12205710  0.62832183  0.87957758  1
  Co  Co119  1  0.24690793  0.25120327  0.50250705  1
  Co  Co120  1  0.37148282  0.12776262  0.37814821  1
  Co  Co121  1  0.37856944  0.87153690  0.12512414  1
  Co  Co122  1  0.87729891  0.37461263  0.37391045  1
  Co  Co123  1  0.62260923  0.87851849  0.37475906  1
  Co  Co124  1  0.87617135  0.87462218  0.62612245  1
  Co  Co125  1  0.00036823  0.75098263  0.24908328  1
  Co  Co126  1  0.87079167  0.87448665  0.12590034  1
  Co  Co127  1  0.49754812  0.00118875  0.50268794  1
