# generated using pymatgen
data_Fe45Co19
_symmetry_space_group_name_H-M   'P 1'
_cell_length_a   11.41417105
_cell_length_b   11.41468757
_cell_length_c   11.41643919
_cell_angle_alpha   90.00781242
_cell_angle_beta   90.00248202
_cell_angle_gamma   90.00017821
_symmetry_Int_Tables_number   1
_chemical_formula_structural   Fe45Co19
_chemical_formula_sum   'Fe90 Co38'
_cell_volume   1487.43867132
_cell_formula_units_Z   2
loop_
 _symmetry_equiv_pos_site_id
 _symmetry_equiv_pos_as_xyz
  1  'x, y, z'
loop_
 _atom_site_type_symbol
 _atom_site_label
 _atom_site_symmetry_multiplicity
 _atom_site_fract_x
 _atom_site_fract_y
 _atom_site_fract_z
 _atom_site_occupancy
  Fe  Fe0  1  0.87666855  0.37552322  0.12568760  1
  Fe  Fe1  1  0.75093817  0.75171221  0.24993546  1
  Fe  Fe2  1  0.37324896  0.12360771  0.62716339  1
  Fe  Fe3  1  0.37550550  0.37469034  0.12689386  1
  Fe  Fe4  1  0.87366806  0.12622452  0.37809547  1
  Fe  Fe5  1  0.74991785  0.50020162  0.00067892  1
  Fe  Fe6  1  0.12395137  0.12299933  0.12449446  1
  Fe  Fe7  1  0.75124126  0.75429211  0.50297045  1
  Fe  Fe8  1  0.12739085  0.12501541  0.87767757  1
  Fe  Fe9  1  0.25002699  0.24929140  0.75082838  1
  Fe  Fe10  1  0.87215269  0.12427547  0.87262094  1
  Fe  Fe11  1  0.74834867  0.50004111  0.74809585  1
  Fe  Fe12  1  0.49995428  0.50290447  0.25151905  1
  Fe  Fe13  1  0.87683048  0.37419615  0.62714058  1
  Fe  Fe14  1  0.50260409  0.24659066  0.25210108  1
  Fe  Fe15  1  0.37492094  0.37623525  0.37369628  1
  Fe  Fe16  1  0.37042744  0.62610798  0.37745427  1
  Fe  Fe17  1  0.75374220  -0.00470620  -0.00012886  1
  Fe  Fe18  1  0.37215455  0.62684991  0.12224485  1
  Fe  Fe19  1  0.75008355  0.25114745  -0.00034044  1
  Fe  Fe20  1  0.25166128  -0.00272577  0.50067176  1
  Fe  Fe21  1  0.75021507  -0.00215395  0.74481964  1
  Fe  Fe22  1  -0.00171749  0.00076572  0.50081328  1
  Fe  Fe23  1  0.74960349  -0.00087104  0.25048007  1
  Fe  Fe24  1  0.37450685  0.87713650  0.62908311  1
  Fe  Fe25  1  0.62506528  0.62621035  0.87554077  1
  Fe  Fe26  1  0.12690016  0.12403822  0.37631237  1
  Fe  Fe27  1  0.13119760  0.62581317  0.62300649  1
  Fe  Fe28  1  0.12578343  0.12573734  0.62318316  1
  Fe  Fe29  1  0.49573963  0.74610789  0.74982903  1
  Fe  Fe30  1  0.49710885  0.75274138  -0.00210785  1
  Fe  Fe31  1  0.87597909  0.37472216  0.87225374  1
  Fe  Fe32  1  0.75090449  0.75196927  0.74670566  1
  Fe  Fe33  1  0.62461497  0.37572867  0.87400148  1
  Fe  Fe34  1  0.74899654  0.49915616  0.50001594  1
  Fe  Fe35  1  0.25203874  0.25152252  0.00084122  1
  Fe  Fe36  1  0.12917643  0.62596901  0.37865217  1
  Fe  Fe37  1  0.49982303  0.75020321  0.25187391  1
  Fe  Fe38  1  0.62178568  0.12384515  0.12037113  1
  Fe  Fe39  1  0.87455984  0.62690617  0.37754893  1
  Fe  Fe40  1  0.25172422  -0.00303904  0.00408404  1
  Fe  Fe41  1  0.37270030  0.87659855  0.87185536  1
  Fe  Fe42  1  0.87558951  0.37439069  0.37496696  1
  Fe  Fe43  1  0.49534939  0.75269941  0.50082394  1
  Fe  Fe44  1  0.87852764  0.87327689  0.37473595  1
  Fe  Fe45  1  0.00017791  0.24717621  0.75028009  1
  Fe  Fe46  1  0.37530125  0.37726071  0.87238333  1
  Fe  Fe47  1  0.87596068  0.12248553  0.12510162  1
  Fe  Fe48  1  0.75466534  0.75298877  -0.00015325  1
  Fe  Fe49  1  0.62393164  0.62707201  0.62385823  1
  Fe  Fe50  1  0.24820357  0.75304180  0.24896242  1
  Fe  Fe51  1  0.74909929  0.50079365  0.25065495  1
  Fe  Fe52  1  0.49936102  0.50071140  -0.00092192  1
  Fe  Fe53  1  0.87376764  0.62491801  0.87307264  1
  Fe  Fe54  1  0.12441006  0.87445873  0.62625555  1
  Fe  Fe55  1  0.49922286  0.24730165  0.49753955  1
  Fe  Fe56  1  0.11628320  0.87570885  0.12395437  1
  Fe  Fe57  1  0.12344465  0.87480097  0.37549704  1
  Fe  Fe58  1  0.25085230  0.25124740  0.49950126  1
  Fe  Fe59  1  0.62342880  0.37534357  0.12575131  1
  Fe  Fe60  1  0.74687135  0.24869041  0.25100848  1
  Fe  Fe61  1  0.00204171  0.50039826  -0.00320639  1
  Fe  Fe62  1  0.37432695  0.11893024  0.37134508  1
  Fe  Fe63  1  0.00152636  0.50351812  0.25085882  1
  Fe  Fe64  1  0.62203639  0.37481080  0.62510021  1
  Fe  Fe65  1  0.12526931  0.37558429  0.37413777  1
  Fe  Fe66  1  0.62185457  0.87911690  0.37873564  1
  Fe  Fe67  1  0.62590904  0.62686604  0.37701723  1
  Fe  Fe68  1  0.37483176  0.12235805  0.87662247  1
  Fe  Fe69  1  0.12453647  0.87387587  0.87458669  1
  Fe  Fe70  1  0.62476516  0.87490951  0.87231518  1
  Fe  Fe71  1  0.49965480  0.50093675  0.49958083  1
  Fe  Fe72  1  0.62496482  0.12266420  0.87701760  1
  Fe  Fe73  1  0.50227016  0.24687311  0.75155262  1
  Fe  Fe74  1  0.00080864  0.74612508  0.74915870  1
  Fe  Fe75  1  0.13136249  0.62625370  0.87689041  1
  Fe  Fe76  1  0.62390368  0.87421966  0.12417592  1
  Fe  Fe77  1  0.37615493  0.37640088  0.62697098  1
  Fe  Fe78  1  -0.00093539  0.24843846  -0.00096032  1
  Fe  Fe79  1  0.87622045  0.62723242  0.12481109  1
  Fe  Fe80  1  0.12676613  0.62626279  0.12135806  1
  Fe  Fe81  1  0.00130405  0.00262827  0.75057815  1
  Fe  Fe82  1  0.25012577  0.24810537  0.24988248  1
  Fe  Fe83  1  0.00079224  0.50144611  0.50218593  1
  Fe  Fe84  1  0.12470207  0.37486394  0.12551124  1
  Fe  Fe85  1  0.62485090  0.62735501  0.12404473  1
  Fe  Fe86  1  0.62482405  0.12139618  0.62155126  1
  Fe  Fe87  1  0.74876668  0.25053039  0.50055127  1
  Fe  Fe88  1  0.12500382  0.37483742  0.62796932  1
  Fe  Fe89  1  0.00052324  0.24782905  0.25146445  1
  Co  Co90  1  0.87676082  0.87456362  0.86976923  1
  Co  Co91  1  0.25249136  0.74873047  0.74897408  1
  Co  Co92  1  -0.00250137  0.74898855  -0.00371758  1
  Co  Co93  1  0.50406873  0.00075239  0.24742038  1
  Co  Co94  1  0.62039989  0.87455807  0.62454651  1
  Co  Co95  1  0.37108465  0.62436105  0.87921477  1
  Co  Co96  1  0.00139871  0.74780424  0.50198995  1
  Co  Co97  1  0.37188060  0.62302614  0.62145077  1
  Co  Co98  1  0.25062647  0.50110042  0.75040182  1
  Co  Co99  1  0.37731184  0.12493631  0.12538591  1
  Co  Co100  1  0.24717002  0.00129047  0.75010492  1
  Co  Co101  1  0.62534622  0.12005370  0.37983222  1
  Co  Co102  1  0.50126387  0.00166606  0.75059429  1
  Co  Co103  1  0.37564854  0.87860767  0.37057879  1
  Co  Co104  1  -0.00275426  0.00082164  -0.00412669  1
  Co  Co105  1  0.37804169  0.87473845  0.12973468  1
  Co  Co106  1  0.49925910  0.25174747  -0.00285141  1
  Co  Co107  1  0.87570455  0.12643759  0.62427059  1
  Co  Co108  1  0.24667343  -0.00277367  0.24589886  1
  Co  Co109  1  0.00220012  0.50416173  0.74972696  1
  Co  Co110  1  0.25279503  0.75655774  0.50064465  1
  Co  Co111  1  0.49989109  0.50458776  0.75003545  1
  Co  Co112  1  0.62401598  0.37542687  0.37471062  1
  Co  Co113  1  0.25001417  0.49537645  0.50090754  1
  Co  Co114  1  0.24964455  0.49540699  -0.00055631  1
  Co  Co115  1  0.00204718  0.74589256  0.25143761  1
  Co  Co116  1  0.74680179  0.24911930  0.74881908  1
  Co  Co117  1  -0.00095762  0.00321408  0.25380493  1
  Co  Co118  1  0.25109470  0.75659668  0.00186766  1
  Co  Co119  1  0.12411374  0.37276293  0.87253087  1
  Co  Co120  1  0.49452645  -0.00047181  0.50256938  1
  Co  Co121  1  0.00179070  0.25079099  0.50009693  1
  Co  Co122  1  0.75462711  -0.00420357  0.50302445  1
  Co  Co123  1  0.88073056  0.87365050  0.62717509  1
  Co  Co124  1  0.24994847  0.50139166  0.24923021  1
  Co  Co125  1  0.87272809  0.62541210  0.62442477  1
  Co  Co126  1  0.49777429  -0.00455568  -0.00124772  1
  Co  Co127  1  0.88058541  0.87475679  0.12758116  1
