# generated using pymatgen
data_Fe45Co19
_symmetry_space_group_name_H-M   'P 1'
_cell_length_a   11.41573354
_cell_length_b   11.41616433
_cell_length_c   11.41550273
_cell_angle_alpha   90.00579358
_cell_angle_beta   89.99938416
_cell_angle_gamma   89.99896723
_symmetry_Int_Tables_number   1
_chemical_formula_structural   Fe45Co19
_chemical_formula_sum   'Fe90 Co38'
_cell_volume   1487.71271451
_cell_formula_units_Z   2
loop_
 _symmetry_equiv_pos_site_id
 _symmetry_equiv_pos_as_xyz
  1  'x, y, z'
loop_
 _atom_site_type_symbol
 _atom_site_label
 _atom_site_symmetry_multiplicity
 _atom_site_fract_x
 _atom_site_fract_y
 _atom_site_fract_z
 _atom_site_occupancy
  Fe  Fe0  1  0.49937842  0.74836401  -0.00165894  1
  Fe  Fe1  1  0.74848934  -0.00005184  0.74794544  1
  Fe  Fe2  1  0.62453953  0.37398760  0.37702916  1
  Fe  Fe3  1  -0.00181948  0.49993989  0.75062971  1
  Fe  Fe4  1  0.25074952  0.75009958  0.25040843  1
  Fe  Fe5  1  0.37475847  0.87266795  0.62632834  1
  Fe  Fe6  1  0.37352611  0.87689043  0.37416402  1
  Fe  Fe7  1  0.24673391  0.00024171  0.00345382  1
  Fe  Fe8  1  0.24857290  -0.00106652  0.74757575  1
  Fe  Fe9  1  0.87358091  0.87950847  0.37493732  1
  Fe  Fe10  1  0.12309492  0.62970664  0.62558221  1
  Fe  Fe11  1  0.00135896  -0.00034121  0.50044000  1
  Fe  Fe12  1  0.62726115  0.62529432  0.12465775  1
  Fe  Fe13  1  0.62651927  0.37627267  0.87405651  1
  Fe  Fe14  1  -0.00408315  0.74872500  -0.00424592  1
  Fe  Fe15  1  0.62576495  0.87492333  0.87654040  1
  Fe  Fe16  1  0.75309533  0.50046220  0.00012456  1
  Fe  Fe17  1  0.25172704  0.74753694  -0.00381072  1
  Fe  Fe18  1  0.49754704  0.25043306  0.74820874  1
  Fe  Fe19  1  0.12636094  0.37144884  0.12436244  1
  Fe  Fe20  1  0.87469843  0.12294202  0.87429713  1
  Fe  Fe21  1  0.62519428  0.62581331  0.37663106  1
  Fe  Fe22  1  0.37596273  0.87549467  0.87420838  1
  Fe  Fe23  1  0.75282031  0.25004840  0.25417819  1
  Fe  Fe24  1  -0.00068928  0.25001662  0.74974694  1
  Fe  Fe25  1  0.12238840  0.62925553  0.12449591  1
  Fe  Fe26  1  0.50042955  0.49989616  0.00137003  1
  Fe  Fe27  1  0.49699596  0.24985749  0.00192370  1
  Fe  Fe28  1  0.00775031  0.00021632  0.24935801  1
  Fe  Fe29  1  0.49623703  0.24819637  0.24910948  1
  Fe  Fe30  1  0.12721755  0.87265125  0.37794346  1
  Fe  Fe31  1  0.36735946  0.12178582  0.37589612  1
  Fe  Fe32  1  0.49788207  0.74936070  0.49734823  1
  Fe  Fe33  1  -0.00211116  0.25047217  -0.00093065  1
  Fe  Fe34  1  0.87340066  0.12515550  0.62233027  1
  Fe  Fe35  1  -0.00032566  0.24843076  0.25487636  1
  Fe  Fe36  1  0.00169677  0.00024492  0.00062726  1
  Fe  Fe37  1  0.24968846  0.50104208  -0.00057866  1
  Fe  Fe38  1  0.87802676  0.87424691  0.12659031  1
  Fe  Fe39  1  0.62339894  0.87408241  0.12641774  1
  Fe  Fe40  1  0.87444591  0.37439831  0.62381967  1
  Fe  Fe41  1  0.12694294  0.12659603  0.62130228  1
  Fe  Fe42  1  0.12491790  0.86937155  0.62391031  1
  Fe  Fe43  1  0.50102398  0.00212603  0.24867957  1
  Fe  Fe44  1  0.49996534  0.50108467  0.50167383  1
  Fe  Fe45  1  0.62583110  0.37317121  0.12658700  1
  Fe  Fe46  1  -0.00244135  0.50041368  0.00024614  1
  Fe  Fe47  1  0.75267873  0.74974131  -0.00016646  1
  Fe  Fe48  1  0.50207370  0.50037436  0.24911753  1
  Fe  Fe49  1  0.25244359  0.25024305  0.74743907  1
  Fe  Fe50  1  0.87455961  0.37633181  0.12843225  1
  Fe  Fe51  1  0.12444095  0.37440192  0.87496257  1
  Fe  Fe52  1  0.74907133  0.00063752  0.00315130  1
  Fe  Fe53  1  0.12539479  0.37502993  0.62368817  1
  Fe  Fe54  1  0.49481373  0.25023299  0.50182620  1
  Fe  Fe55  1  0.25091713  0.50248542  0.50086850  1
  Fe  Fe56  1  0.50244126  -0.00146182  0.74845961  1
  Fe  Fe57  1  0.24770991  0.50380241  0.75105726  1
  Fe  Fe58  1  0.12657387  0.37374898  0.37696326  1
  Fe  Fe59  1  0.12566734  0.12685999  0.87553425  1
  Fe  Fe60  1  0.37515392  0.37868913  0.87304739  1
  Fe  Fe61  1  0.37451160  0.87588278  0.12535076  1
  Fe  Fe62  1  -0.00262193  0.24919493  0.49624251  1
  Fe  Fe63  1  0.37518219  0.62382347  0.12604773  1
  Fe  Fe64  1  0.87435827  0.62721240  0.62493863  1
  Fe  Fe65  1  0.62494859  0.12546249  0.87517669  1
  Fe  Fe66  1  0.00144771  0.50048215  0.24894427  1
  Fe  Fe67  1  0.62849822  0.12293260  0.37610926  1
  Fe  Fe68  1  0.74831285  0.49848103  0.50124721  1
  Fe  Fe69  1  0.75039672  0.75090960  0.25196057  1
  Fe  Fe70  1  0.50001461  0.74893441  0.25100095  1
  Fe  Fe71  1  0.12514440  0.62700023  0.37555669  1
  Fe  Fe72  1  0.87461170  0.62189480  0.37324026  1
  Fe  Fe73  1  0.37573355  0.62712242  0.62771038  1
  Fe  Fe74  1  0.00024683  -0.00074877  0.74888984  1
  Fe  Fe75  1  0.50662126  0.50341120  0.74784569  1
  Fe  Fe76  1  0.50180313  0.00250764  0.00249979  1
  Fe  Fe77  1  0.74824079  0.74799031  0.75219495  1
  Fe  Fe78  1  0.87618608  0.12326073  0.12826671  1
  Fe  Fe79  1  0.62541146  0.12823284  0.62291991  1
  Fe  Fe80  1  0.62518841  0.87045187  0.62188071  1
  Fe  Fe81  1  0.50104157  -0.00035733  0.50054117  1
  Fe  Fe82  1  0.37379175  0.37778181  0.37455781  1
  Fe  Fe83  1  0.75054450  0.25178237  0.74977982  1
  Fe  Fe84  1  0.75136409  0.24969698  0.00022524  1
  Fe  Fe85  1  0.12395839  0.87365730  0.87462320  1
  Fe  Fe86  1  0.87466362  0.87231632  0.62501559  1
  Fe  Fe87  1  0.37456952  0.12246779  0.87452396  1
  Fe  Fe88  1  0.00052230  0.50147058  0.50042065  1
  Fe  Fe89  1  0.24853161  0.50006565  0.24856310  1
  Co  Co90  1  0.75252883  0.75073935  0.49487556  1
  Co  Co91  1  0.74741101  -0.00228213  0.24616010  1
  Co  Co92  1  0.50258160  0.75005504  0.75234866  1
  Co  Co93  1  0.62690005  0.62431934  0.87783557  1
  Co  Co94  1  -0.00145553  0.75096212  0.25476902  1
  Co  Co95  1  0.62620173  0.62903761  0.62146025  1
  Co  Co96  1  0.87344881  0.87807500  0.87400039  1
  Co  Co97  1  0.37548984  0.38095794  0.62707794  1
  Co  Co98  1  0.62600494  0.12803910  0.12684767  1
  Co  Co99  1  0.74732257  0.49987302  0.25082775  1
  Co  Co100  1  0.87561826  0.62571052  0.12835601  1
  Co  Co101  1  0.12582159  0.13029518  0.12442550  1
  Co  Co102  1  0.62524131  0.37157402  0.62314250  1
  Co  Co103  1  0.75390402  0.25093480  0.49610952  1
  Co  Co104  1  0.37545466  0.62292696  0.37275415  1
  Co  Co105  1  0.87622331  0.38077309  0.37506791  1
  Co  Co106  1  0.87383643  0.11723117  0.37449386  1
  Co  Co107  1  0.37102581  0.12258633  0.12561659  1
  Co  Co108  1  0.24392810  -0.00264610  0.24610514  1
  Co  Co109  1  0.24955103  0.74902350  0.75330113  1
  Co  Co110  1  -0.00109856  0.75139465  0.75270709  1
  Co  Co111  1  0.74868699  0.50005726  0.74685070  1
  Co  Co112  1  0.12058600  0.62438207  0.87542853  1
  Co  Co113  1  0.12997911  0.12662093  0.37820570  1
  Co  Co114  1  0.25418895  0.25357708  0.50368581  1
  Co  Co115  1  0.37515575  0.37768221  0.12649550  1
  Co  Co116  1  0.12327434  0.86739653  0.12219014  1
  Co  Co117  1  0.62381814  0.87607707  0.37486728  1
  Co  Co118  1  0.37848813  0.62327464  0.87330824  1
  Co  Co119  1  0.87502297  0.37552644  0.87320763  1
  Co  Co120  1  0.74794809  -0.00158040  0.50342672  1
  Co  Co121  1  0.87417975  0.62312882  0.87229140  1
  Co  Co122  1  0.25180476  0.25159278  0.24934500  1
  Co  Co123  1  0.24861641  -0.00342915  0.50343064  1
  Co  Co124  1  0.25286394  0.74757205  0.49919501  1
  Co  Co125  1  0.25418441  0.25195371  -0.00131345  1
  Co  Co126  1  -0.00274934  0.74958956  0.49698433  1
  Co  Co127  1  0.37498467  0.12114622  0.62467646  1
