# generated using pymatgen
data_Fe45Co19
_symmetry_space_group_name_H-M   'P 1'
_cell_length_a   11.41368885
_cell_length_b   11.41434642
_cell_length_c   11.41518946
_cell_angle_alpha   89.99897406
_cell_angle_beta   90.00889795
_cell_angle_gamma   90.00316380
_symmetry_Int_Tables_number   1
_chemical_formula_structural   Fe45Co19
_chemical_formula_sum   'Fe90 Co38'
_cell_volume   1487.16856285
_cell_formula_units_Z   2
loop_
 _symmetry_equiv_pos_site_id
 _symmetry_equiv_pos_as_xyz
  1  'x, y, z'
loop_
 _atom_site_type_symbol
 _atom_site_label
 _atom_site_symmetry_multiplicity
 _atom_site_fract_x
 _atom_site_fract_y
 _atom_site_fract_z
 _atom_site_occupancy
  Fe  Fe0  1  0.12264175  0.87395283  0.87524612  1
  Fe  Fe1  1  0.00451943  -0.00545132  0.25185014  1
  Fe  Fe2  1  0.75117903  0.75328016  0.24967403  1
  Fe  Fe3  1  -0.00036396  0.74958398  0.00122718  1
  Fe  Fe4  1  0.87459731  0.12830070  0.87420095  1
  Fe  Fe5  1  -0.00179696  0.00079415  0.74904141  1
  Fe  Fe6  1  0.62620384  0.87554737  0.37581917  1
  Fe  Fe7  1  0.25013977  0.74805179  -0.00020721  1
  Fe  Fe8  1  0.87672244  0.62415844  0.87240565  1
  Fe  Fe9  1  0.24664924  0.50026327  -0.00289920  1
  Fe  Fe10  1  0.62342707  0.12796821  0.37429489  1
  Fe  Fe11  1  0.62464135  0.87528187  0.62371649  1
  Fe  Fe12  1  0.37330185  0.37676180  0.12647314  1
  Fe  Fe13  1  0.24902541  0.24813956  0.50144218  1
  Fe  Fe14  1  0.24775571  0.25001504  0.00348941  1
  Fe  Fe15  1  0.75045620  0.74925213  -0.00104434  1
  Fe  Fe16  1  0.62481907  0.12515678  0.12535259  1
  Fe  Fe17  1  0.24819943  0.25140232  0.74618008  1
  Fe  Fe18  1  0.24938823  0.74774653  0.50214395  1
  Fe  Fe19  1  0.37557974  0.62414765  0.62679568  1
  Fe  Fe20  1  0.00284053  0.49531988  0.75299773  1
  Fe  Fe21  1  0.50286868  0.49897095  0.25336975  1
  Fe  Fe22  1  0.75174991  0.74828346  0.50019281  1
  Fe  Fe23  1  0.75396012  0.25235966  0.49826744  1
  Fe  Fe24  1  0.37453529  0.12597754  0.37327392  1
  Fe  Fe25  1  0.75107923  0.25078603  0.25062519  1
  Fe  Fe26  1  0.00262618  0.25085314  0.24747236  1
  Fe  Fe27  1  -0.00004987  0.24818305  0.50426256  1
  Fe  Fe28  1  0.37765921  0.87439034  0.87647166  1
  Fe  Fe29  1  0.62209749  0.87418083  0.87733311  1
  Fe  Fe30  1  0.74989593  0.74871470  0.75018218  1
  Fe  Fe31  1  0.75094351  0.00247426  0.49889611  1
  Fe  Fe32  1  0.37582918  0.62462494  0.87375991  1
  Fe  Fe33  1  0.00117963  0.25051854  0.00155336  1
  Fe  Fe34  1  0.24903108  0.75089146  0.74976075  1
  Fe  Fe35  1  0.00069576  0.75472360  0.25035955  1
  Fe  Fe36  1  0.87387775  0.87694154  0.62328197  1
  Fe  Fe37  1  0.75085500  0.50138517  -0.00193751  1
  Fe  Fe38  1  0.50051631  0.50068260  -0.00067491  1
  Fe  Fe39  1  0.49982808  0.00061311  0.25002738  1
  Fe  Fe40  1  0.62646102  0.37382581  0.12490598  1
  Fe  Fe41  1  -0.00106770  0.25218136  0.74649918  1
  Fe  Fe42  1  0.37770104  0.37271191  0.37492362  1
  Fe  Fe43  1  0.62493343  0.87701370  0.12266613  1
  Fe  Fe44  1  0.12618886  0.62387974  0.12643247  1
  Fe  Fe45  1  0.62530408  0.37647603  0.62004845  1
  Fe  Fe46  1  0.00079366  0.49897682  0.25057221  1
  Fe  Fe47  1  0.25146999  0.49996322  0.49915072  1
  Fe  Fe48  1  0.62496932  0.12715525  0.87450087  1
  Fe  Fe49  1  0.49792271  0.00108582  0.74868343  1
  Fe  Fe50  1  0.87863641  0.12287118  0.37443530  1
  Fe  Fe51  1  0.12451253  0.12677088  0.87293777  1
  Fe  Fe52  1  0.49993928  0.75130995  0.24972689  1
  Fe  Fe53  1  0.37506722  0.62577895  0.37350866  1
  Fe  Fe54  1  0.37485722  0.12737356  0.87224807  1
  Fe  Fe55  1  0.12418644  0.62244244  0.62755533  1
  Fe  Fe56  1  0.87466310  0.37610520  0.12421635  1
  Fe  Fe57  1  0.12398482  0.37366144  0.37626598  1
  Fe  Fe58  1  0.24881953  0.75238790  0.24954513  1
  Fe  Fe59  1  0.62526209  0.12727990  0.62540658  1
  Fe  Fe60  1  0.87580447  0.87390469  0.87547876  1
  Fe  Fe61  1  0.87314291  0.62511361  0.37260266  1
  Fe  Fe62  1  -0.00120835  0.75100753  0.50025715  1
  Fe  Fe63  1  0.75132543  0.00192879  -0.00046110  1
  Fe  Fe64  1  0.50165301  0.49813002  0.75068326  1
  Fe  Fe65  1  0.75115029  0.25384862  0.74850275  1
  Fe  Fe66  1  0.37245675  0.87609686  0.37695170  1
  Fe  Fe67  1  0.12519408  0.62580845  0.37424409  1
  Fe  Fe68  1  0.12532554  0.87757147  0.62472555  1
  Fe  Fe69  1  0.24715152  0.24996743  0.24910363  1
  Fe  Fe70  1  0.87467734  0.62412077  0.12665401  1
  Fe  Fe71  1  0.62677365  0.62087902  0.62300187  1
  Fe  Fe72  1  0.00295125  0.49848828  -0.00248118  1
  Fe  Fe73  1  0.50006004  0.74874924  0.49949990  1
  Fe  Fe74  1  0.24935551  0.00371601  0.50152821  1
  Fe  Fe75  1  0.37382973  0.62240130  0.12667592  1
  Fe  Fe76  1  0.37301750  0.37388193  0.87426168  1
  Fe  Fe77  1  0.37630161  0.37473953  0.62448795  1
  Fe  Fe78  1  0.49896276  0.24899780  0.00087223  1
  Fe  Fe79  1  -0.00176342  0.49958887  0.49841501  1
  Fe  Fe80  1  0.87773323  0.12085740  0.12616231  1
  Fe  Fe81  1  0.62575622  0.62492960  0.12599408  1
  Fe  Fe82  1  0.37414450  0.87763654  0.12329664  1
  Fe  Fe83  1  0.49832151  0.00289587  0.50219707  1
  Fe  Fe84  1  0.87406908  0.62017534  0.62775763  1
  Fe  Fe85  1  0.62687162  0.37334623  0.87798148  1
  Fe  Fe86  1  0.24759048  0.00152945  -0.00185982  1
  Fe  Fe87  1  0.75012325  -0.00040151  0.75059937  1
  Fe  Fe88  1  0.50089787  0.75016803  0.74894252  1
  Fe  Fe89  1  0.37341901  0.12361046  0.12621401  1
  Co  Co90  1  0.49966671  0.24992344  0.24714519  1
  Co  Co91  1  -0.00037680  0.00098163  -0.00305275  1
  Co  Co92  1  0.87914178  0.37275885  0.37354210  1
  Co  Co93  1  0.62237154  0.37165737  0.37743297  1
  Co  Co94  1  0.24902669  0.49925265  0.75035999  1
  Co  Co95  1  0.49835427  0.50170794  0.49722179  1
  Co  Co96  1  0.12589218  0.87516528  0.12127188  1
  Co  Co97  1  0.12384886  0.62749657  0.87268247  1
  Co  Co98  1  -0.00082323  0.75176019  0.74668768  1
  Co  Co99  1  0.75149073  0.24699486  0.00291077  1
  Co  Co100  1  0.50206928  0.25218924  0.74985831  1
  Co  Co101  1  0.74807791  0.49787778  0.75314175  1
  Co  Co102  1  0.62756141  0.62669174  0.37475524  1
  Co  Co103  1  0.75250379  0.49780736  0.49383661  1
  Co  Co104  1  0.87466016  0.87740761  0.12387681  1
  Co  Co105  1  0.87328325  0.87694902  0.37709522  1
  Co  Co106  1  0.25113956  -0.00223775  0.75205840  1
  Co  Co107  1  0.62330982  0.62638728  0.87516849  1
  Co  Co108  1  0.87449760  0.37871468  0.62523451  1
  Co  Co109  1  0.12362968  0.12211850  0.12517546  1
  Co  Co110  1  0.37435151  0.12637054  0.62827956  1
  Co  Co111  1  0.49770721  0.24718751  0.50173783  1
  Co  Co112  1  0.12816096  0.87430041  0.37958697  1
  Co  Co113  1  0.12691302  0.37053842  0.87491711  1
  Co  Co114  1  0.24715697  -0.00033746  0.25024155  1
  Co  Co115  1  0.49871615  0.74729859  0.00301348  1
  Co  Co116  1  0.87439167  0.37333942  0.87666375  1
  Co  Co117  1  0.12618484  0.37753100  0.12560023  1
  Co  Co118  1  0.12519933  0.37676636  0.62291292  1
  Co  Co119  1  0.74914355  0.00132206  0.25037529  1
  Co  Co120  1  0.24876804  0.49802475  0.25480457  1
  Co  Co121  1  0.49955523  0.00434306  -0.00023886  1
  Co  Co122  1  0.37438253  0.87474663  0.62336490  1
  Co  Co123  1  0.74916576  0.49591608  0.25278494  1
  Co  Co124  1  0.12305734  0.12597895  0.37488028  1
  Co  Co125  1  0.87293352  0.12433354  0.62502895  1
  Co  Co126  1  0.00065621  -0.00007863  0.50094871  1
  Co  Co127  1  0.12543253  0.12264780  0.62749880  1
