# generated using pymatgen
data_Fe45Co19
_symmetry_space_group_name_H-M   'P 1'
_cell_length_a   11.41566050
_cell_length_b   11.41527593
_cell_length_c   11.41510046
_cell_angle_alpha   90.00138125
_cell_angle_beta   89.99391747
_cell_angle_gamma   89.99513130
_symmetry_Int_Tables_number   1
_chemical_formula_structural   Fe45Co19
_chemical_formula_sum   'Fe90 Co38'
_cell_volume   1487.53499726
_cell_formula_units_Z   2
loop_
 _symmetry_equiv_pos_site_id
 _symmetry_equiv_pos_as_xyz
  1  'x, y, z'
loop_
 _atom_site_type_symbol
 _atom_site_label
 _atom_site_symmetry_multiplicity
 _atom_site_fract_x
 _atom_site_fract_y
 _atom_site_fract_z
 _atom_site_occupancy
  Fe  Fe0  1  0.62667019  0.37738662  0.62437164  1
  Fe  Fe1  1  0.50243894  -0.00250051  0.24730324  1
  Fe  Fe2  1  0.87536124  0.62311052  0.12468903  1
  Fe  Fe3  1  0.24749372  0.75003388  0.00044770  1
  Fe  Fe4  1  0.62554653  0.62501897  0.87511612  1
  Fe  Fe5  1  0.37512573  0.87692944  0.12142736  1
  Fe  Fe6  1  0.50045520  0.50011314  0.75052103  1
  Fe  Fe7  1  0.25141460  0.49858047  0.25176522  1
  Fe  Fe8  1  0.75133309  0.50452457  0.74920973  1
  Fe  Fe9  1  0.75204075  0.74670428  0.25211703  1
  Fe  Fe10  1  -0.00233642  0.24839458  0.50027235  1
  Fe  Fe11  1  0.75353818  -0.00007814  0.00562336  1
  Fe  Fe12  1  0.50080115  0.49477000  0.25078042  1
  Fe  Fe13  1  -0.00060262  0.25193045  0.25174633  1
  Fe  Fe14  1  0.50108521  0.25482000  0.24749287  1
  Fe  Fe15  1  0.37428712  0.37638303  0.62345615  1
  Fe  Fe16  1  0.50166541  -0.00106230  0.50066983  1
  Fe  Fe17  1  0.74909928  0.25063629  0.25031818  1
  Fe  Fe18  1  0.00079606  0.49986922  0.00026201  1
  Fe  Fe19  1  0.12435456  0.87482399  0.62545110  1
  Fe  Fe20  1  0.25106362  0.24843187  0.24821333  1
  Fe  Fe21  1  0.50292492  -0.00224011  0.75179987  1
  Fe  Fe22  1  0.37750126  0.12481315  0.37402989  1
  Fe  Fe23  1  -0.00130087  0.49849486  0.25094030  1
  Fe  Fe24  1  0.12080837  0.87725220  0.12195225  1
  Fe  Fe25  1  0.62626554  0.12489966  0.87631939  1
  Fe  Fe26  1  0.37401549  0.62223778  0.12405742  1
  Fe  Fe27  1  0.49791078  0.75189741  0.24821099  1
  Fe  Fe28  1  0.00292902  0.50166328  0.49933459  1
  Fe  Fe29  1  0.50182228  0.49764173  0.00182887  1
  Fe  Fe30  1  0.25212301  0.24737774  -0.00093305  1
  Fe  Fe31  1  0.38089532  0.12369031  0.11964441  1
  Fe  Fe32  1  0.37451561  0.62450161  0.87621077  1
  Fe  Fe33  1  0.37471093  0.87486181  0.62524523  1
  Fe  Fe34  1  0.12304222  0.12405474  0.37474006  1
  Fe  Fe35  1  0.87217396  0.12244846  0.62969432  1
  Fe  Fe36  1  0.00104138  0.74865081  0.25066324  1
  Fe  Fe37  1  0.75593172  0.74840524  -0.00165010  1
  Fe  Fe38  1  0.12516951  0.62390094  0.12508405  1
  Fe  Fe39  1  0.62888336  0.86965031  0.62587641  1
  Fe  Fe40  1  -0.00636546  0.75237114  0.74936293  1
  Fe  Fe41  1  -0.00371974  0.24744535  -0.00227704  1
  Fe  Fe42  1  0.50074374  0.74995472  0.49829910  1
  Fe  Fe43  1  0.87239488  0.37551721  0.37671279  1
  Fe  Fe44  1  0.50038841  0.75076017  0.75176218  1
  Fe  Fe45  1  0.50129765  0.25062675  0.49997142  1
  Fe  Fe46  1  0.62517403  0.12574397  0.37295663  1
  Fe  Fe47  1  0.37619201  0.12362106  0.62820278  1
  Fe  Fe48  1  0.24817006  0.49974665  0.74883315  1
  Fe  Fe49  1  0.12506984  0.37365709  0.87493168  1
  Fe  Fe50  1  0.87447090  0.87240463  0.37771543  1
  Fe  Fe51  1  -0.00225012  0.24862572  0.75127597  1
  Fe  Fe52  1  0.87375338  0.37748490  0.62412138  1
  Fe  Fe53  1  0.74708185  0.50742815  0.49628415  1
  Fe  Fe54  1  0.37362437  0.37654032  0.87703737  1
  Fe  Fe55  1  0.62700444  0.62345899  0.12610766  1
  Fe  Fe56  1  0.37599298  0.62555015  0.62458938  1
  Fe  Fe57  1  -0.00369613  0.00097874  0.24882338  1
  Fe  Fe58  1  0.37526763  0.87684286  0.87770580  1
  Fe  Fe59  1  0.62589000  0.87343923  0.37327747  1
  Fe  Fe60  1  0.74951836  0.24965540  -0.00039278  1
  Fe  Fe61  1  0.75115467  0.00009345  0.24749482  1
  Fe  Fe62  1  0.50133486  0.25142457  0.75230460  1
  Fe  Fe63  1  0.50149985  0.50013589  0.49642698  1
  Fe  Fe64  1  -0.00070809  0.49953565  0.74917193  1
  Fe  Fe65  1  0.12680880  0.37468832  0.12275935  1
  Fe  Fe66  1  0.25130520  0.00086118  0.24813176  1
  Fe  Fe67  1  0.75018702  0.24792728  0.50147833  1
  Fe  Fe68  1  0.63001484  0.87209085  0.87642926  1
  Fe  Fe69  1  0.25100210  0.75137089  0.25036391  1
  Fe  Fe70  1  0.11820807  0.87813421  0.87956492  1
  Fe  Fe71  1  0.87304519  0.37663900  0.87466344  1
  Fe  Fe72  1  0.25007736  0.24941457  0.50073859  1
  Fe  Fe73  1  0.25028531  0.24897962  0.75137742  1
  Fe  Fe74  1  0.25100636  0.00029854  0.49918556  1
  Fe  Fe75  1  0.25005916  0.75156141  0.75256156  1
  Fe  Fe76  1  0.24798439  0.00017919  0.75341744  1
  Fe  Fe77  1  0.12165870  0.12424439  0.12255191  1
  Fe  Fe78  1  0.87183777  0.37629027  0.12438158  1
  Fe  Fe79  1  0.24984033  0.74901648  0.49649643  1
  Fe  Fe80  1  0.62544837  0.12577031  0.62786035  1
  Fe  Fe81  1  0.74915015  0.00061181  0.49999985  1
  Fe  Fe82  1  -0.00240383  -0.00060011  0.50198923  1
  Fe  Fe83  1  0.50100449  0.75054336  0.00141678  1
  Fe  Fe84  1  0.12439347  0.12625992  0.62619038  1
  Fe  Fe85  1  0.12388543  0.62700722  0.62581859  1
  Fe  Fe86  1  0.12705239  0.37475488  0.37686932  1
  Fe  Fe87  1  0.12206803  0.62649368  0.87462430  1
  Fe  Fe88  1  0.12462406  0.87649420  0.37375079  1
  Fe  Fe89  1  0.62792576  0.37737403  0.87493769  1
  Co  Co90  1  0.37641347  0.62374728  0.37409689  1
  Co  Co91  1  0.12301755  0.37263227  0.62514815  1
  Co  Co92  1  0.12529110  0.62432304  0.37292395  1
  Co  Co93  1  0.74686698  0.74513359  0.49833030  1
  Co  Co94  1  0.75053233  0.50219574  -0.00089861  1
  Co  Co95  1  0.12330293  0.12403880  0.87769708  1
  Co  Co96  1  0.75165473  0.50245445  0.25366514  1
  Co  Co97  1  0.00319202  0.75195970  0.50010763  1
  Co  Co98  1  0.62014067  0.62679074  0.36954497  1
  Co  Co99  1  0.62870070  0.37306297  0.37594319  1
  Co  Co100  1  0.37261572  0.37374145  0.37694232  1
  Co  Co101  1  0.50237003  0.25520847  -0.00097820  1
  Co  Co102  1  0.62353370  0.12636160  0.12467586  1
  Co  Co103  1  0.50602977  -0.00412905  -0.00087668  1
  Co  Co104  1  0.87447629  0.12981317  0.12860059  1
  Co  Co105  1  0.62873163  0.87100547  0.12529944  1
  Co  Co106  1  0.87417326  0.12483291  0.37358528  1
  Co  Co107  1  0.74629750  -0.00302746  0.74854545  1
  Co  Co108  1  0.87568600  0.87996565  0.87327860  1
  Co  Co109  1  0.63054981  0.37682089  0.12492306  1
  Co  Co110  1  0.86996797  0.12185799  0.87078022  1
  Co  Co111  1  0.37594542  0.87619118  0.37467586  1
  Co  Co112  1  0.75430868  0.74553363  0.75195375  1
  Co  Co113  1  0.00163219  0.00091171  0.74798861  1
  Co  Co114  1  0.74877216  0.25361521  0.74902187  1
  Co  Co115  1  0.24899907  0.00009991  0.00023590  1
  Co  Co116  1  0.87944088  0.62681493  0.37682565  1
  Co  Co117  1  0.87649057  0.62697391  0.62102260  1
  Co  Co118  1  0.87088854  0.87387346  0.62374208  1
  Co  Co119  1  -0.00249949  0.74783393  0.00045047  1
  Co  Co120  1  0.24693197  0.50203265  -0.00247662  1
  Co  Co121  1  0.62251720  0.62626883  0.62778399  1
  Co  Co122  1  0.87685801  0.87117731  0.12649421  1
  Co  Co123  1  0.87747579  0.62243031  0.87584242  1
  Co  Co124  1  0.37848890  0.12278980  0.87605495  1
  Co  Co125  1  0.24767541  0.50184628  0.50186665  1
  Co  Co126  1  0.37220696  0.37611773  0.12205366  1
  Co  Co127  1  -0.00842509  0.00422898  0.00256854  1
