# generated using pymatgen
data_Fe45Co19
_symmetry_space_group_name_H-M   'P 1'
_cell_length_a   11.41541540
_cell_length_b   11.41595000
_cell_length_c   11.41649519
_cell_angle_alpha   89.99984392
_cell_angle_beta   90.00015907
_cell_angle_gamma   89.99328338
_symmetry_Int_Tables_number   1
_chemical_formula_structural   Fe45Co19
_chemical_formula_sum   'Fe90 Co38'
_cell_volume   1487.77265701
_cell_formula_units_Z   2
loop_
 _symmetry_equiv_pos_site_id
 _symmetry_equiv_pos_as_xyz
  1  'x, y, z'
loop_
 _atom_site_type_symbol
 _atom_site_label
 _atom_site_symmetry_multiplicity
 _atom_site_fract_x
 _atom_site_fract_y
 _atom_site_fract_z
 _atom_site_occupancy
  Fe  Fe0  1  0.87539129  0.62573026  0.37598312  1
  Fe  Fe1  1  0.50011661  0.50045507  -0.00393557  1
  Fe  Fe2  1  0.50175208  0.74868881  -0.00221914  1
  Fe  Fe3  1  0.74981795  0.50022637  0.50038119  1
  Fe  Fe4  1  0.87617874  0.12319473  0.12697105  1
  Fe  Fe5  1  0.12499999  0.37270856  0.37475227  1
  Fe  Fe6  1  0.37592055  0.37480523  0.12417721  1
  Fe  Fe7  1  0.62611387  0.62673869  0.62637390  1
  Fe  Fe8  1  0.75174646  0.50229084  0.00049769  1
  Fe  Fe9  1  0.37451730  0.62707925  0.62787134  1
  Fe  Fe10  1  0.75133300  0.75199688  0.24875506  1
  Fe  Fe11  1  0.50098828  0.00046617  -0.00216632  1
  Fe  Fe12  1  0.12314093  0.12548773  0.62451088  1
  Fe  Fe13  1  0.50089651  0.50052597  0.25034224  1
  Fe  Fe14  1  -0.00237642  0.50030842  0.25228081  1
  Fe  Fe15  1  0.25101043  0.50093696  -0.00209031  1
  Fe  Fe16  1  0.62692096  0.62571445  0.12439230  1
  Fe  Fe17  1  0.37463114  0.87475898  0.12459860  1
  Fe  Fe18  1  0.24950275  0.24996355  0.74842199  1
  Fe  Fe19  1  0.12041906  0.37438342  0.12529578  1
  Fe  Fe20  1  0.50101669  0.74996158  0.25053769  1
  Fe  Fe21  1  0.75037163  0.75299452  0.50134704  1
  Fe  Fe22  1  0.50264538  0.24999265  -0.00345222  1
  Fe  Fe23  1  0.37526369  0.37371875  0.62509192  1
  Fe  Fe24  1  0.50133959  -0.00062887  0.25006136  1
  Fe  Fe25  1  0.75124247  -0.00105047  -0.00000627  1
  Fe  Fe26  1  0.75324934  0.25212979  0.24817639  1
  Fe  Fe27  1  0.37249825  0.12481503  0.37455310  1
  Fe  Fe28  1  0.50157221  0.24918362  0.49891285  1
  Fe  Fe29  1  0.24929060  0.25032940  0.00152621  1
  Fe  Fe30  1  0.24697105  0.74870682  -0.00239527  1
  Fe  Fe31  1  0.87536626  0.87803604  0.62806234  1
  Fe  Fe32  1  0.50066063  0.24937409  0.25069630  1
  Fe  Fe33  1  -0.00106963  0.24946267  0.49795769  1
  Fe  Fe34  1  0.87443480  0.87659282  0.37418631  1
  Fe  Fe35  1  0.62971040  0.12253328  0.37538359  1
  Fe  Fe36  1  0.62652407  0.62643036  0.37423803  1
  Fe  Fe37  1  0.12559990  0.12542459  0.87400259  1
  Fe  Fe38  1  0.12415659  0.12485411  0.12906339  1
  Fe  Fe39  1  0.50176625  0.75065851  0.75366485  1
  Fe  Fe40  1  0.12144364  0.62606723  0.12453958  1
  Fe  Fe41  1  0.62618646  0.12412111  0.12479066  1
  Fe  Fe42  1  0.12228453  0.63012630  0.37880257  1
  Fe  Fe43  1  0.62487034  0.37388551  0.62426995  1
  Fe  Fe44  1  0.62487495  0.87481509  0.12424918  1
  Fe  Fe45  1  0.37674846  0.12459348  0.62525750  1
  Fe  Fe46  1  0.24828867  0.75160415  0.25113535  1
  Fe  Fe47  1  0.75420388  0.75024141  -0.00305757  1
  Fe  Fe48  1  0.24868196  0.50063956  0.25053392  1
  Fe  Fe49  1  0.24943649  -0.00139174  0.74938622  1
  Fe  Fe50  1  0.37321975  0.37481356  0.37558908  1
  Fe  Fe51  1  0.37554278  0.87422523  0.62605102  1
  Fe  Fe52  1  0.87610237  0.62379637  0.62605472  1
  Fe  Fe53  1  -0.00002929  0.00161872  0.75035435  1
  Fe  Fe54  1  0.62757634  0.37474335  0.37559719  1
  Fe  Fe55  1  0.37398625  0.12466396  0.87411253  1
  Fe  Fe56  1  0.11984379  0.87618977  0.12454271  1
  Fe  Fe57  1  -0.00053102  0.74928077  0.75233829  1
  Fe  Fe58  1  -0.00310041  0.50430743  -0.00243747  1
  Fe  Fe59  1  0.25029392  0.50062971  0.75214553  1
  Fe  Fe60  1  0.12467601  0.87330608  0.62325198  1
  Fe  Fe61  1  0.50480230  -0.00141963  0.50099331  1
  Fe  Fe62  1  0.50054249  0.74904040  0.49840675  1
  Fe  Fe63  1  0.87258813  0.37364929  0.87632350  1
  Fe  Fe64  1  0.12411096  0.37545540  0.87551315  1
  Fe  Fe65  1  0.12271272  0.62656894  0.62555175  1
  Fe  Fe66  1  0.24832802  0.00032760  0.00101378  1
  Fe  Fe67  1  0.75247177  0.49867199  0.24920175  1
  Fe  Fe68  1  0.37440417  0.62554190  0.12518454  1
  Fe  Fe69  1  0.88038125  0.87506847  0.12382337  1
  Fe  Fe70  1  0.37420658  0.87488527  0.37549782  1
  Fe  Fe71  1  0.24869716  -0.00055272  0.50021314  1
  Fe  Fe72  1  0.12413391  0.37517643  0.62405020  1
  Fe  Fe73  1  0.62628058  0.37478485  0.12290785  1
  Fe  Fe74  1  -0.00237808  0.25095555  0.74966981  1
  Fe  Fe75  1  0.49980557  0.50237453  0.49943110  1
  Fe  Fe76  1  0.00007445  -0.00123201  0.49833030  1
  Fe  Fe77  1  0.12097773  0.87565597  0.87706908  1
  Fe  Fe78  1  0.74990016  0.49802477  0.74953407  1
  Fe  Fe79  1  0.50391063  0.24926602  0.75308963  1
  Fe  Fe80  1  0.12761978  0.12615009  0.37186680  1
  Fe  Fe81  1  0.87124650  0.12364919  0.87166746  1
  Fe  Fe82  1  0.50114007  0.49936799  0.75396957  1
  Fe  Fe83  1  0.37409742  0.12484487  0.12582271  1
  Fe  Fe84  1  0.87119290  0.12278715  0.37655172  1
  Fe  Fe85  1  -0.00184711  0.24702426  0.00006558  1
  Fe  Fe86  1  0.75011572  0.75289047  0.75353632  1
  Fe  Fe87  1  0.37455262  0.87501322  0.87488526  1
  Fe  Fe88  1  0.25017391  0.50250700  0.50038029  1
  Fe  Fe89  1  0.87595857  0.37442920  0.62155474  1
  Co  Co90  1  0.62911388  0.12302385  0.87511055  1
  Co  Co91  1  0.37531731  0.62505495  0.37254690  1
  Co  Co92  1  0.87562163  0.62593954  0.12736422  1
  Co  Co93  1  -0.00047340  0.75060608  0.25058139  1
  Co  Co94  1  -0.00449193  0.24983221  0.25126897  1
  Co  Co95  1  0.24939346  -0.00298185  0.24949592  1
  Co  Co96  1  0.87647901  0.12310652  0.62349959  1
  Co  Co97  1  0.75012473  -0.00257024  0.24642284  1
  Co  Co98  1  0.74995923  0.24949990  0.50256943  1
  Co  Co99  1  0.74788652  -0.00372917  0.50480551  1
  Co  Co100  1  0.62493212  0.12558036  0.62509909  1
  Co  Co101  1  0.62636355  0.87498472  0.37405530  1
  Co  Co102  1  0.12374463  0.62339321  0.87251069  1
  Co  Co103  1  -0.00135539  0.49744976  0.74967272  1
  Co  Co104  1  0.37425667  0.62716655  0.87476851  1
  Co  Co105  1  0.87796808  0.37618636  0.12227447  1
  Co  Co106  1  0.50102924  -0.00007017  0.75058385  1
  Co  Co107  1  0.24984635  0.24917327  0.50199716  1
  Co  Co108  1  0.75112518  0.24751756  0.00274967  1
  Co  Co109  1  0.74679287  0.00008198  0.74624890  1
  Co  Co110  1  0.00074991  -0.00016888  0.25303688  1
  Co  Co111  1  0.63004613  0.37443524  0.87606352  1
  Co  Co112  1  0.62638114  0.87748614  0.87578333  1
  Co  Co113  1  0.87743757  0.87920604  0.87436333  1
  Co  Co114  1  0.25245381  0.74887370  0.50072931  1
  Co  Co115  1  -0.00508995  0.75237118  0.50252268  1
  Co  Co116  1  0.12441914  0.87218899  0.37763658  1
  Co  Co117  1  -0.00012843  0.00463041  -0.00060192  1
  Co  Co118  1  -0.00246643  0.74595153  -0.00334474  1
  Co  Co119  1  0.75019434  0.24986549  0.74564950  1
  Co  Co120  1  0.87420461  0.37548603  0.37812731  1
  Co  Co121  1  0.00044679  0.50025662  0.49969680  1
  Co  Co122  1  0.87415669  0.62345955  0.87084214  1
  Co  Co123  1  0.62368209  0.87210889  0.62677878  1
  Co  Co124  1  0.37331383  0.37291916  0.87464858  1
  Co  Co125  1  0.62751099  0.62459557  0.87492693  1
  Co  Co126  1  0.25162554  0.25210804  0.24732207  1
  Co  Co127  1  0.24699610  0.75181775  0.75177862  1
