# generated using pymatgen
data_Fe45Co19
_symmetry_space_group_name_H-M   'P 1'
_cell_length_a   11.41503849
_cell_length_b   11.41399039
_cell_length_c   11.41386598
_cell_angle_alpha   90.00780089
_cell_angle_beta   89.99548630
_cell_angle_gamma   90.00017613
_symmetry_Int_Tables_number   1
_chemical_formula_structural   Fe45Co19
_chemical_formula_sum   'Fe90 Co38'
_cell_volume   1487.12558784
_cell_formula_units_Z   2
loop_
 _symmetry_equiv_pos_site_id
 _symmetry_equiv_pos_as_xyz
  1  'x, y, z'
loop_
 _atom_site_type_symbol
 _atom_site_label
 _atom_site_symmetry_multiplicity
 _atom_site_fract_x
 _atom_site_fract_y
 _atom_site_fract_z
 _atom_site_occupancy
  Fe  Fe0  1  0.87639261  0.12482721  0.12568093  1
  Fe  Fe1  1  0.12505456  0.62830765  0.62475382  1
  Fe  Fe2  1  0.49584472  0.24554353  0.49816680  1
  Fe  Fe3  1  0.37497498  0.62529613  0.87454589  1
  Fe  Fe4  1  -0.00238367  0.75349521  0.25612428  1
  Fe  Fe5  1  0.24960612  -0.00061461  -0.00139037  1
  Fe  Fe6  1  0.50170224  0.50378195  0.50232361  1
  Fe  Fe7  1  0.62276919  0.12530157  0.62260235  1
  Fe  Fe8  1  0.74779015  0.00048393  0.74991944  1
  Fe  Fe9  1  0.75008386  0.24730875  0.75080034  1
  Fe  Fe10  1  0.12366024  0.37224360  0.12513167  1
  Fe  Fe11  1  0.50168681  -0.00007567  0.25404187  1
  Fe  Fe12  1  0.37597881  0.37670399  0.87219976  1
  Fe  Fe13  1  0.12454202  0.87268854  0.87312876  1
  Fe  Fe14  1  0.87274248  0.62489136  0.12891698  1
  Fe  Fe15  1  0.24864242  0.49986139  0.25071459  1
  Fe  Fe16  1  0.12643068  0.37406134  0.87309361  1
  Fe  Fe17  1  0.50094005  0.50119281  0.00020748  1
  Fe  Fe18  1  0.49721198  0.75074645  0.50178703  1
  Fe  Fe19  1  0.87319333  0.12216140  0.37631517  1
  Fe  Fe20  1  0.37500661  0.62636463  0.37477183  1
  Fe  Fe21  1  0.49946213  0.24730949  0.25350193  1
  Fe  Fe22  1  0.50003071  0.24830482  0.74886587  1
  Fe  Fe23  1  0.00160390  -0.00157065  0.74610240  1
  Fe  Fe24  1  0.74831386  -0.00109236  0.25038282  1
  Fe  Fe25  1  0.00048739  0.49736862  0.24933547  1
  Fe  Fe26  1  0.62334669  0.37442015  0.62348723  1
  Fe  Fe27  1  0.37763191  0.12031177  0.87129803  1
  Fe  Fe28  1  0.24691668  0.00072213  0.50701182  1
  Fe  Fe29  1  0.62458101  0.37550788  0.87388259  1
  Fe  Fe30  1  0.37241298  0.87684988  0.37640598  1
  Fe  Fe31  1  0.74873246  0.00097831  -0.00164419  1
  Fe  Fe32  1  0.25020699  0.75016374  0.00015104  1
  Fe  Fe33  1  0.12363609  0.12528001  0.87184535  1
  Fe  Fe34  1  -0.00070663  0.74917245  -0.00071610  1
  Fe  Fe35  1  0.00101828  0.50111621  0.74999858  1
  Fe  Fe36  1  0.12690680  0.12461609  0.37797566  1
  Fe  Fe37  1  0.25006216  0.75176814  0.50084629  1
  Fe  Fe38  1  0.37541891  0.62620765  0.12721635  1
  Fe  Fe39  1  0.87474549  0.37522692  0.62599519  1
  Fe  Fe40  1  0.24989871  0.49819518  0.50036097  1
  Fe  Fe41  1  0.87375175  0.62456360  0.87469211  1
  Fe  Fe42  1  0.00120120  -0.00122694  -0.00013101  1
  Fe  Fe43  1  0.74895473  0.50088398  0.00235189  1
  Fe  Fe44  1  0.37751432  0.87761668  0.87133199  1
  Fe  Fe45  1  0.37515654  0.37539008  0.12655741  1
  Fe  Fe46  1  0.75128707  0.25206493  0.24932047  1
  Fe  Fe47  1  -0.00317484  0.75064666  0.74791062  1
  Fe  Fe48  1  0.75137893  0.25106709  0.50090050  1
  Fe  Fe49  1  0.12522111  0.37207037  0.62375304  1
  Fe  Fe50  1  0.37472800  0.37577142  0.37670884  1
  Fe  Fe51  1  -0.00248459  0.25000922  -0.00263605  1
  Fe  Fe52  1  0.37546798  0.12362467  0.12717169  1
  Fe  Fe53  1  0.00149013  -0.00052207  0.25274396  1
  Fe  Fe54  1  0.87340703  0.37629197  0.87404249  1
  Fe  Fe55  1  0.74748226  -0.00057886  0.50132943  1
  Fe  Fe56  1  0.50324377  0.50255684  0.25177657  1
  Fe  Fe57  1  0.87362628  0.87528579  0.12683372  1
  Fe  Fe58  1  0.62423059  0.37434925  0.12441475  1
  Fe  Fe59  1  0.12456821  0.87260599  0.12622367  1
  Fe  Fe60  1  0.50218839  0.50641849  0.74598977  1
  Fe  Fe61  1  0.24781595  -0.00200600  0.24903004  1
  Fe  Fe62  1  0.74840017  0.75067114  0.00089767  1
  Fe  Fe63  1  0.25267224  0.24875676  -0.00108562  1
  Fe  Fe64  1  0.12407666  0.12644351  0.12524948  1
  Fe  Fe65  1  0.75153488  0.24774210  -0.00203990  1
  Fe  Fe66  1  0.50147847  0.75062087  0.00226664  1
  Fe  Fe67  1  0.25333508  0.75262398  0.74733019  1
  Fe  Fe68  1  0.25311376  0.24696932  0.74429681  1
  Fe  Fe69  1  0.87292773  0.62646212  0.62405238  1
  Fe  Fe70  1  0.87491887  0.37723672  0.37466585  1
  Fe  Fe71  1  0.87485523  0.87676888  0.87384215  1
  Fe  Fe72  1  0.49846207  0.24903907  -0.00080800  1
  Fe  Fe73  1  0.24940894  0.25112207  0.25358182  1
  Fe  Fe74  1  0.37600224  0.87537771  0.12686346  1
  Fe  Fe75  1  0.87705049  0.12322535  0.62492827  1
  Fe  Fe76  1  0.12493316  0.62833674  0.12758559  1
  Fe  Fe77  1  0.62296625  0.87335540  0.87389962  1
  Fe  Fe78  1  0.62510101  0.37497257  0.37776588  1
  Fe  Fe79  1  0.62351101  0.12359143  0.12456699  1
  Fe  Fe80  1  0.75687454  0.74846924  0.49556763  1
  Fe  Fe81  1  0.62710831  0.87121571  0.37413856  1
  Fe  Fe82  1  0.12380177  0.62649147  0.37611969  1
  Fe  Fe83  1  -0.00055877  0.24972031  0.49823152  1
  Fe  Fe84  1  0.00219148  0.50179062  -0.00119225  1
  Fe  Fe85  1  0.62635188  0.86945696  0.62550489  1
  Fe  Fe86  1  0.24810318  0.50140815  0.00022930  1
  Fe  Fe87  1  -0.00095535  0.50120140  0.50125523  1
  Fe  Fe88  1  0.74672158  0.50261500  0.74731726  1
  Fe  Fe89  1  0.25019464  0.50066852  0.74820003  1
  Co  Co90  1  0.62964672  0.63075042  0.62137271  1
  Co  Co91  1  0.12699911  0.87612986  0.37795189  1
  Co  Co92  1  0.37161561  0.62481679  0.62319158  1
  Co  Co93  1  0.50023993  0.75075180  0.25099562  1
  Co  Co94  1  0.12094770  0.12860642  0.62425029  1
  Co  Co95  1  0.25386631  0.24984160  0.50215093  1
  Co  Co96  1  0.62521967  0.87655417  0.12627233  1
  Co  Co97  1  0.37998393  0.11831032  0.62416060  1
  Co  Co98  1  0.12305997  0.87091073  0.62407596  1
  Co  Co99  1  0.87339433  0.87636838  0.62430083  1
  Co  Co100  1  0.62243100  0.12448475  0.87640946  1
  Co  Co101  1  -0.00016434  0.24821548  0.25408079  1
  Co  Co102  1  0.50605855  -0.00219283  0.74727806  1
  Co  Co103  1  0.25036274  0.75089671  0.25188064  1
  Co  Co104  1  0.87681743  0.37477506  0.12408415  1
  Co  Co105  1  -0.00221309  0.25209666  0.75042347  1
  Co  Co106  1  -0.00380755  0.75091902  0.49761421  1
  Co  Co107  1  0.62476092  0.62665920  0.87573356  1
  Co  Co108  1  0.74997885  0.49888474  0.50086053  1
  Co  Co109  1  0.24581094  0.00022356  0.74754102  1
  Co  Co110  1  0.12439335  0.37554911  0.37741310  1
  Co  Co111  1  0.37076808  0.12031898  0.37672842  1
  Co  Co112  1  0.62586101  0.62605521  0.12721172  1
  Co  Co113  1  0.37751500  0.88077959  0.62536020  1
  Co  Co114  1  0.87491074  0.62005752  0.37232114  1
  Co  Co115  1  0.87347581  0.88059472  0.37569127  1
  Co  Co116  1  0.49900409  -0.00093183  0.00094118  1
  Co  Co117  1  0.74679926  0.49734650  0.25064928  1
  Co  Co118  1  0.75182840  0.75014439  0.75268920  1
  Co  Co119  1  0.87757581  0.12194506  0.87280798  1
  Co  Co120  1  0.12605953  0.62852117  0.87176525  1
  Co  Co121  1  0.50539535  -0.00183379  0.49631468  1
  Co  Co122  1  0.00088784  -0.00210633  0.50045358  1
  Co  Co123  1  0.62606948  0.62666210  0.37766142  1
  Co  Co124  1  0.49812681  0.74689535  0.74660154  1
  Co  Co125  1  0.62927588  0.12682193  0.37522743  1
  Co  Co126  1  0.75091389  0.74998001  0.25150646  1
  Co  Co127  1  0.37791780  0.37653357  0.62434136  1
