# generated using pymatgen
data_Fe45Co19
_symmetry_space_group_name_H-M   'P 1'
_cell_length_a   11.41448168
_cell_length_b   11.41417452
_cell_length_c   11.41438447
_cell_angle_alpha   90.00439972
_cell_angle_beta   89.99802095
_cell_angle_gamma   90.00531103
_symmetry_Int_Tables_number   1
_chemical_formula_structural   Fe45Co19
_chemical_formula_sum   'Fe90 Co38'
_cell_volume   1487.14459573
_cell_formula_units_Z   2
loop_
 _symmetry_equiv_pos_site_id
 _symmetry_equiv_pos_as_xyz
  1  'x, y, z'
loop_
 _atom_site_type_symbol
 _atom_site_label
 _atom_site_symmetry_multiplicity
 _atom_site_fract_x
 _atom_site_fract_y
 _atom_site_fract_z
 _atom_site_occupancy
  Fe  Fe0  1  -0.00012024  -0.00069079  -0.00060427  1
  Fe  Fe1  1  0.24777403  0.00339227  -0.00391922  1
  Fe  Fe2  1  -0.00118688  0.49790621  0.74981225  1
  Fe  Fe3  1  0.49969683  0.75025929  0.74648266  1
  Fe  Fe4  1  0.49922594  0.49607823  0.25248475  1
  Fe  Fe5  1  0.50010699  -0.00023387  0.00020816  1
  Fe  Fe6  1  -0.00001840  0.74974080  0.00443334  1
  Fe  Fe7  1  0.75082927  -0.00061555  0.25231059  1
  Fe  Fe8  1  0.87382430  0.87511360  0.12466726  1
  Fe  Fe9  1  0.75371582  0.49833022  0.25684171  1
  Fe  Fe10  1  0.87757075  0.62566454  0.87499275  1
  Fe  Fe11  1  0.00190354  0.75203915  0.50333350  1
  Fe  Fe12  1  0.37432729  0.87428776  0.87572273  1
  Fe  Fe13  1  0.75366772  0.25341268  0.74756469  1
  Fe  Fe14  1  0.24943665  0.00014284  0.25328380  1
  Fe  Fe15  1  0.24770676  0.24774522  0.75200658  1
  Fe  Fe16  1  0.62555156  0.62279824  0.12886761  1
  Fe  Fe17  1  0.37590580  0.12471901  0.12739213  1
  Fe  Fe18  1  0.24705301  0.74814078  0.00124451  1
  Fe  Fe19  1  0.12419452  0.87350433  0.87488164  1
  Fe  Fe20  1  0.24783844  0.50243298  -0.00040777  1
  Fe  Fe21  1  0.12775918  0.37588087  0.12806422  1
  Fe  Fe22  1  0.87567094  0.12460477  0.12741604  1
  Fe  Fe23  1  0.24770263  0.50135898  0.75121907  1
  Fe  Fe24  1  0.50007762  0.25145072  0.00136787  1
  Fe  Fe25  1  0.49936353  -0.00098884  0.74800977  1
  Fe  Fe26  1  0.75121746  0.50082216  -0.00141903  1
  Fe  Fe27  1  0.37216976  0.37508062  0.37602742  1
  Fe  Fe28  1  -0.00329233  -0.00458587  0.74564399  1
  Fe  Fe29  1  0.12385160  0.12371157  0.12848614  1
  Fe  Fe30  1  0.75063947  0.74801225  0.00083906  1
  Fe  Fe31  1  0.24701125  0.74630161  0.50031665  1
  Fe  Fe32  1  0.12225414  0.12271656  0.62536322  1
  Fe  Fe33  1  0.62343597  0.62327609  0.87375311  1
  Fe  Fe34  1  0.88084338  0.13077780  0.87239318  1
  Fe  Fe35  1  0.62722669  0.37488938  0.12810877  1
  Fe  Fe36  1  0.37387409  0.87614628  0.62043458  1
  Fe  Fe37  1  0.37223224  0.37620250  0.62237966  1
  Fe  Fe38  1  0.25000072  0.00249574  0.75253995  1
  Fe  Fe39  1  0.62623768  0.87460212  0.87452562  1
  Fe  Fe40  1  -0.00066559  0.25275930  0.24996309  1
  Fe  Fe41  1  0.12143946  0.37208775  0.87631177  1
  Fe  Fe42  1  0.00154540  0.24972901  0.50232756  1
  Fe  Fe43  1  0.49827478  0.75451178  0.25177685  1
  Fe  Fe44  1  0.63024066  0.38179575  0.61961227  1
  Fe  Fe45  1  0.37503325  0.12613467  0.62462572  1
  Fe  Fe46  1  0.62519952  0.12583880  0.12807932  1
  Fe  Fe47  1  0.00211328  0.50123855  0.49683106  1
  Fe  Fe48  1  0.49958871  0.49819213  0.74925222  1
  Fe  Fe49  1  0.12798649  0.37761328  0.62323933  1
  Fe  Fe50  1  0.37425541  0.37407734  0.87641621  1
  Fe  Fe51  1  0.24820442  0.00264837  0.49765844  1
  Fe  Fe52  1  0.75103483  0.74656622  0.74799273  1
  Fe  Fe53  1  -0.00051307  0.50005370  0.00182206  1
  Fe  Fe54  1  0.62705922  0.87444242  0.62254692  1
  Fe  Fe55  1  0.37594240  0.62181546  0.62195764  1
  Fe  Fe56  1  0.50173770  0.74957875  0.00085716  1
  Fe  Fe57  1  0.62499432  0.87403800  0.37775021  1
  Fe  Fe58  1  0.24853600  0.74763215  0.74829886  1
  Fe  Fe59  1  0.87021081  0.38008836  0.61882735  1
  Fe  Fe60  1  0.37592454  0.62498147  0.37650259  1
  Fe  Fe61  1  0.75281183  0.00126079  -0.00271582  1
  Fe  Fe62  1  0.87722426  0.12764825  0.37677321  1
  Fe  Fe63  1  0.74841921  0.74222535  0.50096586  1
  Fe  Fe64  1  0.50170800  0.25138333  0.50067260  1
  Fe  Fe65  1  0.12156369  0.62311971  0.13099050  1
  Fe  Fe66  1  0.62664458  0.37566803  0.87505433  1
  Fe  Fe67  1  0.24676851  0.24553962  -0.00193641  1
  Fe  Fe68  1  0.75179021  0.75083379  0.25035227  1
  Fe  Fe69  1  0.50140685  0.25270728  0.74723620  1
  Fe  Fe70  1  0.00011662  0.75150027  0.74539506  1
  Fe  Fe71  1  0.37701693  0.62378858  0.12489491  1
  Fe  Fe72  1  0.12421516  0.87445662  0.37637084  1
  Fe  Fe73  1  0.37620598  0.62400265  0.87635792  1
  Fe  Fe74  1  0.62394234  0.12886327  0.37218069  1
  Fe  Fe75  1  0.24860620  0.74955696  0.25098096  1
  Fe  Fe76  1  0.24740488  0.24795807  0.49745150  1
  Fe  Fe77  1  0.75183303  0.00280418  0.49929341  1
  Fe  Fe78  1  0.37160932  0.37493120  0.12474098  1
  Fe  Fe79  1  0.75250502  0.24920092  0.00051070  1
  Fe  Fe80  1  0.12715905  0.37668339  0.37218977  1
  Fe  Fe81  1  0.62410477  0.12670194  0.87393256  1
  Fe  Fe82  1  0.75383514  -0.00053868  0.75164592  1
  Fe  Fe83  1  0.62677888  0.12477703  0.62622847  1
  Fe  Fe84  1  0.37259388  0.87649710  0.12551021  1
  Fe  Fe85  1  0.62655368  0.87600218  0.12481790  1
  Fe  Fe86  1  -0.00186610  -0.00449988  0.25348918  1
  Fe  Fe87  1  0.87392591  0.37603707  0.12486905  1
  Fe  Fe88  1  0.37829241  0.12467796  0.37377026  1
  Fe  Fe89  1  0.88133353  0.62907408  0.37142214  1
  Co  Co90  1  0.75001183  0.50849068  0.49132051  1
  Co  Co91  1  -0.00150717  0.25568684  0.74140273  1
  Co  Co92  1  0.87423789  0.62428024  0.12821900  1
  Co  Co93  1  0.62370782  0.62023105  0.62627947  1
  Co  Co94  1  0.87785489  0.37247973  0.87706031  1
  Co  Co95  1  0.50231946  0.00132711  0.49996821  1
  Co  Co96  1  0.37959729  0.12698454  0.87379176  1
  Co  Co97  1  0.24773508  0.50278099  0.49801195  1
  Co  Co98  1  0.24956970  0.24768008  0.25199460  1
  Co  Co99  1  0.62156653  0.62653505  0.36999270  1
  Co  Co100  1  0.86938937  0.87290417  0.62115791  1
  Co  Co101  1  0.75323380  0.50095855  0.75302777  1
  Co  Co102  1  0.87737278  0.62174522  0.62441284  1
  Co  Co103  1  0.49855875  0.25333355  0.24986765  1
  Co  Co104  1  0.50182934  0.49890457  0.49636068  1
  Co  Co105  1  0.87600735  0.12466946  0.62498626  1
  Co  Co106  1  0.87445839  0.37139556  0.38081869  1
  Co  Co107  1  0.12351785  0.62215711  0.62534848  1
  Co  Co108  1  0.37320624  0.87550747  0.37871273  1
  Co  Co109  1  0.25148005  0.50343657  0.25085918  1
  Co  Co110  1  0.50101273  0.74898176  0.50074354  1
  Co  Co111  1  0.11647309  0.12628294  0.87130543  1
  Co  Co112  1  0.00091684  0.75554292  0.24703955  1
  Co  Co113  1  0.12643774  0.87759098  0.12513829  1
  Co  Co114  1  0.12148466  0.62615579  0.87392258  1
  Co  Co115  1  0.74953803  0.24659995  0.50124848  1
  Co  Co116  1  -0.00307173  0.49522969  0.25151304  1
  Co  Co117  1  0.12115711  0.62552427  0.37220146  1
  Co  Co118  1  0.00104584  0.25072297  0.00654450  1
  Co  Co119  1  -0.00229369  -0.00252604  0.50078715  1
  Co  Co120  1  0.50163434  0.49886876  0.00131660  1
  Co  Co121  1  0.50132915  -0.00317934  0.25132143  1
  Co  Co122  1  0.87611682  0.87104511  0.87605867  1
  Co  Co123  1  0.11983361  0.12486243  0.37460401  1
  Co  Co124  1  0.12875598  0.87722961  0.62406316  1
  Co  Co125  1  0.87277662  0.87162774  0.37872692  1
  Co  Co126  1  0.62881446  0.37135514  0.37693196  1
  Co  Co127  1  0.75396509  0.25098923  0.24977654  1
