# generated using pymatgen
data_Fe45Co19
_symmetry_space_group_name_H-M   'P 1'
_cell_length_a   11.41440653
_cell_length_b   11.41590237
_cell_length_c   11.41504990
_cell_angle_alpha   89.99365153
_cell_angle_beta   90.00290506
_cell_angle_gamma   90.00601857
_symmetry_Int_Tables_number   1
_chemical_formula_structural   Fe45Co19
_chemical_formula_sum   'Fe90 Co38'
_cell_volume   1487.44662475
_cell_formula_units_Z   2
loop_
 _symmetry_equiv_pos_site_id
 _symmetry_equiv_pos_as_xyz
  1  'x, y, z'
loop_
 _atom_site_type_symbol
 _atom_site_label
 _atom_site_symmetry_multiplicity
 _atom_site_fract_x
 _atom_site_fract_y
 _atom_site_fract_z
 _atom_site_occupancy
  Fe  Fe0  1  -0.00225203  -0.00060282  0.74860245  1
  Fe  Fe1  1  0.62728633  0.12336591  0.37517819  1
  Fe  Fe2  1  0.49803796  0.00149017  0.25091743  1
  Fe  Fe3  1  0.74997220  -0.00274331  -0.00123512  1
  Fe  Fe4  1  0.12350902  0.37598595  0.62550752  1
  Fe  Fe5  1  0.87572805  0.62431715  0.37674587  1
  Fe  Fe6  1  0.00344980  0.74943061  0.50002306  1
  Fe  Fe7  1  0.25018410  0.75327782  0.24882423  1
  Fe  Fe8  1  0.75056229  0.75059746  0.25054651  1
  Fe  Fe9  1  0.24920681  0.25093989  0.75089939  1
  Fe  Fe10  1  0.00104605  0.24916381  0.74901128  1
  Fe  Fe11  1  0.00406866  0.75449981  -0.00156661  1
  Fe  Fe12  1  0.87936062  0.37290816  0.12663623  1
  Fe  Fe13  1  0.74960840  0.25129981  -0.00047142  1
  Fe  Fe14  1  0.37502501  0.37583837  0.62234182  1
  Fe  Fe15  1  0.25325496  -0.00066484  0.74899692  1
  Fe  Fe16  1  0.24799909  0.49920067  0.49912871  1
  Fe  Fe17  1  0.24451882  0.25048335  0.24628940  1
  Fe  Fe18  1  0.62639611  0.62528297  0.87552790  1
  Fe  Fe19  1  0.87407795  0.62991329  0.12041331  1
  Fe  Fe20  1  0.62769957  0.12494879  0.12585732  1
  Fe  Fe21  1  0.12701233  0.62762491  0.12246339  1
  Fe  Fe22  1  0.37282293  0.62460901  0.37624593  1
  Fe  Fe23  1  0.24822419  0.49769573  0.24563456  1
  Fe  Fe24  1  0.75283154  0.49873408  -0.00185933  1
  Fe  Fe25  1  0.62546949  0.12293265  0.87212095  1
  Fe  Fe26  1  0.62677684  0.62722357  0.12457227  1
  Fe  Fe27  1  0.87673897  0.12438018  0.62185078  1
  Fe  Fe28  1  0.12861203  0.62576381  0.62558748  1
  Fe  Fe29  1  0.74900542  0.75212254  0.74969782  1
  Fe  Fe30  1  0.62483106  0.37417251  0.87338481  1
  Fe  Fe31  1  -0.00014236  0.74979193  0.25062131  1
  Fe  Fe32  1  0.75167422  0.25282434  0.49857897  1
  Fe  Fe33  1  0.25142254  0.50022641  0.75193612  1
  Fe  Fe34  1  0.75134183  0.25038600  0.74968619  1
  Fe  Fe35  1  0.49926351  0.75229813  -0.00045932  1
  Fe  Fe36  1  0.62283975  0.87442000  0.12820450  1
  Fe  Fe37  1  0.49833236  0.74675055  0.74862482  1
  Fe  Fe38  1  0.37280375  0.62778081  0.12182725  1
  Fe  Fe39  1  0.87473204  0.12472089  0.87661120  1
  Fe  Fe40  1  0.75640724  0.24817846  0.25358126  1
  Fe  Fe41  1  0.12839807  0.62609003  0.87759092  1
  Fe  Fe42  1  0.87431070  0.62698161  0.62528653  1
  Fe  Fe43  1  0.00081043  0.74875952  0.75024655  1
  Fe  Fe44  1  0.12181866  0.12045007  0.37585613  1
  Fe  Fe45  1  0.74702158  0.75113958  0.50166685  1
  Fe  Fe46  1  0.49925392  0.49912917  0.00113728  1
  Fe  Fe47  1  0.87687153  0.87495400  0.12378681  1
  Fe  Fe48  1  -0.00137382  0.50240946  0.75237038  1
  Fe  Fe49  1  0.49978424  0.24979934  0.00089548  1
  Fe  Fe50  1  0.74912438  0.49936650  0.50007972  1
  Fe  Fe51  1  0.49919703  -0.00054941  0.00049752  1
  Fe  Fe52  1  0.12509278  0.62373823  0.37352561  1
  Fe  Fe53  1  0.50252428  0.25058906  0.50066711  1
  Fe  Fe54  1  0.25333097  0.74931008  0.75311684  1
  Fe  Fe55  1  0.75345441  0.50111526  0.24920715  1
  Fe  Fe56  1  0.49907534  0.24957463  0.74967698  1
  Fe  Fe57  1  0.49880084  0.00133749  0.50115205  1
  Fe  Fe58  1  0.62275824  0.87399042  0.37370541  1
  Fe  Fe59  1  -0.00167010  0.50216403  -0.00130764  1
  Fe  Fe60  1  0.49913908  0.50226916  0.24995511  1
  Fe  Fe61  1  0.12432784  0.87884150  0.37282095  1
  Fe  Fe62  1  0.37192125  0.12349688  0.12402305  1
  Fe  Fe63  1  0.74938734  -0.00410011  0.50372842  1
  Fe  Fe64  1  0.37243039  0.12414342  0.87794294  1
  Fe  Fe65  1  0.37498635  0.37375481  0.37418593  1
  Fe  Fe66  1  0.62435966  0.37672292  0.37437532  1
  Fe  Fe67  1  0.75348433  0.49913827  0.75319392  1
  Fe  Fe68  1  0.00241928  0.24695579  0.00112809  1
  Fe  Fe69  1  0.62559474  0.37454708  0.12715120  1
  Fe  Fe70  1  0.37188934  0.12771159  0.62290396  1
  Fe  Fe71  1  0.49815833  0.50119212  0.74794499  1
  Fe  Fe72  1  0.37268303  0.12739801  0.37504879  1
  Fe  Fe73  1  0.50256814  0.74468132  0.50067605  1
  Fe  Fe74  1  0.12709255  0.87490799  0.62611606  1
  Fe  Fe75  1  0.62567199  0.12338165  0.62696870  1
  Fe  Fe76  1  0.24401874  0.25005315  0.49942190  1
  Fe  Fe77  1  0.12714414  0.12145997  0.87533218  1
  Fe  Fe78  1  0.50054325  0.24876663  0.24911370  1
  Fe  Fe79  1  0.37547377  0.87402824  0.37562479  1
  Fe  Fe80  1  0.37316150  0.37460616  0.87860029  1
  Fe  Fe81  1  0.12406725  0.11688697  0.12395226  1
  Fe  Fe82  1  0.87783863  0.37566121  0.62389639  1
  Fe  Fe83  1  0.11633599  0.37718286  0.37122227  1
  Fe  Fe84  1  0.75368474  0.00034351  0.24968398  1
  Fe  Fe85  1  0.87555258  0.87304430  0.87384398  1
  Fe  Fe86  1  0.12527718  0.37536909  0.87813406  1
  Fe  Fe87  1  0.87721284  0.87602798  0.37767639  1
  Fe  Fe88  1  0.62218074  0.87871786  0.86970505  1
  Fe  Fe89  1  0.37501740  0.87267741  0.62261017  1
  Co  Co90  1  0.74626985  0.75554505  -0.00177935  1
  Co  Co91  1  0.00230568  0.24927051  0.49966276  1
  Co  Co92  1  0.62779766  0.62315877  0.62775983  1
  Co  Co93  1  0.50084361  0.50262783  0.49973349  1
  Co  Co94  1  -0.00070319  -0.00366751  -0.00309573  1
  Co  Co95  1  0.00287001  -0.00308237  0.50407998  1
  Co  Co96  1  0.49494313  0.00331550  0.74701214  1
  Co  Co97  1  0.24947929  0.75766764  -0.00109786  1
  Co  Co98  1  0.11894037  0.37588847  0.12491485  1
  Co  Co99  1  0.12481113  0.87638809  0.86957345  1
  Co  Co100  1  0.12530789  0.12314073  0.62750597  1
  Co  Co101  1  0.87729727  0.87127192  0.62479874  1
  Co  Co102  1  0.62149751  0.87586315  0.62767996  1
  Co  Co103  1  0.37116932  0.62438340  0.62272332  1
  Co  Co104  1  0.24713780  0.75061199  0.49721876  1
  Co  Co105  1  0.24719378  0.24991000  0.00350624  1
  Co  Co106  1  0.37570350  0.87532004  0.12726185  1
  Co  Co107  1  -0.00217895  0.24300789  0.25071145  1
  Co  Co108  1  0.25285997  -0.00038696  0.25196389  1
  Co  Co109  1  0.88082716  0.37881810  0.37499971  1
  Co  Co110  1  0.87418873  0.63099534  0.87642679  1
  Co  Co111  1  0.25011476  0.49795467  0.00253108  1
  Co  Co112  1  0.87824764  0.37119890  0.87605962  1
  Co  Co113  1  0.75476220  -0.00068565  0.74874081  1
  Co  Co114  1  0.25058716  0.00033475  0.50037178  1
  Co  Co115  1  -0.00165826  0.50649102  0.24583391  1
  Co  Co116  1  0.49881127  0.74703178  0.25070023  1
  Co  Co117  1  0.00188240  0.50440368  0.50329209  1
  Co  Co118  1  0.12316471  0.87856498  0.12983017  1
  Co  Co119  1  0.37387812  0.62480074  0.87813000  1
  Co  Co120  1  0.87412981  0.12413005  0.12022142  1
  Co  Co121  1  -0.00621839  0.00217560  0.24990659  1
  Co  Co122  1  0.62757887  0.62478740  0.37291505  1
  Co  Co123  1  0.87589628  0.12044109  0.38208814  1
  Co  Co124  1  0.37773335  0.87570937  0.87315507  1
  Co  Co125  1  0.24991206  -0.00793877  -0.00110444  1
  Co  Co126  1  0.37546362  0.37303416  0.12619372  1
  Co  Co127  1  0.62520757  0.37573236  0.62635059  1
