# generated using pymatgen
data_Fe45Co19
_symmetry_space_group_name_H-M   'P 1'
_cell_length_a   11.41529300
_cell_length_b   11.41597297
_cell_length_c   11.41448227
_cell_angle_alpha   89.99460408
_cell_angle_beta   89.99533330
_cell_angle_gamma   89.99685669
_symmetry_Int_Tables_number   1
_chemical_formula_structural   Fe45Co19
_chemical_formula_sum   'Fe90 Co38'
_cell_volume   1487.49737714
_cell_formula_units_Z   2
loop_
 _symmetry_equiv_pos_site_id
 _symmetry_equiv_pos_as_xyz
  1  'x, y, z'
loop_
 _atom_site_type_symbol
 _atom_site_label
 _atom_site_symmetry_multiplicity
 _atom_site_fract_x
 _atom_site_fract_y
 _atom_site_fract_z
 _atom_site_occupancy
  Fe  Fe0  1  0.87545780  0.62555441  0.12208933  1
  Fe  Fe1  1  -0.00022287  0.49999905  -0.00343166  1
  Fe  Fe2  1  0.37196716  0.87655988  0.62485878  1
  Fe  Fe3  1  0.62373838  0.62566403  0.12367493  1
  Fe  Fe4  1  0.24633503  0.49916732  0.50122645  1
  Fe  Fe5  1  0.37465561  0.37324256  0.87850508  1
  Fe  Fe6  1  0.74896596  0.75223296  -0.00157929  1
  Fe  Fe7  1  0.24926286  0.00307179  0.25388391  1
  Fe  Fe8  1  0.37644157  0.12393836  0.37939167  1
  Fe  Fe9  1  0.87658386  0.12360609  0.12679096  1
  Fe  Fe10  1  -0.00380814  0.25254598  0.74935858  1
  Fe  Fe11  1  0.62505096  0.12799555  0.38017399  1
  Fe  Fe12  1  0.62622056  0.37303385  0.37658247  1
  Fe  Fe13  1  0.12576262  0.37258405  0.87442729  1
  Fe  Fe14  1  0.12446066  0.87571699  0.87326045  1
  Fe  Fe15  1  0.37405020  0.62523227  0.62596955  1
  Fe  Fe16  1  0.62497960  0.62282317  0.62557702  1
  Fe  Fe17  1  0.87826744  0.62019121  0.62594683  1
  Fe  Fe18  1  0.12472789  0.12686202  0.12935100  1
  Fe  Fe19  1  0.75046756  0.74854700  0.25122061  1
  Fe  Fe20  1  0.62738681  0.87693146  0.62647235  1
  Fe  Fe21  1  0.62588511  0.87375363  0.37561326  1
  Fe  Fe22  1  0.37505379  0.87692014  0.12671291  1
  Fe  Fe23  1  0.50045815  0.25001714  0.74660430  1
  Fe  Fe24  1  0.00022544  0.74894952  0.50017126  1
  Fe  Fe25  1  0.37591223  0.62344678  0.11830472  1
  Fe  Fe26  1  0.12658774  0.37260791  0.12573071  1
  Fe  Fe27  1  0.87644309  0.62274711  0.37577131  1
  Fe  Fe28  1  0.12434834  0.87806852  0.62833352  1
  Fe  Fe29  1  0.50086102  0.00072631  0.25325250  1
  Fe  Fe30  1  0.75217709  0.25069171  0.74341597  1
  Fe  Fe31  1  0.25015699  0.00066181  -0.00266708  1
  Fe  Fe32  1  -0.00152590  0.75122467  0.24955462  1
  Fe  Fe33  1  0.50122440  -0.00134185  -0.00244634  1
  Fe  Fe34  1  0.24920816  0.50051511  0.75202773  1
  Fe  Fe35  1  0.12622416  0.87462484  0.37414398  1
  Fe  Fe36  1  0.75308995  0.24924823  0.25157205  1
  Fe  Fe37  1  0.87344718  0.37620623  0.12330790  1
  Fe  Fe38  1  0.24921367  0.24866966  0.50084077  1
  Fe  Fe39  1  0.75167656  0.49915666  0.75260760  1
  Fe  Fe40  1  0.74856715  0.24820779  0.00066228  1
  Fe  Fe41  1  0.87546752  0.87544348  0.12387722  1
  Fe  Fe42  1  0.75035328  0.00079223  -0.00155117  1
  Fe  Fe43  1  0.37607618  0.12717366  0.87638317  1
  Fe  Fe44  1  0.50047960  0.75173156  0.50148180  1
  Fe  Fe45  1  0.12225528  0.62160623  0.62641507  1
  Fe  Fe46  1  0.37353505  0.37617848  0.62531649  1
  Fe  Fe47  1  0.75029941  0.00079626  0.25087096  1
  Fe  Fe48  1  0.75684126  0.00045129  0.74886507  1
  Fe  Fe49  1  0.25113033  0.74893825  0.24799437  1
  Fe  Fe50  1  0.25118947  0.49848220  0.24789083  1
  Fe  Fe51  1  0.37438315  0.37496723  0.37695072  1
  Fe  Fe52  1  0.12287092  0.12387765  0.87168995  1
  Fe  Fe53  1  0.37452637  0.37264423  0.11891703  1
  Fe  Fe54  1  0.37447066  0.62507663  0.37618471  1
  Fe  Fe55  1  -0.00100732  0.00099109  -0.00104554  1
  Fe  Fe56  1  -0.00024370  0.24922619  0.00066190  1
  Fe  Fe57  1  0.62681537  0.12426646  0.87120197  1
  Fe  Fe58  1  0.12599179  0.37212300  0.37291399  1
  Fe  Fe59  1  0.74978213  0.49862612  0.50014021  1
  Fe  Fe60  1  0.25095981  0.24839781  0.74917721  1
  Fe  Fe61  1  0.12723736  0.62803513  0.87621530  1
  Fe  Fe62  1  0.75144912  0.00356605  0.50216423  1
  Fe  Fe63  1  0.24868596  0.75085546  0.50182585  1
  Fe  Fe64  1  -0.00411993  0.25330556  0.49854005  1
  Fe  Fe65  1  0.74734516  0.49918753  -0.00180039  1
  Fe  Fe66  1  0.12481904  0.87574333  0.12466400  1
  Fe  Fe67  1  0.37398472  0.86948922  0.87199997  1
  Fe  Fe68  1  0.62341336  0.12528706  0.12566678  1
  Fe  Fe69  1  0.75266048  0.75083260  0.74979686  1
  Fe  Fe70  1  0.37650872  0.12217187  0.62225290  1
  Fe  Fe71  1  0.62526898  0.37182641  0.87356775  1
  Fe  Fe72  1  0.12310371  0.12456969  0.62654501  1
  Fe  Fe73  1  0.37480661  0.12628598  0.12227273  1
  Fe  Fe74  1  0.49802543  0.50088449  0.75259076  1
  Fe  Fe75  1  0.50103310  0.49876485  0.24818479  1
  Fe  Fe76  1  0.50073740  0.49913789  0.50070694  1
  Fe  Fe77  1  0.62178550  0.62875215  0.87474857  1
  Fe  Fe78  1  0.87448859  0.87640650  0.37637281  1
  Fe  Fe79  1  0.75057349  0.74754321  0.50073162  1
  Fe  Fe80  1  0.49973063  0.74893753  0.25100775  1
  Fe  Fe81  1  0.49934710  -0.00130451  0.74959637  1
  Fe  Fe82  1  -0.00243477  0.75035447  0.75132682  1
  Fe  Fe83  1  0.62456560  0.87589279  0.12535106  1
  Fe  Fe84  1  0.74827502  0.50137676  0.25000658  1
  Fe  Fe85  1  0.12607161  0.62511903  0.37336820  1
  Fe  Fe86  1  0.00096539  0.00095159  0.49929453  1
  Fe  Fe87  1  0.12474812  0.62532055  0.12324851  1
  Fe  Fe88  1  -0.00043030  0.49819772  0.25048274  1
  Fe  Fe89  1  0.49817899  0.25052727  0.25001073  1
  Co  Co90  1  0.87617092  0.87399120  0.62247526  1
  Co  Co91  1  0.50198700  0.75003619  0.74597173  1
  Co  Co92  1  0.75264988  0.25040063  0.50521596  1
  Co  Co93  1  0.12377117  0.37395564  0.62660125  1
  Co  Co94  1  0.62300626  0.62428328  0.37611314  1
  Co  Co95  1  0.24758272  0.49957583  -0.00257665  1
  Co  Co96  1  0.24744551  0.74852800  0.74742571  1
  Co  Co97  1  -0.00506060  0.25252010  0.25020901  1
  Co  Co98  1  0.62455347  0.37819556  0.62574389  1
  Co  Co99  1  0.00025008  -0.00203292  0.25074480  1
  Co  Co100  1  0.12187017  0.12905285  0.37317257  1
  Co  Co101  1  0.24614135  0.00111345  0.49896621  1
  Co  Co102  1  0.87577814  0.87486210  0.87743502  1
  Co  Co103  1  0.50396841  0.49765827  -0.00202325  1
  Co  Co104  1  0.50116710  0.25254062  0.50404001  1
  Co  Co105  1  0.50115290  0.75387199  0.00015968  1
  Co  Co106  1  0.00119393  0.49992671  0.75613429  1
  Co  Co107  1  0.37536197  0.62831664  0.87667325  1
  Co  Co108  1  -0.00546566  -0.00139686  0.75056047  1
  Co  Co109  1  0.25174238  0.00243454  0.75091113  1
  Co  Co110  1  0.87209516  0.37767400  0.37536615  1
  Co  Co111  1  0.87573679  0.12281838  0.37503306  1
  Co  Co112  1  0.50489760  0.24904408  -0.00049631  1
  Co  Co113  1  0.50150584  -0.00454194  0.50004789  1
  Co  Co114  1  0.87372385  0.62606410  0.87607659  1
  Co  Co115  1  0.87457737  0.12779770  0.87470204  1
  Co  Co116  1  0.62649141  0.37283701  0.12717966  1
  Co  Co117  1  0.24637328  0.24712620  -0.00159312  1
  Co  Co118  1  0.62696760  0.87671925  0.87155540  1
  Co  Co119  1  0.00323692  0.49792173  0.49672321  1
  Co  Co120  1  0.87352378  0.37258581  0.87644274  1
  Co  Co121  1  0.62286516  0.12249224  0.62538435  1
  Co  Co122  1  0.25011078  0.75244983  0.00179726  1
  Co  Co123  1  0.87820912  0.38156040  0.62589022  1
  Co  Co124  1  0.00095070  0.74995690  -0.00090881  1
  Co  Co125  1  0.87913444  0.12572571  0.62509825  1
  Co  Co126  1  0.37321022  0.87436890  0.37446576  1
  Co  Co127  1  0.25413633  0.24915577  0.25094213  1
