# generated using pymatgen
data_Fe45Co19
_symmetry_space_group_name_H-M   'P 1'
_cell_length_a   11.41548791
_cell_length_b   11.41459496
_cell_length_c   11.41441391
_cell_angle_alpha   89.99996698
_cell_angle_beta   89.99687464
_cell_angle_gamma   90.00759820
_symmetry_Int_Tables_number   1
_chemical_formula_structural   Fe45Co19
_chemical_formula_sum   'Fe90 Co38'
_cell_volume   1487.33431026
_cell_formula_units_Z   2
loop_
 _symmetry_equiv_pos_site_id
 _symmetry_equiv_pos_as_xyz
  1  'x, y, z'
loop_
 _atom_site_type_symbol
 _atom_site_label
 _atom_site_symmetry_multiplicity
 _atom_site_fract_x
 _atom_site_fract_y
 _atom_site_fract_z
 _atom_site_occupancy
  Fe  Fe0  1  0.87564352  0.12663357  0.62721728  1
  Fe  Fe1  1  0.25182863  0.50234930  0.49985406  1
  Fe  Fe2  1  0.12538057  0.12343225  0.37710556  1
  Fe  Fe3  1  0.12416016  0.87761207  0.37718148  1
  Fe  Fe4  1  0.62956991  0.12202899  0.87462840  1
  Fe  Fe5  1  0.62710480  0.62582969  0.37537422  1
  Fe  Fe6  1  0.24712866  0.75112912  0.24889299  1
  Fe  Fe7  1  0.24926213  0.74613948  0.49767463  1
  Fe  Fe8  1  0.24757786  0.74992606  0.74851721  1
  Fe  Fe9  1  0.00095435  0.74926670  0.25007887  1
  Fe  Fe10  1  0.62647214  0.12398186  0.12311047  1
  Fe  Fe11  1  0.50075576  0.50223617  0.74886293  1
  Fe  Fe12  1  -0.00196557  -0.00226126  0.75125385  1
  Fe  Fe13  1  -0.00022581  0.24865594  -0.00512977  1
  Fe  Fe14  1  0.37559592  0.37499216  0.62609625  1
  Fe  Fe15  1  -0.00157661  0.25502148  0.75433280  1
  Fe  Fe16  1  0.62591599  0.37709975  0.62419462  1
  Fe  Fe17  1  0.37685558  0.37421440  0.12391289  1
  Fe  Fe18  1  0.49915930  0.50273079  0.50115951  1
  Fe  Fe19  1  0.37352928  0.37524380  0.87629977  1
  Fe  Fe20  1  0.24995491  0.00043627  0.00073717  1
  Fe  Fe21  1  0.00193733  0.74878031  0.00039194  1
  Fe  Fe22  1  0.24955253  0.00007633  0.24948909  1
  Fe  Fe23  1  -0.00130365  0.50283871  0.50007413  1
  Fe  Fe24  1  0.12209123  0.87331477  0.62059849  1
  Fe  Fe25  1  0.50066693  -0.00394903  -0.00254696  1
  Fe  Fe26  1  0.37501859  0.87519597  0.12629933  1
  Fe  Fe27  1  0.12415583  0.62042841  0.36917442  1
  Fe  Fe28  1  0.50162302  0.24933352  -0.00213280  1
  Fe  Fe29  1  0.37706808  0.12488313  0.12458838  1
  Fe  Fe30  1  0.49867758  -0.00442293  0.75234264  1
  Fe  Fe31  1  0.37289750  0.87360864  0.62318120  1
  Fe  Fe32  1  0.12261544  0.12483041  0.62594599  1
  Fe  Fe33  1  0.75049249  0.75181724  0.25172416  1
  Fe  Fe34  1  -0.00177802  0.24861814  0.49918691  1
  Fe  Fe35  1  0.75154877  0.50416786  0.50276939  1
  Fe  Fe36  1  0.50342678  0.49926185  0.24978325  1
  Fe  Fe37  1  0.50143573  0.75269277  0.25232857  1
  Fe  Fe38  1  0.75349064  -0.00094143  0.50129499  1
  Fe  Fe39  1  0.24918435  0.24977655  0.75033831  1
  Fe  Fe40  1  0.37273904  0.12461541  0.87427250  1
  Fe  Fe41  1  0.74934070  0.24891300  0.50131970  1
  Fe  Fe42  1  0.87744038  0.87513012  0.12358658  1
  Fe  Fe43  1  0.50163669  0.50380056  0.00143699  1
  Fe  Fe44  1  0.62658428  0.12218037  0.37551307  1
  Fe  Fe45  1  0.12250314  0.12444353  0.12386195  1
  Fe  Fe46  1  0.87949130  0.86997443  0.62211196  1
  Fe  Fe47  1  0.87650959  0.62439022  0.87242177  1
  Fe  Fe48  1  0.12368663  0.62347501  0.87328087  1
  Fe  Fe49  1  0.37610466  0.62636684  0.12839071  1
  Fe  Fe50  1  0.24989159  0.25064310  0.24884185  1
  Fe  Fe51  1  0.25096137  0.50205359  0.00206908  1
  Fe  Fe52  1  0.50308492  0.25043111  0.25134003  1
  Fe  Fe53  1  0.24930527  0.50092282  0.74937668  1
  Fe  Fe54  1  0.87651730  0.87407436  0.37808170  1
  Fe  Fe55  1  0.87327803  0.37548891  0.37685141  1
  Fe  Fe56  1  0.75016916  0.75023644  0.00048563  1
  Fe  Fe57  1  0.50095484  0.25004284  0.75104598  1
  Fe  Fe58  1  0.12496689  0.87607617  0.87680744  1
  Fe  Fe59  1  0.00098425  0.50081908  0.00035060  1
  Fe  Fe60  1  0.75023156  0.75051242  0.74921991  1
  Fe  Fe61  1  0.24764827  0.74957111  0.00330739  1
  Fe  Fe62  1  0.49785440  -0.00090799  0.49885627  1
  Fe  Fe63  1  0.62680014  0.37737843  0.87584397  1
  Fe  Fe64  1  0.74856947  0.25121367  0.24949936  1
  Fe  Fe65  1  0.87914920  0.62656800  0.62843595  1
  Fe  Fe66  1  0.37583336  0.37589808  0.37459811  1
  Fe  Fe67  1  0.74888836  0.49799579  0.24813587  1
  Fe  Fe68  1  0.12539395  0.37552297  0.12347626  1
  Fe  Fe69  1  0.49901428  0.74894317  0.49879611  1
  Fe  Fe70  1  -0.00134896  0.25022932  0.25142894  1
  Fe  Fe71  1  0.75149563  -0.00055653  0.24902859  1
  Fe  Fe72  1  -0.00244844  0.00224469  0.25153269  1
  Fe  Fe73  1  0.75183957  0.25481120  0.75117575  1
  Fe  Fe74  1  0.12411515  0.37657617  0.62442613  1
  Fe  Fe75  1  0.62515905  0.12294587  0.62747754  1
  Fe  Fe76  1  0.87529410  0.62523271  0.12715786  1
  Fe  Fe77  1  0.37671559  0.62998282  0.87339872  1
  Fe  Fe78  1  0.12505469  0.37678336  0.37483239  1
  Fe  Fe79  1  -0.00386270  0.00198623  -0.00300751  1
  Fe  Fe80  1  0.37472847  0.12301495  0.37496249  1
  Fe  Fe81  1  0.74657853  0.50278236  0.00100296  1
  Fe  Fe82  1  0.25003702  -0.00038563  0.74781936  1
  Fe  Fe83  1  0.25165686  0.24789947  0.50186318  1
  Fe  Fe84  1  0.62256011  0.63024474  0.87292792  1
  Fe  Fe85  1  0.50054758  0.24896710  0.50093006  1
  Fe  Fe86  1  0.87344489  0.37291662  0.12113589  1
  Fe  Fe87  1  0.75263122  -0.00533453  0.75133669  1
  Fe  Fe88  1  0.62541101  0.87483236  0.12410720  1
  Fe  Fe89  1  0.62549950  0.87292521  0.62275925  1
  Co  Co90  1  0.74929077  0.50157192  0.74918810  1
  Co  Co91  1  0.62429658  0.37349640  0.12249419  1
  Co  Co92  1  0.87133583  0.12476027  0.87334667  1
  Co  Co93  1  0.87392355  0.62410051  0.37072218  1
  Co  Co94  1  0.25063795  0.00177892  0.50229102  1
  Co  Co95  1  0.87506041  0.37564598  0.62302265  1
  Co  Co96  1  0.12150402  0.87834774  0.12410466  1
  Co  Co97  1  0.00174132  0.74380049  0.49590007  1
  Co  Co98  1  0.62440795  0.62735022  0.62556067  1
  Co  Co99  1  -0.00268049  0.00258405  0.50049552  1
  Co  Co100  1  0.24945920  0.24879526  0.00102311  1
  Co  Co101  1  0.37249341  0.87544050  0.37424759  1
  Co  Co102  1  0.12336049  0.62391675  0.62672717  1
  Co  Co103  1  -0.00012602  0.49609983  0.75037854  1
  Co  Co104  1  0.12568289  0.12323988  0.87315456  1
  Co  Co105  1  0.49911242  0.75178806  0.00260712  1
  Co  Co106  1  0.62649943  0.37687176  0.37882174  1
  Co  Co107  1  0.87453892  0.12706544  0.12352482  1
  Co  Co108  1  -0.00318273  0.49610934  0.24818125  1
  Co  Co109  1  0.37762724  0.12479089  0.62712783  1
  Co  Co110  1  0.62586174  0.87127174  0.87596738  1
  Co  Co111  1  0.25131446  0.49685974  0.24736717  1
  Co  Co112  1  0.12791260  0.37729338  0.87642176  1
  Co  Co113  1  0.37509950  0.62444723  0.37110732  1
  Co  Co114  1  0.50114062  -0.00117478  0.25042430  1
  Co  Co115  1  0.12351628  0.62242026  0.12803844  1
  Co  Co116  1  0.00274316  0.75155373  0.75182839  1
  Co  Co117  1  0.87200252  0.12578441  0.37491993  1
  Co  Co118  1  0.74890046  0.24997706  -0.00210799  1
  Co  Co119  1  0.49943165  0.75345353  0.74704370  1
  Co  Co120  1  0.87253133  0.37964663  0.87831824  1
  Co  Co121  1  0.62678962  0.87558292  0.37710085  1
  Co  Co122  1  0.75161907  -0.00296537  0.00015340  1
  Co  Co123  1  0.87581165  0.87155690  0.87654822  1
  Co  Co124  1  0.75214207  0.74810724  0.50004182  1
  Co  Co125  1  0.37444350  0.62607015  0.62653214  1
  Co  Co126  1  0.62540835  0.62880682  0.12762650  1
  Co  Co127  1  0.37182374  0.87187239  0.87565056  1
