# generated using pymatgen
data_Fe45Co19
_symmetry_space_group_name_H-M   'P 1'
_cell_length_a   11.41437751
_cell_length_b   11.41508931
_cell_length_c   11.41453713
_cell_angle_alpha   89.99059905
_cell_angle_beta   90.00951435
_cell_angle_gamma   90.00502393
_symmetry_Int_Tables_number   1
_chemical_formula_structural   Fe45Co19
_chemical_formula_sum   'Fe90 Co38'
_cell_volume   1487.27006693
_cell_formula_units_Z   2
loop_
 _symmetry_equiv_pos_site_id
 _symmetry_equiv_pos_as_xyz
  1  'x, y, z'
loop_
 _atom_site_type_symbol
 _atom_site_label
 _atom_site_symmetry_multiplicity
 _atom_site_fract_x
 _atom_site_fract_y
 _atom_site_fract_z
 _atom_site_occupancy
  Fe  Fe0  1  0.62969067  0.62591648  0.62633810  1
  Fe  Fe1  1  0.25087285  0.49953436  0.25075001  1
  Fe  Fe2  1  0.37487923  0.62456648  0.37801876  1
  Fe  Fe3  1  0.49937668  0.24938879  0.25079079  1
  Fe  Fe4  1  0.25074953  0.75064833  0.25344898  1
  Fe  Fe5  1  0.62461785  0.37172535  0.62311407  1
  Fe  Fe6  1  0.62224250  0.87620554  0.37690927  1
  Fe  Fe7  1  -0.00073788  0.74586509  0.00175819  1
  Fe  Fe8  1  0.49861519  -0.00006136  0.74677661  1
  Fe  Fe9  1  0.25010026  0.25132997  0.24993847  1
  Fe  Fe10  1  0.00006626  0.50129736  0.24714879  1
  Fe  Fe11  1  0.12260680  0.87278956  0.62248218  1
  Fe  Fe12  1  0.87478640  0.12379648  0.13153456  1
  Fe  Fe13  1  0.50360658  0.50431113  0.00180716  1
  Fe  Fe14  1  0.12337742  0.37791017  0.87530751  1
  Fe  Fe15  1  0.74964339  0.49674428  0.49818429  1
  Fe  Fe16  1  0.25182050  -0.00136586  0.24839899  1
  Fe  Fe17  1  0.62405728  0.87448415  0.87719764  1
  Fe  Fe18  1  0.12602321  0.62467156  0.37666611  1
  Fe  Fe19  1  0.62606100  0.12326531  0.87347530  1
  Fe  Fe20  1  0.37278075  0.12256279  0.87267104  1
  Fe  Fe21  1  0.50158205  0.50012015  0.74843738  1
  Fe  Fe22  1  0.37613362  0.87320707  0.12312413  1
  Fe  Fe23  1  -0.00135583  0.00233229  0.49976309  1
  Fe  Fe24  1  -0.00229298  -0.00232053  0.74869664  1
  Fe  Fe25  1  0.12631561  0.37630986  0.12366586  1
  Fe  Fe26  1  0.37636997  0.37334885  0.62497600  1
  Fe  Fe27  1  0.25031872  0.75206133  0.74822854  1
  Fe  Fe28  1  -0.00044464  0.00012678  0.00289178  1
  Fe  Fe29  1  -0.00338305  0.25281962  0.75203355  1
  Fe  Fe30  1  0.12507040  0.12336973  0.37200179  1
  Fe  Fe31  1  0.49883693  0.24527440  0.49855744  1
  Fe  Fe32  1  0.75287938  0.24995643  0.49402091  1
  Fe  Fe33  1  0.75322494  0.49555894  0.74892901  1
  Fe  Fe34  1  0.37357834  0.62754726  0.62231647  1
  Fe  Fe35  1  0.25351596  0.00031548  0.50445121  1
  Fe  Fe36  1  -0.00104693  0.24888889  0.00073964  1
  Fe  Fe37  1  0.87475494  0.62413581  0.87323131  1
  Fe  Fe38  1  0.24970326  0.25158494  0.75056108  1
  Fe  Fe39  1  0.87434669  0.12185289  0.87414113  1
  Fe  Fe40  1  0.87284741  0.12479229  0.62667808  1
  Fe  Fe41  1  0.37451613  0.87515614  0.87637078  1
  Fe  Fe42  1  0.75054943  0.75028653  0.49751731  1
  Fe  Fe43  1  0.37688336  0.37695962  0.12341884  1
  Fe  Fe44  1  0.74845994  0.50271486  0.00178395  1
  Fe  Fe45  1  0.50102155  0.74877632  0.75020597  1
  Fe  Fe46  1  0.37611206  0.37800873  0.87628498  1
  Fe  Fe47  1  0.62510812  0.37636739  0.87681425  1
  Fe  Fe48  1  -0.00230859  0.24754284  0.49699348  1
  Fe  Fe49  1  0.75279112  0.75519335  0.75173383  1
  Fe  Fe50  1  0.37462324  0.62444609  0.87554658  1
  Fe  Fe51  1  0.62529502  0.87117426  0.12377266  1
  Fe  Fe52  1  0.50048717  0.00158015  0.25011020  1
  Fe  Fe53  1  0.87524372  0.37685229  0.12415913  1
  Fe  Fe54  1  0.74987700  -0.00070684  0.00116857  1
  Fe  Fe55  1  0.12418471  0.87533332  0.87560520  1
  Fe  Fe56  1  0.62942598  0.62809960  0.12956558  1
  Fe  Fe57  1  0.75157759  0.25260091  0.75249306  1
  Fe  Fe58  1  0.62419020  0.87536903  0.62266401  1
  Fe  Fe59  1  0.12183329  0.37557150  0.62488751  1
  Fe  Fe60  1  -0.00286034  0.50235336  0.50338312  1
  Fe  Fe61  1  0.24878184  0.50023750  0.74884180  1
  Fe  Fe62  1  0.50204876  0.50325366  0.50065088  1
  Fe  Fe63  1  0.37784711  0.37685865  0.37546763  1
  Fe  Fe64  1  0.25083888  0.24913845  0.00004254  1
  Fe  Fe65  1  0.12440894  0.87553614  0.37717861  1
  Fe  Fe66  1  0.74894038  0.00343728  0.49816348  1
  Fe  Fe67  1  0.12568701  0.12417964  0.12685658  1
  Fe  Fe68  1  0.00259198  0.50509661  0.00113245  1
  Fe  Fe69  1  0.87270665  0.87204456  0.12469774  1
  Fe  Fe70  1  0.62592926  0.12650310  0.62723836  1
  Fe  Fe71  1  0.37833212  0.87529401  0.38054181  1
  Fe  Fe72  1  0.24869246  0.74768496  -0.00133062  1
  Fe  Fe73  1  0.75077931  0.25556282  0.25340027  1
  Fe  Fe74  1  0.12591185  0.12184842  0.87435198  1
  Fe  Fe75  1  0.49945753  0.00108340  0.00184188  1
  Fe  Fe76  1  0.12224051  0.37672289  0.37579319  1
  Fe  Fe77  1  0.87569341  0.87889805  0.37524819  1
  Fe  Fe78  1  0.87156136  0.62231405  0.37205156  1
  Fe  Fe79  1  0.50001159  0.24848907  -0.00195477  1
  Fe  Fe80  1  0.50056348  0.74777009  0.25250658  1
  Fe  Fe81  1  0.62597024  0.12668612  0.12762950  1
  Fe  Fe82  1  0.12647802  0.87274056  0.12470520  1
  Fe  Fe83  1  0.24978541  0.25070884  0.49920970  1
  Fe  Fe84  1  0.12420456  0.62627381  0.62394789  1
  Fe  Fe85  1  -0.00475987  0.75094411  0.74705753  1
  Fe  Fe86  1  0.37316542  0.62528779  0.12494207  1
  Fe  Fe87  1  0.75100517  0.24937899  -0.00028217  1
  Fe  Fe88  1  0.12530966  0.12571224  0.62707786  1
  Fe  Fe89  1  -0.00089481  0.74979662  0.25150870  1
  Co  Co90  1  0.24771545  0.50237596  -0.00099245  1
  Co  Co91  1  0.74984128  0.74843607  -0.00335427  1
  Co  Co92  1  0.00152879  -0.00435675  0.24787995  1
  Co  Co93  1  0.37263967  0.12404199  0.37383255  1
  Co  Co94  1  0.24863400  0.75135585  0.49973408  1
  Co  Co95  1  0.62816458  0.62328192  0.37308744  1
  Co  Co96  1  0.87671150  0.12207593  0.36876374  1
  Co  Co97  1  0.25002823  -0.00007698  0.00171043  1
  Co  Co98  1  0.12328146  0.62654409  0.87051348  1
  Co  Co99  1  0.50443117  0.74504165  0.49995189  1
  Co  Co100  1  0.74690363  -0.00325586  0.24930858  1
  Co  Co101  1  0.37940194  0.87131749  0.62146174  1
  Co  Co102  1  -0.00252616  0.49946024  0.74737912  1
  Co  Co103  1  0.49949109  0.00557279  0.50221857  1
  Co  Co104  1  0.87712401  0.87566298  0.87853211  1
  Co  Co105  1  0.00081164  0.25231285  0.24922645  1
  Co  Co106  1  0.87961238  0.37755309  0.37452429  1
  Co  Co107  1  0.25009285  -0.00371522  0.74598149  1
  Co  Co108  1  0.50120232  0.50323158  0.24868235  1
  Co  Co109  1  0.74665005  0.49337621  0.25071992  1
  Co  Co110  1  -0.00388366  0.74783192  0.49741054  1
  Co  Co111  1  0.50130758  0.25097400  0.75330418  1
  Co  Co112  1  0.87579516  0.37800306  0.87993756  1
  Co  Co113  1  0.87051405  0.62593980  0.62509664  1
  Co  Co114  1  0.87378283  0.87713267  0.62006806  1
  Co  Co115  1  0.62835358  0.62437421  0.87057890  1
  Co  Co116  1  0.75067955  0.75405314  0.25416492  1
  Co  Co117  1  0.62357288  0.37258321  0.12401536  1
  Co  Co118  1  0.62569918  0.12563565  0.37232937  1
  Co  Co119  1  0.37452290  0.12843154  0.62809119  1
  Co  Co120  1  0.12854026  0.62704040  0.12864032  1
  Co  Co121  1  0.74982904  -0.00367938  0.75082775  1
  Co  Co122  1  0.61993470  0.37494437  0.37617505  1
  Co  Co123  1  0.87035094  0.62540344  0.12856154  1
  Co  Co124  1  0.50166798  0.74571210  -0.00085309  1
  Co  Co125  1  0.24991595  0.49810215  0.50124099  1
  Co  Co126  1  0.37561640  0.12549524  0.12595393  1
  Co  Co127  1  0.87557062  0.37175621  0.62213807  1
