# generated using pymatgen
data_Fe45Co19
_symmetry_space_group_name_H-M   'P 1'
_cell_length_a   11.41554802
_cell_length_b   11.41477495
_cell_length_c   11.41384403
_cell_angle_alpha   90.00071203
_cell_angle_beta   90.00339452
_cell_angle_gamma   90.00159319
_symmetry_Int_Tables_number   1
_chemical_formula_structural   Fe45Co19
_chemical_formula_sum   'Fe90 Co38'
_cell_volume   1487.29134699
_cell_formula_units_Z   2
loop_
 _symmetry_equiv_pos_site_id
 _symmetry_equiv_pos_as_xyz
  1  'x, y, z'
loop_
 _atom_site_type_symbol
 _atom_site_label
 _atom_site_symmetry_multiplicity
 _atom_site_fract_x
 _atom_site_fract_y
 _atom_site_fract_z
 _atom_site_occupancy
  Fe  Fe0  1  0.75077969  0.74928378  0.24909443  1
  Fe  Fe1  1  0.37447864  0.12792990  0.87467410  1
  Fe  Fe2  1  0.37303851  0.12399394  0.37523641  1
  Fe  Fe3  1  -0.00064896  0.49836855  0.24979362  1
  Fe  Fe4  1  0.87432414  0.62122695  0.62182219  1
  Fe  Fe5  1  0.50071864  0.00285084  0.50042004  1
  Fe  Fe6  1  0.24984100  0.50091197  0.50261096  1
  Fe  Fe7  1  0.87514273  0.87323320  0.12343626  1
  Fe  Fe8  1  0.87614128  0.62507827  0.12179645  1
  Fe  Fe9  1  0.24743145  0.50083300  -0.00707620  1
  Fe  Fe10  1  0.74988493  0.25354244  0.50204198  1
  Fe  Fe11  1  0.00046541  0.75011441  0.25028844  1
  Fe  Fe12  1  0.62558173  0.87725454  0.12709482  1
  Fe  Fe13  1  0.49553054  0.49905635  0.24925614  1
  Fe  Fe14  1  0.50056895  0.75063713  0.49899503  1
  Fe  Fe15  1  0.24927273  0.00342594  0.00467569  1
  Fe  Fe16  1  0.87546106  0.12608776  0.87804002  1
  Fe  Fe17  1  0.87548566  0.62366417  0.37711332  1
  Fe  Fe18  1  0.24662091  0.74938121  -0.00356607  1
  Fe  Fe19  1  -0.00439248  -0.00102142  0.25389269  1
  Fe  Fe20  1  0.12080255  0.37491166  0.12375036  1
  Fe  Fe21  1  0.49832228  0.00070332  0.00296470  1
  Fe  Fe22  1  0.00056635  0.24857003  0.75235277  1
  Fe  Fe23  1  -0.00298162  -0.00091469  0.75099807  1
  Fe  Fe24  1  0.49536666  0.49634538  0.75457872  1
  Fe  Fe25  1  0.12617390  0.62511585  0.63095493  1
  Fe  Fe26  1  0.75167241  0.74867704  0.75086741  1
  Fe  Fe27  1  0.62770626  0.87753958  0.62680182  1
  Fe  Fe28  1  0.12446406  0.87556557  0.62523978  1
  Fe  Fe29  1  0.62704271  0.87722120  0.87418403  1
  Fe  Fe30  1  0.75212073  0.00129521  0.00199421  1
  Fe  Fe31  1  0.37330903  0.37233216  0.12087690  1
  Fe  Fe32  1  0.37458017  0.62610911  0.62807999  1
  Fe  Fe33  1  0.12327604  0.87526788  0.87315324  1
  Fe  Fe34  1  0.75205056  0.49704473  0.24826534  1
  Fe  Fe35  1  0.75037940  0.24926468  0.74903087  1
  Fe  Fe36  1  -0.00279476  0.49972521  0.75258906  1
  Fe  Fe37  1  0.12322978  0.37584613  0.62799151  1
  Fe  Fe38  1  0.88182217  0.13035603  0.12266819  1
  Fe  Fe39  1  0.25167613  0.49924707  0.24918586  1
  Fe  Fe40  1  0.24800401  0.24650375  0.50285549  1
  Fe  Fe41  1  0.37149186  0.87836103  0.37364504  1
  Fe  Fe42  1  0.00131424  0.75022096  0.49962228  1
  Fe  Fe43  1  0.62405162  0.12525379  0.12717873  1
  Fe  Fe44  1  0.49782715  0.24972920  0.25025212  1
  Fe  Fe45  1  0.87648058  0.37678928  0.37787715  1
  Fe  Fe46  1  0.74815673  0.74843842  0.50014515  1
  Fe  Fe47  1  0.49845082  0.49968217  0.49960464  1
  Fe  Fe48  1  0.37445875  0.87672283  0.87608898  1
  Fe  Fe49  1  0.24983825  0.75054102  0.50056048  1
  Fe  Fe50  1  0.24988493  0.00151166  0.74723281  1
  Fe  Fe51  1  0.87585997  0.12536267  0.62355235  1
  Fe  Fe52  1  0.50223583  0.24751550  0.50342821  1
  Fe  Fe53  1  0.62407349  0.62356239  0.12493721  1
  Fe  Fe54  1  -0.00078671  -0.00078637  0.49694410  1
  Fe  Fe55  1  0.87312938  0.87543442  0.62343189  1
  Fe  Fe56  1  0.62703606  0.37809869  0.62945854  1
  Fe  Fe57  1  0.24618148  0.24713132  0.74984859  1
  Fe  Fe58  1  0.00124433  0.25089934  0.49878476  1
  Fe  Fe59  1  0.25006787  0.74943100  0.24970481  1
  Fe  Fe60  1  0.37542477  0.87724211  0.62453588  1
  Fe  Fe61  1  0.62743573  0.87832204  0.37103497  1
  Fe  Fe62  1  0.37441131  0.62592001  0.12122197  1
  Fe  Fe63  1  0.62563875  0.62182150  0.62781312  1
  Fe  Fe64  1  0.12394459  0.62269960  0.12320334  1
  Fe  Fe65  1  0.49748281  0.75070609  0.25029018  1
  Fe  Fe66  1  0.62742830  0.12479985  0.87422841  1
  Fe  Fe67  1  0.75163051  0.00082480  0.49816224  1
  Fe  Fe68  1  0.75358462  0.25159931  0.24731674  1
  Fe  Fe69  1  0.74967204  0.49652110  0.00194168  1
  Fe  Fe70  1  0.50075601  0.00418334  0.74851276  1
  Fe  Fe71  1  0.87401782  0.37211372  0.87901978  1
  Fe  Fe72  1  0.62434602  0.62315165  0.37409632  1
  Fe  Fe73  1  0.12567561  0.12215341  0.37345994  1
  Fe  Fe74  1  0.87822512  0.62924526  0.88025386  1
  Fe  Fe75  1  0.37294170  0.37361073  0.37659116  1
  Fe  Fe76  1  0.12665359  0.37623325  0.37571682  1
  Fe  Fe77  1  0.12475782  0.87838847  0.12732312  1
  Fe  Fe78  1  0.50141344  0.75113422  -0.00115332  1
  Fe  Fe79  1  0.49942641  0.75153678  0.75133070  1
  Fe  Fe80  1  0.87525116  0.87201671  0.87794193  1
  Fe  Fe81  1  0.62802439  0.12391726  0.37201804  1
  Fe  Fe82  1  0.12558528  0.62463793  0.37505499  1
  Fe  Fe83  1  0.62547116  0.62308775  0.87463835  1
  Fe  Fe84  1  0.62402533  0.37525648  0.37308792  1
  Fe  Fe85  1  0.24748457  0.24749704  0.24669936  1
  Fe  Fe86  1  0.49967013  0.49591846  -0.00268395  1
  Fe  Fe87  1  0.50452899  0.25274693  -0.00277901  1
  Fe  Fe88  1  0.24177653  0.24651979  0.00008512  1
  Fe  Fe89  1  0.37432541  0.37141418  0.62751494  1
  Co  Co90  1  0.12154986  0.62839450  0.86983152  1
  Co  Co91  1  0.75382250  0.00026201  0.75278420  1
  Co  Co92  1  -0.00103475  -0.00171437  -0.00147112  1
  Co  Co93  1  0.63064453  0.12281397  0.62550006  1
  Co  Co94  1  0.87310001  0.12855419  0.37707936  1
  Co  Co95  1  -0.00430729  0.75119600  0.74725739  1
  Co  Co96  1  0.00712053  0.25011504  -0.00535150  1
  Co  Co97  1  0.49550882  0.00070416  0.24758287  1
  Co  Co98  1  0.37571323  0.62742686  0.87536924  1
  Co  Co99  1  0.25288996  0.49927843  0.75282858  1
  Co  Co100  1  0.12524794  0.37661358  0.87168160  1
  Co  Co101  1  0.12021577  0.12335778  0.62530697  1
  Co  Co102  1  0.87703573  0.37553558  0.62478486  1
  Co  Co103  1  0.12441466  0.11902765  0.87360458  1
  Co  Co104  1  0.00531954  0.75152760  0.00283426  1
  Co  Co105  1  0.74710090  0.24970847  0.00325629  1
  Co  Co106  1  0.88068997  0.37111573  0.12067574  1
  Co  Co107  1  0.75620993  0.00254137  0.24673856  1
  Co  Co108  1  0.87261703  0.87123808  0.37590840  1
  Co  Co109  1  0.25368804  0.00460374  0.24397145  1
  Co  Co110  1  0.37743433  0.13092046  0.12145441  1
  Co  Co111  1  0.75636168  0.50185724  0.75383830  1
  Co  Co112  1  0.74651260  0.75086456  0.00055989  1
  Co  Co113  1  0.37331538  0.62500230  0.37530670  1
  Co  Co114  1  0.00085732  0.25285945  0.25477781  1
  Co  Co115  1  0.11558014  0.12322436  0.12781780  1
  Co  Co116  1  0.62323773  0.37510834  0.12775266  1
  Co  Co117  1  0.00420171  0.50008906  0.50047535  1
  Co  Co118  1  0.00151941  0.49948655  -0.00277732  1
  Co  Co119  1  0.12746757  0.87651170  0.37335355  1
  Co  Co120  1  0.50402296  0.24835306  0.74890968  1
  Co  Co121  1  0.37339821  0.87093032  0.12325262  1
  Co  Co122  1  0.25232752  0.75300310  0.75145064  1
  Co  Co123  1  0.24882515  0.00155549  0.50265615  1
  Co  Co124  1  0.74744816  0.49755662  0.49871888  1
  Co  Co125  1  0.37175491  0.36716534  0.87572743  1
  Co  Co126  1  0.62930304  0.37537766  0.87165826  1
  Co  Co127  1  0.37436332  0.12613513  0.62709512  1
