# generated using pymatgen
data_Fe45Co19
_symmetry_space_group_name_H-M   'P 1'
_cell_length_a   11.41478458
_cell_length_b   11.41574970
_cell_length_c   11.41402957
_cell_angle_alpha   89.99647283
_cell_angle_beta   89.99077849
_cell_angle_gamma   89.99302400
_symmetry_Int_Tables_number   1
_chemical_formula_structural   Fe45Co19
_chemical_formula_sum   'Fe90 Co38'
_cell_volume   1487.34302612
_cell_formula_units_Z   2
loop_
 _symmetry_equiv_pos_site_id
 _symmetry_equiv_pos_as_xyz
  1  'x, y, z'
loop_
 _atom_site_type_symbol
 _atom_site_label
 _atom_site_symmetry_multiplicity
 _atom_site_fract_x
 _atom_site_fract_y
 _atom_site_fract_z
 _atom_site_occupancy
  Fe  Fe0  1  0.00133202  0.75125411  0.24987547  1
  Fe  Fe1  1  0.50034110  0.00165504  0.75408500  1
  Fe  Fe2  1  0.74735415  -0.00263680  0.75025287  1
  Fe  Fe3  1  0.74614432  0.49705354  0.24887328  1
  Fe  Fe4  1  0.74984454  0.50127356  0.00156279  1
  Fe  Fe5  1  0.25183952  0.74687040  0.49773214  1
  Fe  Fe6  1  0.75098794  0.75148393  0.49932861  1
  Fe  Fe7  1  0.62539889  0.87615332  0.37544950  1
  Fe  Fe8  1  0.49767121  0.25056467  0.49913893  1
  Fe  Fe9  1  0.74733399  0.00058289  0.00288278  1
  Fe  Fe10  1  0.37933630  0.87951403  0.12248448  1
  Fe  Fe11  1  0.12466087  0.87504507  0.37693550  1
  Fe  Fe12  1  0.62274894  0.12573754  0.37427979  1
  Fe  Fe13  1  0.87565422  0.37429730  0.12560316  1
  Fe  Fe14  1  0.00135511  0.75192159  0.74998875  1
  Fe  Fe15  1  0.25487348  0.24921479  0.00297417  1
  Fe  Fe16  1  0.87545659  0.62400486  0.87491678  1
  Fe  Fe17  1  0.12615191  0.62444414  0.87674744  1
  Fe  Fe18  1  0.87423794  0.12318104  0.87201281  1
  Fe  Fe19  1  0.25144564  0.74904680  0.75152330  1
  Fe  Fe20  1  0.49737091  0.74763780  0.75339609  1
  Fe  Fe21  1  0.25130318  0.49938151  0.49919085  1
  Fe  Fe22  1  0.12266190  0.37015280  0.61859249  1
  Fe  Fe23  1  0.25033622  0.00281115  0.50093622  1
  Fe  Fe24  1  0.00282318  0.00072774  0.74521329  1
  Fe  Fe25  1  0.37508862  0.37695100  0.87624073  1
  Fe  Fe26  1  0.74727671  0.25010547  0.25014051  1
  Fe  Fe27  1  0.12670661  0.87348074  0.12333041  1
  Fe  Fe28  1  0.24848954  -0.00061378  0.74730782  1
  Fe  Fe29  1  0.87508032  0.87906074  0.12878472  1
  Fe  Fe30  1  -0.00122044  0.75012360  0.49816586  1
  Fe  Fe31  1  0.00146700  0.49642168  0.75106586  1
  Fe  Fe32  1  -0.00120206  0.00057017  0.50326759  1
  Fe  Fe33  1  0.12432465  0.62563946  0.62465534  1
  Fe  Fe34  1  0.24909602  -0.00142057  0.25013739  1
  Fe  Fe35  1  0.24820655  0.49766235  0.74747789  1
  Fe  Fe36  1  0.62648811  0.12582227  0.62473086  1
  Fe  Fe37  1  0.74922522  0.49888636  0.75073697  1
  Fe  Fe38  1  0.87559059  0.87707081  0.87561219  1
  Fe  Fe39  1  0.00163523  0.00125563  0.00135981  1
  Fe  Fe40  1  0.74944811  0.75093461  0.75260760  1
  Fe  Fe41  1  0.61714338  0.12515375  0.12747536  1
  Fe  Fe42  1  0.62549755  0.37483878  0.62135281  1
  Fe  Fe43  1  0.49939829  0.50053570  0.49927191  1
  Fe  Fe44  1  0.50476010  0.49573931  0.24864911  1
  Fe  Fe45  1  0.12569472  0.12719740  0.12655186  1
  Fe  Fe46  1  0.50130131  0.25073346  0.75223797  1
  Fe  Fe47  1  0.62267437  0.87359153  0.62494028  1
  Fe  Fe48  1  0.87628494  0.37450573  0.62384857  1
  Fe  Fe49  1  0.62566294  0.62514010  0.62270587  1
  Fe  Fe50  1  0.87644411  0.37666631  0.37212400  1
  Fe  Fe51  1  0.12728437  0.87563105  0.87600967  1
  Fe  Fe52  1  0.87705056  0.12262835  0.12931814  1
  Fe  Fe53  1  0.12925580  0.62281101  0.36826586  1
  Fe  Fe54  1  0.50038935  0.50213443  0.00257932  1
  Fe  Fe55  1  0.37643355  0.12604230  0.37011829  1
  Fe  Fe56  1  0.75169445  0.25293295  0.75127664  1
  Fe  Fe57  1  0.62035138  0.87255675  0.88320698  1
  Fe  Fe58  1  0.00111112  0.50187979  0.00343905  1
  Fe  Fe59  1  0.49915368  0.00064422  0.49995885  1
  Fe  Fe60  1  0.25434316  0.74825338  -0.00027966  1
  Fe  Fe61  1  0.37235396  0.62197495  0.13171657  1
  Fe  Fe62  1  0.50170789  0.49994139  0.75042024  1
  Fe  Fe63  1  0.12452962  0.37349137  0.87868471  1
  Fe  Fe64  1  0.87569975  0.11965152  0.37038679  1
  Fe  Fe65  1  0.87307498  0.62473547  0.37185803  1
  Fe  Fe66  1  0.87398891  0.62479631  0.12754104  1
  Fe  Fe67  1  0.75270544  0.24939586  0.49783136  1
  Fe  Fe68  1  0.62513266  0.37308686  0.88043705  1
  Fe  Fe69  1  0.75093595  0.24676521  0.00160868  1
  Fe  Fe70  1  0.12631656  0.12593787  0.87372505  1
  Fe  Fe71  1  0.37602306  0.62444881  0.62444111  1
  Fe  Fe72  1  0.12502193  0.12846761  0.37640795  1
  Fe  Fe73  1  0.37515374  0.12645278  0.62671152  1
  Fe  Fe74  1  -0.00151352  0.74981121  0.00099789  1
  Fe  Fe75  1  0.87445080  0.62593394  0.62604048  1
  Fe  Fe76  1  0.37518984  0.87366416  0.62429856  1
  Fe  Fe77  1  0.24906517  0.25536683  0.24912140  1
  Fe  Fe78  1  0.25432070  0.00393609  0.00026448  1
  Fe  Fe79  1  0.74668690  0.75406075  0.24731358  1
  Fe  Fe80  1  0.75154185  -0.00120224  0.50036443  1
  Fe  Fe81  1  -0.00070133  0.50199519  0.49698597  1
  Fe  Fe82  1  0.62507724  0.62374596  0.37576002  1
  Fe  Fe83  1  -0.00231249  0.24771016  -0.00120797  1
  Fe  Fe84  1  0.62579071  0.62747682  0.87963963  1
  Fe  Fe85  1  0.24756094  0.49895329  0.00567160  1
  Fe  Fe86  1  0.50007443  0.75137386  0.24971990  1
  Fe  Fe87  1  0.37523258  0.87442791  0.37726025  1
  Fe  Fe88  1  0.24868518  0.25286327  0.74724254  1
  Fe  Fe89  1  0.37457615  0.37736547  0.37402550  1
  Co  Co90  1  0.24534825  0.49121218  0.24642884  1
  Co  Co91  1  0.37982071  0.37409970  0.12293247  1
  Co  Co92  1  -0.00038596  0.25129231  0.75230364  1
  Co  Co93  1  0.25565416  0.25027337  0.49793818  1
  Co  Co94  1  0.62611901  0.37504068  0.37923858  1
  Co  Co95  1  0.75236832  0.50018851  0.50006314  1
  Co  Co96  1  0.49579555  0.24366894  -0.00389290  1
  Co  Co97  1  0.49987475  0.74895988  0.49757259  1
  Co  Co98  1  0.00007812  0.24983391  0.25100808  1
  Co  Co99  1  0.37469316  0.62116308  0.36943033  1
  Co  Co100  1  0.12301302  0.37347284  0.37870302  1
  Co  Co101  1  0.87430055  0.37597820  0.87893135  1
  Co  Co102  1  -0.00608772  0.24661729  0.49698382  1
  Co  Co103  1  0.12541266  0.13048005  0.62230936  1
  Co  Co104  1  0.37794331  0.12535741  0.13302941  1
  Co  Co105  1  0.62617166  0.62648800  0.12497014  1
  Co  Co106  1  0.25327875  0.75570815  0.25020473  1
  Co  Co107  1  0.61847559  0.87665807  0.11827391  1
  Co  Co108  1  0.87466107  0.87356516  0.62536392  1
  Co  Co109  1  0.37695724  0.37522507  0.62545029  1
  Co  Co110  1  0.50167591  0.25621573  0.25258262  1
  Co  Co111  1  0.87206897  0.12514447  0.62833891  1
  Co  Co112  1  0.11982257  0.37071604  0.12307674  1
  Co  Co113  1  0.49332765  0.74376594  0.00214236  1
  Co  Co114  1  0.36955518  0.12806909  0.86898857  1
  Co  Co115  1  0.00310341  0.49988117  0.24766164  1
  Co  Co116  1  0.37201683  0.61833228  0.87471838  1
  Co  Co117  1  0.49652231  0.01013283  -0.00596789  1
  Co  Co118  1  0.12725259  0.87225414  0.62232012  1
  Co  Co119  1  0.87553033  0.87830086  0.37145068  1
  Co  Co120  1  0.75392294  0.75193997  0.00273407  1
  Co  Co121  1  0.50048459  -0.00409510  0.25317644  1
  Co  Co122  1  0.62969841  0.12724110  0.87378913  1
  Co  Co123  1  0.00662902  -0.00025269  0.24914423  1
  Co  Co124  1  0.62479804  0.37109758  0.11967944  1
  Co  Co125  1  0.12808806  0.62953282  0.12765748  1
  Co  Co126  1  0.74351768  0.00059691  0.24757535  1
  Co  Co127  1  0.37582972  0.87627566  0.87577152  1
