# generated using pymatgen
data_Fe45Co19
_symmetry_space_group_name_H-M   'P 1'
_cell_length_a   11.41560976
_cell_length_b   11.41475221
_cell_length_c   11.41735696
_cell_angle_alpha   90.00206695
_cell_angle_beta   89.99885977
_cell_angle_gamma   90.00262420
_symmetry_Int_Tables_number   1
_chemical_formula_structural   Fe45Co19
_chemical_formula_sum   'Fe90 Co38'
_cell_volume   1487.75418695
_cell_formula_units_Z   2
loop_
 _symmetry_equiv_pos_site_id
 _symmetry_equiv_pos_as_xyz
  1  'x, y, z'
loop_
 _atom_site_type_symbol
 _atom_site_label
 _atom_site_symmetry_multiplicity
 _atom_site_fract_x
 _atom_site_fract_y
 _atom_site_fract_z
 _atom_site_occupancy
  Fe  Fe0  1  0.74872568  0.24981567  0.75095700  1
  Fe  Fe1  1  0.50331858  -0.00321408  0.00130810  1
  Fe  Fe2  1  -0.00308956  0.74853673  0.50282677  1
  Fe  Fe3  1  0.37472775  0.12423161  0.37206044  1
  Fe  Fe4  1  0.87275152  0.87696236  0.87419971  1
  Fe  Fe5  1  0.49854309  0.50182843  0.00266602  1
  Fe  Fe6  1  0.12606642  0.37624802  0.87391599  1
  Fe  Fe7  1  0.25172071  0.50163658  0.00116117  1
  Fe  Fe8  1  0.62327132  0.37224316  0.37243241  1
  Fe  Fe9  1  0.24876659  -0.00166195  0.00173884  1
  Fe  Fe10  1  0.49754630  0.50238512  0.24990100  1
  Fe  Fe11  1  0.12413136  0.62614076  0.12446968  1
  Fe  Fe12  1  0.62300411  0.37577570  0.12721262  1
  Fe  Fe13  1  0.24971711  0.50189624  0.24910385  1
  Fe  Fe14  1  0.87314400  0.87671631  0.62552464  1
  Fe  Fe15  1  0.49986354  0.74997862  0.00184935  1
  Fe  Fe16  1  0.37670222  0.12431420  0.87617638  1
  Fe  Fe17  1  0.49982352  0.74849070  0.74972233  1
  Fe  Fe18  1  0.62588965  0.62517863  0.87677021  1
  Fe  Fe19  1  0.75188994  0.25111903  0.24956287  1
  Fe  Fe20  1  0.50087061  0.50179613  0.74992870  1
  Fe  Fe21  1  0.75188090  0.49834191  0.25155074  1
  Fe  Fe22  1  0.87078101  0.61943069  0.87621741  1
  Fe  Fe23  1  0.75052167  0.25115146  0.49797200  1
  Fe  Fe24  1  0.87625399  0.12406254  0.37394696  1
  Fe  Fe25  1  0.25007428  0.50263476  0.50216151  1
  Fe  Fe26  1  0.62589174  0.37489899  0.87579588  1
  Fe  Fe27  1  0.00503773  -0.00180417  0.25097703  1
  Fe  Fe28  1  0.62237565  0.37183794  0.62396505  1
  Fe  Fe29  1  0.00266880  0.00168388  0.50051791  1
  Fe  Fe30  1  0.37165513  0.62994270  0.37429473  1
  Fe  Fe31  1  0.12403117  0.87417407  0.62549506  1
  Fe  Fe32  1  -0.00022515  0.24955857  0.50061270  1
  Fe  Fe33  1  0.12494672  0.37558760  0.12323441  1
  Fe  Fe34  1  0.49783940  0.25139982  0.00157622  1
  Fe  Fe35  1  -0.00368067  0.74800683  0.74959655  1
  Fe  Fe36  1  0.00034552  0.25101387  0.25024418  1
  Fe  Fe37  1  0.50524401  0.00229528  0.75070143  1
  Fe  Fe38  1  0.74425983  0.00093762  0.75151023  1
  Fe  Fe39  1  0.25181309  0.24836779  0.75058633  1
  Fe  Fe40  1  0.37778983  0.12658151  0.62541228  1
  Fe  Fe41  1  0.87561951  0.12281877  0.12523948  1
  Fe  Fe42  1  0.00037024  -0.00069588  -0.00076941  1
  Fe  Fe43  1  0.37742281  0.87584543  0.62477996  1
  Fe  Fe44  1  0.24922499  0.00078073  0.74840276  1
  Fe  Fe45  1  -0.00198382  0.74881984  -0.00232517  1
  Fe  Fe46  1  0.37750356  0.87257321  0.13114273  1
  Fe  Fe47  1  0.87359816  0.12324360  0.87477331  1
  Fe  Fe48  1  0.00015679  0.75002988  0.25164764  1
  Fe  Fe49  1  0.75177414  0.75263357  0.25417972  1
  Fe  Fe50  1  0.87813757  0.37924594  0.12412809  1
  Fe  Fe51  1  -0.00177622  0.24984541  0.74924617  1
  Fe  Fe52  1  0.37790981  0.37444001  0.62509608  1
  Fe  Fe53  1  0.87332855  0.37869907  0.62371183  1
  Fe  Fe54  1  0.75019396  0.75198165  0.00126685  1
  Fe  Fe55  1  0.24491666  -0.00406934  0.25046511  1
  Fe  Fe56  1  0.25334803  0.50389955  0.74707018  1
  Fe  Fe57  1  0.25193102  0.75081335  0.00138699  1
  Fe  Fe58  1  -0.00191637  0.50158189  0.74969456  1
  Fe  Fe59  1  0.50080423  -0.00006720  0.49862205  1
  Fe  Fe60  1  0.00034009  0.25037879  -0.00164345  1
  Fe  Fe61  1  0.12593161  0.87364582  0.87369797  1
  Fe  Fe62  1  0.74706462  -0.00305946  0.49870381  1
  Fe  Fe63  1  0.87562028  0.87580256  0.12622847  1
  Fe  Fe64  1  0.25093232  0.24855786  0.50059240  1
  Fe  Fe65  1  0.12463453  0.12409925  0.87380655  1
  Fe  Fe66  1  0.37303068  0.12551787  0.12530341  1
  Fe  Fe67  1  0.62655640  0.62610336  0.12678662  1
  Fe  Fe68  1  0.62411002  0.12622190  0.37482460  1
  Fe  Fe69  1  0.37641791  0.87447550  0.87349136  1
  Fe  Fe70  1  0.25304898  0.74763512  0.74586658  1
  Fe  Fe71  1  0.75037079  0.74847553  0.74824088  1
  Fe  Fe72  1  0.24878578  -0.00034227  0.49903866  1
  Fe  Fe73  1  0.37508742  0.37607196  0.87537803  1
  Fe  Fe74  1  0.24926939  0.25002549  0.24817686  1
  Fe  Fe75  1  0.12599314  0.37558081  0.62555337  1
  Fe  Fe76  1  0.74824937  -0.00231068  0.25051653  1
  Fe  Fe77  1  0.87518240  0.62237063  0.12454269  1
  Fe  Fe78  1  0.12433016  0.37520546  0.37584420  1
  Fe  Fe79  1  0.50000099  0.49921908  0.49726637  1
  Fe  Fe80  1  0.62656135  0.12492900  0.12312935  1
  Fe  Fe81  1  0.62791560  0.62586607  0.37633977  1
  Fe  Fe82  1  0.62747294  0.62620026  0.62092060  1
  Fe  Fe83  1  0.37516630  0.37386154  0.37278145  1
  Fe  Fe84  1  0.75265552  0.25250721  0.00072404  1
  Fe  Fe85  1  0.87368262  0.12304845  0.62543900  1
  Fe  Fe86  1  0.12743400  0.62606406  0.87323205  1
  Fe  Fe87  1  0.87445421  0.62045486  0.37920823  1
  Fe  Fe88  1  0.12571176  0.62746416  0.37787705  1
  Fe  Fe89  1  0.49990266  0.75265184  0.49734260  1
  Co  Co90  1  0.74798692  0.49848686  0.00230368  1
  Co  Co91  1  0.74648567  0.49941456  0.74845088  1
  Co  Co92  1  0.37523418  0.62535413  0.87623052  1
  Co  Co93  1  0.12485702  0.12747433  0.37484552  1
  Co  Co94  1  0.37363531  0.37493174  0.12581122  1
  Co  Co95  1  0.87389472  0.37797724  0.87519079  1
  Co  Co96  1  0.00104469  -0.00097458  0.75002154  1
  Co  Co97  1  0.00153380  0.50139077  0.25133665  1
  Co  Co98  1  0.00196740  0.50174944  -0.00242856  1
  Co  Co99  1  0.50220264  0.00265642  0.24891340  1
  Co  Co100  1  0.62496093  0.87261179  0.62517185  1
  Co  Co101  1  0.87720066  0.37616215  0.37576448  1
  Co  Co102  1  0.75195930  0.75455397  0.49685741  1
  Co  Co103  1  0.49932497  0.24780987  0.24832040  1
  Co  Co104  1  0.50209046  0.74726669  0.25255064  1
  Co  Co105  1  0.62483020  0.87159511  0.87471066  1
  Co  Co106  1  0.62468726  0.12771153  0.62205532  1
  Co  Co107  1  0.50036210  0.24842316  0.75231471  1
  Co  Co108  1  0.74645083  0.49533888  0.49853726  1
  Co  Co109  1  0.12493208  0.12622677  0.62580237  1
  Co  Co110  1  0.37480641  0.87408674  0.37239336  1
  Co  Co111  1  0.12487526  0.12584436  0.12460170  1
  Co  Co112  1  0.62188693  0.87570995  0.37252702  1
  Co  Co113  1  0.24963936  0.24933858  -0.00191528  1
  Co  Co114  1  0.49752868  0.24930196  0.49681273  1
  Co  Co115  1  0.62562025  0.12731634  0.88005068  1
  Co  Co116  1  0.74844897  -0.00316966  -0.00010910  1
  Co  Co117  1  0.37417092  0.62798829  0.12757706  1
  Co  Co118  1  0.12273067  0.62532142  0.62617504  1
  Co  Co119  1  0.87868322  0.87806504  0.37531616  1
  Co  Co120  1  0.00266123  0.49948159  0.50048061  1
  Co  Co121  1  0.24554815  0.75316841  0.24884213  1
  Co  Co122  1  0.25183007  0.75032785  0.50506399  1
  Co  Co123  1  0.12164572  0.87249452  0.12179804  1
  Co  Co124  1  0.87050208  0.62090090  0.62103378  1
  Co  Co125  1  0.12477147  0.87128341  0.37978498  1
  Co  Co126  1  0.38005920  0.62452867  0.62192895  1
  Co  Co127  1  0.62558373  0.87218770  0.12805174  1
