# generated using pymatgen
data_Fe45Co19
_symmetry_space_group_name_H-M   'P 1'
_cell_length_a   11.41514725
_cell_length_b   11.41556328
_cell_length_c   11.41549662
_cell_angle_alpha   90.00056601
_cell_angle_beta   90.00665869
_cell_angle_gamma   89.99331426
_symmetry_Int_Tables_number   1
_chemical_formula_structural   Fe45Co19
_chemical_formula_sum   'Fe90 Co38'
_cell_volume   1487.55717827
_cell_formula_units_Z   2
loop_
 _symmetry_equiv_pos_site_id
 _symmetry_equiv_pos_as_xyz
  1  'x, y, z'
loop_
 _atom_site_type_symbol
 _atom_site_label
 _atom_site_symmetry_multiplicity
 _atom_site_fract_x
 _atom_site_fract_y
 _atom_site_fract_z
 _atom_site_occupancy
  Fe  Fe0  1  0.87517608  0.37551855  0.12286003  1
  Fe  Fe1  1  -0.00018831  0.00256238  0.49934471  1
  Fe  Fe2  1  0.49917874  0.00344094  0.00072067  1
  Fe  Fe3  1  0.75121995  0.25039826  0.25127638  1
  Fe  Fe4  1  0.50146554  0.24637717  0.50051276  1
  Fe  Fe5  1  0.25032386  0.75106215  0.74987506  1
  Fe  Fe6  1  0.49973143  0.25138154  0.75007927  1
  Fe  Fe7  1  0.87335708  0.12503246  0.87343113  1
  Fe  Fe8  1  0.87374885  0.37573717  0.37822298  1
  Fe  Fe9  1  0.62517425  0.37465615  0.37654153  1
  Fe  Fe10  1  0.37902665  0.37808394  0.87806637  1
  Fe  Fe11  1  0.62671170  0.87482240  0.62381524  1
  Fe  Fe12  1  0.62474633  0.87258554  0.87516740  1
  Fe  Fe13  1  0.62233712  0.87487107  0.37656386  1
  Fe  Fe14  1  0.49574927  0.74989808  0.49945921  1
  Fe  Fe15  1  0.87441719  0.12533462  0.12602571  1
  Fe  Fe16  1  0.50049136  0.50336330  0.24807805  1
  Fe  Fe17  1  0.50063005  -0.00218166  0.74874841  1
  Fe  Fe18  1  0.49844043  0.74903611  0.74766825  1
  Fe  Fe19  1  0.74850210  0.50246311  0.25397823  1
  Fe  Fe20  1  0.25054743  0.74976884  -0.00114117  1
  Fe  Fe21  1  0.25129133  -0.00230054  0.24857303  1
  Fe  Fe22  1  0.00039157  0.75054891  0.74814745  1
  Fe  Fe23  1  0.12474843  0.37272407  0.12323871  1
  Fe  Fe24  1  -0.00046195  0.24917585  0.50091943  1
  Fe  Fe25  1  0.62556638  0.12569797  0.87152191  1
  Fe  Fe26  1  0.74954127  0.25090549  -0.00150987  1
  Fe  Fe27  1  0.00073532  0.74817381  0.49937775  1
  Fe  Fe28  1  0.37426222  0.12200483  0.62526382  1
  Fe  Fe29  1  0.49911069  0.25095896  0.24969677  1
  Fe  Fe30  1  0.12545710  0.87459228  0.87655134  1
  Fe  Fe31  1  0.12218114  0.37438271  0.87711799  1
  Fe  Fe32  1  0.12433122  0.37455235  0.37548838  1
  Fe  Fe33  1  0.25253185  0.00168976  0.00032501  1
  Fe  Fe34  1  0.75160140  0.49896082  0.74750624  1
  Fe  Fe35  1  0.62477041  0.12619605  0.12650226  1
  Fe  Fe36  1  0.37556540  0.37627558  0.37648962  1
  Fe  Fe37  1  0.25302799  0.24866588  -0.00086392  1
  Fe  Fe38  1  -0.00048008  0.00013948  0.00178553  1
  Fe  Fe39  1  0.37136256  0.62269476  0.62276257  1
  Fe  Fe40  1  0.62445965  0.37509562  0.12437009  1
  Fe  Fe41  1  0.12674856  0.62374640  0.62565023  1
  Fe  Fe42  1  0.75011540  -0.00221671  -0.00010847  1
  Fe  Fe43  1  0.62522806  0.87115873  0.12441038  1
  Fe  Fe44  1  -0.00186012  0.25085175  0.24946384  1
  Fe  Fe45  1  0.87607286  0.87169983  0.12887444  1
  Fe  Fe46  1  0.24860606  0.49776101  0.75137950  1
  Fe  Fe47  1  0.12711636  0.87629141  0.62394107  1
  Fe  Fe48  1  0.50016597  0.74508519  0.00168446  1
  Fe  Fe49  1  0.37573127  0.12294875  0.37451968  1
  Fe  Fe50  1  0.87515721  0.62618415  0.87232639  1
  Fe  Fe51  1  0.12466008  0.12541910  0.62790984  1
  Fe  Fe52  1  0.75020510  -0.00080641  0.25124248  1
  Fe  Fe53  1  0.12614013  0.12647219  0.12651973  1
  Fe  Fe54  1  0.49656696  0.74803851  0.25023997  1
  Fe  Fe55  1  0.12450782  0.87559652  0.37409289  1
  Fe  Fe56  1  0.62680109  0.37444147  0.62393835  1
  Fe  Fe57  1  0.87394778  0.87288700  0.87372946  1
  Fe  Fe58  1  0.37595216  0.87581612  0.87601654  1
  Fe  Fe59  1  0.00061073  0.50274099  0.00086844  1
  Fe  Fe60  1  0.25162833  0.25083894  0.75103686  1
  Fe  Fe61  1  0.74933430  0.50257197  0.00108536  1
  Fe  Fe62  1  0.62616534  0.62588084  0.62354715  1
  Fe  Fe63  1  0.75236808  0.74647621  0.49653538  1
  Fe  Fe64  1  0.62559545  0.62477692  0.87369827  1
  Fe  Fe65  1  -0.00048147  -0.00196192  0.75010451  1
  Fe  Fe66  1  0.12910855  0.62617628  0.12405164  1
  Fe  Fe67  1  -0.00111258  0.49780793  0.74869142  1
  Fe  Fe68  1  0.12446471  0.12607560  0.37176801  1
  Fe  Fe69  1  0.87207478  0.62863739  0.12950679  1
  Fe  Fe70  1  0.00053439  0.50083648  0.24909552  1
  Fe  Fe71  1  0.37636226  0.37539002  0.12195371  1
  Fe  Fe72  1  0.74890604  0.24463404  0.50110848  1
  Fe  Fe73  1  0.37192714  0.87896825  0.62111868  1
  Fe  Fe74  1  0.87308265  0.87531276  0.62472745  1
  Fe  Fe75  1  0.24905784  0.24981884  0.49898379  1
  Fe  Fe76  1  0.00030483  0.49966312  0.50211592  1
  Fe  Fe77  1  0.12774890  0.62358424  0.37624984  1
  Fe  Fe78  1  0.25082827  0.49733149  0.25004778  1
  Fe  Fe79  1  0.87816351  0.87514592  0.37301176  1
  Fe  Fe80  1  0.62330104  0.37713608  0.87538868  1
  Fe  Fe81  1  0.50025810  0.50020756  0.50049860  1
  Fe  Fe82  1  0.74863758  0.00457370  0.49964474  1
  Fe  Fe83  1  -0.00002819  0.74917152  0.00128244  1
  Fe  Fe84  1  0.49924593  -0.00146809  0.24955164  1
  Fe  Fe85  1  -0.00485015  0.25335942  0.75001762  1
  Fe  Fe86  1  0.25216447  0.75199052  0.25092851  1
  Fe  Fe87  1  0.37379095  0.37578310  0.62405704  1
  Fe  Fe88  1  0.37502002  0.62139361  0.87588572  1
  Fe  Fe89  1  0.12507129  0.12529423  0.87346054  1
  Co  Co90  1  0.87558569  0.12530183  0.37379143  1
  Co  Co91  1  0.75201754  0.25411995  0.75145647  1
  Co  Co92  1  0.87569716  0.37739046  0.87915530  1
  Co  Co93  1  0.37537551  0.87749418  0.37779407  1
  Co  Co94  1  0.87837953  0.62409949  0.37385268  1
  Co  Co95  1  0.24950616  0.75125315  0.49925806  1
  Co  Co96  1  0.62027318  0.62589018  0.37664532  1
  Co  Co97  1  0.37339891  0.62307898  0.37630602  1
  Co  Co98  1  0.50035648  0.50065319  0.74664543  1
  Co  Co99  1  0.50086043  0.24824963  -0.00059859  1
  Co  Co100  1  0.50328155  0.50375657  0.00446432  1
  Co  Co101  1  0.24946969  -0.00165425  0.75106670  1
  Co  Co102  1  0.24601048  0.00241588  0.49804894  1
  Co  Co103  1  0.87178195  0.37481287  0.62013997  1
  Co  Co104  1  0.12549572  0.37357969  0.62610023  1
  Co  Co105  1  0.12440800  0.62569902  0.87355187  1
  Co  Co106  1  0.74926052  -0.00297857  0.75063034  1
  Co  Co107  1  0.24735926  0.49731480  -0.00159801  1
  Co  Co108  1  0.62363477  0.12529305  0.37100373  1
  Co  Co109  1  0.74828607  0.75068946  0.25640651  1
  Co  Co110  1  0.50342780  0.00268724  0.50092230  1
  Co  Co111  1  0.75137461  0.75058016  -0.00170139  1
  Co  Co112  1  0.00449402  0.74806514  0.25052943  1
  Co  Co113  1  0.87537697  0.12415049  0.62805947  1
  Co  Co114  1  0.62509109  0.12517405  0.63064981  1
  Co  Co115  1  0.25160456  0.25299635  0.25129597  1
  Co  Co116  1  0.74918619  0.50392163  0.49818181  1
  Co  Co117  1  0.37675047  0.12360849  0.87190078  1
  Co  Co118  1  0.00084462  0.00103192  0.24826084  1
  Co  Co119  1  0.37571810  0.12606277  0.12767295  1
  Co  Co120  1  -0.00098962  0.24730411  0.00058915  1
  Co  Co121  1  0.62915483  0.62889520  0.12717217  1
  Co  Co122  1  0.74850824  0.74972568  0.74917920  1
  Co  Co123  1  0.24842351  0.49676973  0.50011597  1
  Co  Co124  1  0.87540495  0.62532850  0.62534720  1
  Co  Co125  1  0.37697787  0.87399524  0.12213121  1
  Co  Co126  1  0.37078932  0.62378968  0.12382192  1
  Co  Co127  1  0.12549703  0.87458436  0.12333919  1
