# generated using pymatgen
data_Fe45Co19
_symmetry_space_group_name_H-M   'P 1'
_cell_length_a   11.41545829
_cell_length_b   11.41443520
_cell_length_c   11.41535443
_cell_angle_alpha   90.00657899
_cell_angle_beta   90.00497238
_cell_angle_gamma   89.99606215
_symmetry_Int_Tables_number   1
_chemical_formula_structural   Fe45Co19
_chemical_formula_sum   'Fe90 Co38'
_cell_volume   1487.43218062
_cell_formula_units_Z   2
loop_
 _symmetry_equiv_pos_site_id
 _symmetry_equiv_pos_as_xyz
  1  'x, y, z'
loop_
 _atom_site_type_symbol
 _atom_site_label
 _atom_site_symmetry_multiplicity
 _atom_site_fract_x
 _atom_site_fract_y
 _atom_site_fract_z
 _atom_site_occupancy
  Fe  Fe0  1  0.25183826  0.50161919  0.75197457  1
  Fe  Fe1  1  -0.00053412  0.25051408  0.24827498  1
  Fe  Fe2  1  0.87602485  0.37526161  0.12265390  1
  Fe  Fe3  1  0.74895908  0.24924722  -0.00169732  1
  Fe  Fe4  1  0.25173484  0.74913482  0.49869880  1
  Fe  Fe5  1  0.87507463  0.87106084  0.87888430  1
  Fe  Fe6  1  0.62322885  0.37538501  0.62693179  1
  Fe  Fe7  1  0.37341502  0.12318950  0.12048318  1
  Fe  Fe8  1  0.75270575  0.74579596  0.74969345  1
  Fe  Fe9  1  0.12465866  0.87463224  0.37383131  1
  Fe  Fe10  1  -0.00090828  -0.00093359  0.75006661  1
  Fe  Fe11  1  0.37450240  0.37510212  0.37392307  1
  Fe  Fe12  1  0.62446743  0.12426430  0.62714726  1
  Fe  Fe13  1  0.87587953  0.37645798  0.62365101  1
  Fe  Fe14  1  0.74732616  0.49781687  0.49934547  1
  Fe  Fe15  1  -0.00007118  0.75017863  0.50036593  1
  Fe  Fe16  1  0.87609910  0.62888843  0.12108596  1
  Fe  Fe17  1  0.75108311  0.50372033  0.75049534  1
  Fe  Fe18  1  0.62264618  0.87506880  0.87320256  1
  Fe  Fe19  1  0.12307155  0.87188054  0.12872887  1
  Fe  Fe20  1  0.62529575  0.87476559  0.62610078  1
  Fe  Fe21  1  0.62224240  0.62493029  0.87496179  1
  Fe  Fe22  1  0.50084116  -0.00088532  0.50056006  1
  Fe  Fe23  1  0.37411966  0.12556748  0.37444602  1
  Fe  Fe24  1  -0.00321158  -0.00077227  0.25004685  1
  Fe  Fe25  1  0.87634954  0.37551388  0.87654941  1
  Fe  Fe26  1  0.62557708  0.12564474  0.12462930  1
  Fe  Fe27  1  0.00302124  0.49981163  0.49895662  1
  Fe  Fe28  1  0.12866926  0.37679309  0.12437100  1
  Fe  Fe29  1  0.74865926  0.00207693  0.49928522  1
  Fe  Fe30  1  0.12723722  0.12639286  0.37385347  1
  Fe  Fe31  1  0.00105927  0.24850433  0.50102167  1
  Fe  Fe32  1  0.37479391  0.37610921  0.62700536  1
  Fe  Fe33  1  0.87464616  0.62440730  0.37735561  1
  Fe  Fe34  1  0.24878610  0.74907148  0.00221868  1
  Fe  Fe35  1  0.25066063  0.24732526  0.75244494  1
  Fe  Fe36  1  0.00094081  0.00156181  0.50041752  1
  Fe  Fe37  1  0.00448156  0.24728057  -0.00061106  1
  Fe  Fe38  1  0.37685437  0.12207054  0.88210176  1
  Fe  Fe39  1  0.87444099  0.12385156  0.12350749  1
  Fe  Fe40  1  0.37476969  0.12431256  0.62302399  1
  Fe  Fe41  1  0.00326815  -0.00074223  -0.00022843  1
  Fe  Fe42  1  0.50071223  0.75097256  0.00411364  1
  Fe  Fe43  1  0.12628479  0.62749660  0.37086668  1
  Fe  Fe44  1  0.12687455  0.87342794  0.62690178  1
  Fe  Fe45  1  0.62298791  0.62454445  0.37228046  1
  Fe  Fe46  1  0.87498910  0.12528768  0.62597397  1
  Fe  Fe47  1  0.75063413  0.00149371  0.75323197  1
  Fe  Fe48  1  0.75004826  0.50199105  -0.00175284  1
  Fe  Fe49  1  0.62577315  0.87566708  0.37335416  1
  Fe  Fe50  1  0.62634457  0.87544695  0.12704133  1
  Fe  Fe51  1  0.25016728  0.50055611  0.49816537  1
  Fe  Fe52  1  0.12533566  0.62783965  0.62723573  1
  Fe  Fe53  1  0.24962125  0.00027754  0.50066119  1
  Fe  Fe54  1  0.62389894  0.62323862  0.12700524  1
  Fe  Fe55  1  0.12781354  0.37611823  0.87615059  1
  Fe  Fe56  1  0.00105920  0.24831451  0.75159454  1
  Fe  Fe57  1  0.12439727  0.62777945  0.87275960  1
  Fe  Fe58  1  0.37588622  0.87374936  0.37339547  1
  Fe  Fe59  1  0.49967792  -0.00047944  0.24815246  1
  Fe  Fe60  1  0.37659153  0.62502706  0.87515812  1
  Fe  Fe61  1  0.25089171  -0.00082933  0.24809008  1
  Fe  Fe62  1  0.62667398  0.12854195  0.37249342  1
  Fe  Fe63  1  0.75052103  0.24901893  0.75252227  1
  Fe  Fe64  1  0.75194691  0.49686932  0.25087240  1
  Fe  Fe65  1  0.36985405  0.37631159  0.12202642  1
  Fe  Fe66  1  0.37546194  0.87708068  0.87948323  1
  Fe  Fe67  1  0.00342481  0.50331013  -0.00019829  1
  Fe  Fe68  1  -0.00201114  0.50302026  0.75048443  1
  Fe  Fe69  1  0.87333685  0.87492868  0.37632016  1
  Fe  Fe70  1  0.50049237  0.50048541  0.49829739  1
  Fe  Fe71  1  0.25367360  -0.00005792  0.74884451  1
  Fe  Fe72  1  0.37625493  0.62467893  0.62456332  1
  Fe  Fe73  1  0.75216967  0.75115616  0.24910932  1
  Fe  Fe74  1  0.62306579  0.37615007  0.87521777  1
  Fe  Fe75  1  0.37406656  0.62467056  0.13091516  1
  Fe  Fe76  1  0.62530336  0.37634233  0.12448361  1
  Fe  Fe77  1  0.49841342  0.25233155  0.24638245  1
  Fe  Fe78  1  0.50019106  0.75017863  0.49916417  1
  Fe  Fe79  1  0.49834139  0.24903826  0.75397250  1
  Fe  Fe80  1  0.49726562  0.75159954  0.74775767  1
  Fe  Fe81  1  0.12676109  0.87313812  0.87124637  1
  Fe  Fe82  1  0.12645633  0.37215423  0.37371716  1
  Fe  Fe83  1  0.49700445  0.49838260  -0.00013295  1
  Fe  Fe84  1  0.87308259  0.87306289  0.62272939  1
  Fe  Fe85  1  0.74791453  -0.00016720  -0.00141158  1
  Fe  Fe86  1  0.87136766  0.12871196  0.37391275  1
  Fe  Fe87  1  0.12680393  0.37343079  0.62604123  1
  Fe  Fe88  1  0.49992665  0.25042129  0.50008907  1
  Fe  Fe89  1  -0.00025632  0.50093492  0.24969887  1
  Co  Co90  1  0.50032056  0.25351470  0.00083956  1
  Co  Co91  1  0.49666472  -0.00030147  0.74898026  1
  Co  Co92  1  0.25026578  0.50535740  -0.00128245  1
  Co  Co93  1  0.25094620  0.75194342  0.25001942  1
  Co  Co94  1  0.87652702  0.37388703  0.37660462  1
  Co  Co95  1  0.37441764  0.87460810  0.62204804  1
  Co  Co96  1  -0.00490816  0.74945678  0.74871655  1
  Co  Co97  1  -0.00447026  0.75006392  0.25113771  1
  Co  Co98  1  0.49946813  0.50003450  0.75140924  1
  Co  Co99  1  0.25500474  0.74999480  0.75068740  1
  Co  Co100  1  0.49947880  0.49570382  0.24953151  1
  Co  Co101  1  0.25068392  0.25095736  0.50021017  1
  Co  Co102  1  0.62312849  0.62578552  0.62492911  1
  Co  Co103  1  0.24847958  0.49932603  0.25237350  1
  Co  Co104  1  0.00534428  0.75034930  -0.00035457  1
  Co  Co105  1  0.62118258  0.12397700  0.87600049  1
  Co  Co106  1  0.62388557  0.37233062  0.37411631  1
  Co  Co107  1  0.37470161  0.87580129  0.12398943  1
  Co  Co108  1  0.50449903  -0.00323369  0.00268294  1
  Co  Co109  1  0.12577363  0.62611195  0.12860666  1
  Co  Co110  1  0.75065850  0.25401572  0.24725292  1
  Co  Co111  1  0.12481130  0.12374051  0.12839844  1
  Co  Co112  1  0.12582101  0.12099308  0.87250381  1
  Co  Co113  1  0.12592283  0.12426574  0.62557483  1
  Co  Co114  1  0.50115532  0.75278928  0.24877055  1
  Co  Co115  1  0.37685939  0.62551490  0.37147815  1
  Co  Co116  1  0.25166513  0.24950884  0.24812692  1
  Co  Co117  1  0.87619203  0.62670592  0.88008655  1
  Co  Co118  1  0.87713114  0.12502553  0.87745101  1
  Co  Co119  1  0.24432426  -0.00254495  0.00311325  1
  Co  Co120  1  0.75162732  -0.00106274  0.24951635  1
  Co  Co121  1  0.87490521  0.87433899  0.12091737  1
  Co  Co122  1  0.74912104  0.25112849  0.50240241  1
  Co  Co123  1  0.37253477  0.37452416  0.87629500  1
  Co  Co124  1  0.74785149  0.74929844  0.49872808  1
  Co  Co125  1  0.87533281  0.62346997  0.62020827  1
  Co  Co126  1  0.24586757  0.24708340  -0.00093123  1
  Co  Co127  1  0.74462430  0.75001570  0.00012058  1
