# generated using pymatgen
data_Fe45Co19
_symmetry_space_group_name_H-M   'P 1'
_cell_length_a   11.41457316
_cell_length_b   11.41641793
_cell_length_c   11.41575324
_cell_angle_alpha   90.00594628
_cell_angle_beta   89.99267588
_cell_angle_gamma   90.00850022
_symmetry_Int_Tables_number   1
_chemical_formula_structural   Fe45Co19
_chemical_formula_sum   'Fe90 Co38'
_cell_volume   1487.62715303
_cell_formula_units_Z   2
loop_
 _symmetry_equiv_pos_site_id
 _symmetry_equiv_pos_as_xyz
  1  'x, y, z'
loop_
 _atom_site_type_symbol
 _atom_site_label
 _atom_site_symmetry_multiplicity
 _atom_site_fract_x
 _atom_site_fract_y
 _atom_site_fract_z
 _atom_site_occupancy
  Fe  Fe0  1  0.62688494  0.12624545  0.87631102  1
  Fe  Fe1  1  0.87337128  0.12613009  0.12252873  1
  Fe  Fe2  1  0.37412989  0.62466032  0.12422134  1
  Fe  Fe3  1  0.12483054  0.62620270  0.12531587  1
  Fe  Fe4  1  0.49921296  0.24846784  0.75256268  1
  Fe  Fe5  1  0.87210123  0.12511748  0.37852767  1
  Fe  Fe6  1  0.12521738  0.12500587  0.37394890  1
  Fe  Fe7  1  0.37168756  0.12068434  0.87653943  1
  Fe  Fe8  1  0.74846102  0.49824818  -0.00087356  1
  Fe  Fe9  1  0.62526614  0.87530895  0.12596804  1
  Fe  Fe10  1  -0.00164339  0.00084193  0.50085286  1
  Fe  Fe11  1  -0.00107979  0.74968621  0.49963312  1
  Fe  Fe12  1  0.87609619  0.62484595  0.12097859  1
  Fe  Fe13  1  -0.00025106  0.49833405  0.50103134  1
  Fe  Fe14  1  -0.00144848  0.25026933  0.25034156  1
  Fe  Fe15  1  -0.00052449  0.49960953  0.24942141  1
  Fe  Fe16  1  0.24948261  0.24587020  0.00007407  1
  Fe  Fe17  1  0.62799897  0.12764220  0.62225436  1
  Fe  Fe18  1  0.74881065  -0.00115294  0.00067272  1
  Fe  Fe19  1  0.62428164  0.62348643  0.12458023  1
  Fe  Fe20  1  0.74596897  0.00218066  0.25081622  1
  Fe  Fe21  1  0.37475103  0.37477264  0.87513704  1
  Fe  Fe22  1  0.62681199  0.37273834  0.62894258  1
  Fe  Fe23  1  0.25054093  0.74991440  0.25060394  1
  Fe  Fe24  1  0.50487392  0.74928339  0.49854816  1
  Fe  Fe25  1  0.12586129  0.37431009  0.12701457  1
  Fe  Fe26  1  0.50041834  0.25149581  0.49840033  1
  Fe  Fe27  1  0.74980397  0.75008715  -0.00117895  1
  Fe  Fe28  1  0.87510577  0.87560035  0.12595065  1
  Fe  Fe29  1  0.37878713  0.12440893  0.37180477  1
  Fe  Fe30  1  0.62707883  0.62384221  0.62545748  1
  Fe  Fe31  1  0.00066401  0.75320478  -0.00173266  1
  Fe  Fe32  1  0.24738891  0.49818091  0.50091099  1
  Fe  Fe33  1  0.24903557  0.00030952  0.24565509  1
  Fe  Fe34  1  0.87007291  0.62524888  0.37832951  1
  Fe  Fe35  1  0.24945360  0.50047749  -0.00054732  1
  Fe  Fe36  1  0.12693040  0.12529928  0.62728563  1
  Fe  Fe37  1  0.00101574  0.49699829  0.00002118  1
  Fe  Fe38  1  0.37657365  0.87686859  0.37488096  1
  Fe  Fe39  1  0.12342247  0.62463583  0.87362199  1
  Fe  Fe40  1  0.49736272  0.49804175  0.24829328  1
  Fe  Fe41  1  0.12194152  0.87693315  0.62718660  1
  Fe  Fe42  1  0.37778237  0.87402472  0.62410803  1
  Fe  Fe43  1  -0.00133510  0.50061702  0.75035269  1
  Fe  Fe44  1  0.25157058  0.25114490  0.25015166  1
  Fe  Fe45  1  0.24912410  0.75355611  -0.00227448  1
  Fe  Fe46  1  0.49952545  0.50088852  0.75086147  1
  Fe  Fe47  1  0.12692048  0.37306022  0.87218987  1
  Fe  Fe48  1  0.87542190  0.87378690  0.62580003  1
  Fe  Fe49  1  0.50113789  0.49712943  -0.00093117  1
  Fe  Fe50  1  0.87047026  0.87395743  0.37500355  1
  Fe  Fe51  1  0.00181510  0.25075482  0.49872297  1
  Fe  Fe52  1  -0.00079838  0.00081920  0.24792216  1
  Fe  Fe53  1  0.37335370  0.62590699  0.62501159  1
  Fe  Fe54  1  0.50236999  0.75047365  0.25104165  1
  Fe  Fe55  1  0.62554686  0.37648951  0.37344758  1
  Fe  Fe56  1  0.75181973  0.50172670  0.75259785  1
  Fe  Fe57  1  0.62337938  0.87462057  0.87211778  1
  Fe  Fe58  1  0.74720988  0.24944412  0.24932731  1
  Fe  Fe59  1  0.50461486  -0.00079794  0.49799398  1
  Fe  Fe60  1  0.25012980  0.00119024  0.49993596  1
  Fe  Fe61  1  0.49975405  0.00135494  0.74972269  1
  Fe  Fe62  1  0.50020817  0.00137107  0.00140947  1
  Fe  Fe63  1  0.37520398  0.62362234  0.37602903  1
  Fe  Fe64  1  0.37496881  0.12595501  0.62329523  1
  Fe  Fe65  1  0.24905639  0.75137434  0.49899679  1
  Fe  Fe66  1  0.87323146  0.37210490  0.62595998  1
  Fe  Fe67  1  0.37241463  0.37554350  0.37581721  1
  Fe  Fe68  1  0.12449198  0.62623264  0.62743356  1
  Fe  Fe69  1  0.87755039  0.87869128  0.87453947  1
  Fe  Fe70  1  0.74562072  0.25281909  0.00133389  1
  Fe  Fe71  1  0.00223518  0.24770526  -0.00128511  1
  Fe  Fe72  1  0.87346671  0.37298322  0.87576117  1
  Fe  Fe73  1  0.37557489  0.87574678  0.12462014  1
  Fe  Fe74  1  0.25103459  0.75430782  0.75210167  1
  Fe  Fe75  1  -0.00268437  0.74908107  0.25090217  1
  Fe  Fe76  1  0.75244332  0.74648588  0.75246765  1
  Fe  Fe77  1  0.37674254  0.62700988  0.87375609  1
  Fe  Fe78  1  0.12368287  0.88462069  0.87351715  1
  Fe  Fe79  1  0.87462772  0.37525068  0.37510318  1
  Fe  Fe80  1  0.12727524  0.37140987  0.62746912  1
  Fe  Fe81  1  0.12445009  0.87622948  0.37389007  1
  Fe  Fe82  1  0.62655504  0.87542737  0.62796347  1
  Fe  Fe83  1  0.50153753  0.75092525  -0.00112904  1
  Fe  Fe84  1  -0.00293057  0.24343043  0.75305489  1
  Fe  Fe85  1  0.50228455  0.49967296  0.50047586  1
  Fe  Fe86  1  0.12534292  0.62315796  0.37460215  1
  Fe  Fe87  1  0.37288002  0.37391637  0.62596731  1
  Fe  Fe88  1  0.75436096  0.00542414  0.74905343  1
  Fe  Fe89  1  0.75143070  0.49981139  0.24702534  1
  Co  Co90  1  0.37769691  0.87799592  0.87648712  1
  Co  Co91  1  0.50405864  -0.00260549  0.24980055  1
  Co  Co92  1  0.62812151  0.87289699  0.37379088  1
  Co  Co93  1  0.75246989  0.24584920  0.75178534  1
  Co  Co94  1  0.12780597  0.11855787  0.87233491  1
  Co  Co95  1  -0.00005033  0.74975648  0.75273914  1
  Co  Co96  1  0.62363442  0.62542181  0.87582460  1
  Co  Co97  1  0.87282290  0.12522743  0.88286888  1
  Co  Co98  1  0.87586853  0.62537764  0.62376937  1
  Co  Co99  1  0.37335469  0.37332694  0.12152645  1
  Co  Co100  1  0.62540395  0.37377131  0.87183324  1
  Co  Co101  1  0.12539135  0.37485704  0.37354550  1
  Co  Co102  1  -0.00671262  0.00762300  0.74798897  1
  Co  Co103  1  0.74964438  0.49728252  0.50184106  1
  Co  Co104  1  0.38024813  0.12656167  0.12752997  1
  Co  Co105  1  0.12311040  0.12817692  0.12762592  1
  Co  Co106  1  0.87711445  0.62368052  0.87863502  1
  Co  Co107  1  0.62249338  0.12610377  0.12415827  1
  Co  Co108  1  0.24890781  0.00109608  0.00759911  1
  Co  Co109  1  0.74726213  0.75069256  0.50243642  1
  Co  Co110  1  0.62312858  0.37529044  0.12497877  1
  Co  Co111  1  0.00179591  0.00202740  0.00434509  1
  Co  Co112  1  0.25268122  0.24833107  0.75177212  1
  Co  Co113  1  0.74882495  -0.00176472  0.50030300  1
  Co  Co114  1  0.25057513  0.49962379  0.24871205  1
  Co  Co115  1  0.12324943  0.87215394  0.12718554  1
  Co  Co116  1  0.50011754  0.24962393  -0.00272250  1
  Co  Co117  1  0.62344379  0.12674644  0.37619317  1
  Co  Co118  1  0.62696727  0.62260471  0.37323184  1
  Co  Co119  1  0.25062490  0.50020703  0.75054106  1
  Co  Co120  1  0.50069415  0.25365461  0.25000445  1
  Co  Co121  1  0.74772448  0.25363332  0.49723711  1
  Co  Co122  1  0.25057180  0.24850283  0.49843549  1
  Co  Co123  1  0.74926988  0.74837616  0.24628981  1
  Co  Co124  1  0.49988471  0.74902114  0.74867900  1
  Co  Co125  1  0.87600925  0.37309873  0.12382097  1
  Co  Co126  1  0.25427678  -0.00254557  0.74566753  1
  Co  Co127  1  0.87189492  0.12896938  0.61767780  1
