# generated using pymatgen
data_Fe45Co19
_symmetry_space_group_name_H-M   'P 1'
_cell_length_a   11.41437424
_cell_length_b   11.41249288
_cell_length_c   11.41333519
_cell_angle_alpha   90.01361442
_cell_angle_beta   89.99983085
_cell_angle_gamma   90.00135908
_symmetry_Int_Tables_number   1
_chemical_formula_structural   Fe45Co19
_chemical_formula_sum   'Fe90 Co38'
_cell_volume   1486.77478251
_cell_formula_units_Z   2
loop_
 _symmetry_equiv_pos_site_id
 _symmetry_equiv_pos_as_xyz
  1  'x, y, z'
loop_
 _atom_site_type_symbol
 _atom_site_label
 _atom_site_symmetry_multiplicity
 _atom_site_fract_x
 _atom_site_fract_y
 _atom_site_fract_z
 _atom_site_occupancy
  Fe  Fe0  1  0.87471885  0.12675646  0.87342200  1
  Fe  Fe1  1  0.49811462  -0.00076062  0.24990366  1
  Fe  Fe2  1  0.62717182  0.87104544  0.87466134  1
  Fe  Fe3  1  0.87322806  0.62574563  0.87218988  1
  Fe  Fe4  1  0.87816718  0.62386828  0.12602778  1
  Fe  Fe5  1  0.12265742  0.87239596  0.12697446  1
  Fe  Fe6  1  0.74786847  0.00392276  0.49878510  1
  Fe  Fe7  1  0.74719228  0.25323750  0.74383070  1
  Fe  Fe8  1  -0.00134106  0.00052004  0.00003937  1
  Fe  Fe9  1  0.50019117  -0.00032193  0.49832727  1
  Fe  Fe10  1  0.12814961  0.62884966  0.87426744  1
  Fe  Fe11  1  0.49840259  0.50175512  0.75326944  1
  Fe  Fe12  1  0.50005977  0.25141047  -0.00044346  1
  Fe  Fe13  1  0.87116515  0.37563548  0.37867331  1
  Fe  Fe14  1  0.37479310  0.12719740  0.37637744  1
  Fe  Fe15  1  0.12915640  0.37901305  0.37719475  1
  Fe  Fe16  1  0.62405634  0.37742825  0.12539597  1
  Fe  Fe17  1  0.87651381  0.87241179  0.87099940  1
  Fe  Fe18  1  0.37467820  0.12766643  0.12444108  1
  Fe  Fe19  1  0.62329457  0.62317331  0.62569670  1
  Fe  Fe20  1  0.62509061  0.12580421  0.87224196  1
  Fe  Fe21  1  0.75199728  0.74962531  0.24942411  1
  Fe  Fe22  1  0.24986500  -0.00194876  0.00249606  1
  Fe  Fe23  1  0.88001244  0.62229697  0.62703338  1
  Fe  Fe24  1  0.37162510  0.87081827  0.87496017  1
  Fe  Fe25  1  0.49887997  0.74772585  0.75201925  1
  Fe  Fe26  1  0.37935383  0.37604598  0.62272054  1
  Fe  Fe27  1  0.75069736  -0.00012034  0.25052053  1
  Fe  Fe28  1  0.12151371  0.87453887  0.62602449  1
  Fe  Fe29  1  0.12667948  0.87283749  0.37442097  1
  Fe  Fe30  1  0.62449110  0.12515903  0.12628195  1
  Fe  Fe31  1  0.87687064  0.12775594  0.12906886  1
  Fe  Fe32  1  0.25106464  -0.00238983  0.74725583  1
  Fe  Fe33  1  0.12447954  0.62196124  0.62162700  1
  Fe  Fe34  1  0.24850321  0.49890726  0.74835297  1
  Fe  Fe35  1  0.36793992  0.62358491  0.37899635  1
  Fe  Fe36  1  0.37077543  0.61936769  0.11934877  1
  Fe  Fe37  1  0.87429379  0.62250061  0.37384668  1
  Fe  Fe38  1  0.62430391  0.87236561  0.37370984  1
  Fe  Fe39  1  0.62323948  0.87290696  0.12531149  1
  Fe  Fe40  1  0.49881411  0.25421001  0.25139491  1
  Fe  Fe41  1  0.12573374  0.12422076  0.87349387  1
  Fe  Fe42  1  0.12605539  0.12620410  0.62499276  1
  Fe  Fe43  1  0.24936106  0.25238752  0.50157047  1
  Fe  Fe44  1  0.49921734  -0.00159513  0.00037826  1
  Fe  Fe45  1  0.49655579  0.74550118  0.25082528  1
  Fe  Fe46  1  0.75006129  0.74642707  0.50136433  1
  Fe  Fe47  1  0.12684436  0.37721712  0.12519877  1
  Fe  Fe48  1  0.12407214  0.12717238  0.12792010  1
  Fe  Fe49  1  0.75250389  -0.00255800  0.74778047  1
  Fe  Fe50  1  0.37432894  0.12526501  0.87591263  1
  Fe  Fe51  1  0.74988381  0.25060366  0.00086730  1
  Fe  Fe52  1  0.50589852  0.24851437  0.50154025  1
  Fe  Fe53  1  0.62633121  0.38168205  0.38025700  1
  Fe  Fe54  1  0.74866682  0.25110826  0.25345007  1
  Fe  Fe55  1  0.24775103  0.74583457  0.24739219  1
  Fe  Fe56  1  0.12565609  0.37223058  0.87294363  1
  Fe  Fe57  1  0.49830393  0.74568673  -0.00179442  1
  Fe  Fe58  1  0.12433195  0.87462443  0.87247131  1
  Fe  Fe59  1  0.00075125  0.74812405  0.49776317  1
  Fe  Fe60  1  0.25199182  0.25379597  0.25060893  1
  Fe  Fe61  1  0.37784941  0.12485738  0.62516414  1
  Fe  Fe62  1  0.25310063  0.25115083  0.74910740  1
  Fe  Fe63  1  0.62409298  0.87443405  0.62404769  1
  Fe  Fe64  1  0.25120450  -0.00199836  0.50105867  1
  Fe  Fe65  1  0.49554809  0.49937729  0.25269176  1
  Fe  Fe66  1  0.87533548  0.37495668  0.87280602  1
  Fe  Fe67  1  -0.00051175  0.00008080  0.25274836  1
  Fe  Fe68  1  0.37227508  0.62624221  0.62469155  1
  Fe  Fe69  1  0.00299257  0.50122053  0.25343496  1
  Fe  Fe70  1  -0.00031504  0.24982887  0.74816625  1
  Fe  Fe71  1  0.62489721  0.37663289  0.87388696  1
  Fe  Fe72  1  0.25138104  0.00032507  0.24975826  1
  Fe  Fe73  1  0.00166864  0.00217708  0.49835569  1
  Fe  Fe74  1  0.49951132  0.74748945  0.49813739  1
  Fe  Fe75  1  0.37326049  0.87258450  0.37488463  1
  Fe  Fe76  1  0.49850695  -0.00201350  0.75135529  1
  Fe  Fe77  1  0.87441083  0.87510210  0.37645756  1
  Fe  Fe78  1  0.62517161  0.62349143  0.12700726  1
  Fe  Fe79  1  0.37404617  0.37780467  0.87963818  1
  Fe  Fe80  1  -0.00017646  0.75003982  0.00040937  1
  Fe  Fe81  1  0.87650652  0.37576608  0.12630420  1
  Fe  Fe82  1  0.87487854  0.12681815  0.62198222  1
  Fe  Fe83  1  0.74936800  0.50028597  0.00072078  1
  Fe  Fe84  1  0.00184246  0.25189541  0.49741391  1
  Fe  Fe85  1  0.00151762  0.49983438  -0.00372915  1
  Fe  Fe86  1  0.75058122  0.49913452  0.74689203  1
  Fe  Fe87  1  0.00106813  0.25021410  0.00076485  1
  Fe  Fe88  1  0.75204704  -0.00032457  0.00046109  1
  Fe  Fe89  1  0.75132033  0.74930010  0.00197730  1
  Co  Co90  1  0.62314077  0.12446593  0.37156456  1
  Co  Co91  1  0.00275654  0.50033005  0.75335927  1
  Co  Co92  1  0.49906751  0.25277012  0.75123496  1
  Co  Co93  1  0.24884939  0.75350802  0.50329729  1
  Co  Co94  1  0.87696624  0.87482453  0.12680377  1
  Co  Co95  1  0.00247408  0.25502314  0.25403782  1
  Co  Co96  1  0.75061325  0.49996252  0.24885157  1
  Co  Co97  1  0.37910795  0.87334156  0.62471445  1
  Co  Co98  1  0.25096353  0.49600943  0.50371677  1
  Co  Co99  1  0.12920819  0.62320537  0.37902602  1
  Co  Co100  1  0.37580408  0.87285391  0.12595316  1
  Co  Co101  1  0.00112838  0.74872258  0.74777052  1
  Co  Co102  1  -0.00041336  0.49851356  0.49701472  1
  Co  Co103  1  0.75156354  0.50406871  0.50431934  1
  Co  Co104  1  0.62743078  0.62323095  0.37324520  1
  Co  Co105  1  0.25165608  0.49920040  0.25104755  1
  Co  Co106  1  0.87667192  0.87537225  0.62121329  1
  Co  Co107  1  0.74492973  0.24851186  0.50140665  1
  Co  Co108  1  0.00007787  0.74753345  0.25351509  1
  Co  Co109  1  0.24368126  0.49928099  -0.00247716  1
  Co  Co110  1  0.62162218  0.38071195  0.62229286  1
  Co  Co111  1  0.62958442  0.62567814  0.87300165  1
  Co  Co112  1  0.12144385  0.37563105  0.62606264  1
  Co  Co113  1  0.24861704  0.75100168  0.74534182  1
  Co  Co114  1  -0.00166962  0.00160574  0.74784346  1
  Co  Co115  1  0.37383370  0.37792021  0.11987867  1
  Co  Co116  1  0.50404967  0.50242173  -0.00204413  1
  Co  Co117  1  0.36900848  0.62479964  0.87629683  1
  Co  Co118  1  0.24869669  0.24939021  0.00003183  1
  Co  Co119  1  0.24921100  0.75207893  0.00336120  1
  Co  Co120  1  0.12803746  0.12566268  0.37481088  1
  Co  Co121  1  0.49789388  0.50589190  0.49744580  1
  Co  Co122  1  0.62300214  0.12167621  0.63023260  1
  Co  Co123  1  0.75147291  0.75033694  0.74432171  1
  Co  Co124  1  0.37613505  0.37408466  0.38028813  1
  Co  Co125  1  0.12263397  0.62382631  0.12447512  1
  Co  Co126  1  0.87633317  0.12738356  0.37472985  1
  Co  Co127  1  0.87800742  0.37511077  0.62339347  1
