# generated using pymatgen
data_Fe45Co19
_symmetry_space_group_name_H-M   'P 1'
_cell_length_a   11.41554616
_cell_length_b   11.41589998
_cell_length_c   11.41489587
_cell_angle_alpha   90.00061222
_cell_angle_beta   90.00018840
_cell_angle_gamma   90.00378424
_symmetry_Int_Tables_number   1
_chemical_formula_structural   Fe45Co19
_chemical_formula_sum   'Fe90 Co38'
_cell_volume   1487.57476560
_cell_formula_units_Z   2
loop_
 _symmetry_equiv_pos_site_id
 _symmetry_equiv_pos_as_xyz
  1  'x, y, z'
loop_
 _atom_site_type_symbol
 _atom_site_label
 _atom_site_symmetry_multiplicity
 _atom_site_fract_x
 _atom_site_fract_y
 _atom_site_fract_z
 _atom_site_occupancy
  Fe  Fe0  1  0.37821015  0.62048813  0.87634056  1
  Fe  Fe1  1  0.25233311  0.24825521  0.75208703  1
  Fe  Fe2  1  0.87712702  0.12362283  0.87640812  1
  Fe  Fe3  1  -0.00249023  0.49763259  0.50172000  1
  Fe  Fe4  1  0.37488805  0.87668390  0.87492955  1
  Fe  Fe5  1  0.75201160  0.50174935  0.74938065  1
  Fe  Fe6  1  0.75002844  0.25152474  -0.00079971  1
  Fe  Fe7  1  0.37439442  0.12663386  0.37599662  1
  Fe  Fe8  1  0.49896972  0.74969219  0.24944955  1
  Fe  Fe9  1  0.62401614  0.37650605  0.87276280  1
  Fe  Fe10  1  0.87804010  0.62611048  0.37509361  1
  Fe  Fe11  1  0.12590699  0.12524212  0.62353980  1
  Fe  Fe12  1  0.12545405  0.37416434  0.87572537  1
  Fe  Fe13  1  0.12669132  0.37388303  0.12429757  1
  Fe  Fe14  1  0.62362281  0.62572841  0.37473018  1
  Fe  Fe15  1  0.12359052  0.12796927  0.87874861  1
  Fe  Fe16  1  0.75109010  0.74956530  0.75300849  1
  Fe  Fe17  1  0.62528619  0.12554186  0.12618036  1
  Fe  Fe18  1  0.25160290  0.00227421  0.75026529  1
  Fe  Fe19  1  -0.00367447  0.74730145  0.75037333  1
  Fe  Fe20  1  0.50141921  0.74959201  -0.00170150  1
  Fe  Fe21  1  0.75030114  0.75005558  0.49999890  1
  Fe  Fe22  1  0.12587632  0.87452944  0.12641804  1
  Fe  Fe23  1  0.25042095  0.50039467  0.75060547  1
  Fe  Fe24  1  0.12342828  0.62680914  0.12735048  1
  Fe  Fe25  1  0.49864261  0.50041983  0.24930012  1
  Fe  Fe26  1  0.12596954  0.87306641  0.62609260  1
  Fe  Fe27  1  0.62316373  0.12433716  0.87407942  1
  Fe  Fe28  1  0.25139734  0.50316459  0.49832936  1
  Fe  Fe29  1  0.12442907  0.37761421  0.37329918  1
  Fe  Fe30  1  0.25210597  0.50367046  0.25083984  1
  Fe  Fe31  1  0.49927455  0.74791236  0.74847296  1
  Fe  Fe32  1  0.87676258  0.37753248  0.87264627  1
  Fe  Fe33  1  0.62520271  0.62561066  0.12499737  1
  Fe  Fe34  1  0.49608266  0.00282981  0.74689674  1
  Fe  Fe35  1  0.37298700  0.87390141  0.12448124  1
  Fe  Fe36  1  0.12509980  0.37584957  0.62652581  1
  Fe  Fe37  1  0.87705006  0.12482413  0.12267885  1
  Fe  Fe38  1  0.62380759  0.12605278  0.37427786  1
  Fe  Fe39  1  0.25274701  0.74872756  0.74848297  1
  Fe  Fe40  1  0.37486949  0.37790998  0.87819068  1
  Fe  Fe41  1  -0.00063462  0.25006953  0.74784845  1
  Fe  Fe42  1  0.12383017  0.87349609  0.87483138  1
  Fe  Fe43  1  0.75252140  0.75150756  0.25112308  1
  Fe  Fe44  1  0.87649644  0.12745445  0.37936423  1
  Fe  Fe45  1  0.24763008  0.25170689  0.49834649  1
  Fe  Fe46  1  0.25050417  0.74706296  -0.00010236  1
  Fe  Fe47  1  0.74830085  0.00224205  0.50154839  1
  Fe  Fe48  1  0.62627846  0.62364346  0.62577280  1
  Fe  Fe49  1  0.75182091  -0.00045273  0.25051221  1
  Fe  Fe50  1  0.49698339  0.24936477  0.74910027  1
  Fe  Fe51  1  0.62453325  0.87495304  0.37622600  1
  Fe  Fe52  1  0.12336348  0.62414116  0.87396676  1
  Fe  Fe53  1  0.00035339  0.00118815  0.75025079  1
  Fe  Fe54  1  0.00096311  -0.00208758  0.49994527  1
  Fe  Fe55  1  0.74622695  0.49940257  -0.00018214  1
  Fe  Fe56  1  0.50061241  0.24950396  0.50107153  1
  Fe  Fe57  1  0.37394230  0.37766679  0.12355845  1
  Fe  Fe58  1  0.74854828  -0.00184973  -0.00269112  1
  Fe  Fe59  1  0.12692696  0.87144530  0.37408050  1
  Fe  Fe60  1  0.62211595  0.87657098  0.62517890  1
  Fe  Fe61  1  0.37463737  0.86936332  0.37822935  1
  Fe  Fe62  1  -0.00069802  -0.00213125  0.25012830  1
  Fe  Fe63  1  0.25108526  0.25028169  0.24994729  1
  Fe  Fe64  1  0.62623849  0.37469367  0.62560736  1
  Fe  Fe65  1  0.87598043  0.62588851  0.12356748  1
  Fe  Fe66  1  0.37367054  0.12398281  0.12544539  1
  Fe  Fe67  1  0.62354793  0.37349948  0.37265019  1
  Fe  Fe68  1  0.75072674  0.49998058  0.25176936  1
  Fe  Fe69  1  0.62604557  0.87490230  0.12567720  1
  Fe  Fe70  1  0.12255679  0.62767868  0.37418285  1
  Fe  Fe71  1  0.75239073  0.49704913  0.49819701  1
  Fe  Fe72  1  0.87557417  0.87482039  0.62462440  1
  Fe  Fe73  1  0.75101250  0.24702963  0.74716412  1
  Fe  Fe74  1  0.25190800  -0.00286923  0.50047506  1
  Fe  Fe75  1  0.75113503  0.00085765  0.74970497  1
  Fe  Fe76  1  0.75062852  0.24996485  0.25134964  1
  Fe  Fe77  1  0.24726842  0.00254160  -0.00000875  1
  Fe  Fe78  1  0.00162043  0.49974868  0.00024633  1
  Fe  Fe79  1  0.87587852  0.87420405  0.12083425  1
  Fe  Fe80  1  0.12534027  0.12406968  0.37367106  1
  Fe  Fe81  1  0.12363791  0.62515515  0.62456727  1
  Fe  Fe82  1  0.37254947  0.37527399  0.62337952  1
  Fe  Fe83  1  0.49813498  -0.00109974  0.25194324  1
  Fe  Fe84  1  0.87417629  0.37655558  0.12688915  1
  Fe  Fe85  1  0.74779581  0.75078649  -0.00563996  1
  Fe  Fe86  1  0.00048621  0.25111847  0.25006777  1
  Fe  Fe87  1  0.50144638  -0.00087795  0.00065147  1
  Fe  Fe88  1  0.49831891  0.50160283  0.50080475  1
  Fe  Fe89  1  0.50097613  0.25183412  0.00165829  1
  Co  Co90  1  0.37577875  0.62781726  0.37545188  1
  Co  Co91  1  0.49808459  0.00067066  0.49845511  1
  Co  Co92  1  0.87484886  0.37340485  0.62557540  1
  Co  Co93  1  0.25162966  0.24826948  0.00067580  1
  Co  Co94  1  0.87374004  0.62500302  0.62341315  1
  Co  Co95  1  0.37708062  0.62406825  0.12291101  1
  Co  Co96  1  0.50516031  0.49791897  0.00291908  1
  Co  Co97  1  0.25102588  0.74740861  0.24884497  1
  Co  Co98  1  0.87731535  0.12559020  0.62144527  1
  Co  Co99  1  0.49892695  0.49830875  0.74627922  1
  Co  Co100  1  0.37166026  0.12680827  0.62147788  1
  Co  Co101  1  0.87262457  0.87570039  0.37805625  1
  Co  Co102  1  0.00037573  0.50093697  0.74832471  1
  Co  Co103  1  0.37528641  0.87449429  0.62464501  1
  Co  Co104  1  0.49743125  0.24996941  0.24828665  1
  Co  Co105  1  0.62679075  0.37363657  0.12915260  1
  Co  Co106  1  0.24651149  0.50275795  0.00025607  1
  Co  Co107  1  0.87598569  0.37260627  0.37466134  1
  Co  Co108  1  0.62312076  0.12439573  0.62559842  1
  Co  Co109  1  0.00372111  -0.00086127  0.00044816  1
  Co  Co110  1  0.37534237  0.37524456  0.37564695  1
  Co  Co111  1  0.62161990  0.87737047  0.87156177  1
  Co  Co112  1  0.87551842  0.62274978  0.87722640  1
  Co  Co113  1  0.37639890  0.12392984  0.87805477  1
  Co  Co114  1  -0.00031925  0.75168704  0.50061119  1
  Co  Co115  1  0.62274561  0.62204035  0.87317762  1
  Co  Co116  1  0.87787414  0.87555268  0.87542125  1
  Co  Co117  1  0.25215149  -0.00124031  0.25151000  1
  Co  Co118  1  0.00232454  0.74886739  -0.00067101  1
  Co  Co119  1  -0.00030737  0.49970424  0.24902664  1
  Co  Co120  1  -0.00210777  0.25319125  0.00104984  1
  Co  Co121  1  0.50176818  0.74726553  0.50334146  1
  Co  Co122  1  0.37377853  0.62384232  0.62564722  1
  Co  Co123  1  0.24915406  0.74807958  0.50269725  1
  Co  Co124  1  0.74767479  0.25119970  0.50074850  1
  Co  Co125  1  0.00373296  0.25321185  0.50069407  1
  Co  Co126  1  0.12449339  0.12610710  0.12688953  1
  Co  Co127  1  -0.00246565  0.75398358  0.25045388  1
