# generated using pymatgen
data_Fe45Co19
_symmetry_space_group_name_H-M   'P 1'
_cell_length_a   11.41491783
_cell_length_b   11.41595812
_cell_length_c   11.41321318
_cell_angle_alpha   89.99862309
_cell_angle_beta   89.99624674
_cell_angle_gamma   90.00428869
_symmetry_Int_Tables_number   1
_chemical_formula_structural   Fe45Co19
_chemical_formula_sum   'Fe90 Co38'
_cell_volume   1487.28118427
_cell_formula_units_Z   2
loop_
 _symmetry_equiv_pos_site_id
 _symmetry_equiv_pos_as_xyz
  1  'x, y, z'
loop_
 _atom_site_type_symbol
 _atom_site_label
 _atom_site_symmetry_multiplicity
 _atom_site_fract_x
 _atom_site_fract_y
 _atom_site_fract_z
 _atom_site_occupancy
  Fe  Fe0  1  0.62332252  0.12585148  0.87286084  1
  Fe  Fe1  1  0.62484916  0.37838711  0.62551088  1
  Fe  Fe2  1  0.75126582  0.50368373  0.74488032  1
  Fe  Fe3  1  0.25040200  0.75154198  -0.00232623  1
  Fe  Fe4  1  -0.00135716  0.75465795  0.50191956  1
  Fe  Fe5  1  0.75189889  0.24869105  0.00018385  1
  Fe  Fe6  1  0.62464098  0.62840273  0.38033195  1
  Fe  Fe7  1  0.12596521  0.12465813  0.62401485  1
  Fe  Fe8  1  0.37637813  0.12441107  0.87336981  1
  Fe  Fe9  1  -0.00086693  0.25002935  0.74828931  1
  Fe  Fe10  1  0.12277884  0.62422680  0.62371039  1
  Fe  Fe11  1  0.87307548  0.87622048  0.38069973  1
  Fe  Fe12  1  0.62648387  0.12640432  0.12607675  1
  Fe  Fe13  1  0.50139333  0.25215106  -0.00170259  1
  Fe  Fe14  1  0.50084629  0.74984094  0.74475692  1
  Fe  Fe15  1  0.49839278  -0.00014907  0.74292206  1
  Fe  Fe16  1  0.87393779  0.37509140  0.37583793  1
  Fe  Fe17  1  0.24886214  0.50169784  0.74893224  1
  Fe  Fe18  1  0.24840656  0.25050408  0.00075192  1
  Fe  Fe19  1  0.87688930  0.37570042  0.12563760  1
  Fe  Fe20  1  0.25140835  0.74966286  0.50001173  1
  Fe  Fe21  1  0.75108690  0.24739972  0.74704775  1
  Fe  Fe22  1  0.62595149  0.62704901  0.12592645  1
  Fe  Fe23  1  0.00046523  -0.00169712  0.25165653  1
  Fe  Fe24  1  0.12467711  0.87256902  0.12634493  1
  Fe  Fe25  1  0.24917500  0.25174455  0.49864673  1
  Fe  Fe26  1  0.50175162  -0.00106709  0.25178554  1
  Fe  Fe27  1  0.74909210  0.74987998  -0.00331986  1
  Fe  Fe28  1  0.37609487  0.62493983  0.87509967  1
  Fe  Fe29  1  0.00047201  0.25114108  0.50073400  1
  Fe  Fe30  1  0.37352271  0.37704882  0.87511710  1
  Fe  Fe31  1  0.12385551  0.12313427  0.37708385  1
  Fe  Fe32  1  0.75037313  0.50182070  0.25284534  1
  Fe  Fe33  1  0.37690586  0.12313115  0.37837803  1
  Fe  Fe34  1  -0.00030922  0.49727413  0.50031766  1
  Fe  Fe35  1  0.87417153  0.62539740  0.37922124  1
  Fe  Fe36  1  -0.00260289  0.75126569  0.25270378  1
  Fe  Fe37  1  -0.00103473  -0.00126476  -0.00027377  1
  Fe  Fe38  1  -0.00215656  0.75046834  0.74703641  1
  Fe  Fe39  1  0.12382221  0.12585479  0.12389413  1
  Fe  Fe40  1  0.74890467  -0.00021572  0.25262632  1
  Fe  Fe41  1  0.49907591  0.24951037  0.25133634  1
  Fe  Fe42  1  0.50121731  0.50189909  0.25189499  1
  Fe  Fe43  1  0.62665393  0.87528210  0.86839846  1
  Fe  Fe44  1  0.12667915  0.37766982  0.36975002  1
  Fe  Fe45  1  0.87468593  0.62679109  0.12531929  1
  Fe  Fe46  1  0.25160656  0.74907356  0.25190256  1
  Fe  Fe47  1  0.24531267  0.50052516  0.00455201  1
  Fe  Fe48  1  0.37659896  0.87412757  0.12697157  1
  Fe  Fe49  1  0.74971298  0.50039127  -0.00061951  1
  Fe  Fe50  1  0.12306804  0.62480897  0.87464072  1
  Fe  Fe51  1  0.12696474  0.87434764  0.87114266  1
  Fe  Fe52  1  0.24970084  -0.00032849  0.25182977  1
  Fe  Fe53  1  0.37350657  0.37460948  0.12774687  1
  Fe  Fe54  1  0.62651395  0.37362998  0.12671886  1
  Fe  Fe55  1  0.87633425  0.12445886  0.87426838  1
  Fe  Fe56  1  0.12381996  0.12461615  0.87512117  1
  Fe  Fe57  1  0.49930444  0.25239178  0.74916293  1
  Fe  Fe58  1  0.49936914  0.25220289  0.50134009  1
  Fe  Fe59  1  0.12176831  0.37630749  0.87595728  1
  Fe  Fe60  1  0.50250262  0.49741483  -0.00155562  1
  Fe  Fe61  1  -0.00082857  0.75045656  -0.00140011  1
  Fe  Fe62  1  0.12463619  0.37645362  0.62545987  1
  Fe  Fe63  1  0.37565182  0.12477422  0.12475727  1
  Fe  Fe64  1  0.62348978  0.87146297  0.37963111  1
  Fe  Fe65  1  -0.00067613  -0.00040151  0.74635427  1
  Fe  Fe66  1  0.37198284  0.37698803  0.37309593  1
  Fe  Fe67  1  0.25139418  -0.00170509  0.49990426  1
  Fe  Fe68  1  0.50153738  0.75256902  -0.00219998  1
  Fe  Fe69  1  -0.00148522  0.24787177  0.25004594  1
  Fe  Fe70  1  0.62378008  0.12622813  0.37802090  1
  Fe  Fe71  1  0.24987262  0.24943244  0.75012620  1
  Fe  Fe72  1  0.62391922  0.62357377  0.87224780  1
  Fe  Fe73  1  0.75086674  0.24987598  0.50267456  1
  Fe  Fe74  1  0.62709117  0.37376911  0.37465265  1
  Fe  Fe75  1  0.50062287  -0.00233605  -0.00115110  1
  Fe  Fe76  1  0.25165321  -0.00243439  -0.00287418  1
  Fe  Fe77  1  0.74937452  0.00035758  -0.00142378  1
  Fe  Fe78  1  0.12340813  0.62478445  0.37482642  1
  Fe  Fe79  1  0.62667151  0.87215452  0.12650311  1
  Fe  Fe80  1  0.87590700  0.37737287  0.87363295  1
  Fe  Fe81  1  0.87283297  0.87469350  0.12515276  1
  Fe  Fe82  1  0.37409203  0.37735578  0.62393841  1
  Fe  Fe83  1  0.87521516  0.12316615  0.37843874  1
  Fe  Fe84  1  0.87718427  0.62369073  0.87361272  1
  Fe  Fe85  1  0.37731751  0.62628187  0.12306517  1
  Fe  Fe86  1  0.37747533  0.62569083  0.37801299  1
  Fe  Fe87  1  0.37764040  0.62130509  0.62310745  1
  Fe  Fe88  1  0.12916283  0.87492388  0.62637662  1
  Fe  Fe89  1  0.87173443  0.87478475  0.87034416  1
  Co  Co90  1  0.75253045  0.24871792  0.25070136  1
  Co  Co91  1  0.00196628  0.50083810  0.00268681  1
  Co  Co92  1  0.12628321  0.87351353  0.37555854  1
  Co  Co93  1  0.49981556  -0.00444571  0.50474567  1
  Co  Co94  1  0.37609740  0.87425493  0.86936011  1
  Co  Co95  1  0.74694229  0.00244571  0.49981777  1
  Co  Co96  1  0.87465363  0.12150510  0.12662650  1
  Co  Co97  1  0.62032741  0.62139805  0.62087236  1
  Co  Co98  1  0.12254893  0.63016896  0.12697741  1
  Co  Co99  1  0.50118256  0.49691576  0.49633760  1
  Co  Co100  1  0.49844081  0.75538577  0.50659268  1
  Co  Co101  1  0.75117925  0.75041859  0.25324620  1
  Co  Co102  1  0.25016966  0.24611081  0.25144609  1
  Co  Co103  1  0.25045363  0.74427138  0.74944359  1
  Co  Co104  1  0.62349704  0.12631670  0.62362618  1
  Co  Co105  1  0.75058430  0.00542075  0.74934006  1
  Co  Co106  1  -0.00208909  0.24992574  0.00015674  1
  Co  Co107  1  0.75046532  0.49929796  0.50099520  1
  Co  Co108  1  0.75080416  0.74752057  0.50552640  1
  Co  Co109  1  0.37697439  0.87468210  0.37486945  1
  Co  Co110  1  0.25048892  0.50506998  0.24798868  1
  Co  Co111  1  0.25056622  0.00355292  0.75050434  1
  Co  Co112  1  0.87934615  0.62364339  0.62172746  1
  Co  Co113  1  0.36912673  0.87449307  0.62733302  1
  Co  Co114  1  0.75034160  0.74340992  0.74619225  1
  Co  Co115  1  0.63209585  0.87570756  0.62632067  1
  Co  Co116  1  0.37349575  0.12786357  0.62263799  1
  Co  Co117  1  0.12343976  0.37278728  0.12916586  1
  Co  Co118  1  0.49902330  0.49840008  0.75185683  1
  Co  Co119  1  0.87674475  0.12371954  0.62097230  1
  Co  Co120  1  0.86946331  0.87799612  0.62584262  1
  Co  Co121  1  0.62971078  0.37509193  0.87261627  1
  Co  Co122  1  0.00049315  0.50022924  0.74811704  1
  Co  Co123  1  0.24829217  0.50016893  0.49969010  1
  Co  Co124  1  -0.00213846  0.50237601  0.25058826  1
  Co  Co125  1  0.00215753  -0.00356200  0.50301405  1
  Co  Co126  1  0.87526197  0.37537966  0.62543955  1
  Co  Co127  1  0.50015092  0.74860047  0.25071242  1
