# generated using pymatgen
data_Fe45Co19
_symmetry_space_group_name_H-M   'P 1'
_cell_length_a   11.41487882
_cell_length_b   11.41447632
_cell_length_c   11.41481015
_cell_angle_alpha   90.00199904
_cell_angle_beta   90.00802312
_cell_angle_gamma   90.00297340
_symmetry_Int_Tables_number   1
_chemical_formula_structural   Fe45Co19
_chemical_formula_sum   'Fe90 Co38'
_cell_volume   1487.29111755
_cell_formula_units_Z   2
loop_
 _symmetry_equiv_pos_site_id
 _symmetry_equiv_pos_as_xyz
  1  'x, y, z'
loop_
 _atom_site_type_symbol
 _atom_site_label
 _atom_site_symmetry_multiplicity
 _atom_site_fract_x
 _atom_site_fract_y
 _atom_site_fract_z
 _atom_site_occupancy
  Fe  Fe0  1  0.24740656  0.24841030  0.49693760  1
  Fe  Fe1  1  0.74616787  0.74644038  0.50367482  1
  Fe  Fe2  1  0.87781047  0.62315835  0.12612978  1
  Fe  Fe3  1  0.74815676  0.25201390  0.75020721  1
  Fe  Fe4  1  0.12253416  0.62269515  0.62105279  1
  Fe  Fe5  1  0.75160893  0.00282525  -0.00006271  1
  Fe  Fe6  1  0.74997265  0.24916168  0.25156335  1
  Fe  Fe7  1  0.75150758  0.49816262  0.00231724  1
  Fe  Fe8  1  0.12628457  0.87727869  0.87486525  1
  Fe  Fe9  1  0.87485796  0.37675935  0.87285171  1
  Fe  Fe10  1  0.87732930  0.13005481  0.62377192  1
  Fe  Fe11  1  0.87693642  0.37326346  0.62363481  1
  Fe  Fe12  1  0.00214272  0.25160289  -0.00391664  1
  Fe  Fe13  1  0.00151835  0.00092990  0.00040807  1
  Fe  Fe14  1  0.37518369  0.62606201  0.12615799  1
  Fe  Fe15  1  0.00185766  0.74900270  0.74973222  1
  Fe  Fe16  1  0.37500331  0.62556086  0.87476345  1
  Fe  Fe17  1  0.62620691  0.87496603  0.37570432  1
  Fe  Fe18  1  0.62538766  0.87569386  0.87503402  1
  Fe  Fe19  1  0.49911399  0.00102390  0.74839262  1
  Fe  Fe20  1  0.75339880  0.50055517  0.50078793  1
  Fe  Fe21  1  0.24922255  -0.00040034  0.50209113  1
  Fe  Fe22  1  0.37343473  0.87659289  0.12582205  1
  Fe  Fe23  1  0.00175579  0.75119510  0.49883486  1
  Fe  Fe24  1  0.62411365  0.62288756  0.12541190  1
  Fe  Fe25  1  0.12658187  0.37412741  0.12636483  1
  Fe  Fe26  1  0.37523083  0.12856477  0.62438682  1
  Fe  Fe27  1  0.62531206  0.62065795  0.87493558  1
  Fe  Fe28  1  0.12324705  0.61973559  0.87754979  1
  Fe  Fe29  1  0.00302334  0.49977961  0.25365342  1
  Fe  Fe30  1  0.62228578  0.12517058  0.12694462  1
  Fe  Fe31  1  0.74927895  0.74905340  0.24833528  1
  Fe  Fe32  1  0.62464739  0.37668914  0.62444106  1
  Fe  Fe33  1  0.37504694  0.87258594  0.62566635  1
  Fe  Fe34  1  0.00157961  0.75075878  0.00139675  1
  Fe  Fe35  1  0.24959461  0.00686979  0.24729503  1
  Fe  Fe36  1  0.75294561  0.00178727  0.25074390  1
  Fe  Fe37  1  0.75259324  0.00155174  0.50064105  1
  Fe  Fe38  1  0.24959268  0.00045990  0.74820206  1
  Fe  Fe39  1  0.50316060  0.75067726  0.74787746  1
  Fe  Fe40  1  0.62468837  0.12786765  0.87433038  1
  Fe  Fe41  1  0.25038748  0.74965935  0.49932073  1
  Fe  Fe42  1  0.37321954  0.87583343  0.37350739  1
  Fe  Fe43  1  0.50022613  0.25181497  0.49795392  1
  Fe  Fe44  1  0.24729225  0.74747041  0.74952140  1
  Fe  Fe45  1  0.37813650  0.62620960  0.62413941  1
  Fe  Fe46  1  0.00576400  0.25107975  0.25757666  1
  Fe  Fe47  1  0.87692638  0.37397862  0.12967017  1
  Fe  Fe48  1  0.87507472  0.87428453  0.37529909  1
  Fe  Fe49  1  0.87372679  0.62489958  0.37432954  1
  Fe  Fe50  1  0.87382762  0.87209455  0.62533939  1
  Fe  Fe51  1  0.37405940  0.37242566  0.62469881  1
  Fe  Fe52  1  0.50058804  0.74996040  0.25289879  1
  Fe  Fe53  1  0.12370346  0.87962450  0.37364016  1
  Fe  Fe54  1  0.87709716  0.62150094  0.87326036  1
  Fe  Fe55  1  0.49813472  0.50076352  0.25072938  1
  Fe  Fe56  1  0.87859305  0.12820799  0.12517305  1
  Fe  Fe57  1  0.37388789  0.37196585  0.12626942  1
  Fe  Fe58  1  0.87493061  0.87492431  0.87473031  1
  Fe  Fe59  1  0.49639499  0.24848818  0.25218616  1
  Fe  Fe60  1  -0.00059833  -0.00070897  0.74790337  1
  Fe  Fe61  1  0.00347913  0.74903211  0.24993605  1
  Fe  Fe62  1  0.75064033  0.25061370  -0.00000773  1
  Fe  Fe63  1  0.50003444  0.74951634  0.00036709  1
  Fe  Fe64  1  0.87842584  0.12739919  0.37857200  1
  Fe  Fe65  1  0.00504493  0.25288450  0.75249070  1
  Fe  Fe66  1  0.75104478  0.74818357  0.00020528  1
  Fe  Fe67  1  0.87575568  0.87530886  0.12487835  1
  Fe  Fe68  1  0.75179170  0.00134424  0.75001093  1
  Fe  Fe69  1  0.49871180  0.49578654  0.75292659  1
  Fe  Fe70  1  0.37366576  0.37080539  0.87601675  1
  Fe  Fe71  1  0.62800198  0.37695412  0.37349016  1
  Fe  Fe72  1  0.62379719  0.12478152  0.37568744  1
  Fe  Fe73  1  0.37285321  0.12781985  0.87268273  1
  Fe  Fe74  1  0.49679277  0.50037382  0.49589984  1
  Fe  Fe75  1  0.49785539  0.00140312  0.00033071  1
  Fe  Fe76  1  0.36790270  0.37622983  0.37249960  1
  Fe  Fe77  1  0.62298438  0.37457356  0.12464794  1
  Fe  Fe78  1  0.24535774  0.74638282  0.24954778  1
  Fe  Fe79  1  0.62477173  0.12618422  0.62362389  1
  Fe  Fe80  1  0.62530987  0.87680865  0.12527532  1
  Fe  Fe81  1  0.24819687  0.24540018  0.00121483  1
  Fe  Fe82  1  0.49907065  -0.00232750  0.49989162  1
  Fe  Fe83  1  0.74741676  0.74668345  0.74760397  1
  Fe  Fe84  1  0.37347819  0.87428386  0.87444469  1
  Fe  Fe85  1  0.24774996  0.75062929  0.00141735  1
  Fe  Fe86  1  0.12513781  0.37796001  0.62026351  1
  Fe  Fe87  1  0.24957444  0.49900436  0.74846037  1
  Fe  Fe88  1  0.12302160  0.12537213  0.62348305  1
  Fe  Fe89  1  0.25178412  0.50040064  0.00248929  1
  Co  Co90  1  -0.00230948  -0.00291482  0.50393790  1
  Co  Co91  1  0.87183692  0.37405676  0.37384927  1
  Co  Co92  1  0.49712961  0.49963730  -0.00004784  1
  Co  Co93  1  0.13293451  0.38141729  0.37668427  1
  Co  Co94  1  0.00223784  0.49753768  0.74809691  1
  Co  Co95  1  0.24812753  0.24451128  0.25302166  1
  Co  Co96  1  -0.00365029  0.00090653  0.24962621  1
  Co  Co97  1  0.00392501  0.25445144  0.49521208  1
  Co  Co98  1  0.37262787  0.62521250  0.37418825  1
  Co  Co99  1  0.25049247  0.00206237  0.00114888  1
  Co  Co100  1  0.12804028  0.37841074  0.87747297  1
  Co  Co101  1  0.37708636  0.12594707  0.12548736  1
  Co  Co102  1  0.87698854  0.12693722  0.87411473  1
  Co  Co103  1  0.49982740  0.75153019  0.49812612  1
  Co  Co104  1  0.24595342  0.25218438  0.74766070  1
  Co  Co105  1  0.37539334  0.12433712  0.37805479  1
  Co  Co106  1  0.62613759  0.87754748  0.62470313  1
  Co  Co107  1  0.74823847  0.25120555  0.49936008  1
  Co  Co108  1  0.75065026  0.49998223  0.24825932  1
  Co  Co109  1  0.12733299  0.62107943  0.37916707  1
  Co  Co110  1  -0.00204879  0.49593085  0.00177640  1
  Co  Co111  1  0.12087461  0.12667526  0.12516278  1
  Co  Co112  1  0.12602831  0.87341205  0.62529676  1
  Co  Co113  1  0.12579072  0.12292803  0.87319278  1
  Co  Co114  1  0.50008471  0.24854728  -0.00019656  1
  Co  Co115  1  0.24835346  0.50346198  0.24553943  1
  Co  Co116  1  -0.00468041  0.49802096  0.49590571  1
  Co  Co117  1  0.75132994  0.49962897  0.74682504  1
  Co  Co118  1  0.62572331  0.37577277  0.87753633  1
  Co  Co119  1  0.50161341  0.25182175  0.74895718  1
  Co  Co120  1  0.12232791  0.11937145  0.37812756  1
  Co  Co121  1  0.25440910  0.50246843  0.50369861  1
  Co  Co122  1  0.12254998  0.62268073  0.12134116  1
  Co  Co123  1  0.12561630  0.87814342  0.12716703  1
  Co  Co124  1  0.61980308  0.61961059  0.62387938  1
  Co  Co125  1  0.49926921  -0.00031023  0.25142351  1
  Co  Co126  1  0.62591857  0.62353211  0.37557406  1
  Co  Co127  1  0.87928987  0.62576109  0.62523932  1
