# generated using pymatgen
data_Fe45Co19
_symmetry_space_group_name_H-M   'P 1'
_cell_length_a   11.41435440
_cell_length_b   11.41441288
_cell_length_c   11.41650417
_cell_angle_alpha   89.99922283
_cell_angle_beta   89.99911473
_cell_angle_gamma   89.99203499
_symmetry_Int_Tables_number   1
_chemical_formula_structural   Fe45Co19
_chemical_formula_sum   'Fe90 Co38'
_cell_volume   1487.43523806
_cell_formula_units_Z   2
loop_
 _symmetry_equiv_pos_site_id
 _symmetry_equiv_pos_as_xyz
  1  'x, y, z'
loop_
 _atom_site_type_symbol
 _atom_site_label
 _atom_site_symmetry_multiplicity
 _atom_site_fract_x
 _atom_site_fract_y
 _atom_site_fract_z
 _atom_site_occupancy
  Fe  Fe0  1  0.12449669  0.37536595  0.62615846  1
  Fe  Fe1  1  0.87464928  0.87584699  0.87414895  1
  Fe  Fe2  1  0.87541103  0.12609735  0.87836464  1
  Fe  Fe3  1  0.37494939  0.37670785  0.12658662  1
  Fe  Fe4  1  0.00224974  0.49936296  -0.00121768  1
  Fe  Fe5  1  0.37336496  0.12659688  0.12377731  1
  Fe  Fe6  1  0.12480100  0.62629905  0.62329295  1
  Fe  Fe7  1  0.74687356  -0.00246562  0.00058150  1
  Fe  Fe8  1  0.87424634  0.37464154  0.87658515  1
  Fe  Fe9  1  0.12585489  0.12646961  0.12346183  1
  Fe  Fe10  1  0.62143071  0.62833846  0.87293324  1
  Fe  Fe11  1  0.12430372  0.12709397  0.37371738  1
  Fe  Fe12  1  0.49978627  0.50297991  0.25058830  1
  Fe  Fe13  1  0.87234457  0.62477498  0.37660053  1
  Fe  Fe14  1  0.25158827  -0.00417118  0.00085296  1
  Fe  Fe15  1  0.00018153  -0.00155750  0.00092661  1
  Fe  Fe16  1  0.49970338  0.24765829  0.24974825  1
  Fe  Fe17  1  0.25068336  0.50055272  -0.00268938  1
  Fe  Fe18  1  0.87323445  0.87402169  0.12687213  1
  Fe  Fe19  1  0.87338042  0.37756270  0.12277850  1
  Fe  Fe20  1  0.00167415  0.25322100  0.24869127  1
  Fe  Fe21  1  0.25405413  0.75258245  0.49869335  1
  Fe  Fe22  1  0.62564139  0.62531226  0.62338212  1
  Fe  Fe23  1  0.12470153  0.87663801  0.62612756  1
  Fe  Fe24  1  -0.00141725  0.74844926  0.24924720  1
  Fe  Fe25  1  0.50031925  0.50275517  0.00035685  1
  Fe  Fe26  1  0.12480194  0.87409031  0.37388461  1
  Fe  Fe27  1  0.49956007  0.00126183  0.49550397  1
  Fe  Fe28  1  0.49826331  0.75234825  0.49866207  1
  Fe  Fe29  1  0.25262843  0.00187246  0.25084005  1
  Fe  Fe30  1  0.37730740  0.37371087  0.62599446  1
  Fe  Fe31  1  0.87118300  0.37071228  0.37715387  1
  Fe  Fe32  1  0.25145112  -0.00078716  0.75264343  1
  Fe  Fe33  1  0.37652478  0.12365921  0.62326211  1
  Fe  Fe34  1  0.25219402  -0.00134199  0.49694168  1
  Fe  Fe35  1  0.50234474  -0.00464712  0.00315911  1
  Fe  Fe36  1  0.87360236  0.62495157  0.87683499  1
  Fe  Fe37  1  0.12481017  0.62790912  0.87588230  1
  Fe  Fe38  1  0.62702070  0.37085494  0.62804246  1
  Fe  Fe39  1  0.87457458  0.12491150  0.62327489  1
  Fe  Fe40  1  0.37421226  0.37369530  0.37456197  1
  Fe  Fe41  1  -0.00232550  0.75133981  0.74844478  1
  Fe  Fe42  1  0.37724151  0.37640449  0.87292536  1
  Fe  Fe43  1  -0.00112136  0.49926265  0.25117089  1
  Fe  Fe44  1  0.62533999  0.87855694  0.62505517  1
  Fe  Fe45  1  0.62835891  0.37291564  0.37213673  1
  Fe  Fe46  1  0.25097391  0.50155474  0.75099756  1
  Fe  Fe47  1  0.87193362  0.62332957  0.12257972  1
  Fe  Fe48  1  0.62254628  0.87623848  0.36774620  1
  Fe  Fe49  1  0.74867131  0.49989526  0.75038248  1
  Fe  Fe50  1  0.74920163  0.75148978  0.74865424  1
  Fe  Fe51  1  0.62349540  0.37242032  0.87310660  1
  Fe  Fe52  1  0.74697289  0.75289593  0.00083571  1
  Fe  Fe53  1  0.50095952  0.25117229  0.00090786  1
  Fe  Fe54  1  0.62874527  0.62328760  0.12633335  1
  Fe  Fe55  1  0.12456821  0.62440484  0.37786367  1
  Fe  Fe56  1  0.62750496  0.62387601  0.37612964  1
  Fe  Fe57  1  0.12487878  0.12326770  0.62596342  1
  Fe  Fe58  1  0.12686851  0.87128583  0.12534273  1
  Fe  Fe59  1  0.50368364  0.24769272  0.49926737  1
  Fe  Fe60  1  -0.00081482  0.24937296  0.75073975  1
  Fe  Fe61  1  0.25053819  0.49893175  0.50077489  1
  Fe  Fe62  1  -0.00278024  0.75318521  0.50101183  1
  Fe  Fe63  1  0.37661374  0.86908714  0.13077474  1
  Fe  Fe64  1  0.75055223  0.75427713  0.49810002  1
  Fe  Fe65  1  0.74765257  0.25149820  0.00216552  1
  Fe  Fe66  1  0.75257281  0.00280388  0.25143882  1
  Fe  Fe67  1  0.87632322  0.12631090  0.12460926  1
  Fe  Fe68  1  0.37736379  0.62362579  0.62455716  1
  Fe  Fe69  1  -0.00071761  0.50036983  0.74988907  1
  Fe  Fe70  1  0.37683494  0.12422719  0.87830602  1
  Fe  Fe71  1  0.24835084  0.24980335  0.49950080  1
  Fe  Fe72  1  0.74845588  0.00315511  0.75242129  1
  Fe  Fe73  1  0.75071690  0.00265681  0.49542950  1
  Fe  Fe74  1  0.87288093  0.62515377  0.62293071  1
  Fe  Fe75  1  0.38067042  0.87058413  0.87497971  1
  Fe  Fe76  1  0.25345664  0.75077233  0.74943391  1
  Fe  Fe77  1  0.24984561  0.50124901  0.25164348  1
  Fe  Fe78  1  0.12705031  0.62655024  0.12298831  1
  Fe  Fe79  1  0.62466994  0.12376559  0.12578631  1
  Fe  Fe80  1  0.12246361  0.87387148  0.87563325  1
  Fe  Fe81  1  0.50298484  0.49736776  0.50037705  1
  Fe  Fe82  1  -0.00212855  -0.00022398  0.49866083  1
  Fe  Fe83  1  -0.00039925  -0.00025307  0.25004183  1
  Fe  Fe84  1  0.50105161  0.00197620  0.75124988  1
  Fe  Fe85  1  0.12391087  0.12550618  0.87736759  1
  Fe  Fe86  1  0.87193182  0.37200494  0.62338266  1
  Fe  Fe87  1  -0.00162944  0.49736727  0.50004436  1
  Fe  Fe88  1  0.25202043  0.24862982  0.75085784  1
  Fe  Fe89  1  0.24876097  0.25325169  0.00015020  1
  Co  Co90  1  0.75031860  0.24668787  0.75142463  1
  Co  Co91  1  0.74554043  0.24493956  0.49980833  1
  Co  Co92  1  0.12708564  0.37754321  0.12529108  1
  Co  Co93  1  -0.00273887  0.75126069  0.00146056  1
  Co  Co94  1  0.37533261  0.62245860  0.37834269  1
  Co  Co95  1  0.50046429  0.74223626  0.24989349  1
  Co  Co96  1  0.62569481  0.12405806  0.36999058  1
  Co  Co97  1  0.12480106  0.37429181  0.87328573  1
  Co  Co98  1  0.50233986  0.49956268  0.74776237  1
  Co  Co99  1  0.37615824  0.87934802  0.62513407  1
  Co  Co100  1  0.37123710  0.62558339  0.12411624  1
  Co  Co101  1  0.74868821  0.49820375  0.50095196  1
  Co  Co102  1  0.62448539  0.87596600  0.13326129  1
  Co  Co103  1  0.37378173  0.12792920  0.37645928  1
  Co  Co104  1  0.49872750  0.24626417  0.75043510  1
  Co  Co105  1  0.87236288  0.87859265  0.62586847  1
  Co  Co106  1  0.24969387  0.74665863  0.25436089  1
  Co  Co107  1  0.75127931  0.49873514  0.25104681  1
  Co  Co108  1  0.49495737  0.00516828  0.24891438  1
  Co  Co109  1  0.62381608  0.12253330  0.62604718  1
  Co  Co110  1  0.62342080  0.12532949  0.87874936  1
  Co  Co111  1  0.24950773  0.24960049  0.24932208  1
  Co  Co112  1  0.49997677  0.75107331  0.74370391  1
  Co  Co113  1  0.37954187  0.62666070  0.87362415  1
  Co  Co114  1  0.87692509  0.12975381  0.37388300  1
  Co  Co115  1  0.37739220  0.87422106  0.36955259  1
  Co  Co116  1  0.74938516  0.25005562  0.24584346  1
  Co  Co117  1  0.87547699  0.87503462  0.37254244  1
  Co  Co118  1  0.12670748  0.37589274  0.37544161  1
  Co  Co119  1  0.25310533  0.75147496  -0.00279026  1
  Co  Co120  1  0.00247500  0.25027420  0.50075973  1
  Co  Co121  1  0.74511759  0.49891481  -0.00254757  1
  Co  Co122  1  0.00118997  0.25216610  0.00195399  1
  Co  Co123  1  0.62255078  0.37647747  0.12674081  1
  Co  Co124  1  0.50329635  0.74930085  0.00606200  1
  Co  Co125  1  0.75108302  0.74791637  0.25091441  1
  Co  Co126  1  0.62282232  0.87379321  0.87299577  1
  Co  Co127  1  -0.00068694  0.00153357  0.75109479  1
