# generated using pymatgen
data_Fe45Co19
_symmetry_space_group_name_H-M   'P 1'
_cell_length_a   11.41520686
_cell_length_b   11.41571288
_cell_length_c   11.41440729
_cell_angle_alpha   89.99338749
_cell_angle_beta   89.99498237
_cell_angle_gamma   90.00385989
_symmetry_Int_Tables_number   1
_chemical_formula_structural   Fe45Co19
_chemical_formula_sum   'Fe90 Co38'
_cell_volume   1487.44248745
_cell_formula_units_Z   2
loop_
 _symmetry_equiv_pos_site_id
 _symmetry_equiv_pos_as_xyz
  1  'x, y, z'
loop_
 _atom_site_type_symbol
 _atom_site_label
 _atom_site_symmetry_multiplicity
 _atom_site_fract_x
 _atom_site_fract_y
 _atom_site_fract_z
 _atom_site_occupancy
  Fe  Fe0  1  0.12831505  0.37476550  0.12642851  1
  Fe  Fe1  1  0.37365110  0.37604922  0.87301397  1
  Fe  Fe2  1  0.25082846  -0.00024090  0.74757658  1
  Fe  Fe3  1  0.62552489  0.87408039  0.62659278  1
  Fe  Fe4  1  0.37578280  0.62588184  0.87690974  1
  Fe  Fe5  1  0.87542608  0.12917150  0.12304809  1
  Fe  Fe6  1  0.12713413  0.62393679  0.37717195  1
  Fe  Fe7  1  0.62387021  0.12755130  0.62364454  1
  Fe  Fe8  1  0.87178696  0.37234345  0.12542736  1
  Fe  Fe9  1  0.74840261  0.00008225  -0.00111444  1
  Fe  Fe10  1  0.87573677  0.87681981  0.62216817  1
  Fe  Fe11  1  0.00161320  0.49676585  -0.00051648  1
  Fe  Fe12  1  0.87401380  0.87680296  0.37609502  1
  Fe  Fe13  1  0.62610515  0.62580180  0.87065085  1
  Fe  Fe14  1  0.87532607  0.62269034  0.37656566  1
  Fe  Fe15  1  0.12608399  0.62391973  0.87624534  1
  Fe  Fe16  1  -0.00134136  0.00098572  0.74774056  1
  Fe  Fe17  1  0.75121016  0.00132786  0.74886506  1
  Fe  Fe18  1  0.12586125  0.62710477  0.62249767  1
  Fe  Fe19  1  0.74750938  0.75106228  -0.00279542  1
  Fe  Fe20  1  0.74901958  0.00257659  0.25143585  1
  Fe  Fe21  1  0.62515870  0.12558069  0.12600002  1
  Fe  Fe22  1  0.87336650  0.37408904  0.62532143  1
  Fe  Fe23  1  0.50221263  0.49864328  0.74357399  1
  Fe  Fe24  1  0.00119540  0.50040518  0.24941052  1
  Fe  Fe25  1  0.62503331  0.62535312  0.12515487  1
  Fe  Fe26  1  -0.00033507  0.74755545  0.25007048  1
  Fe  Fe27  1  0.49956232  0.25013154  0.00098238  1
  Fe  Fe28  1  0.12887160  0.37408113  0.62322014  1
  Fe  Fe29  1  0.12589781  0.87414743  0.12662828  1
  Fe  Fe30  1  0.37845057  0.62691300  0.61794144  1
  Fe  Fe31  1  0.87530230  0.62431872  0.12431084  1
  Fe  Fe32  1  0.62250373  0.12380864  0.87564835  1
  Fe  Fe33  1  0.49385389  0.25450669  0.49844150  1
  Fe  Fe34  1  0.62212507  0.12408765  0.37630088  1
  Fe  Fe35  1  0.00190787  0.74962895  -0.00028884  1
  Fe  Fe36  1  0.37365887  0.12080754  0.12743548  1
  Fe  Fe37  1  0.49917176  0.50015731  0.00022561  1
  Fe  Fe38  1  0.49786870  0.25019892  0.74959654  1
  Fe  Fe39  1  0.37583688  0.87402254  0.87724776  1
  Fe  Fe40  1  0.49699398  0.24764781  0.25229380  1
  Fe  Fe41  1  0.37338853  0.62798833  0.12203678  1
  Fe  Fe42  1  0.25123034  0.50294092  0.74814606  1
  Fe  Fe43  1  0.00300938  0.00281411  0.00229757  1
  Fe  Fe44  1  0.00017817  0.75026524  0.50026995  1
  Fe  Fe45  1  0.25071502  0.24650195  0.75007242  1
  Fe  Fe46  1  0.62029248  0.62528209  0.37814455  1
  Fe  Fe47  1  0.37349242  0.37494658  0.12625525  1
  Fe  Fe48  1  0.62622079  0.37382001  0.12867007  1
  Fe  Fe49  1  0.37605529  0.12290919  0.87640114  1
  Fe  Fe50  1  0.24774876  -0.00251725  0.50141335  1
  Fe  Fe51  1  0.50029545  0.75315401  0.24852234  1
  Fe  Fe52  1  0.00097653  0.25202097  0.75203124  1
  Fe  Fe53  1  0.00106611  0.00083529  0.24947599  1
  Fe  Fe54  1  0.87340876  0.87419946  0.12553994  1
  Fe  Fe55  1  0.74865281  0.75035593  0.50007309  1
  Fe  Fe56  1  0.12211511  0.12641237  0.62268709  1
  Fe  Fe57  1  0.25295421  0.24614457  0.25376876  1
  Fe  Fe58  1  0.37623023  0.12370479  0.62204152  1
  Fe  Fe59  1  -0.00028844  0.49864893  0.75009824  1
  Fe  Fe60  1  0.25148322  0.75098205  0.74769199  1
  Fe  Fe61  1  0.87579199  0.87585980  0.87621956  1
  Fe  Fe62  1  0.49934500  -0.00068808  0.74927178  1
  Fe  Fe63  1  0.74880534  0.49795973  -0.00036211  1
  Fe  Fe64  1  0.87276451  0.62427969  0.62600007  1
  Fe  Fe65  1  0.37490934  0.87628807  0.37280804  1
  Fe  Fe66  1  0.24921398  0.74743488  0.25041300  1
  Fe  Fe67  1  0.75059428  0.74711407  0.25191041  1
  Fe  Fe68  1  0.49641635  0.50116294  0.25170226  1
  Fe  Fe69  1  0.50104488  -0.00459718  0.00406333  1
  Fe  Fe70  1  0.87739894  0.12820159  0.87784972  1
  Fe  Fe71  1  0.24767583  -0.00022330  0.00037533  1
  Fe  Fe72  1  0.50199806  -0.00412603  0.49922672  1
  Fe  Fe73  1  0.12463416  0.87596165  0.87185355  1
  Fe  Fe74  1  0.00131814  0.49805191  0.50094782  1
  Fe  Fe75  1  -0.00160859  0.74961108  0.74958595  1
  Fe  Fe76  1  0.49928174  0.75152996  0.74969750  1
  Fe  Fe77  1  -0.00070194  0.25062308  0.25210593  1
  Fe  Fe78  1  0.87766789  0.12252288  0.37842672  1
  Fe  Fe79  1  0.24824831  0.24839451  -0.00224250  1
  Fe  Fe80  1  0.75273391  0.24758175  0.49789809  1
  Fe  Fe81  1  0.13016936  0.37602673  0.37606601  1
  Fe  Fe82  1  0.12462946  0.12613584  0.37728072  1
  Fe  Fe83  1  0.87225304  0.37816483  0.37351912  1
  Fe  Fe84  1  0.62548453  0.37503321  0.37346002  1
  Fe  Fe85  1  0.62355558  0.37538570  0.87352649  1
  Fe  Fe86  1  0.75021832  0.24921230  0.75242982  1
  Fe  Fe87  1  0.12304293  0.87357608  0.37530243  1
  Fe  Fe88  1  0.87257310  0.62288456  0.87302482  1
  Fe  Fe89  1  0.74528904  0.50082110  0.50274292  1
  Co  Co90  1  0.62307015  0.62915880  0.62451456  1
  Co  Co91  1  0.37717001  0.62701128  0.37899983  1
  Co  Co92  1  0.12640299  0.12683815  0.12833869  1
  Co  Co93  1  0.87760635  0.12712639  0.62390476  1
  Co  Co94  1  0.50059859  0.75633510  0.49867415  1
  Co  Co95  1  0.75225056  0.75399809  0.74946383  1
  Co  Co96  1  0.37112106  0.37815942  0.37292451  1
  Co  Co97  1  0.25195470  0.49978758  0.00046640  1
  Co  Co98  1  0.00252946  -0.00140560  0.50041762  1
  Co  Co99  1  0.62297884  0.87557901  0.87271901  1
  Co  Co100  1  0.62692529  0.36887670  0.62370635  1
  Co  Co101  1  0.62958954  0.87386267  0.12721709  1
  Co  Co102  1  0.74557513  0.25094747  -0.00154186  1
  Co  Co103  1  0.12259558  0.87380339  0.62717077  1
  Co  Co104  1  0.25424556  0.24838762  0.49924886  1
  Co  Co105  1  0.74788040  0.49769474  0.74738194  1
  Co  Co106  1  0.24773374  -0.00014430  0.25287349  1
  Co  Co107  1  0.37118878  0.37423738  0.62790409  1
  Co  Co108  1  0.50308996  0.75074777  0.00069921  1
  Co  Co109  1  0.12398292  0.12299568  0.87239039  1
  Co  Co110  1  0.24741939  0.75095995  -0.00150598  1
  Co  Co111  1  0.74810986  0.00182499  0.50221555  1
  Co  Co112  1  0.25010437  0.75364765  0.50055103  1
  Co  Co113  1  0.25200710  0.50515242  0.24929088  1
  Co  Co114  1  0.62819732  0.87545044  0.37321278  1
  Co  Co115  1  0.75055107  0.24580054  0.25329412  1
  Co  Co116  1  0.12449891  0.62412684  0.12299374  1
  Co  Co117  1  0.74873715  0.50358738  0.25057078  1
  Co  Co118  1  0.12920134  0.37694814  0.87282683  1
  Co  Co119  1  0.25397200  0.50055682  0.50041936  1
  Co  Co120  1  0.87443561  0.37410095  0.87633716  1
  Co  Co121  1  0.37116485  0.87461308  0.12555060  1
  Co  Co122  1  0.50212264  -0.00219009  0.24792427  1
  Co  Co123  1  0.37669332  0.11861608  0.37711423  1
  Co  Co124  1  0.37636835  0.87577085  0.62488343  1
  Co  Co125  1  -0.00167473  0.25406624  0.49770737  1
  Co  Co126  1  0.00525007  0.25154888  -0.00033263  1
  Co  Co127  1  0.49988195  0.49426492  0.50156506  1
