# generated using pymatgen
data_Fe45Co19
_symmetry_space_group_name_H-M   'P 1'
_cell_length_a   11.41548757
_cell_length_b   11.41456862
_cell_length_c   11.41496363
_cell_angle_alpha   89.99690026
_cell_angle_beta   90.00595856
_cell_angle_gamma   90.00340872
_symmetry_Int_Tables_number   1
_chemical_formula_structural   Fe45Co19
_chemical_formula_sum   'Fe90 Co38'
_cell_volume   1487.40246521
_cell_formula_units_Z   2
loop_
 _symmetry_equiv_pos_site_id
 _symmetry_equiv_pos_as_xyz
  1  'x, y, z'
loop_
 _atom_site_type_symbol
 _atom_site_label
 _atom_site_symmetry_multiplicity
 _atom_site_fract_x
 _atom_site_fract_y
 _atom_site_fract_z
 _atom_site_occupancy
  Fe  Fe0  1  0.25049307  0.49717994  0.75165273  1
  Fe  Fe1  1  0.25255001  0.74924796  0.24846414  1
  Fe  Fe2  1  0.49826302  0.74893747  0.00037980  1
  Fe  Fe3  1  0.12566382  0.87332712  0.37417633  1
  Fe  Fe4  1  0.50222772  0.49707913  -0.00012963  1
  Fe  Fe5  1  0.37517734  0.62623747  0.37502375  1
  Fe  Fe6  1  0.00041750  -0.00065849  0.00029650  1
  Fe  Fe7  1  0.37464829  0.12879328  0.12103136  1
  Fe  Fe8  1  0.87478849  0.37734326  0.62282393  1
  Fe  Fe9  1  0.37556513  0.12649473  0.37393337  1
  Fe  Fe10  1  0.12364975  0.37321946  0.37551152  1
  Fe  Fe11  1  0.74839041  0.25131183  0.50196754  1
  Fe  Fe12  1  0.50194733  0.24751743  0.75050835  1
  Fe  Fe13  1  0.62534082  0.62341813  0.12439210  1
  Fe  Fe14  1  0.24474473  0.49420794  0.00033233  1
  Fe  Fe15  1  0.12255256  0.62588332  0.87433745  1
  Fe  Fe16  1  0.00057215  0.24772558  0.74648093  1
  Fe  Fe17  1  0.49853223  0.00337966  -0.00294152  1
  Fe  Fe18  1  0.87608914  0.37660284  0.37937486  1
  Fe  Fe19  1  0.37351377  0.62107892  0.12375963  1
  Fe  Fe20  1  0.37527678  0.37528656  0.62315254  1
  Fe  Fe21  1  0.25222460  0.00046695  0.49906912  1
  Fe  Fe22  1  0.37370640  0.87599779  0.12179047  1
  Fe  Fe23  1  0.12462137  0.12618576  0.12559425  1
  Fe  Fe24  1  0.50146643  0.25321490  0.24739520  1
  Fe  Fe25  1  0.25263536  0.75137011  0.75216887  1
  Fe  Fe26  1  0.49739891  0.00339739  0.75413984  1
  Fe  Fe27  1  0.87684269  0.37712677  0.87501002  1
  Fe  Fe28  1  0.25252468  0.00030429  0.75299096  1
  Fe  Fe29  1  0.50141313  0.25026104  0.50217780  1
  Fe  Fe30  1  0.87464504  0.62237766  0.12126983  1
  Fe  Fe31  1  0.62213707  0.87845004  0.62579119  1
  Fe  Fe32  1  0.12500186  0.37294970  0.62280129  1
  Fe  Fe33  1  0.25118156  0.25252087  0.24799856  1
  Fe  Fe34  1  0.87515384  0.87479331  0.37517741  1
  Fe  Fe35  1  0.62534027  0.37709248  0.37656500  1
  Fe  Fe36  1  0.50082587  -0.00168673  0.24987278  1
  Fe  Fe37  1  0.75024738  0.75078180  0.25050596  1
  Fe  Fe38  1  0.62603821  0.87374129  0.12532347  1
  Fe  Fe39  1  -0.00038923  0.50028458  0.25138802  1
  Fe  Fe40  1  0.87298706  0.12259939  0.62547422  1
  Fe  Fe41  1  0.75017382  0.49952998  0.25128352  1
  Fe  Fe42  1  0.62278244  0.62593518  0.37543989  1
  Fe  Fe43  1  0.12838505  0.12854404  0.87418299  1
  Fe  Fe44  1  0.87230545  0.12389941  0.37450421  1
  Fe  Fe45  1  0.37589690  0.87362267  0.37488067  1
  Fe  Fe46  1  0.37452416  0.12453225  0.62487411  1
  Fe  Fe47  1  0.00149026  0.00222991  0.50061915  1
  Fe  Fe48  1  0.24681211  0.50279663  0.49734944  1
  Fe  Fe49  1  0.00135155  -0.00002832  0.75057528  1
  Fe  Fe50  1  0.62517627  0.12466398  0.37421310  1
  Fe  Fe51  1  0.87709146  0.62471095  0.37729052  1
  Fe  Fe52  1  0.74857334  0.74861252  0.50073747  1
  Fe  Fe53  1  0.49864453  0.75109314  0.50153401  1
  Fe  Fe54  1  0.62341894  0.87510164  0.87411665  1
  Fe  Fe55  1  0.00444685  0.74683418  0.50231368  1
  Fe  Fe56  1  0.37436787  0.37544418  0.37586878  1
  Fe  Fe57  1  0.00162215  0.50049594  0.74820678  1
  Fe  Fe58  1  0.49764902  0.74956228  0.75011256  1
  Fe  Fe59  1  0.00218970  0.25260755  -0.00015086  1
  Fe  Fe60  1  0.62733023  0.12599000  0.12620084  1
  Fe  Fe61  1  0.25097636  0.00090037  0.24854532  1
  Fe  Fe62  1  0.87461441  0.37687622  0.12405601  1
  Fe  Fe63  1  0.49864457  0.49865425  0.75040809  1
  Fe  Fe64  1  0.74803560  0.24958662  0.74851344  1
  Fe  Fe65  1  0.62493789  0.37557569  0.87430178  1
  Fe  Fe66  1  0.87591234  0.87451581  0.62499123  1
  Fe  Fe67  1  -0.00366932  0.24878413  0.25229297  1
  Fe  Fe68  1  0.87695843  0.87244948  0.87481128  1
  Fe  Fe69  1  0.87360663  0.12520965  0.87476045  1
  Fe  Fe70  1  0.12815951  0.87474321  0.62482790  1
  Fe  Fe71  1  -0.00138106  -0.00099588  0.24881784  1
  Fe  Fe72  1  0.12719028  0.87454014  0.12270898  1
  Fe  Fe73  1  0.37532614  0.62374220  0.87699963  1
  Fe  Fe74  1  0.74825388  0.25250159  0.00067967  1
  Fe  Fe75  1  0.62269502  0.62164639  0.62513879  1
  Fe  Fe76  1  0.74937367  0.74835763  0.75141036  1
  Fe  Fe77  1  0.37283755  0.62455444  0.62416694  1
  Fe  Fe78  1  0.87642374  0.62466686  0.62608334  1
  Fe  Fe79  1  0.12621986  0.87280018  0.87837472  1
  Fe  Fe80  1  0.87312173  0.12480427  0.12603575  1
  Fe  Fe81  1  0.75068025  -0.00097017  -0.00107536  1
  Fe  Fe82  1  0.74741420  -0.00131157  0.49899566  1
  Fe  Fe83  1  0.12532493  0.62357750  0.12651094  1
  Fe  Fe84  1  -0.00219579  0.75181210  0.24614317  1
  Fe  Fe85  1  0.12600818  0.12671264  0.37593954  1
  Fe  Fe86  1  0.37408894  0.36925841  0.87802409  1
  Fe  Fe87  1  0.49883305  0.49971655  0.24995934  1
  Fe  Fe88  1  0.75111062  0.74649979  -0.00350151  1
  Fe  Fe89  1  0.74937537  0.50261780  0.75242483  1
  Co  Co90  1  0.75041342  0.25298059  0.25073212  1
  Co  Co91  1  0.37591022  0.87392602  0.87764012  1
  Co  Co92  1  0.25159003  0.24965564  0.50021569  1
  Co  Co93  1  0.74932077  0.50194157  0.50001375  1
  Co  Co94  1  -0.00074433  0.74982195  0.00281517  1
  Co  Co95  1  0.62528099  0.12168405  0.62563063  1
  Co  Co96  1  0.75192921  -0.00245228  0.75069874  1
  Co  Co97  1  0.62934109  0.12426191  0.87494725  1
  Co  Co98  1  0.00110422  0.75164318  0.74852663  1
  Co  Co99  1  0.24423849  0.25537414  0.00416974  1
  Co  Co100  1  0.25096120  0.25122352  0.74630924  1
  Co  Co101  1  0.12372719  0.62784172  0.36968687  1
  Co  Co102  1  -0.00140188  0.24696320  0.50174879  1
  Co  Co103  1  0.25117715  0.74689207  -0.00010296  1
  Co  Co104  1  0.74920283  0.50118140  -0.00425160  1
  Co  Co105  1  0.49784985  0.74992038  0.24709441  1
  Co  Co106  1  0.12872004  0.62591764  0.62984231  1
  Co  Co107  1  0.62645129  0.37775677  0.12562883  1
  Co  Co108  1  0.00403068  0.49795717  -0.00058335  1
  Co  Co109  1  0.49834961  0.50034092  0.49941340  1
  Co  Co110  1  0.37528446  0.87614043  0.62554866  1
  Co  Co111  1  0.12113589  0.37487280  0.13188468  1
  Co  Co112  1  0.25002487  0.00198528  -0.00089925  1
  Co  Co113  1  0.88082228  0.62441645  0.87414924  1
  Co  Co114  1  0.50527082  0.24932045  -0.00038530  1
  Co  Co115  1  0.24953574  0.74874642  0.49927737  1
  Co  Co116  1  0.00448273  0.50363042  0.50162401  1
  Co  Co117  1  0.62042315  0.62477517  0.87454448  1
  Co  Co118  1  0.49837677  0.00089639  0.49747278  1
  Co  Co119  1  0.12783564  0.12364570  0.62493664  1
  Co  Co120  1  0.12307831  0.37201019  0.86985440  1
  Co  Co121  1  0.62339578  0.87292178  0.37501269  1
  Co  Co122  1  0.74854239  -0.00197863  0.25119569  1
  Co  Co123  1  0.25140153  0.49861358  0.25171997  1
  Co  Co124  1  0.37022128  0.13201627  0.87861213  1
  Co  Co125  1  0.37651995  0.37509346  0.12254277  1
  Co  Co126  1  0.62449772  0.37818321  0.62598775  1
  Co  Co127  1  0.87218298  0.87603178  0.12421526  1
