# generated using pymatgen
data_Fe45Co19
_symmetry_space_group_name_H-M   'P 1'
_cell_length_a   11.41556090
_cell_length_b   11.41493219
_cell_length_c   11.41612374
_cell_angle_alpha   90.00305087
_cell_angle_beta   89.99747682
_cell_angle_gamma   90.00166655
_symmetry_Int_Tables_number   1
_chemical_formula_structural   Fe45Co19
_chemical_formula_sum   'Fe90 Co38'
_cell_volume   1487.61057684
_cell_formula_units_Z   2
loop_
 _symmetry_equiv_pos_site_id
 _symmetry_equiv_pos_as_xyz
  1  'x, y, z'
loop_
 _atom_site_type_symbol
 _atom_site_label
 _atom_site_symmetry_multiplicity
 _atom_site_fract_x
 _atom_site_fract_y
 _atom_site_fract_z
 _atom_site_occupancy
  Fe  Fe0  1  0.37510573  0.62712845  0.37734025  1
  Fe  Fe1  1  0.87678797  0.37743899  0.62498371  1
  Fe  Fe2  1  0.50168861  -0.00267741  -0.00155577  1
  Fe  Fe3  1  0.49755015  0.75123916  0.74960965  1
  Fe  Fe4  1  0.50020939  0.75360088  -0.00077173  1
  Fe  Fe5  1  0.24857084  0.50055296  0.00024276  1
  Fe  Fe6  1  0.00074426  0.50120472  0.00056669  1
  Fe  Fe7  1  0.37345014  0.12294227  0.87538241  1
  Fe  Fe8  1  0.62359620  0.87576446  0.62514097  1
  Fe  Fe9  1  0.50080333  0.25003322  -0.00002108  1
  Fe  Fe10  1  0.87497297  0.62303262  0.62362949  1
  Fe  Fe11  1  0.75154727  0.75011249  0.24774949  1
  Fe  Fe12  1  0.24896911  0.75041762  0.00332850  1
  Fe  Fe13  1  0.24940309  -0.00089552  0.00109079  1
  Fe  Fe14  1  0.62593371  0.12874732  0.37524409  1
  Fe  Fe15  1  0.49957313  0.49986480  0.25231665  1
  Fe  Fe16  1  0.37541164  0.87436864  0.61776014  1
  Fe  Fe17  1  0.12543740  0.87276893  0.87512003  1
  Fe  Fe18  1  0.37824268  0.38008488  0.62698056  1
  Fe  Fe19  1  0.87491033  0.62759792  0.87843299  1
  Fe  Fe20  1  0.24910251  0.50236190  0.49797775  1
  Fe  Fe21  1  0.75319796  -0.00157112  0.75143356  1
  Fe  Fe22  1  0.12353204  0.62234583  0.13097315  1
  Fe  Fe23  1  -0.00036459  -0.00108822  0.25266324  1
  Fe  Fe24  1  0.00191160  0.74813257  0.74835276  1
  Fe  Fe25  1  0.25302420  0.24850220  0.24848551  1
  Fe  Fe26  1  -0.00229348  0.24985930  0.24925122  1
  Fe  Fe27  1  0.00238003  0.50325335  0.75247269  1
  Fe  Fe28  1  0.62288943  0.87296076  0.37577950  1
  Fe  Fe29  1  0.12619240  0.12288187  0.12703117  1
  Fe  Fe30  1  0.25090277  0.25100563  0.74763010  1
  Fe  Fe31  1  0.74642320  0.49740676  0.50108947  1
  Fe  Fe32  1  0.12298297  0.37763466  0.62510384  1
  Fe  Fe33  1  -0.00054159  0.24851485  0.74961027  1
  Fe  Fe34  1  0.12242854  0.87476526  0.62012010  1
  Fe  Fe35  1  0.75016900  0.00020074  0.49917600  1
  Fe  Fe36  1  0.37594491  0.37632227  0.87241269  1
  Fe  Fe37  1  0.74969815  0.75056746  0.50205364  1
  Fe  Fe38  1  0.75018518  0.00018747  0.25268537  1
  Fe  Fe39  1  0.87868618  0.12236159  0.62375438  1
  Fe  Fe40  1  0.87852329  0.87551851  0.62374077  1
  Fe  Fe41  1  0.50024397  0.74940716  0.25039088  1
  Fe  Fe42  1  0.49961911  0.25017454  0.24873371  1
  Fe  Fe43  1  0.49681458  0.00114845  0.25498634  1
  Fe  Fe44  1  0.87656983  0.87264121  0.37705839  1
  Fe  Fe45  1  0.24880122  -0.00286396  0.74682014  1
  Fe  Fe46  1  0.87195072  0.37318765  0.37512364  1
  Fe  Fe47  1  0.00097316  0.50468119  0.49495910  1
  Fe  Fe48  1  0.37615910  0.87696703  0.12560642  1
  Fe  Fe49  1  0.62582269  0.62408381  0.12330730  1
  Fe  Fe50  1  0.00010765  0.24891266  0.49895571  1
  Fe  Fe51  1  0.62700363  0.62937689  0.87534653  1
  Fe  Fe52  1  0.74799095  0.49904524  0.75249469  1
  Fe  Fe53  1  0.37009855  0.62697420  0.87269399  1
  Fe  Fe54  1  0.12521383  0.37458454  0.87455725  1
  Fe  Fe55  1  0.37587905  0.37608897  0.12388769  1
  Fe  Fe56  1  0.49792839  -0.00091214  0.74934629  1
  Fe  Fe57  1  0.62646038  0.62453776  0.37650735  1
  Fe  Fe58  1  0.75018136  0.75544668  0.00296343  1
  Fe  Fe59  1  0.62542133  0.12687865  0.87093771  1
  Fe  Fe60  1  0.00084631  0.75205181  0.00624359  1
  Fe  Fe61  1  0.75155459  0.75111894  0.74830395  1
  Fe  Fe62  1  0.12617732  0.12510262  0.87265747  1
  Fe  Fe63  1  0.00078250  -0.00233480  0.00009111  1
  Fe  Fe64  1  0.87414429  0.12227885  0.12540709  1
  Fe  Fe65  1  0.62566265  0.12523962  0.62731629  1
  Fe  Fe66  1  0.74987664  0.25084437  0.50349268  1
  Fe  Fe67  1  0.74859713  -0.00439179  -0.00207361  1
  Fe  Fe68  1  0.12581167  0.37775255  0.37143501  1
  Fe  Fe69  1  0.62463266  0.12336746  0.12625649  1
  Fe  Fe70  1  0.87611365  0.12399921  0.87582324  1
  Fe  Fe71  1  0.37684259  0.62401693  0.12376347  1
  Fe  Fe72  1  0.12555030  0.37755911  0.12884539  1
  Fe  Fe73  1  0.75047277  0.49982083  0.24896644  1
  Fe  Fe74  1  0.50360873  0.49930158  -0.00422995  1
  Fe  Fe75  1  0.74767485  0.25157966  0.00024192  1
  Fe  Fe76  1  0.12555149  0.12703856  0.37604227  1
  Fe  Fe77  1  0.12348547  0.86986499  0.37594743  1
  Fe  Fe78  1  0.62342963  0.62359508  0.62463796  1
  Fe  Fe79  1  0.37310911  0.62411816  0.62601232  1
  Fe  Fe80  1  0.87345699  0.37643267  0.12403091  1
  Fe  Fe81  1  0.24812753  0.25130573  0.50201114  1
  Fe  Fe82  1  0.25469025  0.00041023  0.25569532  1
  Fe  Fe83  1  0.00150293  0.24953208  0.00194532  1
  Fe  Fe84  1  0.87471765  0.37505168  0.87531564  1
  Fe  Fe85  1  0.37302414  0.12253003  0.61959417  1
  Fe  Fe86  1  0.50270013  0.25229255  0.50230768  1
  Fe  Fe87  1  0.37555590  0.37397817  0.37601512  1
  Fe  Fe88  1  0.25204320  0.75039065  0.24996017  1
  Fe  Fe89  1  0.25002824  0.24985681  0.00139222  1
  Co  Co90  1  0.87047964  0.62670294  0.37615363  1
  Co  Co91  1  0.50316442  0.00114386  0.49765714  1
  Co  Co92  1  0.37543195  0.12307389  0.12324148  1
  Co  Co93  1  0.37554322  0.12948971  0.38057628  1
  Co  Co94  1  0.62231203  0.37456843  0.63075359  1
  Co  Co95  1  0.24661948  0.49925456  0.75108620  1
  Co  Co96  1  0.87735735  0.87181126  0.87406989  1
  Co  Co97  1  0.12553774  0.62559655  0.36904893  1
  Co  Co98  1  0.49439477  0.24555926  0.74798873  1
  Co  Co99  1  0.87296394  0.62376529  0.12217683  1
  Co  Co100  1  0.62301893  0.87654498  0.12862352  1
  Co  Co101  1  0.75053322  0.24980282  0.24674736  1
  Co  Co102  1  0.50264300  0.50497921  0.75356682  1
  Co  Co103  1  0.87398595  0.12646131  0.37483022  1
  Co  Co104  1  0.24779912  0.74692858  0.49940581  1
  Co  Co105  1  0.00154052  -0.00049687  0.75091389  1
  Co  Co106  1  -0.00029541  0.74364997  0.49946920  1
  Co  Co107  1  0.62377894  0.37709823  0.12637847  1
  Co  Co108  1  0.12626654  0.62799390  0.87640654  1
  Co  Co109  1  0.37272204  0.87484806  0.87611612  1
  Co  Co110  1  0.12765142  0.87727619  0.12889406  1
  Co  Co111  1  0.62497831  0.87349019  0.87077887  1
  Co  Co112  1  -0.00607895  0.50040698  0.25234373  1
  Co  Co113  1  0.12478342  0.12477711  0.62437656  1
  Co  Co114  1  0.50238358  0.74739494  0.50126518  1
  Co  Co115  1  0.12697965  0.62340778  0.62519993  1
  Co  Co116  1  0.24833651  0.75357906  0.74679041  1
  Co  Co117  1  -0.00351397  0.74940118  0.24833531  1
  Co  Co118  1  0.62324338  0.36924899  0.86822357  1
  Co  Co119  1  0.00052534  0.00162858  0.49685197  1
  Co  Co120  1  0.75599079  0.25004816  0.74752988  1
  Co  Co121  1  0.74657807  0.49708688  -0.00354727  1
  Co  Co122  1  0.50082623  0.50044114  0.49807492  1
  Co  Co123  1  0.87375271  0.87844694  0.12688419  1
  Co  Co124  1  0.37726467  0.87113908  0.37953385  1
  Co  Co125  1  0.62633903  0.37361180  0.37401366  1
  Co  Co126  1  0.25536292  0.50102980  0.25064295  1
  Co  Co127  1  0.24790602  -0.00070669  0.49610506  1
