# generated using pymatgen
data_Fe45Co19
_symmetry_space_group_name_H-M   'P 1'
_cell_length_a   11.41586709
_cell_length_b   11.41621054
_cell_length_c   11.41510735
_cell_angle_alpha   90.01209449
_cell_angle_beta   90.01163218
_cell_angle_gamma   90.00268304
_symmetry_Int_Tables_number   1
_chemical_formula_structural   Fe45Co19
_chemical_formula_sum   'Fe90 Co38'
_cell_volume   1487.68455485
_cell_formula_units_Z   2
loop_
 _symmetry_equiv_pos_site_id
 _symmetry_equiv_pos_as_xyz
  1  'x, y, z'
loop_
 _atom_site_type_symbol
 _atom_site_label
 _atom_site_symmetry_multiplicity
 _atom_site_fract_x
 _atom_site_fract_y
 _atom_site_fract_z
 _atom_site_occupancy
  Fe  Fe0  1  0.62670867  0.87695000  0.37433694  1
  Fe  Fe1  1  0.50017715  0.50280262  0.00021472  1
  Fe  Fe2  1  0.25082261  -0.00115567  0.25238026  1
  Fe  Fe3  1  0.24776324  -0.00294484  -0.00053428  1
  Fe  Fe4  1  0.87616809  0.37539247  0.12521414  1
  Fe  Fe5  1  0.24788649  0.25089077  -0.00069395  1
  Fe  Fe6  1  0.50230175  0.25129856  0.00338146  1
  Fe  Fe7  1  -0.00123618  0.50198064  0.74763046  1
  Fe  Fe8  1  0.37309647  0.37829919  0.12396735  1
  Fe  Fe9  1  0.12433654  0.62572077  0.87289658  1
  Fe  Fe10  1  0.87443826  0.12317065  0.88160920  1
  Fe  Fe11  1  0.00224038  0.50112616  0.00180616  1
  Fe  Fe12  1  -0.00521200  0.74674927  0.25157844  1
  Fe  Fe13  1  0.49693242  0.74697453  0.25205455  1
  Fe  Fe14  1  0.37484946  0.37528863  0.87443564  1
  Fe  Fe15  1  0.87658922  0.37433443  0.87610666  1
  Fe  Fe16  1  0.74950011  0.49841011  -0.00069155  1
  Fe  Fe17  1  0.87200851  0.87545803  0.62151987  1
  Fe  Fe18  1  0.50008355  0.50294934  0.74970901  1
  Fe  Fe19  1  0.50031126  0.24850919  0.50245987  1
  Fe  Fe20  1  0.24643328  0.49764752  0.50033267  1
  Fe  Fe21  1  0.49971652  0.74854831  0.75079597  1
  Fe  Fe22  1  0.24999996  0.25293153  0.50264871  1
  Fe  Fe23  1  0.12670972  0.37822768  0.12844882  1
  Fe  Fe24  1  0.62592252  0.12579637  0.87746662  1
  Fe  Fe25  1  0.12174996  0.87583429  0.87151861  1
  Fe  Fe26  1  0.62403348  0.87310594  0.87282286  1
  Fe  Fe27  1  0.37395672  0.12390191  0.12381764  1
  Fe  Fe28  1  0.00091538  0.24785192  0.24785755  1
  Fe  Fe29  1  0.49563104  0.50313304  0.24991808  1
  Fe  Fe30  1  0.74922230  0.75164995  -0.00068682  1
  Fe  Fe31  1  0.12739266  0.62277967  0.12800349  1
  Fe  Fe32  1  0.37542910  0.12425244  0.37670445  1
  Fe  Fe33  1  0.50314059  0.00196513  0.50182565  1
  Fe  Fe34  1  0.75512163  0.50230163  0.25164767  1
  Fe  Fe35  1  0.00001264  0.75213994  0.49845744  1
  Fe  Fe36  1  0.50172419  0.75112096  0.49789578  1
  Fe  Fe37  1  -0.00076439  0.24768382  0.74935501  1
  Fe  Fe38  1  0.24919772  0.50036326  0.74881878  1
  Fe  Fe39  1  0.62684457  0.62410423  0.37591851  1
  Fe  Fe40  1  0.37601139  0.37634231  0.37750097  1
  Fe  Fe41  1  0.25200757  0.25141783  0.25057685  1
  Fe  Fe42  1  0.62511672  0.87404353  0.12713574  1
  Fe  Fe43  1  0.49915308  0.00101412  0.24992638  1
  Fe  Fe44  1  0.50004720  -0.00240047  -0.00052550  1
  Fe  Fe45  1  0.49815084  0.00137364  0.74915680  1
  Fe  Fe46  1  0.00352695  0.24796264  0.00180943  1
  Fe  Fe47  1  -0.00344821  0.74935920  0.74793377  1
  Fe  Fe48  1  0.62642864  0.62509252  0.12445981  1
  Fe  Fe49  1  0.37497730  0.87484384  0.62349832  1
  Fe  Fe50  1  0.24828347  -0.00417946  0.49774441  1
  Fe  Fe51  1  0.62603392  0.37508115  0.37200338  1
  Fe  Fe52  1  0.37393697  0.62805785  0.87826050  1
  Fe  Fe53  1  0.12628332  0.12217773  0.87143803  1
  Fe  Fe54  1  0.37304679  0.62582196  0.62070347  1
  Fe  Fe55  1  0.75138716  0.00021478  0.75044087  1
  Fe  Fe56  1  0.12400424  0.37561356  0.87150681  1
  Fe  Fe57  1  0.00050377  0.00021490  0.49797707  1
  Fe  Fe58  1  -0.00016228  0.25255438  0.50022117  1
  Fe  Fe59  1  0.12168578  0.87562424  0.13072405  1
  Fe  Fe60  1  0.50394805  0.49911589  0.50149435  1
  Fe  Fe61  1  0.75068455  0.50116656  0.74965358  1
  Fe  Fe62  1  0.74787094  0.24824562  0.24379296  1
  Fe  Fe63  1  0.25427717  0.74830915  0.25552952  1
  Fe  Fe64  1  0.87452862  0.62507470  0.87702066  1
  Fe  Fe65  1  0.37264364  0.12411965  0.87481852  1
  Fe  Fe66  1  0.75199774  0.24916559  0.75220498  1
  Fe  Fe67  1  0.87331639  0.12472032  0.62383556  1
  Fe  Fe68  1  0.62944259  0.62759557  0.62472773  1
  Fe  Fe69  1  0.62595583  0.37291084  0.62776895  1
  Fe  Fe70  1  0.24762368  0.75192028  0.00010446  1
  Fe  Fe71  1  0.87784928  0.87719053  0.87827781  1
  Fe  Fe72  1  0.37613736  0.87266351  0.12500324  1
  Fe  Fe73  1  0.62845944  0.87416633  0.62565279  1
  Fe  Fe74  1  0.00151524  0.74913259  0.00127653  1
  Fe  Fe75  1  0.87408487  0.12626890  0.37525328  1
  Fe  Fe76  1  0.62583036  0.12498593  0.37367493  1
  Fe  Fe77  1  0.50031143  0.24996509  0.24732908  1
  Fe  Fe78  1  0.12744800  0.12420963  0.62733442  1
  Fe  Fe79  1  0.12584170  0.12586382  0.37397580  1
  Fe  Fe80  1  0.12373417  0.62409553  0.37590156  1
  Fe  Fe81  1  0.62396438  0.37477081  0.87418022  1
  Fe  Fe82  1  0.49600096  0.24775642  0.74697065  1
  Fe  Fe83  1  0.24962717  0.75011323  0.74798224  1
  Fe  Fe84  1  -0.00161645  0.49363176  0.49811995  1
  Fe  Fe85  1  0.12406413  0.87423973  0.62615794  1
  Fe  Fe86  1  0.74923615  0.25194720  0.50044008  1
  Fe  Fe87  1  0.75471003  0.00043761  0.24744171  1
  Fe  Fe88  1  0.75473194  0.74925412  0.25257333  1
  Fe  Fe89  1  0.87298792  0.62478688  0.62028559  1
  Co  Co90  1  0.24808313  0.49973222  -0.00273625  1
  Co  Co91  1  0.87431012  0.62541294  0.12099171  1
  Co  Co92  1  -0.00297384  0.00026135  0.74772403  1
  Co  Co93  1  0.37500819  0.62335753  0.38214975  1
  Co  Co94  1  0.25319960  0.50189940  0.25338825  1
  Co  Co95  1  0.50301554  0.74957236  0.00060446  1
  Co  Co96  1  0.37253704  0.62647459  0.12099079  1
  Co  Co97  1  0.74665045  0.25334905  0.00296467  1
  Co  Co98  1  0.62666197  0.62548050  0.87548634  1
  Co  Co99  1  0.37582747  0.37786847  0.62478851  1
  Co  Co100  1  0.87622219  0.62371731  0.38119426  1
  Co  Co101  1  0.74857685  0.00192046  0.49957296  1
  Co  Co102  1  0.62763251  0.12653948  0.62703467  1
  Co  Co103  1  0.74727688  -0.00376895  0.00077311  1
  Co  Co104  1  0.00549180  0.00156824  0.00339568  1
  Co  Co105  1  0.74937961  0.49594372  0.49976015  1
  Co  Co106  1  -0.00305837  0.00431680  0.24989947  1
  Co  Co107  1  0.25138427  -0.00419939  0.75059132  1
  Co  Co108  1  0.37059945  0.12196209  0.62377560  1
  Co  Co109  1  -0.00264205  0.50166030  0.25095864  1
  Co  Co110  1  0.74908792  0.75091223  0.49551931  1
  Co  Co111  1  0.12316994  0.62532472  0.62210684  1
  Co  Co112  1  0.87459168  0.37396243  0.62744945  1
  Co  Co113  1  0.62413354  0.12120371  0.12289807  1
  Co  Co114  1  0.87306106  0.37105520  0.37069012  1
  Co  Co115  1  0.12452472  0.37417096  0.37181631  1
  Co  Co116  1  0.75373965  0.75032491  0.75192103  1
  Co  Co117  1  0.12063820  0.87425325  0.36990221  1
  Co  Co118  1  0.87556080  0.87750877  0.37588637  1
  Co  Co119  1  0.37587928  0.87227993  0.87568352  1
  Co  Co120  1  0.25145336  0.25199654  0.74881498  1
  Co  Co121  1  0.62447835  0.38093319  0.12742780  1
  Co  Co122  1  0.87405106  0.12468049  0.11912032  1
  Co  Co123  1  0.24834556  0.75324902  0.49689995  1
  Co  Co124  1  0.12876505  0.12382090  0.12800110  1
  Co  Co125  1  0.12258943  0.37398883  0.62858569  1
  Co  Co126  1  0.37843926  0.87697983  0.37662567  1
  Co  Co127  1  0.87797084  0.87468819  0.12311933  1
