# generated using pymatgen
data_Fe45Co19
_symmetry_space_group_name_H-M   'P 1'
_cell_length_a   11.42313934
_cell_length_b   11.42451704
_cell_length_c   11.42322716
_cell_angle_alpha   89.99989606
_cell_angle_beta   89.99585663
_cell_angle_gamma   90.00253539
_symmetry_Int_Tables_number   1
_chemical_formula_structural   Fe45Co19
_chemical_formula_sum   'Fe90 Co38'
_cell_volume   1490.77511968
_cell_formula_units_Z   2
loop_
 _symmetry_equiv_pos_site_id
 _symmetry_equiv_pos_as_xyz
  1  'x, y, z'
loop_
 _atom_site_type_symbol
 _atom_site_label
 _atom_site_symmetry_multiplicity
 _atom_site_fract_x
 _atom_site_fract_y
 _atom_site_fract_z
 _atom_site_occupancy
  Fe  Fe0  1  0.62634067  0.62452888  0.37600532  1
  Fe  Fe1  1  0.25026710  0.75283584  0.25172933  1
  Fe  Fe2  1  0.12222543  0.87504360  0.37808547  1
  Fe  Fe3  1  0.50276056  0.49866316  0.24847132  1
  Fe  Fe4  1  0.12320138  0.62407879  0.87376203  1
  Fe  Fe5  1  0.24837005  0.75159582  0.74937548  1
  Fe  Fe6  1  0.37365146  0.87761154  0.12592801  1
  Fe  Fe7  1  0.75018759  0.00063186  0.25099959  1
  Fe  Fe8  1  0.00016968  -0.00089890  0.74693211  1
  Fe  Fe9  1  0.75314620  0.25182912  0.75036074  1
  Fe  Fe10  1  0.87760830  0.87371676  0.61856965  1
  Fe  Fe11  1  0.74685361  -0.00254475  0.49815225  1
  Fe  Fe12  1  0.50183880  0.00019515  0.00029716  1
  Fe  Fe13  1  0.24800182  0.49936601  0.50041100  1
  Fe  Fe14  1  0.24897288  0.24989712  0.50196577  1
  Fe  Fe15  1  0.25102495  0.24952189  0.74903147  1
  Fe  Fe16  1  0.75248252  0.75044775  0.25504762  1
  Fe  Fe17  1  0.12357192  0.12496109  0.87399606  1
  Fe  Fe18  1  0.62753279  0.87289827  0.12626316  1
  Fe  Fe19  1  0.24942032  0.49815812  0.00042513  1
  Fe  Fe20  1  0.75072808  0.74779686  -0.00197395  1
  Fe  Fe21  1  0.12423953  0.62660760  0.12647676  1
  Fe  Fe22  1  0.00437192  0.50055503  0.49860332  1
  Fe  Fe23  1  0.50140020  0.00033307  0.24997031  1
  Fe  Fe24  1  0.24774994  0.74886049  0.50153476  1
  Fe  Fe25  1  -0.00036718  0.74940355  -0.00133600  1
  Fe  Fe26  1  0.24851658  0.49867667  0.25033412  1
  Fe  Fe27  1  0.24850367  0.75099992  -0.00031447  1
  Fe  Fe28  1  0.37454406  0.87679233  0.87491151  1
  Fe  Fe29  1  0.37598987  0.62413136  0.87561975  1
  Fe  Fe30  1  0.75005489  0.50295726  -0.00079060  1
  Fe  Fe31  1  0.37355282  0.62419574  0.12583604  1
  Fe  Fe32  1  0.87612353  0.37273407  0.12387784  1
  Fe  Fe33  1  0.00130082  0.00146920  0.25083622  1
  Fe  Fe34  1  0.87320809  0.12562778  0.37556574  1
  Fe  Fe35  1  0.25190698  0.49902246  0.75031366  1
  Fe  Fe36  1  -0.00165432  0.49921135  0.74839412  1
  Fe  Fe37  1  0.50043633  0.75013749  0.00116210  1
  Fe  Fe38  1  0.50194407  0.25209948  0.24921050  1
  Fe  Fe39  1  -0.00264967  0.74810796  0.25543621  1
  Fe  Fe40  1  0.74843470  0.49651717  0.24833913  1
  Fe  Fe41  1  0.00005979  0.00044494  0.00068145  1
  Fe  Fe42  1  0.87492961  0.62533559  0.62143229  1
  Fe  Fe43  1  0.87510384  0.62440642  0.12616263  1
  Fe  Fe44  1  0.24817597  0.00261889  0.50120063  1
  Fe  Fe45  1  0.87592356  0.37841616  0.87641318  1
  Fe  Fe46  1  0.87456237  0.37576718  0.37617394  1
  Fe  Fe47  1  0.25082300  0.24840122  0.24849675  1
  Fe  Fe48  1  0.37404804  0.12314386  0.87584912  1
  Fe  Fe49  1  0.12397157  0.37482882  0.87482016  1
  Fe  Fe50  1  0.50375712  0.00189533  0.50234916  1
  Fe  Fe51  1  0.25158988  0.24966653  0.00161685  1
  Fe  Fe52  1  0.50247797  0.75066515  0.50116968  1
  Fe  Fe53  1  -0.00281903  0.25111838  0.75001528  1
  Fe  Fe54  1  0.37527715  0.87687517  0.37737036  1
  Fe  Fe55  1  0.00142099  0.75138810  0.74813087  1
  Fe  Fe56  1  0.87658333  0.12808515  0.12602765  1
  Fe  Fe57  1  0.87382439  0.12580486  0.62336228  1
  Fe  Fe58  1  0.75304342  0.24878775  -0.00306085  1
  Fe  Fe59  1  0.37486066  0.37420547  0.62520993  1
  Fe  Fe60  1  0.62554570  0.87502784  0.87307017  1
  Fe  Fe61  1  0.37615203  0.12473286  0.37432957  1
  Fe  Fe62  1  0.12512573  0.12711263  0.37492418  1
  Fe  Fe63  1  0.50270799  0.24914063  0.50149979  1
  Fe  Fe64  1  0.87549084  0.87481512  0.87473795  1
  Fe  Fe65  1  0.24841674  0.00023452  0.74732270  1
  Fe  Fe66  1  0.62313062  0.37635857  0.87293552  1
  Fe  Fe67  1  0.62645871  0.12801691  0.12548657  1
  Fe  Fe68  1  0.49732113  0.25047854  0.00097936  1
  Fe  Fe69  1  0.50128655  0.49873578  0.50180394  1
  Fe  Fe70  1  0.74733586  0.49732597  0.50221989  1
  Fe  Fe71  1  0.49906383  0.74919242  0.24993821  1
  Fe  Fe72  1  0.50045957  0.74889984  0.74896851  1
  Fe  Fe73  1  0.75030739  0.74841422  0.74854243  1
  Fe  Fe74  1  0.37472808  0.37473372  0.37484159  1
  Fe  Fe75  1  0.37463954  0.62417523  0.37564981  1
  Fe  Fe76  1  0.00106607  0.49858544  0.25153067  1
  Fe  Fe77  1  0.12208639  0.37119748  0.12474376  1
  Fe  Fe78  1  0.74986451  0.50136465  0.74889638  1
  Fe  Fe79  1  0.24674737  0.00046733  0.00372909  1
  Fe  Fe80  1  0.75160350  -0.00148252  0.74839135  1
  Fe  Fe81  1  0.87550687  0.87436021  0.12599219  1
  Fe  Fe82  1  0.37540995  0.87725179  0.62510075  1
  Fe  Fe83  1  0.74735447  0.25118212  0.49962858  1
  Fe  Fe84  1  0.37405793  0.62479700  0.62429929  1
  Fe  Fe85  1  0.49842345  0.24765726  0.74839894  1
  Fe  Fe86  1  0.75107642  0.00103771  0.00005088  1
  Fe  Fe87  1  0.50035122  0.49930965  0.00204088  1
  Fe  Fe88  1  0.00093615  0.25125249  0.50028731  1
  Fe  Fe89  1  0.62617493  0.12473039  0.87265057  1
  Co  Co90  1  0.24653561  -0.00041420  0.25154864  1
  Co  Co91  1  0.49934319  0.00170062  0.74952379  1
  Co  Co92  1  0.00013781  0.74388874  0.49657955  1
  Co  Co93  1  0.87725151  0.62528679  0.87315398  1
  Co  Co94  1  0.37584628  0.12294452  0.12713658  1
  Co  Co95  1  0.00029795  0.50097993  0.00161458  1
  Co  Co96  1  0.62755028  0.37204953  0.12088093  1
  Co  Co97  1  0.12514081  0.37481813  0.62703053  1
  Co  Co98  1  0.37647016  0.37471427  0.87407273  1
  Co  Co99  1  0.12823620  0.62541501  0.37336149  1
  Co  Co100  1  0.74984682  0.75321916  0.49642995  1
  Co  Co101  1  -0.00178200  0.25057240  0.25428771  1
  Co  Co102  1  0.12219262  0.87254466  0.12690793  1
  Co  Co103  1  0.87106255  0.61842545  0.37745195  1
  Co  Co104  1  0.62710141  0.62694766  0.12649908  1
  Co  Co105  1  0.62530851  0.87478608  0.62726456  1
  Co  Co106  1  0.75058694  0.25173512  0.25154065  1
  Co  Co107  1  0.87591561  0.12148780  0.87227498  1
  Co  Co108  1  0.62507051  0.37545643  0.37578323  1
  Co  Co109  1  0.12465503  0.62348932  0.62749310  1
  Co  Co110  1  0.12297409  0.12748743  0.62676624  1
  Co  Co111  1  0.62271023  0.87444122  0.37295174  1
  Co  Co112  1  0.62678161  0.62535604  0.62295766  1
  Co  Co113  1  0.49868783  0.50145921  0.74679063  1
  Co  Co114  1  0.62429102  0.37334140  0.62812104  1
  Co  Co115  1  0.12200544  0.12831346  0.12538702  1
  Co  Co116  1  0.12680179  0.37290015  0.37460103  1
  Co  Co117  1  0.87571520  0.37573445  0.62216889  1
  Co  Co118  1  0.87876617  0.87873827  0.37772726  1
  Co  Co119  1  0.62294257  0.62403566  0.87411261  1
  Co  Co120  1  0.62873087  0.12533977  0.62727321  1
  Co  Co121  1  0.00108495  0.00564504  0.49983755  1
  Co  Co122  1  0.12282982  0.87525478  0.62051295  1
  Co  Co123  1  0.12454934  0.87676870  0.87508950  1
  Co  Co124  1  0.37412243  0.37617739  0.12765414  1
  Co  Co125  1  0.62515198  0.12590937  0.37362945  1
  Co  Co126  1  -0.00226296  0.24893110  -0.00433490  1
  Co  Co127  1  0.37494370  0.12438442  0.62369012  1
