# generated using pymatgen
data_Fe45Co19
_symmetry_space_group_name_H-M   'P 1'
_cell_length_a   11.41559962
_cell_length_b   11.41618969
_cell_length_c   11.41464082
_cell_angle_alpha   89.99852402
_cell_angle_beta   89.98694430
_cell_angle_gamma   89.99977859
_symmetry_Int_Tables_number   1
_chemical_formula_structural   Fe45Co19
_chemical_formula_sum   'Fe90 Co38'
_cell_volume   1487.58620863
_cell_formula_units_Z   2
loop_
 _symmetry_equiv_pos_site_id
 _symmetry_equiv_pos_as_xyz
  1  'x, y, z'
loop_
 _atom_site_type_symbol
 _atom_site_label
 _atom_site_symmetry_multiplicity
 _atom_site_fract_x
 _atom_site_fract_y
 _atom_site_fract_z
 _atom_site_occupancy
  Fe  Fe0  1  0.12592591  0.12394239  0.87343516  1
  Fe  Fe1  1  0.50060808  0.49912392  0.74936874  1
  Fe  Fe2  1  0.12406164  0.87735848  0.12531122  1
  Fe  Fe3  1  0.62712691  0.62372100  0.37284332  1
  Fe  Fe4  1  0.75285122  0.74913741  0.74837949  1
  Fe  Fe5  1  0.74973270  0.00293037  0.50045707  1
  Fe  Fe6  1  0.12430236  0.62456548  0.87300053  1
  Fe  Fe7  1  -0.00167536  0.00267097  0.00136440  1
  Fe  Fe8  1  0.37605173  0.12514519  0.62483947  1
  Fe  Fe9  1  0.24844416  0.50133482  0.49822291  1
  Fe  Fe10  1  0.87688718  0.12564308  0.37294267  1
  Fe  Fe11  1  0.50004988  0.00076586  0.75264292  1
  Fe  Fe12  1  0.87988364  0.37329801  0.11928527  1
  Fe  Fe13  1  0.24743328  0.49995266  0.00078980  1
  Fe  Fe14  1  0.00167270  0.00086528  0.49844791  1
  Fe  Fe15  1  0.62965922  0.37163023  0.86969024  1
  Fe  Fe16  1  0.12550902  0.87702169  0.37155996  1
  Fe  Fe17  1  0.50136322  0.49708310  -0.00122603  1
  Fe  Fe18  1  0.50028018  0.49917876  0.50103756  1
  Fe  Fe19  1  0.62626302  0.37281657  0.37681336  1
  Fe  Fe20  1  0.24867146  0.75182249  0.75089355  1
  Fe  Fe21  1  0.62416339  0.37491055  0.12596847  1
  Fe  Fe22  1  0.24950409  0.74900566  0.50043443  1
  Fe  Fe23  1  0.62404043  0.12748399  0.37462612  1
  Fe  Fe24  1  0.24975755  0.00112717  0.00208376  1
  Fe  Fe25  1  0.62621016  0.87515188  0.87579199  1
  Fe  Fe26  1  0.37343422  0.37470549  0.87669344  1
  Fe  Fe27  1  0.50065577  0.00110233  0.49908393  1
  Fe  Fe28  1  0.12171154  0.61989522  0.13050778  1
  Fe  Fe29  1  0.00190653  0.74829202  0.00147357  1
  Fe  Fe30  1  0.75076047  0.49979910  0.50245473  1
  Fe  Fe31  1  0.75311828  0.00010017  0.24710734  1
  Fe  Fe32  1  0.75127121  0.49801760  -0.00106356  1
  Fe  Fe33  1  0.62346962  0.12569504  0.12342495  1
  Fe  Fe34  1  0.00188749  0.24684605  0.49936852  1
  Fe  Fe35  1  0.87460127  0.37170432  0.37905599  1
  Fe  Fe36  1  0.75154657  0.25052826  0.24811911  1
  Fe  Fe37  1  0.12351303  0.87663226  0.62699736  1
  Fe  Fe38  1  0.37518693  0.12737306  0.87793959  1
  Fe  Fe39  1  0.37512737  0.87572558  0.62390857  1
  Fe  Fe40  1  0.37770991  0.12689543  0.12437801  1
  Fe  Fe41  1  0.00180334  0.50161299  0.49645087  1
  Fe  Fe42  1  0.87466522  0.62508646  0.87672026  1
  Fe  Fe43  1  0.12220214  0.37535220  0.87486603  1
  Fe  Fe44  1  0.24882293  0.75005315  0.24795057  1
  Fe  Fe45  1  0.12226892  0.37725868  0.12884432  1
  Fe  Fe46  1  0.25009817  -0.00156511  0.75112866  1
  Fe  Fe47  1  -0.00536238  0.49912174  0.74998180  1
  Fe  Fe48  1  0.24579285  0.25076467  0.00139036  1
  Fe  Fe49  1  0.24827312  0.24609056  0.49760288  1
  Fe  Fe50  1  0.50200466  0.75087154  0.24889782  1
  Fe  Fe51  1  0.12336715  0.37381259  0.62395207  1
  Fe  Fe52  1  0.37455951  0.62423485  0.12415976  1
  Fe  Fe53  1  0.75087438  0.00038513  0.00236059  1
  Fe  Fe54  1  0.75045535  0.00378753  0.74916246  1
  Fe  Fe55  1  0.37405062  0.37410358  0.12515479  1
  Fe  Fe56  1  0.62607971  0.87693630  0.62539706  1
  Fe  Fe57  1  0.87311244  0.12997931  0.87899056  1
  Fe  Fe58  1  0.62679344  0.62312678  0.62597383  1
  Fe  Fe59  1  0.87637894  0.87456400  0.87680501  1
  Fe  Fe60  1  0.00131797  0.75016696  0.49870943  1
  Fe  Fe61  1  0.24967946  0.50003481  0.74925111  1
  Fe  Fe62  1  0.62757335  0.62320009  0.12625076  1
  Fe  Fe63  1  0.75034675  0.75103632  0.00344347  1
  Fe  Fe64  1  0.49854227  -0.00101815  0.24788546  1
  Fe  Fe65  1  0.12069764  0.12490093  0.13067278  1
  Fe  Fe66  1  0.62527871  0.12905634  0.87508952  1
  Fe  Fe67  1  0.49932868  0.74983471  0.74895447  1
  Fe  Fe68  1  0.87413326  0.87364523  0.37262202  1
  Fe  Fe69  1  0.37460301  0.37311492  0.37457887  1
  Fe  Fe70  1  0.37346630  0.87645414  0.37301424  1
  Fe  Fe71  1  0.12373441  0.62555211  0.62574448  1
  Fe  Fe72  1  -0.00304888  0.24934754  0.74964027  1
  Fe  Fe73  1  0.62634785  0.87542839  0.37306323  1
  Fe  Fe74  1  -0.00097509  0.00080966  0.75175707  1
  Fe  Fe75  1  0.37405202  0.62534847  0.87675731  1
  Fe  Fe76  1  0.62668736  0.62477616  0.87477483  1
  Fe  Fe77  1  0.24804379  0.00326596  0.49788450  1
  Fe  Fe78  1  0.50171775  0.75209016  0.00271131  1
  Fe  Fe79  1  0.24992292  0.25033728  0.74977101  1
  Fe  Fe80  1  0.49896773  0.49849320  0.25070813  1
  Fe  Fe81  1  0.37272395  0.87345232  0.88022805  1
  Fe  Fe82  1  0.50028800  0.74935645  0.50030103  1
  Fe  Fe83  1  0.74940254  0.75048938  0.50006449  1
  Fe  Fe84  1  0.24935108  0.24838398  0.25233033  1
  Fe  Fe85  1  0.37417345  0.62504882  0.37423572  1
  Fe  Fe86  1  0.87458900  0.62777419  0.37249904  1
  Fe  Fe87  1  0.75481156  0.49777178  0.24898934  1
  Fe  Fe88  1  0.37479520  0.37489169  0.62447063  1
  Fe  Fe89  1  0.87546002  0.87618382  0.62497194  1
  Co  Co90  1  0.37282341  0.87431933  0.12413548  1
  Co  Co91  1  0.49766682  0.25062328  0.75017068  1
  Co  Co92  1  0.74907991  0.75080227  0.24804559  1
  Co  Co93  1  0.87638806  0.12872748  0.12456398  1
  Co  Co94  1  0.12541423  0.62478202  0.37199531  1
  Co  Co95  1  0.12117169  0.12350598  0.37055601  1
  Co  Co96  1  0.00554818  0.24787674  -0.00079668  1
  Co  Co97  1  0.25170576  0.49882529  0.25207027  1
  Co  Co98  1  0.62663331  0.87755105  0.12527175  1
  Co  Co99  1  0.12499918  0.12446366  0.62768434  1
  Co  Co100  1  0.49918159  0.25107186  0.50008304  1
  Co  Co101  1  0.37753595  0.12455720  0.37375529  1
  Co  Co102  1  0.50141177  0.25360740  -0.00120755  1
  Co  Co103  1  0.87523035  0.62385821  0.12601037  1
  Co  Co104  1  0.87553855  0.87338125  0.12423309  1
  Co  Co105  1  -0.00496218  0.49701340  0.25490881  1
  Co  Co106  1  0.87653684  0.37529311  0.62098592  1
  Co  Co107  1  0.00071183  0.75079737  0.24924003  1
  Co  Co108  1  0.24452182  0.74712194  0.00205958  1
  Co  Co109  1  0.12591247  0.37356599  0.37439115  1
  Co  Co110  1  0.37392633  0.62446942  0.62585564  1
  Co  Co111  1  0.75529576  0.49951282  0.74965184  1
  Co  Co112  1  0.87816002  0.12217014  0.62266203  1
  Co  Co113  1  -0.00085372  0.75069525  0.75089646  1
  Co  Co114  1  -0.00410011  -0.00221597  0.24912360  1
  Co  Co115  1  -0.00216796  0.25365750  0.25132417  1
  Co  Co116  1  0.00075845  0.50157540  -0.00168018  1
  Co  Co117  1  0.50113678  0.25141492  0.25005003  1
  Co  Co118  1  0.49988324  -0.00071167  -0.00076818  1
  Co  Co119  1  0.25133363  0.00251132  0.24950294  1
  Co  Co120  1  0.75578902  0.24838653  0.74375523  1
  Co  Co121  1  0.75047766  0.24578392  0.50315743  1
  Co  Co122  1  0.62182880  0.12646290  0.62496601  1
  Co  Co123  1  0.12352219  0.87705782  0.87765034  1
  Co  Co124  1  0.62693296  0.37340610  0.62605288  1
  Co  Co125  1  0.87629553  0.62574226  0.62207349  1
  Co  Co126  1  0.74702013  0.25165796  0.00337416  1
  Co  Co127  1  0.87478121  0.37087499  0.87857752  1
