# generated using pymatgen
data_Fe45Co19
_symmetry_space_group_name_H-M   'P 1'
_cell_length_a   11.40833103
_cell_length_b   11.40790621
_cell_length_c   11.40889276
_cell_angle_alpha   90.00302673
_cell_angle_beta   90.00509504
_cell_angle_gamma   89.99910733
_symmetry_Int_Tables_number   1
_chemical_formula_structural   Fe45Co19
_chemical_formula_sum   'Fe90 Co38'
_cell_volume   1484.81228510
_cell_formula_units_Z   2
loop_
 _symmetry_equiv_pos_site_id
 _symmetry_equiv_pos_as_xyz
  1  'x, y, z'
loop_
 _atom_site_type_symbol
 _atom_site_label
 _atom_site_symmetry_multiplicity
 _atom_site_fract_x
 _atom_site_fract_y
 _atom_site_fract_z
 _atom_site_occupancy
  Fe  Fe0  1  0.00006156  0.49962641  0.00261075  1
  Fe  Fe1  1  0.62510875  0.62309730  0.12865002  1
  Fe  Fe2  1  0.12092342  0.36891336  0.37820123  1
  Fe  Fe3  1  0.62589051  0.87566210  0.12332744  1
  Fe  Fe4  1  0.75150359  0.25070738  0.49867350  1
  Fe  Fe5  1  0.50072881  0.74386614  0.50105953  1
  Fe  Fe6  1  0.87779532  0.62563867  0.12912767  1
  Fe  Fe7  1  0.74741278  0.74716729  0.75178697  1
  Fe  Fe8  1  0.12609410  0.62566677  0.12676011  1
  Fe  Fe9  1  0.12294123  0.87603447  0.62555129  1
  Fe  Fe10  1  0.74965733  0.74989557  0.25236645  1
  Fe  Fe11  1  0.25143670  -0.00242344  0.25210779  1
  Fe  Fe12  1  -0.00319389  0.00505476  0.00025421  1
  Fe  Fe13  1  0.25334138  0.00176887  -0.00358039  1
  Fe  Fe14  1  0.12444931  0.12488004  0.87372464  1
  Fe  Fe15  1  0.63064618  0.12435843  0.62650244  1
  Fe  Fe16  1  0.62195664  0.87281490  0.37648525  1
  Fe  Fe17  1  0.50499191  0.25181711  0.00742981  1
  Fe  Fe18  1  0.37385619  0.12728035  0.62547107  1
  Fe  Fe19  1  0.50157544  -0.00101559  0.74860956  1
  Fe  Fe20  1  0.12649240  0.87898601  0.12167240  1
  Fe  Fe21  1  -0.00148755  0.00175766  0.74841916  1
  Fe  Fe22  1  0.25344602  0.50019123  0.49933565  1
  Fe  Fe23  1  -0.00106758  0.50191737  0.49878520  1
  Fe  Fe24  1  0.24946321  0.75020031  -0.00127142  1
  Fe  Fe25  1  0.25170004  0.25386837  0.75092404  1
  Fe  Fe26  1  0.24501056  0.75127905  0.75462909  1
  Fe  Fe27  1  0.49741318  0.74607190  0.00369040  1
  Fe  Fe28  1  0.49841914  -0.00384299  0.24893676  1
  Fe  Fe29  1  0.12545449  0.37227733  0.12495132  1
  Fe  Fe30  1  0.75457286  0.50013237  0.25550402  1
  Fe  Fe31  1  0.12023704  0.62708461  0.37184112  1
  Fe  Fe32  1  -0.00001155  0.00447529  0.24818736  1
  Fe  Fe33  1  0.24783727  0.49845897  0.25124331  1
  Fe  Fe34  1  0.87405878  0.87502938  0.12361159  1
  Fe  Fe35  1  0.12682808  0.62447567  0.62561510  1
  Fe  Fe36  1  0.12632622  0.37239199  0.62094370  1
  Fe  Fe37  1  0.00010653  0.24880423  0.74610806  1
  Fe  Fe38  1  0.25211812  0.49786787  0.00046897  1
  Fe  Fe39  1  0.75191396  0.50078863  -0.00001030  1
  Fe  Fe40  1  0.86887111  0.12886678  0.86948838  1
  Fe  Fe41  1  0.37967212  0.12928604  0.87376532  1
  Fe  Fe42  1  0.87309087  0.37203074  0.12696685  1
  Fe  Fe43  1  0.12107706  0.87720676  0.37629893  1
  Fe  Fe44  1  0.87980763  0.87381084  0.37607936  1
  Fe  Fe45  1  0.25176854  0.25046111  -0.00196640  1
  Fe  Fe46  1  0.50052084  0.00275515  0.00118087  1
  Fe  Fe47  1  0.62317495  0.87288990  0.87718794  1
  Fe  Fe48  1  0.74922191  0.00209694  -0.00230928  1
  Fe  Fe49  1  0.87464815  0.37550719  0.62375644  1
  Fe  Fe50  1  0.62691366  0.87296554  0.62303156  1
  Fe  Fe51  1  0.37808076  0.87361254  0.87510682  1
  Fe  Fe52  1  0.37604682  0.12468752  0.37406458  1
  Fe  Fe53  1  0.62262362  0.37823473  0.87780948  1
  Fe  Fe54  1  0.50043990  0.24844361  0.49926001  1
  Fe  Fe55  1  0.24718065  0.24762340  0.25184905  1
  Fe  Fe56  1  0.49648372  0.49856222  0.24820353  1
  Fe  Fe57  1  -0.00283530  0.00928149  0.50334275  1
  Fe  Fe58  1  0.87481927  0.62558690  0.62520496  1
  Fe  Fe59  1  0.62181142  0.38121312  0.37818366  1
  Fe  Fe60  1  0.49663337  0.50182902  0.74484331  1
  Fe  Fe61  1  0.25220127  -0.00070836  0.75135218  1
  Fe  Fe62  1  0.75080263  0.74436098  0.49572550  1
  Fe  Fe63  1  0.24782692  0.75114717  0.49694306  1
  Fe  Fe64  1  0.88149401  0.36875752  0.37355523  1
  Fe  Fe65  1  0.50308775  0.74549205  0.74808712  1
  Fe  Fe66  1  0.86608533  0.12758648  0.13076764  1
  Fe  Fe67  1  0.87449479  0.87279990  0.62591739  1
  Fe  Fe68  1  0.87787892  0.62497233  0.87405932  1
  Fe  Fe69  1  0.87676110  0.87337996  0.87437774  1
  Fe  Fe70  1  0.87491843  0.37309618  0.87554595  1
  Fe  Fe71  1  0.75274591  0.00036676  0.49774653  1
  Fe  Fe72  1  0.37616134  0.37229719  0.37465989  1
  Fe  Fe73  1  0.62685017  0.12740271  0.87246768  1
  Fe  Fe74  1  0.37491090  0.63021177  0.36910626  1
  Fe  Fe75  1  0.74877043  0.50015531  0.75086026  1
  Fe  Fe76  1  0.62437036  0.38236304  0.61752709  1
  Fe  Fe77  1  0.00265370  0.50101867  0.74950955  1
  Fe  Fe78  1  -0.00160834  0.24645930  0.00287385  1
  Fe  Fe79  1  0.00320916  0.74939921  -0.00129512  1
  Fe  Fe80  1  0.50333752  0.25356710  0.74729369  1
  Fe  Fe81  1  0.37285326  0.62209984  0.87283031  1
  Fe  Fe82  1  0.50007508  0.00047932  0.50169155  1
  Fe  Fe83  1  0.74899618  0.74621535  -0.00065255  1
  Fe  Fe84  1  0.62723780  0.12390715  0.37074399  1
  Fe  Fe85  1  0.37526496  0.87170061  0.62380438  1
  Fe  Fe86  1  0.25062588  0.00083093  0.50023612  1
  Fe  Fe87  1  0.12373409  0.37565904  0.87564062  1
  Fe  Fe88  1  0.37594196  0.12677384  0.12753728  1
  Fe  Fe89  1  0.49536903  0.49986844  0.00513672  1
  Co  Co90  1  0.37303355  0.87599026  0.12207694  1
  Co  Co91  1  0.12979702  0.12293173  0.12298382  1
  Co  Co92  1  0.24784274  0.75623845  0.25063322  1
  Co  Co93  1  0.62951769  0.61994623  0.62015770  1
  Co  Co94  1  0.12610400  0.61972227  0.87645201  1
  Co  Co95  1  0.12197471  0.88030813  0.87742154  1
  Co  Co96  1  0.75048346  -0.00756533  0.25335929  1
  Co  Co97  1  0.37786370  0.87331680  0.37933063  1
  Co  Co98  1  0.74530317  0.25872296  0.74832476  1
  Co  Co99  1  0.25097647  0.49499365  0.74819641  1
  Co  Co100  1  0.74756501  -0.00616327  0.75261186  1
  Co  Co101  1  0.00326462  0.74905633  0.75143660  1
  Co  Co102  1  0.48994956  0.50592693  0.50136788  1
  Co  Co103  1  0.13013912  0.12627148  0.62652332  1
  Co  Co104  1  0.62211955  0.62123189  0.87743380  1
  Co  Co105  1  0.00235167  0.75510616  0.24576092  1
  Co  Co106  1  0.50455406  0.25200849  0.24841312  1
  Co  Co107  1  0.62889425  0.12090004  0.13051882  1
  Co  Co108  1  0.12417762  0.12494484  0.37755605  1
  Co  Co109  1  0.37572318  0.37169847  0.62189322  1
  Co  Co110  1  0.37123463  0.37153075  0.12821370  1
  Co  Co111  1  0.00426814  0.24526207  0.24553084  1
  Co  Co112  1  0.62123516  0.62173750  0.37293579  1
  Co  Co113  1  0.00159315  0.49642594  0.24868545  1
  Co  Co114  1  0.50012335  0.75355070  0.24664870  1
  Co  Co115  1  0.37086961  0.62560871  0.12921741  1
  Co  Co116  1  0.25207135  0.24930523  0.49814720  1
  Co  Co117  1  0.74344237  0.25614422  0.25312071  1
  Co  Co118  1  0.74569415  0.25058568  0.00110835  1
  Co  Co119  1  0.62844667  0.38185324  0.12575826  1
  Co  Co120  1  0.75791617  0.50228972  0.49239493  1
  Co  Co121  1  0.88297843  0.62864027  0.37105587  1
  Co  Co122  1  0.00117862  0.74903047  0.50288370  1
  Co  Co123  1  0.36872867  0.63000686  0.62764257  1
  Co  Co124  1  0.86672517  0.12529866  0.63032283  1
  Co  Co125  1  0.37954341  0.37536968  0.87530160  1
  Co  Co126  1  0.87279467  0.12818734  0.36963029  1
  Co  Co127  1  -0.00358889  0.24194902  0.50484766  1
