# generated using pymatgen
data_Fe45Co19
_symmetry_space_group_name_H-M   'P 1'
_cell_length_a   11.41531853
_cell_length_b   11.41470573
_cell_length_c   11.41527545
_cell_angle_alpha   90.01459471
_cell_angle_beta   90.00190744
_cell_angle_gamma   90.00556941
_symmetry_Int_Tables_number   1
_chemical_formula_structural   Fe45Co19
_chemical_formula_sum   'Fe90 Co38'
_cell_volume   1487.43889362
_cell_formula_units_Z   2
loop_
 _symmetry_equiv_pos_site_id
 _symmetry_equiv_pos_as_xyz
  1  'x, y, z'
loop_
 _atom_site_type_symbol
 _atom_site_label
 _atom_site_symmetry_multiplicity
 _atom_site_fract_x
 _atom_site_fract_y
 _atom_site_fract_z
 _atom_site_occupancy
  Fe  Fe0  1  0.49846018  0.25180415  0.49900921  1
  Fe  Fe1  1  0.12696793  0.37432729  0.62312874  1
  Fe  Fe2  1  0.87663608  0.62554042  0.37330040  1
  Fe  Fe3  1  0.74993674  0.00019416  0.24987435  1
  Fe  Fe4  1  0.62356786  0.87660464  0.87605788  1
  Fe  Fe5  1  0.12716965  0.87616252  0.37510298  1
  Fe  Fe6  1  0.62687697  0.37693361  0.87393715  1
  Fe  Fe7  1  0.49864148  0.74852646  -0.00228557  1
  Fe  Fe8  1  0.62415273  0.12714153  0.12360479  1
  Fe  Fe9  1  0.12594141  0.62490174  0.62344941  1
  Fe  Fe10  1  0.75070855  0.25003398  0.25270842  1
  Fe  Fe11  1  0.75101718  0.50001336  0.50065482  1
  Fe  Fe12  1  0.75025413  0.00079356  -0.00008483  1
  Fe  Fe13  1  -0.00126566  0.25076402  0.75254591  1
  Fe  Fe14  1  0.75317078  0.75190003  0.49909338  1
  Fe  Fe15  1  0.25130596  0.00082557  0.24494022  1
  Fe  Fe16  1  -0.00301833  0.25312664  -0.00371321  1
  Fe  Fe17  1  0.25190036  0.00310800  0.00215711  1
  Fe  Fe18  1  0.62750068  0.12442740  0.37862936  1
  Fe  Fe19  1  0.00006822  0.00029637  0.00031327  1
  Fe  Fe20  1  0.00390875  0.74725856  0.24767429  1
  Fe  Fe21  1  0.49946163  0.49693341  0.00198280  1
  Fe  Fe22  1  0.75044865  0.75035353  0.25023401  1
  Fe  Fe23  1  0.37308846  0.12528541  0.37566122  1
  Fe  Fe24  1  0.12545832  0.87607864  0.87460125  1
  Fe  Fe25  1  0.87509847  0.87574254  0.87336767  1
  Fe  Fe26  1  0.25215609  0.74968644  -0.00175321  1
  Fe  Fe27  1  0.00161706  0.24866947  0.49780256  1
  Fe  Fe28  1  0.62489357  0.62456197  0.37613641  1
  Fe  Fe29  1  0.62465008  0.37690837  0.37554839  1
  Fe  Fe30  1  0.00231371  0.49882716  0.75139326  1
  Fe  Fe31  1  0.49924302  0.00014309  0.50093861  1
  Fe  Fe32  1  -0.00091374  0.75231707  0.49956520  1
  Fe  Fe33  1  -0.00179976  -0.00319312  0.50249423  1
  Fe  Fe34  1  0.50066567  0.24945181  0.25279899  1
  Fe  Fe35  1  0.87481402  0.12396024  0.62360157  1
  Fe  Fe36  1  0.37139149  0.62367975  0.12800275  1
  Fe  Fe37  1  0.75139632  0.25170807  -0.00141926  1
  Fe  Fe38  1  0.62726468  0.37551150  0.62407564  1
  Fe  Fe39  1  0.24998944  0.49631363  -0.00066092  1
  Fe  Fe40  1  0.62577310  0.61982524  0.87574649  1
  Fe  Fe41  1  0.12347015  0.12512014  0.87522404  1
  Fe  Fe42  1  0.37716331  0.87231637  0.62553268  1
  Fe  Fe43  1  0.25009781  0.00285714  0.74869014  1
  Fe  Fe44  1  0.50023885  0.00063426  0.74875348  1
  Fe  Fe45  1  0.00225347  0.24753442  0.25354981  1
  Fe  Fe46  1  0.25221991  0.74849758  0.49801981  1
  Fe  Fe47  1  0.87529407  0.37540900  0.62512405  1
  Fe  Fe48  1  0.12466960  0.87396984  0.62793984  1
  Fe  Fe49  1  -0.00093126  0.74771492  0.00063751  1
  Fe  Fe50  1  0.87226801  0.61872435  0.87905931  1
  Fe  Fe51  1  0.75202610  0.24898949  0.75092477  1
  Fe  Fe52  1  0.00375554  0.50369000  0.24591278  1
  Fe  Fe53  1  0.49783952  0.00036377  0.24872823  1
  Fe  Fe54  1  0.87698571  0.37704354  0.37326133  1
  Fe  Fe55  1  0.24997222  0.00424094  0.50528931  1
  Fe  Fe56  1  0.24660675  0.25178019  0.25490417  1
  Fe  Fe57  1  0.12519343  0.62155425  0.87770531  1
  Fe  Fe58  1  0.00099450  0.50152428  0.49997647  1
  Fe  Fe59  1  0.00006213  0.74805756  0.75246284  1
  Fe  Fe60  1  0.62586606  0.62718988  0.12437388  1
  Fe  Fe61  1  0.37715864  0.62500405  0.62797399  1
  Fe  Fe62  1  0.25185154  0.25082114  -0.00038791  1
  Fe  Fe63  1  0.87333682  0.12252874  0.37777420  1
  Fe  Fe64  1  0.37160051  0.37520715  0.62481339  1
  Fe  Fe65  1  0.62300827  0.86989024  0.62321914  1
  Fe  Fe66  1  0.37624165  0.37404057  0.12903583  1
  Fe  Fe67  1  0.24924760  0.24865755  0.74931364  1
  Fe  Fe68  1  0.74947683  0.00137772  0.74956801  1
  Fe  Fe69  1  0.62618643  0.12628199  0.62294710  1
  Fe  Fe70  1  0.62413619  0.37249084  0.12702315  1
  Fe  Fe71  1  0.37087145  0.61960121  0.37073812  1
  Fe  Fe72  1  0.87483933  0.62530839  0.62549044  1
  Fe  Fe73  1  0.50064874  0.25225613  0.75059883  1
  Fe  Fe74  1  0.49902705  0.50095693  0.50096270  1
  Fe  Fe75  1  0.87566821  0.12741714  0.12387948  1
  Fe  Fe76  1  0.37646704  0.62002412  0.87188998  1
  Fe  Fe77  1  0.12232659  0.37311282  0.12336151  1
  Fe  Fe78  1  0.74806230  0.74668790  0.75174515  1
  Fe  Fe79  1  0.87373554  0.87231084  0.12506777  1
  Fe  Fe80  1  0.37804943  0.12767335  0.87526825  1
  Fe  Fe81  1  0.49526987  0.75129368  0.25247748  1
  Fe  Fe82  1  0.49803522  0.00316795  0.00238318  1
  Fe  Fe83  1  0.62387925  0.87478271  0.37614203  1
  Fe  Fe84  1  0.00035523  0.00105484  0.24779936  1
  Fe  Fe85  1  0.25013363  0.74851368  0.75170530  1
  Fe  Fe86  1  0.37567027  0.87624356  0.87463106  1
  Fe  Fe87  1  0.12744099  0.87311337  0.12291428  1
  Fe  Fe88  1  0.62283878  0.87319793  0.12415658  1
  Fe  Fe89  1  0.75019669  0.49990799  0.24765284  1
  Co  Co90  1  0.12617993  0.11963949  0.37590553  1
  Co  Co91  1  0.25121289  0.50034387  0.50070380  1
  Co  Co92  1  0.74872817  0.50176691  0.74490118  1
  Co  Co93  1  0.50307526  0.50064744  0.24802417  1
  Co  Co94  1  0.37798632  0.12811359  0.62543820  1
  Co  Co95  1  0.50175500  0.49806958  0.74698975  1
  Co  Co96  1  0.24894978  0.24912393  0.49733591  1
  Co  Co97  1  0.24350860  0.49478854  0.24958472  1
  Co  Co98  1  0.00043805  0.49842235  0.00204682  1
  Co  Co99  1  0.74878497  0.49522769  0.00670979  1
  Co  Co100  1  0.00067165  0.00043877  0.74991301  1
  Co  Co101  1  0.12242548  0.37867243  0.37919788  1
  Co  Co102  1  0.37588347  0.13096632  0.12641380  1
  Co  Co103  1  0.87590399  0.12371472  0.87556863  1
  Co  Co104  1  0.12122993  0.12711922  0.62612705  1
  Co  Co105  1  0.75155696  0.25301929  0.49876723  1
  Co  Co106  1  0.24719585  0.50107418  0.74925541  1
  Co  Co107  1  0.37130223  0.88035933  0.37679957  1
  Co  Co108  1  0.62312837  0.12634230  0.87537717  1
  Co  Co109  1  0.12636661  0.62523823  0.37640299  1
  Co  Co110  1  0.13084009  0.62545451  0.12204456  1
  Co  Co111  1  0.12375843  0.12832694  0.12323827  1
  Co  Co112  1  0.25027761  0.75264749  0.25130771  1
  Co  Co113  1  0.87460545  0.87296017  0.63084619  1
  Co  Co114  1  0.87212178  0.62589166  0.12298859  1
  Co  Co115  1  0.87699894  0.87432418  0.37029106  1
  Co  Co116  1  0.50028012  0.25351133  -0.00135857  1
  Co  Co117  1  0.75126882  -0.00504524  0.50114873  1
  Co  Co118  1  0.37629217  0.37766421  0.37344137  1
  Co  Co119  1  0.12646388  0.37449305  0.87437739  1
  Co  Co120  1  0.62302333  0.62896769  0.62192559  1
  Co  Co121  1  0.37588458  0.87229289  0.12277708  1
  Co  Co122  1  0.37460916  0.37607560  0.87190154  1
  Co  Co123  1  0.49476531  0.74779900  0.49391544  1
  Co  Co124  1  0.50142422  0.74906550  0.75423312  1
  Co  Co125  1  0.87166780  0.38042294  0.87340766  1
  Co  Co126  1  0.74909334  0.75124650  -0.00290970  1
  Co  Co127  1  0.87762352  0.37322877  0.12853100  1
