# generated using pymatgen
data_Fe45Co19
_symmetry_space_group_name_H-M   'P 1'
_cell_length_a   11.41422242
_cell_length_b   11.41581608
_cell_length_c   11.41631649
_cell_angle_alpha   89.99739700
_cell_angle_beta   89.99750216
_cell_angle_gamma   89.99738005
_symmetry_Int_Tables_number   1
_chemical_formula_structural   Fe45Co19
_chemical_formula_sum   'Fe90 Co38'
_cell_volume   1487.57644493
_cell_formula_units_Z   2
loop_
 _symmetry_equiv_pos_site_id
 _symmetry_equiv_pos_as_xyz
  1  'x, y, z'
loop_
 _atom_site_type_symbol
 _atom_site_label
 _atom_site_symmetry_multiplicity
 _atom_site_fract_x
 _atom_site_fract_y
 _atom_site_fract_z
 _atom_site_occupancy
  Fe  Fe0  1  0.12583182  0.62340422  0.37601485  1
  Fe  Fe1  1  0.37342472  0.87606069  0.12409532  1
  Fe  Fe2  1  0.50519927  0.50098896  0.75176985  1
  Fe  Fe3  1  -0.00206299  0.50101818  0.25138517  1
  Fe  Fe4  1  -0.00510132  0.49824401  0.75168538  1
  Fe  Fe5  1  0.25076342  0.00007266  0.49814624  1
  Fe  Fe6  1  0.62384424  0.12595838  0.37350136  1
  Fe  Fe7  1  0.74969681  0.25498483  0.74795257  1
  Fe  Fe8  1  0.12209296  0.87582549  0.37704221  1
  Fe  Fe9  1  0.87228159  0.12410491  0.62393313  1
  Fe  Fe10  1  0.74675002  0.49860503  -0.00475352  1
  Fe  Fe11  1  0.00372055  0.25114536  0.00080083  1
  Fe  Fe12  1  0.37786960  0.62398282  0.62289995  1
  Fe  Fe13  1  0.49931765  0.00045729  -0.00127433  1
  Fe  Fe14  1  0.37834830  0.87245279  0.37786129  1
  Fe  Fe15  1  0.37937178  0.37046573  0.87636788  1
  Fe  Fe16  1  0.49973289  0.24746237  0.50395019  1
  Fe  Fe17  1  0.37062105  0.12248705  0.12353193  1
  Fe  Fe18  1  0.87447560  0.12516569  0.12455745  1
  Fe  Fe19  1  0.37716980  0.87603701  0.62380482  1
  Fe  Fe20  1  0.74795589  0.25144265  0.24691493  1
  Fe  Fe21  1  0.25097503  0.74905557  0.25216248  1
  Fe  Fe22  1  -0.00123337  0.50050030  0.49967907  1
  Fe  Fe23  1  0.74488579  0.25088194  0.00419241  1
  Fe  Fe24  1  0.12833909  0.12137494  0.12542404  1
  Fe  Fe25  1  0.50614863  0.50153429  0.49671529  1
  Fe  Fe26  1  0.12457679  0.62527191  0.87217274  1
  Fe  Fe27  1  0.25097471  0.75029263  -0.00212686  1
  Fe  Fe28  1  0.12581301  0.12572163  0.87445283  1
  Fe  Fe29  1  -0.00079450  0.00074523  0.25162159  1
  Fe  Fe30  1  0.75219825  -0.00117916  0.25457451  1
  Fe  Fe31  1  -0.00123288  0.25254667  0.74918538  1
  Fe  Fe32  1  0.50206241  0.74965801  0.00131105  1
  Fe  Fe33  1  0.75054414  0.75196638  0.25079592  1
  Fe  Fe34  1  0.86695563  0.62083696  0.62274067  1
  Fe  Fe35  1  0.25297324  -0.00175910  0.75232544  1
  Fe  Fe36  1  0.50775205  0.74916553  0.50215922  1
  Fe  Fe37  1  0.24897298  0.25150501  0.50020219  1
  Fe  Fe38  1  0.25154443  0.25150596  0.74852982  1
  Fe  Fe39  1  0.12808382  0.37957522  0.12490809  1
  Fe  Fe40  1  0.62368387  0.12904186  0.87510113  1
  Fe  Fe41  1  0.50287649  0.74958549  0.74622744  1
  Fe  Fe42  1  0.50109524  0.50263026  0.25360007  1
  Fe  Fe43  1  0.87187502  0.62366931  0.12353419  1
  Fe  Fe44  1  -0.00340535  0.00022142  0.74986028  1
  Fe  Fe45  1  0.12360292  0.87329863  0.87223748  1
  Fe  Fe46  1  0.37289225  0.62345523  0.12505400  1
  Fe  Fe47  1  -0.00117552  0.75036827  0.00061902  1
  Fe  Fe48  1  0.62458685  0.87369350  0.87380498  1
  Fe  Fe49  1  0.25222279  0.49991352  0.75160362  1
  Fe  Fe50  1  0.12631620  0.12276684  0.62505228  1
  Fe  Fe51  1  0.25082216  0.74929545  0.74690721  1
  Fe  Fe52  1  0.50043241  0.74777273  0.25030011  1
  Fe  Fe53  1  0.37396534  0.37737863  0.12416749  1
  Fe  Fe54  1  0.75156694  -0.00172683  -0.00383667  1
  Fe  Fe55  1  0.37444424  0.12657344  0.37527829  1
  Fe  Fe56  1  0.37568522  0.12897434  0.87731219  1
  Fe  Fe57  1  0.49740194  0.00075255  0.25128533  1
  Fe  Fe58  1  0.62698761  0.12197804  0.62485580  1
  Fe  Fe59  1  0.12830504  0.62264547  0.12446639  1
  Fe  Fe60  1  0.87433782  0.37396937  0.37607220  1
  Fe  Fe61  1  -0.00003441  0.75013085  0.50451684  1
  Fe  Fe62  1  0.24764183  0.25157003  0.25163428  1
  Fe  Fe63  1  0.37758443  0.37396150  0.37480937  1
  Fe  Fe64  1  0.25102469  0.49972353  0.49906404  1
  Fe  Fe65  1  0.24801616  0.74819898  0.50297930  1
  Fe  Fe66  1  0.87126523  0.62805061  0.87468902  1
  Fe  Fe67  1  0.87518923  0.87566741  0.12509804  1
  Fe  Fe68  1  0.74742103  0.75085168  0.74757105  1
  Fe  Fe69  1  0.62758755  0.62385297  0.12574730  1
  Fe  Fe70  1  0.37875593  0.37627094  0.62486597  1
  Fe  Fe71  1  0.12716007  0.87647766  0.12518245  1
  Fe  Fe72  1  0.50137670  0.50096817  -0.00221543  1
  Fe  Fe73  1  0.87397387  0.37616514  0.12349064  1
  Fe  Fe74  1  0.00262678  0.24912317  0.50027846  1
  Fe  Fe75  1  0.50176124  0.24860539  0.24390006  1
  Fe  Fe76  1  0.87019654  0.87940897  0.62387945  1
  Fe  Fe77  1  0.37731744  0.62790989  0.87404233  1
  Fe  Fe78  1  0.62540841  0.87789908  0.12660317  1
  Fe  Fe79  1  0.87397363  0.12953068  0.87595668  1
  Fe  Fe80  1  0.87625298  0.12619415  0.37612976  1
  Fe  Fe81  1  -0.00069796  0.74765152  0.24957286  1
  Fe  Fe82  1  -0.00154340  0.74979882  0.74483854  1
  Fe  Fe83  1  0.49854577  0.00278864  0.74952887  1
  Fe  Fe84  1  -0.00153257  -0.00116988  -0.00247719  1
  Fe  Fe85  1  0.00235153  0.25110894  0.24992878  1
  Fe  Fe86  1  0.12335827  0.37797207  0.62578075  1
  Fe  Fe87  1  0.00055810  0.49979973  -0.00305100  1
  Fe  Fe88  1  0.86922803  0.62629747  0.37853192  1
  Fe  Fe89  1  0.74802006  0.25237826  0.50105023  1
  Co  Co90  1  0.37827443  0.87184869  0.87347604  1
  Co  Co91  1  0.50086212  0.00261240  0.50033333  1
  Co  Co92  1  0.12465495  0.61994559  0.62631419  1
  Co  Co93  1  0.37591326  0.62705599  0.37874507  1
  Co  Co94  1  0.74593414  0.75598901  0.50094982  1
  Co  Co95  1  -0.00224388  0.00118473  0.50228117  1
  Co  Co96  1  0.50201124  0.24808513  0.00797584  1
  Co  Co97  1  0.25176960  -0.00261466  0.25455791  1
  Co  Co98  1  0.74901895  0.49440225  0.75325364  1
  Co  Co99  1  0.75050760  0.00219585  0.75477273  1
  Co  Co100  1  0.12625564  0.87875434  0.62571863  1
  Co  Co101  1  0.12458007  0.12301430  0.37523270  1
  Co  Co102  1  0.62733387  0.11781948  0.12621209  1
  Co  Co103  1  0.62139653  0.37494661  0.62630221  1
  Co  Co104  1  0.62261733  0.36988467  0.37286303  1
  Co  Co105  1  0.74449122  0.49414337  0.49851948  1
  Co  Co106  1  0.63053974  0.62711122  0.37401058  1
  Co  Co107  1  0.62028210  0.36891320  0.87456772  1
  Co  Co108  1  0.62586385  0.88173196  0.62751360  1
  Co  Co109  1  0.74913459  0.75274167  0.00220475  1
  Co  Co110  1  0.49854600  0.24598291  0.74451107  1
  Co  Co111  1  0.25225494  0.50045870  -0.00517652  1
  Co  Co112  1  0.74861250  -0.00110315  0.49456742  1
  Co  Co113  1  0.87890607  0.87282821  0.37691432  1
  Co  Co114  1  0.87494381  0.87117018  0.87241025  1
  Co  Co115  1  0.12536444  0.37531847  0.87269809  1
  Co  Co116  1  0.62719058  0.62857047  0.87413092  1
  Co  Co117  1  0.62977582  0.62157827  0.62516674  1
  Co  Co118  1  0.12394777  0.37767165  0.37592889  1
  Co  Co119  1  0.62396671  0.38059782  0.12612271  1
  Co  Co120  1  0.24859899  0.25153777  0.00065684  1
  Co  Co121  1  0.25258235  0.50091570  0.25422257  1
  Co  Co122  1  0.87367888  0.37102910  0.87876341  1
  Co  Co123  1  0.87629549  0.37609304  0.62174906  1
  Co  Co124  1  0.62117734  0.87563262  0.37242610  1
  Co  Co125  1  0.37153860  0.12300213  0.62394826  1
  Co  Co126  1  0.75076068  0.49791034  0.25317753  1
  Co  Co127  1  0.25051218  -0.00196993  -0.00466496  1
