# generated using pymatgen
data_Fe45Co19
_symmetry_space_group_name_H-M   'P 1'
_cell_length_a   11.41681731
_cell_length_b   11.41546665
_cell_length_c   11.41653304
_cell_angle_alpha   89.98920989
_cell_angle_beta   90.00002388
_cell_angle_gamma   90.00832086
_symmetry_Int_Tables_number   1
_chemical_formula_structural   Fe45Co19
_chemical_formula_sum   'Fe90 Co38'
_cell_volume   1487.89727013
_cell_formula_units_Z   2
loop_
 _symmetry_equiv_pos_site_id
 _symmetry_equiv_pos_as_xyz
  1  'x, y, z'
loop_
 _atom_site_type_symbol
 _atom_site_label
 _atom_site_symmetry_multiplicity
 _atom_site_fract_x
 _atom_site_fract_y
 _atom_site_fract_z
 _atom_site_occupancy
  Fe  Fe0  1  0.00111846  0.24940123  0.75032768  1
  Fe  Fe1  1  0.62320702  0.12366517  0.12307705  1
  Fe  Fe2  1  0.25151409  0.00219510  0.74952702  1
  Fe  Fe3  1  0.25222173  0.50019346  0.24927430  1
  Fe  Fe4  1  0.50187521  0.75103304  0.00266648  1
  Fe  Fe5  1  0.50003640  0.24606069  0.75316345  1
  Fe  Fe6  1  0.12754342  0.37774673  0.62435402  1
  Fe  Fe7  1  0.75257780  -0.00222310  0.74916542  1
  Fe  Fe8  1  0.49961981  0.75006222  0.50082790  1
  Fe  Fe9  1  0.12507232  0.37322055  0.12597255  1
  Fe  Fe10  1  0.12467601  0.62157213  0.37577309  1
  Fe  Fe11  1  0.87836775  0.62981634  0.87716135  1
  Fe  Fe12  1  0.50227523  0.25070467  0.25006920  1
  Fe  Fe13  1  0.87454048  0.12452801  0.62294466  1
  Fe  Fe14  1  0.50179746  0.24857577  0.49879810  1
  Fe  Fe15  1  0.74747338  0.25038050  -0.00192142  1
  Fe  Fe16  1  0.62491357  0.12360740  0.62435179  1
  Fe  Fe17  1  0.62333605  0.87801346  0.37413534  1
  Fe  Fe18  1  0.12578926  0.37391574  0.87485748  1
  Fe  Fe19  1  -0.00116193  0.50017384  0.00065664  1
  Fe  Fe20  1  0.62448460  0.62476618  0.87664587  1
  Fe  Fe21  1  0.75140188  -0.00119192  0.25001336  1
  Fe  Fe22  1  0.49963257  0.49885213  0.00420392  1
  Fe  Fe23  1  0.12157428  0.87307703  0.87460327  1
  Fe  Fe24  1  0.74796916  0.24909488  0.75135290  1
  Fe  Fe25  1  0.12239197  0.87501909  0.62551053  1
  Fe  Fe26  1  0.37496698  0.87450061  0.87406812  1
  Fe  Fe27  1  0.12550834  0.12433858  0.62403113  1
  Fe  Fe28  1  0.25134077  -0.00103525  0.00079155  1
  Fe  Fe29  1  0.75144918  0.50295149  0.75017660  1
  Fe  Fe30  1  0.75062729  0.75119968  0.75025028  1
  Fe  Fe31  1  0.49724916  0.50332736  0.50304501  1
  Fe  Fe32  1  0.37411688  0.62707118  0.37369943  1
  Fe  Fe33  1  0.87674000  0.62534925  0.37585761  1
  Fe  Fe34  1  0.87514254  0.12553528  0.12420916  1
  Fe  Fe35  1  -0.00262818  -0.00137210  0.74971771  1
  Fe  Fe36  1  0.74981552  0.75239071  0.25060658  1
  Fe  Fe37  1  0.74910840  0.49815635  0.25156907  1
  Fe  Fe38  1  0.25114830  0.24758449  0.24966292  1
  Fe  Fe39  1  0.50060868  0.74677703  0.74779379  1
  Fe  Fe40  1  0.62484373  0.62361037  0.37616000  1
  Fe  Fe41  1  0.12845047  0.62276615  0.62191937  1
  Fe  Fe42  1  0.87626398  0.62865734  0.62226552  1
  Fe  Fe43  1  0.37441016  0.62611721  0.87655530  1
  Fe  Fe44  1  0.12448085  0.37601778  0.37523237  1
  Fe  Fe45  1  0.24806283  0.74778299  0.75163877  1
  Fe  Fe46  1  0.37361003  0.87169780  0.12760352  1
  Fe  Fe47  1  -0.00166653  -0.00183908  0.00078935  1
  Fe  Fe48  1  0.49771151  0.00328480  0.75146489  1
  Fe  Fe49  1  0.37323180  0.37184173  0.87499258  1
  Fe  Fe50  1  0.50159109  0.74876826  0.24853939  1
  Fe  Fe51  1  0.12614799  0.12576887  0.87584162  1
  Fe  Fe52  1  0.62369938  0.87663325  0.87426796  1
  Fe  Fe53  1  0.87473052  0.12453910  0.87524799  1
  Fe  Fe54  1  0.25108118  0.49939584  0.00112330  1
  Fe  Fe55  1  0.49816257  0.50406284  0.74732360  1
  Fe  Fe56  1  0.75014398  -0.00345781  0.00043038  1
  Fe  Fe57  1  0.87314213  0.37356203  0.12477240  1
  Fe  Fe58  1  0.00033719  0.25048643  0.49918548  1
  Fe  Fe59  1  0.37480878  0.12134145  0.37879361  1
  Fe  Fe60  1  0.87624611  0.37438203  0.87428204  1
  Fe  Fe61  1  0.25046053  0.25013151  0.50041880  1
  Fe  Fe62  1  0.37337404  0.37366944  0.62710169  1
  Fe  Fe63  1  0.12357450  0.12475892  0.12457958  1
  Fe  Fe64  1  0.37496077  0.87514623  0.62483574  1
  Fe  Fe65  1  0.75133851  0.49815577  0.49929581  1
  Fe  Fe66  1  0.24929365  0.75341187  0.49613355  1
  Fe  Fe67  1  -0.00196269  0.49860117  0.25036609  1
  Fe  Fe68  1  0.74695998  0.25093794  0.25310901  1
  Fe  Fe69  1  0.12524772  0.87651886  0.12837066  1
  Fe  Fe70  1  0.37715930  0.12821131  0.11946409  1
  Fe  Fe71  1  0.74841364  0.75289459  0.00189201  1
  Fe  Fe72  1  0.62421177  0.37647164  0.62489294  1
  Fe  Fe73  1  0.87484301  0.12279989  0.37660117  1
  Fe  Fe74  1  0.12600474  0.62497335  0.12553167  1
  Fe  Fe75  1  0.87311568  0.62678471  0.12490567  1
  Fe  Fe76  1  0.00182625  0.50330316  0.74958720  1
  Fe  Fe77  1  0.50061751  0.50111268  0.24583652  1
  Fe  Fe78  1  0.12598904  0.12179887  0.37494148  1
  Fe  Fe79  1  0.49665499  -0.00046370  0.24896681  1
  Fe  Fe80  1  0.75010108  0.75357869  0.49841782  1
  Fe  Fe81  1  -0.00026934  0.75183877  0.25073466  1
  Fe  Fe82  1  0.62486634  0.87553143  0.62543507  1
  Fe  Fe83  1  0.87543284  0.37362294  0.62487297  1
  Fe  Fe84  1  0.74686888  0.25032187  0.49687148  1
  Fe  Fe85  1  -0.00099224  0.24899872  0.25056092  1
  Fe  Fe86  1  0.37674990  0.37527149  0.37318122  1
  Fe  Fe87  1  0.12561098  0.88088651  0.37109107  1
  Fe  Fe88  1  0.62564282  0.37786151  0.87445098  1
  Fe  Fe89  1  0.24815699  0.75027413  0.00088037  1
  Co  Co90  1  -0.00219321  0.49915591  0.50059131  1
  Co  Co91  1  0.49740477  -0.00301961  -0.00053291  1
  Co  Co92  1  0.50064971  -0.00184686  0.50107035  1
  Co  Co93  1  0.37515979  0.87569550  0.37339852  1
  Co  Co94  1  0.24753960  0.25016456  0.00146454  1
  Co  Co95  1  0.25456735  0.00364237  0.24697719  1
  Co  Co96  1  0.62786108  0.37534499  0.12468948  1
  Co  Co97  1  0.00386501  0.75133436  0.49641746  1
  Co  Co98  1  0.25417157  0.49846194  0.49713681  1
  Co  Co99  1  0.37286971  0.62790506  0.12507348  1
  Co  Co100  1  0.25070785  0.50157637  0.75299193  1
  Co  Co101  1  0.24941198  0.24739158  0.74888882  1
  Co  Co102  1  0.00043269  -0.00014455  0.50054952  1
  Co  Co103  1  0.87658173  0.87778918  0.37599034  1
  Co  Co104  1  -0.00235989  0.00130639  0.24880986  1
  Co  Co105  1  0.62351770  0.12064587  0.37326879  1
  Co  Co106  1  -0.00082487  0.25002085  -0.00043655  1
  Co  Co107  1  0.75220293  0.50066065  -0.00247290  1
  Co  Co108  1  0.37231520  0.12649193  0.87837932  1
  Co  Co109  1  0.37442064  0.37166047  0.12569958  1
  Co  Co110  1  0.87780133  0.87162541  0.87529881  1
  Co  Co111  1  0.62614828  0.12061125  0.87667775  1
  Co  Co112  1  0.50446442  0.25207327  -0.00300776  1
  Co  Co113  1  0.74858455  -0.00121138  0.50054056  1
  Co  Co114  1  0.24719237  0.74901398  0.25240934  1
  Co  Co115  1  0.24979613  -0.00225677  0.50207752  1
  Co  Co116  1  0.87618345  0.37352147  0.37507142  1
  Co  Co117  1  0.62861547  0.62512647  0.62378962  1
  Co  Co118  1  0.62371497  0.87705513  0.12718984  1
  Co  Co119  1  0.00216124  0.74725862  0.74733736  1
  Co  Co120  1  0.12447995  0.62620221  0.87790318  1
  Co  Co121  1  0.62816015  0.62400501  0.12427077  1
  Co  Co122  1  0.37518487  0.12497331  0.62285891  1
  Co  Co123  1  0.87734314  0.87315417  0.62326563  1
  Co  Co124  1  0.00207332  0.75142310  0.00503675  1
  Co  Co125  1  0.62176910  0.37884304  0.37613234  1
  Co  Co126  1  0.87610434  0.87449759  0.12581836  1
  Co  Co127  1  0.36873883  0.62798849  0.62462729  1
