# generated using pymatgen
data_Fe45Co19
_symmetry_space_group_name_H-M   'P 1'
_cell_length_a   11.41486008
_cell_length_b   11.41470950
_cell_length_c   11.41567212
_cell_angle_alpha   90.00413566
_cell_angle_beta   90.00626800
_cell_angle_gamma   90.01546263
_symmetry_Int_Tables_number   1
_chemical_formula_structural   Fe45Co19
_chemical_formula_sum   'Fe90 Co38'
_cell_volume   1487.43132283
_cell_formula_units_Z   2
loop_
 _symmetry_equiv_pos_site_id
 _symmetry_equiv_pos_as_xyz
  1  'x, y, z'
loop_
 _atom_site_type_symbol
 _atom_site_label
 _atom_site_symmetry_multiplicity
 _atom_site_fract_x
 _atom_site_fract_y
 _atom_site_fract_z
 _atom_site_occupancy
  Fe  Fe0  1  0.25069688  0.74965335  0.75043108  1
  Fe  Fe1  1  0.75079820  -0.00064967  0.75121823  1
  Fe  Fe2  1  0.25025419  0.50211833  -0.00154297  1
  Fe  Fe3  1  0.74956115  0.49724238  0.24917094  1
  Fe  Fe4  1  0.50166347  0.25005366  0.49808005  1
  Fe  Fe5  1  0.87558453  0.87812021  0.37455966  1
  Fe  Fe6  1  0.49879060  0.74944462  0.50252809  1
  Fe  Fe7  1  0.50005163  0.74715439  0.00009287  1
  Fe  Fe8  1  0.24990630  0.49811988  0.24869528  1
  Fe  Fe9  1  0.12477313  0.62549177  0.37383230  1
  Fe  Fe10  1  0.37518788  0.37355617  0.62274018  1
  Fe  Fe11  1  0.00020852  0.49867262  0.25103009  1
  Fe  Fe12  1  0.25084766  0.74845431  0.50061007  1
  Fe  Fe13  1  0.87336421  0.12546484  0.37126901  1
  Fe  Fe14  1  0.87493866  0.62245010  0.37509208  1
  Fe  Fe15  1  0.12441624  0.62443987  0.12603726  1
  Fe  Fe16  1  0.12311559  0.62128077  0.62620977  1
  Fe  Fe17  1  0.37541054  0.87400335  0.87716332  1
  Fe  Fe18  1  0.25436747  0.25351195  0.24523126  1
  Fe  Fe19  1  0.25381874  0.75125381  0.25070127  1
  Fe  Fe20  1  0.50006411  0.49882212  0.24945504  1
  Fe  Fe21  1  0.62590275  0.87530278  0.62530097  1
  Fe  Fe22  1  0.62545060  0.87141003  0.12642368  1
  Fe  Fe23  1  0.00115236  0.49858252  0.75403649  1
  Fe  Fe24  1  0.87466514  0.12498319  0.62689900  1
  Fe  Fe25  1  0.49855932  -0.00032356  0.74949369  1
  Fe  Fe26  1  0.75075127  0.74747405  0.50119163  1
  Fe  Fe27  1  0.62395615  0.12740824  0.12786820  1
  Fe  Fe28  1  0.24869590  0.24827055  0.50180261  1
  Fe  Fe29  1  0.00376142  0.00422650  0.49857776  1
  Fe  Fe30  1  0.37508135  0.37697269  0.37562787  1
  Fe  Fe31  1  0.87332903  0.37379199  0.37720068  1
  Fe  Fe32  1  0.62389735  0.87203800  0.37353257  1
  Fe  Fe33  1  0.00117091  -0.00097976  0.75267272  1
  Fe  Fe34  1  0.00176064  0.24862491  0.50050146  1
  Fe  Fe35  1  0.75073449  0.74877852  0.74827467  1
  Fe  Fe36  1  0.87602443  0.37791692  0.11996355  1
  Fe  Fe37  1  0.00206545  0.25399916  0.75165592  1
  Fe  Fe38  1  0.74827654  0.49860033  0.75050978  1
  Fe  Fe39  1  0.12636704  0.87733908  0.62516214  1
  Fe  Fe40  1  0.37467785  0.62457160  0.12577118  1
  Fe  Fe41  1  0.12985140  0.12513491  0.62998086  1
  Fe  Fe42  1  0.62712384  0.62792419  0.12903871  1
  Fe  Fe43  1  0.74851530  -0.00027887  -0.00037218  1
  Fe  Fe44  1  0.12440642  0.87407736  0.37526084  1
  Fe  Fe45  1  0.87555798  0.87683939  0.62442472  1
  Fe  Fe46  1  0.62803483  0.12982952  0.37062792  1
  Fe  Fe47  1  -0.00071587  0.50484085  -0.00374155  1
  Fe  Fe48  1  0.25147137  -0.00306244  0.25190664  1
  Fe  Fe49  1  0.62438564  0.87447569  0.87425714  1
  Fe  Fe50  1  0.62030548  0.37239478  0.12267912  1
  Fe  Fe51  1  0.12626745  0.12559367  0.12555373  1
  Fe  Fe52  1  0.74664418  0.49986853  0.50264266  1
  Fe  Fe53  1  0.87357692  0.12248622  0.12669457  1
  Fe  Fe54  1  -0.00001146  0.00004716  0.00004740  1
  Fe  Fe55  1  0.62575265  0.12613110  0.87393652  1
  Fe  Fe56  1  -0.00313209  0.74934225  0.24745755  1
  Fe  Fe57  1  0.25040314  0.00156443  -0.00120303  1
  Fe  Fe58  1  0.75030075  0.25010431  0.00042960  1
  Fe  Fe59  1  0.37360729  0.12433893  0.37478116  1
  Fe  Fe60  1  0.87619548  0.86996314  0.87670115  1
  Fe  Fe61  1  0.12614010  0.37346726  0.37590107  1
  Fe  Fe62  1  0.37936065  0.37740907  0.88190713  1
  Fe  Fe63  1  0.87135304  0.87305854  0.12353112  1
  Fe  Fe64  1  0.25065198  0.74664233  -0.00106703  1
  Fe  Fe65  1  0.74930128  0.25306326  0.75095699  1
  Fe  Fe66  1  0.12622620  0.87464812  0.12421774  1
  Fe  Fe67  1  0.62385498  0.62581674  0.37415499  1
  Fe  Fe68  1  0.87598345  0.37661314  0.62392649  1
  Fe  Fe69  1  0.12704430  0.12986482  0.87568671  1
  Fe  Fe70  1  0.50069770  0.00253425  0.50029209  1
  Fe  Fe71  1  0.49894712  -0.00221837  0.25012765  1
  Fe  Fe72  1  0.37590174  0.62404800  0.37464821  1
  Fe  Fe73  1  0.37734664  0.62306806  0.62928457  1
  Fe  Fe74  1  0.37313909  0.12627931  0.87274693  1
  Fe  Fe75  1  0.24973175  0.49591827  0.75323013  1
  Fe  Fe76  1  -0.00116552  0.25120646  0.24743893  1
  Fe  Fe77  1  0.24865474  0.50082541  0.50031891  1
  Fe  Fe78  1  0.74879434  0.00257453  0.49907928  1
  Fe  Fe79  1  0.74763283  0.50322870  -0.00344328  1
  Fe  Fe80  1  0.12307726  0.87090162  0.87579513  1
  Fe  Fe81  1  0.50310722  0.49918212  0.50209394  1
  Fe  Fe82  1  0.61930331  0.62464414  0.86798945  1
  Fe  Fe83  1  -0.00095429  0.74771787  0.50255968  1
  Fe  Fe84  1  0.37208638  0.87964798  0.62285631  1
  Fe  Fe85  1  0.87475003  0.12635575  0.87475693  1
  Fe  Fe86  1  0.49953985  0.25294662  0.75122406  1
  Fe  Fe87  1  0.12396247  0.37449559  0.11987954  1
  Fe  Fe88  1  0.62511044  0.12704599  0.62673803  1
  Fe  Fe89  1  0.50023318  0.00179610  0.00043530  1
  Co  Co90  1  0.12406604  0.37741729  0.62343952  1
  Co  Co91  1  0.62618819  0.37216528  0.62391543  1
  Co  Co92  1  0.00190893  0.49932405  0.49654597  1
  Co  Co93  1  0.62609614  0.37413714  0.37418701  1
  Co  Co94  1  0.87440211  0.37486264  0.87675409  1
  Co  Co95  1  0.37533956  0.87548723  0.12161020  1
  Co  Co96  1  0.75077532  0.24867700  0.50106273  1
  Co  Co97  1  0.49585298  0.74956244  0.24928623  1
  Co  Co98  1  0.25011141  -0.00171770  0.75361205  1
  Co  Co99  1  0.00067491  -0.00083910  0.24844234  1
  Co  Co100  1  0.37487833  0.12104106  0.12757030  1
  Co  Co101  1  0.25486040  0.24964663  0.00288891  1
  Co  Co102  1  0.75254985  0.25463946  0.24594530  1
  Co  Co103  1  0.37416079  0.12582801  0.62632306  1
  Co  Co104  1  0.74724459  -0.00225052  0.24967692  1
  Co  Co105  1  0.49783915  0.24463693  0.00046781  1
  Co  Co106  1  0.12473690  0.37233783  0.88184339  1
  Co  Co107  1  0.74602504  0.74628443  -0.00336965  1
  Co  Co108  1  0.12412487  0.62713345  0.87354873  1
  Co  Co109  1  0.49695798  0.75536456  0.74833760  1
  Co  Co110  1  0.49995325  0.49275944  0.74708982  1
  Co  Co111  1  0.37837022  0.62319784  0.87169412  1
  Co  Co112  1  0.87620682  0.62063896  0.62557401  1
  Co  Co113  1  0.87296162  0.62366241  0.12421151  1
  Co  Co114  1  0.75332502  0.74970224  0.25317543  1
  Co  Co115  1  0.00025358  0.74752360  0.00412282  1
  Co  Co116  1  0.50370660  0.50694251  0.00273201  1
  Co  Co117  1  0.25132927  0.25762667  0.75174413  1
  Co  Co118  1  0.37905695  0.37868284  0.12065693  1
  Co  Co119  1  0.24722485  0.00263112  0.49746099  1
  Co  Co120  1  0.49538827  0.25263373  0.25085949  1
  Co  Co121  1  0.37592870  0.87524828  0.37833190  1
  Co  Co122  1  0.00054863  0.74959823  0.74547539  1
  Co  Co123  1  0.62226333  0.37439290  0.87942473  1
  Co  Co124  1  0.62204001  0.62604528  0.62828377  1
  Co  Co125  1  0.87607798  0.62811707  0.87366205  1
  Co  Co126  1  -0.00266906  0.24691561  0.00080817  1
  Co  Co127  1  0.12678782  0.12789979  0.36916293  1
