# generated using pymatgen
data_Fe45Co19
_symmetry_space_group_name_H-M   'P 1'
_cell_length_a   11.41417537
_cell_length_b   11.41512281
_cell_length_c   11.41571566
_cell_angle_alpha   89.99094780
_cell_angle_beta   89.99337173
_cell_angle_gamma   89.98609622
_symmetry_Int_Tables_number   1
_chemical_formula_structural   Fe45Co19
_chemical_formula_sum   'Fe90 Co38'
_cell_volume   1487.40162168
_cell_formula_units_Z   2
loop_
 _symmetry_equiv_pos_site_id
 _symmetry_equiv_pos_as_xyz
  1  'x, y, z'
loop_
 _atom_site_type_symbol
 _atom_site_label
 _atom_site_symmetry_multiplicity
 _atom_site_fract_x
 _atom_site_fract_y
 _atom_site_fract_z
 _atom_site_occupancy
  Fe  Fe0  1  0.37359683  0.62450045  0.37539600  1
  Fe  Fe1  1  0.87799809  0.37709025  0.12860665  1
  Fe  Fe2  1  0.37189438  0.37704801  0.37481909  1
  Fe  Fe3  1  0.74858589  0.50306540  0.25127888  1
  Fe  Fe4  1  0.00355180  0.50353832  0.00194561  1
  Fe  Fe5  1  0.00008304  -0.00189796  0.50039082  1
  Fe  Fe6  1  0.37645194  0.12407257  0.12676959  1
  Fe  Fe7  1  0.62510910  0.62251542  0.62360350  1
  Fe  Fe8  1  0.00021688  0.74768814  0.24965024  1
  Fe  Fe9  1  0.24776359  0.74762541  0.75108480  1
  Fe  Fe10  1  0.50008226  0.49873983  0.74989204  1
  Fe  Fe11  1  0.12619842  0.37699110  0.87528459  1
  Fe  Fe12  1  0.87393448  0.37551931  0.62310160  1
  Fe  Fe13  1  0.87639279  0.62552640  0.62459058  1
  Fe  Fe14  1  0.12475580  0.12552078  0.12413448  1
  Fe  Fe15  1  0.12376019  0.87361793  0.62816329  1
  Fe  Fe16  1  0.37599112  0.87393562  0.12420529  1
  Fe  Fe17  1  0.62461185  0.37575777  0.12485608  1
  Fe  Fe18  1  -0.00090162  0.75107281  0.50248414  1
  Fe  Fe19  1  0.25079544  -0.00072119  0.50101065  1
  Fe  Fe20  1  0.49894770  0.25083382  0.25224015  1
  Fe  Fe21  1  0.24848530  0.24913611  0.74974514  1
  Fe  Fe22  1  0.25106146  0.74751786  0.50262641  1
  Fe  Fe23  1  0.62457120  0.37700988  0.87504577  1
  Fe  Fe24  1  0.12663693  0.87137271  0.37434066  1
  Fe  Fe25  1  0.25026786  -0.00206152  -0.00168902  1
  Fe  Fe26  1  0.62053775  0.12448279  0.37856140  1
  Fe  Fe27  1  0.12441573  0.87132108  0.12495112  1
  Fe  Fe28  1  0.24824450  0.25013661  0.25016908  1
  Fe  Fe29  1  0.24812014  0.75034970  -0.00333032  1
  Fe  Fe30  1  0.12574696  0.12576909  0.37591543  1
  Fe  Fe31  1  0.50265460  0.75119486  0.75129557  1
  Fe  Fe32  1  0.87270933  0.62710193  0.37555110  1
  Fe  Fe33  1  0.37596084  0.12465509  0.87441823  1
  Fe  Fe34  1  0.24917759  0.50301429  0.74798867  1
  Fe  Fe35  1  0.87745661  0.37509268  0.37270634  1
  Fe  Fe36  1  0.87568452  0.37676884  0.87563019  1
  Fe  Fe37  1  -0.00155954  -0.00011610  0.74955649  1
  Fe  Fe38  1  0.37427178  0.37489237  0.62628665  1
  Fe  Fe39  1  0.37431504  0.37788270  0.12484145  1
  Fe  Fe40  1  0.62611914  0.87333329  0.12460870  1
  Fe  Fe41  1  0.37436634  0.87361089  0.62752512  1
  Fe  Fe42  1  0.50014060  -0.00238538  -0.00129515  1
  Fe  Fe43  1  0.37334908  0.62369371  0.12422179  1
  Fe  Fe44  1  0.87216050  0.87335540  0.37511073  1
  Fe  Fe45  1  0.50027672  0.74992043  0.50113903  1
  Fe  Fe46  1  0.50236740  0.50191485  0.24949414  1
  Fe  Fe47  1  0.49818124  0.49937735  0.50144679  1
  Fe  Fe48  1  0.25081631  -0.00159278  0.24942182  1
  Fe  Fe49  1  0.87469366  0.12504038  0.12611853  1
  Fe  Fe50  1  0.75082365  0.49973357  0.74890723  1
  Fe  Fe51  1  0.74789092  -0.00034835  0.25033773  1
  Fe  Fe52  1  0.62414774  0.12485317  0.12413648  1
  Fe  Fe53  1  0.50222674  0.74775761  -0.00273463  1
  Fe  Fe54  1  0.50213303  0.25092502  0.74954081  1
  Fe  Fe55  1  0.00135521  -0.00085220  0.25045791  1
  Fe  Fe56  1  0.75021436  0.25014303  0.74935444  1
  Fe  Fe57  1  0.87367366  0.87569985  0.87324382  1
  Fe  Fe58  1  -0.00083806  0.25012767  -0.00011750  1
  Fe  Fe59  1  0.75150799  0.74865876  0.74925574  1
  Fe  Fe60  1  0.50132368  -0.00197230  0.75042666  1
  Fe  Fe61  1  0.37687558  0.12451315  0.62331306  1
  Fe  Fe62  1  0.87449531  0.62563436  0.12500414  1
  Fe  Fe63  1  0.87396327  0.12377330  0.62440531  1
  Fe  Fe64  1  0.00078191  0.50213685  0.75057460  1
  Fe  Fe65  1  0.74785820  0.50136953  0.00007054  1
  Fe  Fe66  1  0.25101860  0.25285158  -0.00067581  1
  Fe  Fe67  1  0.74976075  0.74839735  -0.00206201  1
  Fe  Fe68  1  0.37539229  0.87569347  0.37463361  1
  Fe  Fe69  1  0.12350792  0.12404172  0.87482338  1
  Fe  Fe70  1  0.24186188  0.50158735  0.25000943  1
  Fe  Fe71  1  0.62667764  0.37643148  0.37903463  1
  Fe  Fe72  1  0.87585894  0.12492697  0.37453336  1
  Fe  Fe73  1  -0.00177306  -0.00166446  -0.00001884  1
  Fe  Fe74  1  0.62764435  0.12284797  0.87726642  1
  Fe  Fe75  1  0.00016480  0.24912091  0.50079857  1
  Fe  Fe76  1  0.50048137  0.74833128  0.25009132  1
  Fe  Fe77  1  0.00179133  0.50207380  0.49667113  1
  Fe  Fe78  1  0.12498153  0.37704084  0.62212700  1
  Fe  Fe79  1  0.62929855  0.87729387  0.62387282  1
  Fe  Fe80  1  0.62627090  0.87291295  0.37568063  1
  Fe  Fe81  1  0.49780527  0.25321241  -0.00156679  1
  Fe  Fe82  1  0.24998817  -0.00014208  0.75100046  1
  Fe  Fe83  1  0.87380943  0.87270515  0.12666907  1
  Fe  Fe84  1  0.62498884  0.12510836  0.62011932  1
  Fe  Fe85  1  0.37563929  0.62306412  0.87500709  1
  Fe  Fe86  1  0.25110468  0.24985072  0.50011731  1
  Fe  Fe87  1  0.00055094  0.25014052  0.74961133  1
  Fe  Fe88  1  0.74955002  0.24970804  0.25156768  1
  Fe  Fe89  1  0.75214730  0.25064281  -0.00023279  1
  Co  Co90  1  0.87433080  0.62334307  0.87560567  1
  Co  Co91  1  0.24969510  0.50192905  0.50110232  1
  Co  Co92  1  0.12612379  0.63063436  0.12435363  1
  Co  Co93  1  0.37756509  0.62619181  0.62615564  1
  Co  Co94  1  0.74841867  0.74787161  0.25019010  1
  Co  Co95  1  0.12442396  0.12326519  0.62461451  1
  Co  Co96  1  0.87536753  0.12520809  0.87424521  1
  Co  Co97  1  0.25299388  0.75053386  0.24990495  1
  Co  Co98  1  0.75261341  0.50093234  0.49975552  1
  Co  Co99  1  0.37547239  0.87358656  0.87367783  1
  Co  Co100  1  0.87401210  0.87585511  0.62544780  1
  Co  Co101  1  0.12139183  0.37374108  0.12563943  1
  Co  Co102  1  0.75178273  0.25023043  0.49925402  1
  Co  Co103  1  -0.00204793  0.74860353  0.75149522  1
  Co  Co104  1  0.24808449  0.49911778  0.00143895  1
  Co  Co105  1  0.37574261  0.12292792  0.37461504  1
  Co  Co106  1  0.12266461  0.87599988  0.87292195  1
  Co  Co107  1  0.74981814  0.74886584  0.50301306  1
  Co  Co108  1  0.12444564  0.62462723  0.87486174  1
  Co  Co109  1  0.00066501  0.24765976  0.24914765  1
  Co  Co110  1  0.75140501  0.00004200  0.49804245  1
  Co  Co111  1  0.50008568  0.50017929  -0.00009930  1
  Co  Co112  1  0.12206361  0.62575691  0.62399431  1
  Co  Co113  1  0.00357035  0.50565771  0.25146485  1
  Co  Co114  1  0.62860821  0.87576690  0.87533406  1
  Co  Co115  1  0.62538267  0.62317579  0.87260375  1
  Co  Co116  1  0.62441370  0.62510730  0.37782414  1
  Co  Co117  1  0.75237471  -0.00072757  0.00192393  1
  Co  Co118  1  0.74990708  0.00254378  0.74918900  1
  Co  Co119  1  0.37413203  0.37702188  0.87260682  1
  Co  Co120  1  0.49843175  -0.00397988  0.50148987  1
  Co  Co121  1  0.50100038  -0.00227916  0.24957220  1
  Co  Co122  1  0.12283116  0.37265647  0.37666586  1
  Co  Co123  1  0.62637543  0.37597805  0.62256246  1
  Co  Co124  1  0.49689392  0.25398612  0.49915414  1
  Co  Co125  1  -0.00127263  0.74994331  -0.00221825  1
  Co  Co126  1  0.12706004  0.62999272  0.37688421  1
  Co  Co127  1  0.62516847  0.62589443  0.12440065  1
