# generated using pymatgen
data_Fe45Co19
_symmetry_space_group_name_H-M   'P 1'
_cell_length_a   11.41556227
_cell_length_b   11.41407734
_cell_length_c   11.41502863
_cell_angle_alpha   90.00094330
_cell_angle_beta   90.00048066
_cell_angle_gamma   89.99860503
_symmetry_Int_Tables_number   1
_chemical_formula_structural   Fe45Co19
_chemical_formula_sum   'Fe90 Co38'
_cell_volume   1487.35666285
_cell_formula_units_Z   2
loop_
 _symmetry_equiv_pos_site_id
 _symmetry_equiv_pos_as_xyz
  1  'x, y, z'
loop_
 _atom_site_type_symbol
 _atom_site_label
 _atom_site_symmetry_multiplicity
 _atom_site_fract_x
 _atom_site_fract_y
 _atom_site_fract_z
 _atom_site_occupancy
  Fe  Fe0  1  0.37680326  0.12861102  0.62826953  1
  Fe  Fe1  1  0.87315478  0.62170631  0.87320566  1
  Fe  Fe2  1  0.87337427  0.37537406  0.87416931  1
  Fe  Fe3  1  0.37543054  0.37205080  0.87052179  1
  Fe  Fe4  1  0.75106649  0.00079456  0.50181850  1
  Fe  Fe5  1  0.00298465  0.74575426  0.74995324  1
  Fe  Fe6  1  0.37431618  0.12453119  0.37499907  1
  Fe  Fe7  1  0.62341419  0.12456625  0.62689030  1
  Fe  Fe8  1  0.37258513  0.12384352  0.12181573  1
  Fe  Fe9  1  0.12454241  0.37225978  0.87561387  1
  Fe  Fe10  1  0.74889205  0.25052049  -0.00117656  1
  Fe  Fe11  1  0.87736076  0.12851524  0.87540358  1
  Fe  Fe12  1  0.12643366  0.37264146  0.62323798  1
  Fe  Fe13  1  0.87481333  0.87515474  0.87096807  1
  Fe  Fe14  1  -0.00051997  0.25307359  0.49621967  1
  Fe  Fe15  1  0.25115411  0.50145136  0.74728544  1
  Fe  Fe16  1  0.50057087  0.50065889  0.25134760  1
  Fe  Fe17  1  0.75186960  0.24721301  0.25200412  1
  Fe  Fe18  1  0.12512458  0.87750954  0.87264646  1
  Fe  Fe19  1  0.37177324  0.87815764  0.87188610  1
  Fe  Fe20  1  0.62157930  0.62249686  0.62621130  1
  Fe  Fe21  1  0.74909894  0.74970886  0.50154285  1
  Fe  Fe22  1  0.00017489  0.49875490  -0.00025586  1
  Fe  Fe23  1  0.62381014  0.37320773  0.12319795  1
  Fe  Fe24  1  0.74759373  0.75153962  0.24962885  1
  Fe  Fe25  1  0.75231089  -0.00025589  0.00025721  1
  Fe  Fe26  1  0.00013180  0.49790366  0.49834429  1
  Fe  Fe27  1  0.24547709  0.24399751  0.75034990  1
  Fe  Fe28  1  0.25062860  0.49706821  0.00043180  1
  Fe  Fe29  1  0.12466631  0.87536257  0.62567572  1
  Fe  Fe30  1  0.24693590  0.74709251  0.74802686  1
  Fe  Fe31  1  0.87546804  0.37305611  0.62456108  1
  Fe  Fe32  1  0.00247315  0.49977843  0.74939715  1
  Fe  Fe33  1  0.50117126  0.74951087  0.75148770  1
  Fe  Fe34  1  0.87527321  0.87342728  0.62793191  1
  Fe  Fe35  1  0.87510813  0.62476070  0.12529343  1
  Fe  Fe36  1  0.87675586  0.12891988  0.62292383  1
  Fe  Fe37  1  0.12632421  0.62462579  0.12376494  1
  Fe  Fe38  1  0.74997414  0.75050032  -0.00106338  1
  Fe  Fe39  1  0.62600800  0.87729177  0.62884826  1
  Fe  Fe40  1  0.50000087  0.24834608  -0.00520397  1
  Fe  Fe41  1  0.24973658  0.75073320  0.50050414  1
  Fe  Fe42  1  0.00140666  0.49912677  0.25229772  1
  Fe  Fe43  1  0.00076556  0.00016072  0.00137638  1
  Fe  Fe44  1  -0.00052144  0.00406935  0.24912919  1
  Fe  Fe45  1  0.62618695  0.12295656  0.12373753  1
  Fe  Fe46  1  0.00305642  0.00584457  0.74886437  1
  Fe  Fe47  1  0.74686129  0.25042825  0.75003702  1
  Fe  Fe48  1  0.87416325  0.37480979  0.12657799  1
  Fe  Fe49  1  0.49922073  0.49860812  -0.00259409  1
  Fe  Fe50  1  0.62819955  0.87956962  0.87085908  1
  Fe  Fe51  1  0.00098299  0.75007489  0.49822005  1
  Fe  Fe52  1  0.87487671  0.87632849  0.12703060  1
  Fe  Fe53  1  0.24761906  0.75446022  0.00143406  1
  Fe  Fe54  1  0.49857582  -0.00010261  -0.00239580  1
  Fe  Fe55  1  0.50193655  0.75254376  -0.00301218  1
  Fe  Fe56  1  -0.00208798  0.24917008  0.25156247  1
  Fe  Fe57  1  0.37197105  0.62632271  0.87557433  1
  Fe  Fe58  1  0.62266919  0.37329716  0.37688977  1
  Fe  Fe59  1  0.62493940  0.87695918  0.37524505  1
  Fe  Fe60  1  0.87376957  0.87749196  0.37388690  1
  Fe  Fe61  1  0.12570401  0.37397370  0.12595267  1
  Fe  Fe62  1  0.74742666  0.49942551  0.24982585  1
  Fe  Fe63  1  0.00135079  0.74905500  0.25195690  1
  Fe  Fe64  1  0.49831418  -0.00162623  0.24941516  1
  Fe  Fe65  1  0.62592339  0.12453360  0.37655665  1
  Fe  Fe66  1  0.25100537  0.00169762  0.50281713  1
  Fe  Fe67  1  0.00060316  0.75045448  -0.00100053  1
  Fe  Fe68  1  0.49837957  0.00054579  0.50191574  1
  Fe  Fe69  1  0.37470558  0.87453169  0.62702304  1
  Fe  Fe70  1  0.25184998  0.75282508  0.24881436  1
  Fe  Fe71  1  0.37554607  0.62487853  0.37547979  1
  Fe  Fe72  1  0.62816353  0.61962272  0.87346605  1
  Fe  Fe73  1  0.37559291  0.62576179  0.12318031  1
  Fe  Fe74  1  0.25752070  0.49430242  0.50175986  1
  Fe  Fe75  1  0.49947453  0.75312541  0.25064593  1
  Fe  Fe76  1  -0.00079274  -0.00095725  0.50061409  1
  Fe  Fe77  1  0.61644084  0.37460824  0.62709140  1
  Fe  Fe78  1  0.37672698  0.37471971  0.12659499  1
  Fe  Fe79  1  0.62350954  0.62605585  0.12380370  1
  Fe  Fe80  1  0.12846125  0.62158364  0.37681055  1
  Fe  Fe81  1  0.74728126  0.49836727  0.50129011  1
  Fe  Fe82  1  0.87624886  0.62492852  0.62508457  1
  Fe  Fe83  1  0.12787460  0.12701209  0.12079903  1
  Fe  Fe84  1  0.87206043  0.62311243  0.37570366  1
  Fe  Fe85  1  0.50001477  0.24751727  0.24988004  1
  Fe  Fe86  1  0.12662839  0.12619037  0.37738165  1
  Fe  Fe87  1  0.25073151  0.25114736  0.25127883  1
  Fe  Fe88  1  0.12743121  0.87788265  0.37334661  1
  Fe  Fe89  1  0.50087584  0.74978026  0.49943019  1
  Co  Co90  1  0.87192409  0.37505646  0.37523643  1
  Co  Co91  1  0.24823228  -0.00307562  0.00041267  1
  Co  Co92  1  0.12291766  0.87595414  0.12780044  1
  Co  Co93  1  0.37839247  0.37348585  0.37159020  1
  Co  Co94  1  0.25167654  0.49897785  0.24906083  1
  Co  Co95  1  0.00217987  0.24965487  0.74982223  1
  Co  Co96  1  0.24575548  0.00529643  0.74710081  1
  Co  Co97  1  0.74916293  0.74757722  0.74949174  1
  Co  Co98  1  0.49542575  0.49844945  0.49978206  1
  Co  Co99  1  0.37630905  0.62796330  0.62484505  1
  Co  Co100  1  0.49547158  0.50280703  0.75209032  1
  Co  Co101  1  0.49782174  0.24858117  0.49864985  1
  Co  Co102  1  0.12552836  0.62230997  0.62053263  1
  Co  Co103  1  0.74987519  0.00154943  0.25097596  1
  Co  Co104  1  0.49732484  0.00107614  0.75051795  1
  Co  Co105  1  -0.00210518  0.25285619  0.00271576  1
  Co  Co106  1  0.25478458  0.25199743  0.49898441  1
  Co  Co107  1  0.87322919  0.12507892  0.12325270  1
  Co  Co108  1  0.62489696  0.87729997  0.12417420  1
  Co  Co109  1  0.25119963  0.00050682  0.24875698  1
  Co  Co110  1  0.37905786  0.36774702  0.63184815  1
  Co  Co111  1  0.12235540  0.12869960  0.61839878  1
  Co  Co112  1  0.37051059  0.12250297  0.87568748  1
  Co  Co113  1  0.75503020  0.00457249  0.74806307  1
  Co  Co114  1  0.75045291  0.49954555  0.00383954  1
  Co  Co115  1  0.75021874  0.49708147  0.74495498  1
  Co  Co116  1  0.74666929  0.25095986  0.50255126  1
  Co  Co117  1  0.62598260  0.37881321  0.87482015  1
  Co  Co118  1  0.87442045  0.12539549  0.37947512  1
  Co  Co119  1  0.12697747  0.37468437  0.37559776  1
  Co  Co120  1  0.25401087  0.25385595  -0.00049993  1
  Co  Co121  1  0.37470636  0.87632074  0.37773339  1
  Co  Co122  1  0.37684563  0.87616699  0.12281362  1
  Co  Co123  1  0.62467058  0.62485892  0.37541556  1
  Co  Co124  1  0.12425957  0.12696243  0.88191382  1
  Co  Co125  1  0.62741723  0.12033110  0.87559560  1
  Co  Co126  1  0.50433664  0.24516620  0.75781949  1
  Co  Co127  1  0.12658495  0.62354285  0.87760474  1
