# generated using pymatgen
data_Fe45Co19
_symmetry_space_group_name_H-M   'P 1'
_cell_length_a   11.41504324
_cell_length_b   11.41682098
_cell_length_c   11.41544002
_cell_angle_alpha   90.00703331
_cell_angle_beta   90.00703086
_cell_angle_gamma   89.99769556
_symmetry_Int_Tables_number   1
_chemical_formula_structural   Fe45Co19
_chemical_formula_sum   'Fe90 Co38'
_cell_volume   1487.70013386
_cell_formula_units_Z   2
loop_
 _symmetry_equiv_pos_site_id
 _symmetry_equiv_pos_as_xyz
  1  'x, y, z'
loop_
 _atom_site_type_symbol
 _atom_site_label
 _atom_site_symmetry_multiplicity
 _atom_site_fract_x
 _atom_site_fract_y
 _atom_site_fract_z
 _atom_site_occupancy
  Fe  Fe0  1  0.24794399  0.25078969  0.75125031  1
  Fe  Fe1  1  0.49530347  0.74823114  0.49842039  1
  Fe  Fe2  1  0.87488916  0.11603114  0.87109405  1
  Fe  Fe3  1  0.74921387  0.00243375  0.50294593  1
  Fe  Fe4  1  0.62328244  0.62501550  0.37407983  1
  Fe  Fe5  1  0.62420593  0.87295745  0.12562819  1
  Fe  Fe6  1  0.00623623  0.75794058  0.75211058  1
  Fe  Fe7  1  0.75384809  0.24724734  0.50354524  1
  Fe  Fe8  1  0.75087157  0.24822602  0.74845129  1
  Fe  Fe9  1  -0.00262998  0.24908393  0.50121251  1
  Fe  Fe10  1  -0.00076290  0.75386723  -0.00196371  1
  Fe  Fe11  1  0.49736818  0.74816249  0.00205616  1
  Fe  Fe12  1  0.37804422  0.12542085  0.12811276  1
  Fe  Fe13  1  0.25404307  0.75157974  0.25073096  1
  Fe  Fe14  1  0.50028210  -0.00133604  0.50272833  1
  Fe  Fe15  1  0.12595078  0.37367357  0.37780640  1
  Fe  Fe16  1  0.87820060  0.62495120  0.62795288  1
  Fe  Fe17  1  0.87469437  0.37559348  0.12337788  1
  Fe  Fe18  1  0.50131254  0.25212248  0.74856757  1
  Fe  Fe19  1  0.87532198  0.37567331  0.87400098  1
  Fe  Fe20  1  0.49757109  0.25339910  0.49904595  1
  Fe  Fe21  1  0.37320233  0.87578522  0.87425284  1
  Fe  Fe22  1  0.87368508  0.87675116  0.62611808  1
  Fe  Fe23  1  0.49977026  0.49894068  0.74973160  1
  Fe  Fe24  1  0.25373684  0.74738556  -0.00199363  1
  Fe  Fe25  1  0.25076020  0.24742715  0.49947079  1
  Fe  Fe26  1  0.49841944  0.25082710  0.00000061  1
  Fe  Fe27  1  0.12795164  0.87455024  0.12308006  1
  Fe  Fe28  1  0.12193646  0.62847167  0.37295292  1
  Fe  Fe29  1  0.62411912  0.62703832  0.62439091  1
  Fe  Fe30  1  0.62411029  0.87374207  0.37658702  1
  Fe  Fe31  1  0.12379016  0.12442514  0.12682930  1
  Fe  Fe32  1  0.36929806  0.87135223  0.62502201  1
  Fe  Fe33  1  0.62828697  0.87436109  0.87797161  1
  Fe  Fe34  1  0.25259553  -0.00183400  0.25056754  1
  Fe  Fe35  1  0.50326464  -0.00354127  0.74604287  1
  Fe  Fe36  1  0.36999391  0.37724073  0.62620138  1
  Fe  Fe37  1  -0.00206418  0.75092943  0.49887866  1
  Fe  Fe38  1  -0.00140018  0.24708359  -0.00107128  1
  Fe  Fe39  1  0.62543916  0.37571213  0.87588806  1
  Fe  Fe40  1  0.75117891  0.24972012  0.24974303  1
  Fe  Fe41  1  0.75118715  0.50401194  -0.00122097  1
  Fe  Fe42  1  0.62395014  0.12609916  0.37514108  1
  Fe  Fe43  1  0.00246760  0.49878956  0.24932357  1
  Fe  Fe44  1  0.50202060  0.00102965  0.00232008  1
  Fe  Fe45  1  -0.00062712  -0.00357047  0.25003440  1
  Fe  Fe46  1  0.87630996  0.12364360  0.12624656  1
  Fe  Fe47  1  0.00031077  0.25148166  0.74904141  1
  Fe  Fe48  1  0.25102428  0.25205856  0.25091894  1
  Fe  Fe49  1  -0.00043684  -0.00039562  0.49924148  1
  Fe  Fe50  1  0.12603029  0.62662982  0.12436901  1
  Fe  Fe51  1  0.50032105  0.49893489  0.49958297  1
  Fe  Fe52  1  0.62612139  0.37425959  0.12295010  1
  Fe  Fe53  1  0.25330093  0.50151230  -0.00550613  1
  Fe  Fe54  1  0.37739273  0.12334139  0.37383545  1
  Fe  Fe55  1  0.74936075  0.75092565  0.75087216  1
  Fe  Fe56  1  0.74916616  0.50079039  0.25081425  1
  Fe  Fe57  1  0.24735352  0.50389021  0.50008505  1
  Fe  Fe58  1  0.37739785  0.12369239  0.87126412  1
  Fe  Fe59  1  0.12677491  0.37456457  0.12075998  1
  Fe  Fe60  1  0.37649805  0.62031846  0.36900610  1
  Fe  Fe61  1  0.12306448  0.12104938  0.87425762  1
  Fe  Fe62  1  0.50082117  0.75231703  0.74948606  1
  Fe  Fe63  1  0.37616382  0.12475490  0.62692404  1
  Fe  Fe64  1  0.75140020  0.24653199  -0.00111187  1
  Fe  Fe65  1  0.12624306  0.87351444  0.37668355  1
  Fe  Fe66  1  0.62800657  0.37545659  0.62305907  1
  Fe  Fe67  1  0.12301251  0.12351550  0.62592457  1
  Fe  Fe68  1  0.49851391  0.25644282  0.25266143  1
  Fe  Fe69  1  0.25071455  0.00207214  0.49988545  1
  Fe  Fe70  1  0.12316942  0.12470478  0.37309334  1
  Fe  Fe71  1  0.87264548  0.87425350  0.12306381  1
  Fe  Fe72  1  0.62519299  0.12346916  0.87362440  1
  Fe  Fe73  1  0.62285232  0.62618330  0.87525027  1
  Fe  Fe74  1  0.87282325  0.37750807  0.37751325  1
  Fe  Fe75  1  0.74901979  0.50189906  0.74972783  1
  Fe  Fe76  1  0.00038093  0.50081740  0.50163662  1
  Fe  Fe77  1  0.62202628  0.62588957  0.12734715  1
  Fe  Fe78  1  0.00621586  0.49767505  0.74882719  1
  Fe  Fe79  1  0.37014740  0.62583110  0.63057144  1
  Fe  Fe80  1  0.74813472  0.00137561  0.24938543  1
  Fe  Fe81  1  0.75211152  0.74893604  0.25192530  1
  Fe  Fe82  1  -0.00142023  0.50071486  -0.00029439  1
  Fe  Fe83  1  0.25208868  0.00364597  0.00095154  1
  Fe  Fe84  1  0.87687394  0.62671876  0.12684074  1
  Fe  Fe85  1  0.87823221  0.62772016  0.87291261  1
  Fe  Fe86  1  0.49684109  0.50069608  -0.00020731  1
  Fe  Fe87  1  -0.00088225  0.25215225  0.25077931  1
  Fe  Fe88  1  0.75355498  0.74606919  0.49898403  1
  Fe  Fe89  1  0.25195823  0.24811290  -0.00154055  1
  Co  Co90  1  0.12998139  0.87929602  0.88115014  1
  Co  Co91  1  0.49589259  0.75301989  0.25036546  1
  Co  Co92  1  0.12753483  0.37384154  0.62245023  1
  Co  Co93  1  0.87443843  0.37755305  0.62585680  1
  Co  Co94  1  0.87501304  0.12370005  0.37383222  1
  Co  Co95  1  0.87802167  0.62339146  0.37307277  1
  Co  Co96  1  0.37543375  0.87646427  0.12208155  1
  Co  Co97  1  0.87860687  0.12012226  0.62935539  1
  Co  Co98  1  0.75072837  0.74617602  -0.00005144  1
  Co  Co99  1  0.74342792  -0.00183323  0.74532974  1
  Co  Co100  1  0.75064701  0.50537491  0.50184120  1
  Co  Co101  1  0.37586154  0.87783208  0.37777663  1
  Co  Co102  1  0.50037206  -0.00253871  0.24955493  1
  Co  Co103  1  0.24327216  0.75047118  0.75448251  1
  Co  Co104  1  0.12218960  0.62498448  0.87692353  1
  Co  Co105  1  0.24835023  -0.00052678  0.74772954  1
  Co  Co106  1  -0.00051029  -0.00172366  0.00194984  1
  Co  Co107  1  0.62565826  0.86886909  0.61977834  1
  Co  Co108  1  0.62219590  0.12831741  0.62340565  1
  Co  Co109  1  0.62185484  0.12865901  0.12769134  1
  Co  Co110  1  0.87266500  0.87682714  0.37596874  1
  Co  Co111  1  0.37558763  0.37380491  0.87289335  1
  Co  Co112  1  0.25353690  0.74524461  0.49490820  1
  Co  Co113  1  0.37023484  0.37891353  0.37661611  1
  Co  Co114  1  -0.00064167  0.75357952  0.24925887  1
  Co  Co115  1  0.13009077  0.87245242  0.61766133  1
  Co  Co116  1  0.37488032  0.62151782  0.12914754  1
  Co  Co117  1  0.63041442  0.37422564  0.37854833  1
  Co  Co118  1  0.50348088  0.49371116  0.25114403  1
  Co  Co119  1  0.12389067  0.37368866  0.87898031  1
  Co  Co120  1  0.00565898  -0.00820066  0.74958661  1
  Co  Co121  1  0.87003426  0.87807376  0.87510727  1
  Co  Co122  1  0.12539852  0.62926658  0.62467228  1
  Co  Co123  1  0.74777193  0.00281681  0.00385575  1
  Co  Co124  1  0.37681048  0.62713278  0.86964655  1
  Co  Co125  1  0.37224423  0.37710317  0.12446473  1
  Co  Co126  1  0.24555146  0.49965874  0.75295121  1
  Co  Co127  1  0.24432370  0.49926548  0.25095203  1
