# generated using pymatgen
data_Fe45Co19
_symmetry_space_group_name_H-M   'P 1'
_cell_length_a   11.41429612
_cell_length_b   11.41647965
_cell_length_c   11.41587753
_cell_angle_alpha   89.99430021
_cell_angle_beta   89.99802469
_cell_angle_gamma   89.99202147
_symmetry_Int_Tables_number   1
_chemical_formula_structural   Fe45Co19
_chemical_formula_sum   'Fe90 Co38'
_cell_volume   1487.61529985
_cell_formula_units_Z   2
loop_
 _symmetry_equiv_pos_site_id
 _symmetry_equiv_pos_as_xyz
  1  'x, y, z'
loop_
 _atom_site_type_symbol
 _atom_site_label
 _atom_site_symmetry_multiplicity
 _atom_site_fract_x
 _atom_site_fract_y
 _atom_site_fract_z
 _atom_site_occupancy
  Fe  Fe0  1  0.12216812  0.37247565  0.87768679  1
  Fe  Fe1  1  0.62788567  0.37340493  0.12964492  1
  Fe  Fe2  1  0.87523300  0.62550452  0.12434966  1
  Fe  Fe3  1  0.25087793  -0.00063016  0.25133284  1
  Fe  Fe4  1  0.37510179  0.12530335  0.62682457  1
  Fe  Fe5  1  0.62460135  0.62509788  0.87556277  1
  Fe  Fe6  1  0.12551897  0.37160291  0.37454259  1
  Fe  Fe7  1  -0.00275701  0.25262175  0.50205711  1
  Fe  Fe8  1  0.75159910  0.74824571  0.74773174  1
  Fe  Fe9  1  0.37476548  0.62005538  0.62745527  1
  Fe  Fe10  1  0.87450774  0.37680205  0.12797030  1
  Fe  Fe11  1  -0.00009727  0.50214210  0.25090031  1
  Fe  Fe12  1  0.49794212  0.74992237  -0.00070366  1
  Fe  Fe13  1  0.12403220  0.87250506  0.62724767  1
  Fe  Fe14  1  0.00012001  0.24881141  0.24779757  1
  Fe  Fe15  1  0.25145731  0.24958746  0.00120374  1
  Fe  Fe16  1  0.12509584  0.87315445  0.37547580  1
  Fe  Fe17  1  0.12428248  0.12392766  0.12291294  1
  Fe  Fe18  1  0.12346745  0.37487458  0.62446775  1
  Fe  Fe19  1  0.50107798  0.00212661  0.49904818  1
  Fe  Fe20  1  0.49840299  0.74768423  0.49985547  1
  Fe  Fe21  1  0.25121093  0.50162233  -0.00082824  1
  Fe  Fe22  1  0.25455448  0.75091189  0.25049347  1
  Fe  Fe23  1  0.37210322  0.12734629  0.37421866  1
  Fe  Fe24  1  0.49480537  0.75167327  0.25252706  1
  Fe  Fe25  1  0.74839907  0.75121269  0.00019329  1
  Fe  Fe26  1  0.25069562  0.49918378  0.24917809  1
  Fe  Fe27  1  0.37665087  0.37835235  0.87309408  1
  Fe  Fe28  1  0.37625508  0.87650080  0.87327203  1
  Fe  Fe29  1  0.37672044  0.12521393  0.87256728  1
  Fe  Fe30  1  0.12518819  0.62694519  0.37553556  1
  Fe  Fe31  1  0.12271347  0.12747753  0.62621628  1
  Fe  Fe32  1  0.12450449  0.37565186  0.12366063  1
  Fe  Fe33  1  0.62702033  0.62222331  0.62211700  1
  Fe  Fe34  1  0.12366485  0.62642691  0.87480517  1
  Fe  Fe35  1  0.75053027  0.74809662  0.25106460  1
  Fe  Fe36  1  0.87618528  0.37500845  0.87617500  1
  Fe  Fe37  1  0.50031722  0.25028495  0.00240865  1
  Fe  Fe38  1  0.50335674  0.25278337  0.74918419  1
  Fe  Fe39  1  0.24843744  0.25166585  0.75052626  1
  Fe  Fe40  1  0.62458346  0.12530834  0.87547316  1
  Fe  Fe41  1  0.62395076  0.87645136  0.87287158  1
  Fe  Fe42  1  0.62502505  0.87273214  0.37658087  1
  Fe  Fe43  1  0.75100476  0.25219046  0.74941834  1
  Fe  Fe44  1  0.12257329  0.62490768  0.62433765  1
  Fe  Fe45  1  0.24870840  0.00006357  -0.00358819  1
  Fe  Fe46  1  0.87434151  0.87577295  0.62385028  1
  Fe  Fe47  1  0.75314818  0.25311222  0.49852797  1
  Fe  Fe48  1  0.74966936  0.49791652  0.49425535  1
  Fe  Fe49  1  0.75115936  0.24886979  0.00200068  1
  Fe  Fe50  1  0.25369827  0.74835755  -0.00116795  1
  Fe  Fe51  1  0.24848062  0.49881620  0.50015892  1
  Fe  Fe52  1  0.62212891  0.87751579  0.12588102  1
  Fe  Fe53  1  0.87579817  0.12454152  0.37652620  1
  Fe  Fe54  1  0.50102360  0.49773776  0.49685490  1
  Fe  Fe55  1  0.12533537  0.62613720  0.12549086  1
  Fe  Fe56  1  -0.00060245  0.75021241  0.00008981  1
  Fe  Fe57  1  0.49836540  0.49766919  0.25215060  1
  Fe  Fe58  1  0.88137913  0.12490398  0.87433707  1
  Fe  Fe59  1  0.87397111  0.62364960  0.87560555  1
  Fe  Fe60  1  0.50098132  0.49982594  0.00034947  1
  Fe  Fe61  1  0.62306730  0.62519612  0.12851182  1
  Fe  Fe62  1  0.74886731  0.00004810  -0.00062559  1
  Fe  Fe63  1  0.62781894  0.12678760  0.62349903  1
  Fe  Fe64  1  0.62567682  0.12946572  0.37307514  1
  Fe  Fe65  1  0.87526769  0.87539644  0.12512974  1
  Fe  Fe66  1  0.00044953  -0.00076114  0.50175450  1
  Fe  Fe67  1  0.25137334  0.74806351  0.75099549  1
  Fe  Fe68  1  0.74682190  0.49765192  0.75072792  1
  Fe  Fe69  1  0.25136006  0.74887374  0.50061273  1
  Fe  Fe70  1  0.37807191  0.12165197  0.12637829  1
  Fe  Fe71  1  0.12606025  0.12792097  0.37619904  1
  Fe  Fe72  1  0.24633045  0.00140915  0.75217272  1
  Fe  Fe73  1  0.62594795  0.87600990  0.62388289  1
  Fe  Fe74  1  0.74772917  0.00144967  0.25129383  1
  Fe  Fe75  1  0.00079055  -0.00115672  0.25030047  1
  Fe  Fe76  1  0.37548241  0.37760052  0.62764105  1
  Fe  Fe77  1  0.37056816  0.37179633  0.37371837  1
  Fe  Fe78  1  0.37509017  0.87719246  0.62448458  1
  Fe  Fe79  1  0.24856286  0.00158381  0.50163063  1
  Fe  Fe80  1  0.49892066  0.25217804  0.49931362  1
  Fe  Fe81  1  0.74864458  0.50017742  0.00211261  1
  Fe  Fe82  1  0.87810791  0.87595601  0.87396067  1
  Fe  Fe83  1  0.50023641  0.74830383  0.74834419  1
  Fe  Fe84  1  0.12584921  0.87353240  0.12490505  1
  Fe  Fe85  1  0.87705582  0.62662120  0.37834634  1
  Fe  Fe86  1  0.75061391  0.00185530  0.74901887  1
  Fe  Fe87  1  0.87464681  0.87418031  0.37647940  1
  Fe  Fe88  1  -0.00008980  0.50008766  0.74984622  1
  Fe  Fe89  1  0.87563710  0.12183771  0.12406294  1
  Co  Co90  1  0.62698475  0.37448654  0.62150415  1
  Co  Co91  1  0.37281148  0.62304978  0.37571201  1
  Co  Co92  1  0.62577391  0.37343026  0.87882803  1
  Co  Co93  1  0.24933916  0.24933603  0.24480425  1
  Co  Co94  1  -0.00112080  0.25261999  0.74685680  1
  Co  Co95  1  0.00178675  0.49809375  0.49809081  1
  Co  Co96  1  0.62347251  0.62619204  0.37405058  1
  Co  Co97  1  0.75357428  0.24646381  0.24869292  1
  Co  Co98  1  0.75016758  0.74918173  0.50053648  1
  Co  Co99  1  0.87304046  0.37877099  0.62503925  1
  Co  Co100  1  0.37455279  0.37695120  0.12410411  1
  Co  Co101  1  0.12390776  0.87170987  0.87426351  1
  Co  Co102  1  -0.00098791  0.74980523  0.25002166  1
  Co  Co103  1  -0.00039825  0.75087375  0.50160627  1
  Co  Co104  1  0.50091007  0.00056627  -0.00259624  1
  Co  Co105  1  0.74870286  0.00041063  0.49845204  1
  Co  Co106  1  0.37298042  0.87671328  0.37936236  1
  Co  Co107  1  0.50629674  0.49880528  0.74989452  1
  Co  Co108  1  0.87633608  0.37421279  0.37168548  1
  Co  Co109  1  0.00203427  -0.00005920  0.74807552  1
  Co  Co110  1  0.00223091  -0.00250625  0.00030041  1
  Co  Co111  1  0.50190637  0.00114132  0.74787502  1
  Co  Co112  1  0.62755176  0.37206211  0.37026288  1
  Co  Co113  1  0.12077980  0.12897636  0.87591917  1
  Co  Co114  1  0.25071640  0.25068227  0.50428852  1
  Co  Co115  1  0.37599599  0.62384159  0.12612489  1
  Co  Co116  1  0.62346387  0.12439065  0.12549893  1
  Co  Co117  1  0.87363146  0.62003080  0.62220943  1
  Co  Co118  1  0.49738661  0.25103957  0.24883802  1
  Co  Co119  1  -0.00073167  0.50158112  0.00066753  1
  Co  Co120  1  -0.00399951  0.74750824  0.74862268  1
  Co  Co121  1  0.24510029  0.49892173  0.75079155  1
  Co  Co122  1  0.37545941  0.87775572  0.12373333  1
  Co  Co123  1  0.37708951  0.62099810  0.87208392  1
  Co  Co124  1  0.50057265  -0.00025263  0.25511191  1
  Co  Co125  1  -0.00204600  0.25090848  0.00439615  1
  Co  Co126  1  0.75253874  0.50453128  0.25252401  1
  Co  Co127  1  0.87390885  0.12537213  0.62421712  1
