# generated using pymatgen
data_Fe45Co19
_symmetry_space_group_name_H-M   'P 1'
_cell_length_a   11.41409601
_cell_length_b   11.41331106
_cell_length_c   11.41494877
_cell_angle_alpha   89.99897669
_cell_angle_beta   90.00903375
_cell_angle_gamma   90.01322658
_symmetry_Int_Tables_number   1
_chemical_formula_structural   Fe45Co19
_chemical_formula_sum   'Fe90 Co38'
_cell_volume   1487.05531952
_cell_formula_units_Z   2
loop_
 _symmetry_equiv_pos_site_id
 _symmetry_equiv_pos_as_xyz
  1  'x, y, z'
loop_
 _atom_site_type_symbol
 _atom_site_label
 _atom_site_symmetry_multiplicity
 _atom_site_fract_x
 _atom_site_fract_y
 _atom_site_fract_z
 _atom_site_occupancy
  Fe  Fe0  1  0.00219015  -0.00104360  0.00193868  1
  Fe  Fe1  1  0.00099695  0.50222850  0.74786256  1
  Fe  Fe2  1  0.87576661  0.37579408  0.87462462  1
  Fe  Fe3  1  0.12719105  0.12502899  0.12601484  1
  Fe  Fe4  1  0.12579615  0.37463985  0.87426009  1
  Fe  Fe5  1  0.00130883  -0.00178755  0.24819216  1
  Fe  Fe6  1  0.75060640  0.24790542  0.49808682  1
  Fe  Fe7  1  -0.00077093  0.24909796  0.74950770  1
  Fe  Fe8  1  0.25107235  0.00067430  0.49696944  1
  Fe  Fe9  1  0.24616836  0.50290891  0.24418096  1
  Fe  Fe10  1  0.87247909  0.37063018  0.12486305  1
  Fe  Fe11  1  0.87388438  0.37508546  0.62587487  1
  Fe  Fe12  1  0.74993170  -0.00190224  0.75081712  1
  Fe  Fe13  1  0.37242696  0.87517851  0.62490240  1
  Fe  Fe14  1  0.12734114  0.63148731  0.62373194  1
  Fe  Fe15  1  0.62571522  0.62778566  0.62388456  1
  Fe  Fe16  1  0.49978368  0.50029156  0.50070872  1
  Fe  Fe17  1  0.12449033  0.12508510  0.62487207  1
  Fe  Fe18  1  0.12706163  0.87353428  0.37590858  1
  Fe  Fe19  1  0.12375757  0.12448520  0.87304972  1
  Fe  Fe20  1  0.24907354  0.24625328  0.25353736  1
  Fe  Fe21  1  0.37463141  0.87751429  0.37238956  1
  Fe  Fe22  1  0.74981219  0.00346258  0.24830186  1
  Fe  Fe23  1  0.00007075  0.75174080  0.74870281  1
  Fe  Fe24  1  0.24883451  0.24985997  0.49684512  1
  Fe  Fe25  1  0.49849356  0.24779015  0.24862072  1
  Fe  Fe26  1  0.74978356  0.50159259  0.49978074  1
  Fe  Fe27  1  0.12731541  0.62660135  0.87735308  1
  Fe  Fe28  1  0.24904823  0.00073749  0.74996087  1
  Fe  Fe29  1  0.50062195  0.25001118  0.00066923  1
  Fe  Fe30  1  0.13033546  0.87236563  0.12575182  1
  Fe  Fe31  1  0.49736340  0.75181178  0.75154495  1
  Fe  Fe32  1  0.37462892  0.37899530  0.87630655  1
  Fe  Fe33  1  0.74644597  -0.00249648  0.00210153  1
  Fe  Fe34  1  0.62202810  0.12308317  0.37653194  1
  Fe  Fe35  1  0.62489372  0.37448008  0.37480124  1
  Fe  Fe36  1  0.25066041  0.50138037  0.75025196  1
  Fe  Fe37  1  0.24958047  0.24933413  -0.00257619  1
  Fe  Fe38  1  0.87265339  0.87456399  0.12448394  1
  Fe  Fe39  1  0.75090512  0.75173672  0.75407480  1
  Fe  Fe40  1  0.62397279  0.87621593  0.62476909  1
  Fe  Fe41  1  0.37446481  0.62680698  0.62625607  1
  Fe  Fe42  1  -0.00080613  0.24892574  0.00041170  1
  Fe  Fe43  1  0.62507567  0.37398809  0.62573840  1
  Fe  Fe44  1  0.25029487  0.50096020  0.50093024  1
  Fe  Fe45  1  0.37460185  0.12523808  0.62356840  1
  Fe  Fe46  1  0.37501461  0.62296408  0.37212862  1
  Fe  Fe47  1  0.62172522  0.12089786  0.87594716  1
  Fe  Fe48  1  0.62468539  0.87780706  0.37308063  1
  Fe  Fe49  1  0.49840653  0.75119421  0.49741915  1
  Fe  Fe50  1  0.74785767  0.49923117  -0.00101761  1
  Fe  Fe51  1  0.00297159  0.49910544  0.24639292  1
  Fe  Fe52  1  0.74881520  0.50134496  0.75134872  1
  Fe  Fe53  1  0.62161472  0.62633490  0.87690495  1
  Fe  Fe54  1  -0.00022904  0.75121349  0.25094909  1
  Fe  Fe55  1  0.87643804  0.12022284  0.87659390  1
  Fe  Fe56  1  0.00080833  0.50091762  0.50294147  1
  Fe  Fe57  1  0.75080154  0.74851773  0.25105599  1
  Fe  Fe58  1  0.87526467  0.62577762  0.12306568  1
  Fe  Fe59  1  0.75155205  0.75212786  0.49721277  1
  Fe  Fe60  1  0.00330234  0.49824608  0.00294047  1
  Fe  Fe61  1  0.49762655  0.24974986  0.75042404  1
  Fe  Fe62  1  0.62347387  0.12216991  0.62414395  1
  Fe  Fe63  1  0.49878683  0.00407031  0.24519261  1
  Fe  Fe64  1  0.49815116  0.75287353  0.00089845  1
  Fe  Fe65  1  0.87572329  0.87421551  0.62594820  1
  Fe  Fe66  1  0.12485078  0.62674177  0.37531303  1
  Fe  Fe67  1  -0.00064103  0.75204049  -0.00031542  1
  Fe  Fe68  1  0.87688340  0.62511469  0.37615396  1
  Fe  Fe69  1  0.87850104  0.12302305  0.37590551  1
  Fe  Fe70  1  0.50019202  0.49926973  0.74859375  1
  Fe  Fe71  1  0.74937872  0.24861455  0.75303446  1
  Fe  Fe72  1  0.37564513  0.87892383  0.87628411  1
  Fe  Fe73  1  0.87757509  0.37513193  0.37572769  1
  Fe  Fe74  1  0.37326818  0.37661516  0.37380450  1
  Fe  Fe75  1  0.49846682  0.74940941  0.24985075  1
  Fe  Fe76  1  0.87601938  0.12435760  0.62447108  1
  Fe  Fe77  1  0.37211999  0.37468376  0.12418062  1
  Fe  Fe78  1  0.49844487  0.25127301  0.50014445  1
  Fe  Fe79  1  0.74949073  0.50073345  0.25096054  1
  Fe  Fe80  1  0.62430762  0.62764908  0.12406953  1
  Fe  Fe81  1  0.50235402  0.49955619  0.24756118  1
  Fe  Fe82  1  0.87603189  0.62560076  0.87602930  1
  Fe  Fe83  1  0.00088681  0.24995484  0.25089123  1
  Fe  Fe84  1  0.12568290  0.87470242  0.87348134  1
  Fe  Fe85  1  0.62944920  0.36964855  0.12509643  1
  Fe  Fe86  1  0.37019237  0.87796149  0.12574009  1
  Fe  Fe87  1  0.37646466  0.12077909  0.87812304  1
  Fe  Fe88  1  0.12746460  0.37257601  0.62609804  1
  Fe  Fe89  1  -0.00044277  -0.00370645  0.50124325  1
  Co  Co90  1  0.24620686  -0.00026359  -0.00169336  1
  Co  Co91  1  0.25404222  0.74971202  0.49699090  1
  Co  Co92  1  0.62611022  0.87244337  0.12880768  1
  Co  Co93  1  0.75188351  0.24644813  0.25585411  1
  Co  Co94  1  0.00100326  0.25180432  0.50090182  1
  Co  Co95  1  0.49786950  -0.00206045  0.50080242  1
  Co  Co96  1  0.25125425  0.74733769  0.25028094  1
  Co  Co97  1  0.00087006  -0.00194459  0.74878975  1
  Co  Co98  1  0.25437083  0.74932448  -0.00156462  1
  Co  Co99  1  0.12077322  0.12284093  0.37591822  1
  Co  Co100  1  0.50310585  0.49711496  0.00407531  1
  Co  Co101  1  0.25267452  0.24831137  0.75208763  1
  Co  Co102  1  0.12344469  0.63122850  0.12276419  1
  Co  Co103  1  0.75163071  -0.00038101  0.50014926  1
  Co  Co104  1  0.37730994  0.62402130  0.12339225  1
  Co  Co105  1  0.75036470  0.24843178  -0.00581696  1
  Co  Co106  1  0.37364269  0.37426491  0.62476186  1
  Co  Co107  1  0.25217009  0.75087212  0.75328413  1
  Co  Co108  1  -0.00231695  0.75217523  0.49951142  1
  Co  Co109  1  0.74865890  0.75128454  -0.00179682  1
  Co  Co110  1  0.62319365  0.37451397  0.87369107  1
  Co  Co111  1  0.87364106  0.87662024  0.37238547  1
  Co  Co112  1  0.87619178  0.87683006  0.87680261  1
  Co  Co113  1  0.24671440  0.50175645  0.00353362  1
  Co  Co114  1  0.50303430  -0.00145115  0.00682918  1
  Co  Co115  1  0.37816885  0.12527817  0.37572320  1
  Co  Co116  1  0.49770400  -0.00028645  0.74737495  1
  Co  Co117  1  0.12668096  0.36951081  0.12494489  1
  Co  Co118  1  0.24966063  0.00332558  0.25311918  1
  Co  Co119  1  0.87326868  0.62740484  0.62556583  1
  Co  Co120  1  0.12564533  0.37752132  0.37494969  1
  Co  Co121  1  0.62728113  0.12953903  0.12376991  1
  Co  Co122  1  0.62166548  0.87681206  0.87423848  1
  Co  Co123  1  0.62423088  0.62602320  0.37545299  1
  Co  Co124  1  0.12774168  0.87384860  0.62328819  1
  Co  Co125  1  0.87517689  0.12524698  0.12405068  1
  Co  Co126  1  0.37055120  0.12419676  0.12210790  1
  Co  Co127  1  0.37702153  0.62064585  0.87729973  1
