# generated using pymatgen
data_Fe45Co19
_symmetry_space_group_name_H-M   'P 1'
_cell_length_a   11.41403591
_cell_length_b   11.41404572
_cell_length_c   11.41482516
_cell_angle_alpha   89.99948626
_cell_angle_beta   89.99888454
_cell_angle_gamma   90.00581715
_symmetry_Int_Tables_number   1
_chemical_formula_structural   Fe45Co19
_chemical_formula_sum   'Fe90 Co38'
_cell_volume   1487.12715484
_cell_formula_units_Z   2
loop_
 _symmetry_equiv_pos_site_id
 _symmetry_equiv_pos_as_xyz
  1  'x, y, z'
loop_
 _atom_site_type_symbol
 _atom_site_label
 _atom_site_symmetry_multiplicity
 _atom_site_fract_x
 _atom_site_fract_y
 _atom_site_fract_z
 _atom_site_occupancy
  Fe  Fe0  1  0.12820322  0.37205598  0.62391273  1
  Fe  Fe1  1  0.25312352  0.75031575  -0.00077549  1
  Fe  Fe2  1  0.50574574  0.24812819  0.74991758  1
  Fe  Fe3  1  -0.00005741  -0.00029590  0.24841811  1
  Fe  Fe4  1  0.74967428  0.25016877  0.00020085  1
  Fe  Fe5  1  0.24945587  0.50117197  0.25049945  1
  Fe  Fe6  1  0.50132334  0.50003887  0.74944764  1
  Fe  Fe7  1  0.25303267  0.00187453  0.24451455  1
  Fe  Fe8  1  0.37623127  0.12834170  0.87663740  1
  Fe  Fe9  1  0.37739657  0.62493293  0.12559559  1
  Fe  Fe10  1  0.50358485  0.00277847  0.75096626  1
  Fe  Fe11  1  0.37553271  0.62589805  0.62514305  1
  Fe  Fe12  1  0.75006872  -0.00063278  0.49884344  1
  Fe  Fe13  1  0.87375892  0.87491580  0.62721281  1
  Fe  Fe14  1  0.62377440  0.62505121  0.62255845  1
  Fe  Fe15  1  0.37162204  0.37388909  0.37336449  1
  Fe  Fe16  1  -0.00138506  0.75147444  0.50020534  1
  Fe  Fe17  1  0.87386969  0.37514352  0.87412158  1
  Fe  Fe18  1  0.74908569  0.50164649  0.74884758  1
  Fe  Fe19  1  0.12457769  0.12488498  0.37431133  1
  Fe  Fe20  1  0.12519520  0.62504961  0.62455873  1
  Fe  Fe21  1  0.24712659  0.00691680  0.75166529  1
  Fe  Fe22  1  -0.00163230  -0.00319463  0.00032175  1
  Fe  Fe23  1  0.87532308  0.62218787  0.37303400  1
  Fe  Fe24  1  0.87206123  0.87497290  0.37007450  1
  Fe  Fe25  1  0.87421769  0.12535111  0.37318237  1
  Fe  Fe26  1  0.50269228  0.49988217  0.25178898  1
  Fe  Fe27  1  0.50183017  0.74999196  0.25215791  1
  Fe  Fe28  1  0.12668714  0.87500203  0.87627988  1
  Fe  Fe29  1  0.74948635  -0.00094816  0.00094802  1
  Fe  Fe30  1  0.37499580  0.87671874  0.37212540  1
  Fe  Fe31  1  0.74631372  0.00157454  0.75339062  1
  Fe  Fe32  1  0.49645273  -0.00138559  0.00192006  1
  Fe  Fe33  1  0.00201957  0.00253615  0.75258229  1
  Fe  Fe34  1  0.12455535  0.62404492  0.37514583  1
  Fe  Fe35  1  0.12516889  0.62549982  0.87536635  1
  Fe  Fe36  1  0.12721879  0.37472427  0.37604474  1
  Fe  Fe37  1  0.87419569  0.12429557  0.62659149  1
  Fe  Fe38  1  0.62510414  0.62809325  0.87825303  1
  Fe  Fe39  1  0.74895149  0.50141919  0.00212986  1
  Fe  Fe40  1  0.50025132  0.75360455  0.49884685  1
  Fe  Fe41  1  0.75032595  0.74912575  0.50005009  1
  Fe  Fe42  1  0.62302179  0.12284609  0.37540596  1
  Fe  Fe43  1  -0.00223950  0.25245865  0.00107978  1
  Fe  Fe44  1  0.74621080  0.74577522  0.24728666  1
  Fe  Fe45  1  0.37568803  0.62520955  0.37575310  1
  Fe  Fe46  1  0.87459786  0.37563760  0.62744872  1
  Fe  Fe47  1  0.87523472  0.12516727  0.12496194  1
  Fe  Fe48  1  0.87213904  0.87172583  0.87563369  1
  Fe  Fe49  1  0.37406012  0.87589160  0.87277938  1
  Fe  Fe50  1  0.74977772  0.25004863  0.50135166  1
  Fe  Fe51  1  0.37498749  0.62368837  0.87336149  1
  Fe  Fe52  1  0.25293982  0.00456119  0.50073167  1
  Fe  Fe53  1  0.12757396  0.87410231  0.12352368  1
  Fe  Fe54  1  0.62904158  0.37615743  0.37433465  1
  Fe  Fe55  1  0.62606669  0.37383087  0.87360010  1
  Fe  Fe56  1  0.00156362  0.75079212  0.24900298  1
  Fe  Fe57  1  -0.00224789  0.25324686  0.24919839  1
  Fe  Fe58  1  0.37394623  0.87758467  0.62783627  1
  Fe  Fe59  1  0.25572003  0.25271194  0.00150648  1
  Fe  Fe60  1  0.12693620  0.37387876  0.87502230  1
  Fe  Fe61  1  0.12502331  0.62503890  0.12454670  1
  Fe  Fe62  1  0.61947725  0.12944854  0.12305797  1
  Fe  Fe63  1  -0.00177947  -0.00099773  0.49878883  1
  Fe  Fe64  1  0.49824403  0.49710934  0.50052177  1
  Fe  Fe65  1  0.62554140  0.37433241  0.12677859  1
  Fe  Fe66  1  0.12627501  0.12574906  0.12145437  1
  Fe  Fe67  1  0.37308092  0.37059246  0.62743837  1
  Fe  Fe68  1  0.12632576  0.37566819  0.12502844  1
  Fe  Fe69  1  0.12734723  0.87662793  0.37420129  1
  Fe  Fe70  1  0.87538968  0.62614127  0.87377942  1
  Fe  Fe71  1  0.12635841  0.87744623  0.62510466  1
  Fe  Fe72  1  0.50224185  0.75077152  0.75140793  1
  Fe  Fe73  1  0.24922920  0.49992038  0.74871218  1
  Fe  Fe74  1  0.75064052  0.50056823  0.50137087  1
  Fe  Fe75  1  0.62267306  0.87089314  0.12130269  1
  Fe  Fe76  1  0.25087025  0.75023794  0.50001147  1
  Fe  Fe77  1  0.87424370  0.12588876  0.87583292  1
  Fe  Fe78  1  0.49988606  0.24945668  0.50015367  1
  Fe  Fe79  1  -0.00012527  0.49915678  -0.00066723  1
  Fe  Fe80  1  0.87751953  0.62328639  0.12543490  1
  Fe  Fe81  1  0.62511152  0.87691869  0.62419442  1
  Fe  Fe82  1  0.00194090  0.24838907  0.75135369  1
  Fe  Fe83  1  0.25414127  0.49749027  -0.00019653  1
  Fe  Fe84  1  0.74593370  0.00143716  0.24698771  1
  Fe  Fe85  1  0.00011906  0.74915405  0.74920524  1
  Fe  Fe86  1  0.37822530  0.12469411  0.36991758  1
  Fe  Fe87  1  -0.00109884  0.25001246  0.49880277  1
  Fe  Fe88  1  -0.00056805  0.49915879  0.50048814  1
  Fe  Fe89  1  0.49772071  0.49542659  -0.00129266  1
  Co  Co90  1  -0.00042973  0.75129721  0.00067404  1
  Co  Co91  1  0.87170585  0.37664474  0.37463248  1
  Co  Co92  1  0.12481542  0.12608610  0.88329098  1
  Co  Co93  1  0.62608988  0.12272026  0.62198179  1
  Co  Co94  1  0.74830325  0.50257982  0.24741466  1
  Co  Co95  1  0.62347399  0.12608503  0.88006572  1
  Co  Co96  1  0.25241479  0.24522224  0.49779130  1
  Co  Co97  1  0.49736078  0.25695242  -0.00125172  1
  Co  Co98  1  0.87376621  0.87512438  0.12812697  1
  Co  Co99  1  0.37647058  0.37559458  0.13081871  1
  Co  Co100  1  0.24953711  0.74901200  0.74983224  1
  Co  Co101  1  0.37575922  0.87038990  0.12698971  1
  Co  Co102  1  0.61909376  0.62467298  0.12136888  1
  Co  Co103  1  0.49522633  0.75015842  -0.00387033  1
  Co  Co104  1  0.50160831  -0.00252530  0.24619540  1
  Co  Co105  1  0.75005390  0.24794153  0.24954944  1
  Co  Co106  1  0.25166398  0.50079803  0.50122082  1
  Co  Co107  1  0.00048384  0.49594446  0.24954368  1
  Co  Co108  1  0.87526723  0.62386131  0.62657810  1
  Co  Co109  1  0.37466673  0.37355968  0.86771048  1
  Co  Co110  1  0.62474947  0.37559133  0.62545679  1
  Co  Co111  1  0.87206054  0.37581818  0.12481088  1
  Co  Co112  1  0.24982795  0.74835901  0.25072728  1
  Co  Co113  1  0.62510099  0.87384332  0.87901739  1
  Co  Co114  1  0.49794375  -0.00058271  0.50031643  1
  Co  Co115  1  0.75233569  0.74854832  0.00278025  1
  Co  Co116  1  0.74681072  0.74915821  0.74930805  1
  Co  Co117  1  0.37739225  0.12694623  0.62751146  1
  Co  Co118  1  0.12269438  0.12469140  0.62173386  1
  Co  Co119  1  0.00240717  0.49889906  0.75051306  1
  Co  Co120  1  0.24600727  0.24466822  0.75111597  1
  Co  Co121  1  0.25499331  -0.00025315  0.00216187  1
  Co  Co122  1  0.37887801  0.13028879  0.12601535  1
  Co  Co123  1  0.62464130  0.62307297  0.37846207  1
  Co  Co124  1  0.62631370  0.87600768  0.37493353  1
  Co  Co125  1  0.24795216  0.24922372  0.24926115  1
  Co  Co126  1  0.50237054  0.25274155  0.25312577  1
  Co  Co127  1  0.74802350  0.24828056  0.75014565  1
