# generated using pymatgen
data_Fe45Co19
_symmetry_space_group_name_H-M   'P 1'
_cell_length_a   11.41581080
_cell_length_b   11.41514068
_cell_length_c   11.41598594
_cell_angle_alpha   90.00390592
_cell_angle_beta   90.00192880
_cell_angle_gamma   90.00511554
_symmetry_Int_Tables_number   1
_chemical_formula_structural   Fe45Co19
_chemical_formula_sum   'Fe90 Co38'
_cell_volume   1487.65235091
_cell_formula_units_Z   2
loop_
 _symmetry_equiv_pos_site_id
 _symmetry_equiv_pos_as_xyz
  1  'x, y, z'
loop_
 _atom_site_type_symbol
 _atom_site_label
 _atom_site_symmetry_multiplicity
 _atom_site_fract_x
 _atom_site_fract_y
 _atom_site_fract_z
 _atom_site_occupancy
  Fe  Fe0  1  0.74963429  0.50120380  0.24840754  1
  Fe  Fe1  1  0.62369567  0.37453358  0.62659206  1
  Fe  Fe2  1  0.25193762  0.50274313  -0.00301800  1
  Fe  Fe3  1  0.37518246  0.62583515  0.37458285  1
  Fe  Fe4  1  0.37622777  0.12685523  0.12339398  1
  Fe  Fe5  1  0.12770662  0.12384771  0.37438379  1
  Fe  Fe6  1  0.25407752  0.75070310  0.75363832  1
  Fe  Fe7  1  0.74988334  -0.00245171  0.50069641  1
  Fe  Fe8  1  0.37346810  0.62817614  0.62554157  1
  Fe  Fe9  1  0.62219910  0.12544431  0.12453800  1
  Fe  Fe10  1  0.87524948  0.37706008  0.87556396  1
  Fe  Fe11  1  0.37636643  0.37350797  0.12391029  1
  Fe  Fe12  1  0.00129928  0.75001833  0.24696493  1
  Fe  Fe13  1  0.62275778  0.87314062  0.37609389  1
  Fe  Fe14  1  0.00033650  0.24999828  0.75155047  1
  Fe  Fe15  1  0.12760652  0.12624527  0.62490858  1
  Fe  Fe16  1  0.25049295  0.24845997  -0.00278588  1
  Fe  Fe17  1  0.49981581  0.24852185  0.50055700  1
  Fe  Fe18  1  -0.00536917  0.74703275  0.75078277  1
  Fe  Fe19  1  0.62308027  0.62724884  0.37479929  1
  Fe  Fe20  1  0.37784467  0.37574564  0.87235083  1
  Fe  Fe21  1  0.61848896  0.37767299  0.87240699  1
  Fe  Fe22  1  -0.00029150  -0.00042398  0.75005572  1
  Fe  Fe23  1  0.87352806  0.12283746  0.87505744  1
  Fe  Fe24  1  0.61996888  0.87525856  0.87587730  1
  Fe  Fe25  1  0.12695693  0.87521190  0.87641349  1
  Fe  Fe26  1  0.12769313  0.37779006  0.87237562  1
  Fe  Fe27  1  0.12410329  0.12294431  0.87690594  1
  Fe  Fe28  1  0.00138466  0.24936942  -0.00092549  1
  Fe  Fe29  1  0.75071932  0.25018860  0.25008910  1
  Fe  Fe30  1  0.87547388  0.12477211  0.12209011  1
  Fe  Fe31  1  -0.00249039  0.74804528  0.50333808  1
  Fe  Fe32  1  0.00281744  0.25298215  0.49994481  1
  Fe  Fe33  1  0.62406769  0.12403787  0.37465734  1
  Fe  Fe34  1  0.87742305  0.37887954  0.37436913  1
  Fe  Fe35  1  0.62177424  0.62792905  0.12521944  1
  Fe  Fe36  1  0.87693827  0.87586123  0.87804521  1
  Fe  Fe37  1  0.74472543  0.50130922  -0.00230062  1
  Fe  Fe38  1  0.13000238  0.87629441  0.12169426  1
  Fe  Fe39  1  0.37392038  0.12222805  0.37814633  1
  Fe  Fe40  1  0.62177880  0.37296705  0.12603568  1
  Fe  Fe41  1  0.12858908  0.37615733  0.63034545  1
  Fe  Fe42  1  0.87534291  0.12371172  0.37631209  1
  Fe  Fe43  1  0.87755086  0.62281267  0.37592905  1
  Fe  Fe44  1  0.12388868  0.62305062  0.37453434  1
  Fe  Fe45  1  0.87644311  0.87520377  0.37506079  1
  Fe  Fe46  1  0.12660076  0.37549141  0.12504284  1
  Fe  Fe47  1  0.12580260  0.87265736  0.62790525  1
  Fe  Fe48  1  0.74781894  0.25035252  0.75253210  1
  Fe  Fe49  1  0.74911410  0.50162690  0.50051710  1
  Fe  Fe50  1  0.49821004  -0.00289614  0.24791918  1
  Fe  Fe51  1  0.00200601  -0.00084213  0.50236871  1
  Fe  Fe52  1  0.38091872  0.62587955  0.87508017  1
  Fe  Fe53  1  0.25077791  0.24925553  0.25116849  1
  Fe  Fe54  1  0.12862837  0.62583812  0.12406510  1
  Fe  Fe55  1  0.50057687  0.50338530  0.50399650  1
  Fe  Fe56  1  0.49949077  0.50072305  0.24853205  1
  Fe  Fe57  1  0.38004521  0.12244290  0.87545936  1
  Fe  Fe58  1  0.75062935  0.25079741  0.49925641  1
  Fe  Fe59  1  0.37337440  0.37265312  0.62808435  1
  Fe  Fe60  1  0.62298552  0.37536788  0.37455127  1
  Fe  Fe61  1  0.12555999  0.87554536  0.37443458  1
  Fe  Fe62  1  0.62631419  0.12503400  0.62576340  1
  Fe  Fe63  1  0.74625590  0.75033609  -0.00262945  1
  Fe  Fe64  1  0.24974502  0.50086652  0.25010876  1
  Fe  Fe65  1  -0.00013355  0.25045716  0.24869078  1
  Fe  Fe66  1  0.24920975  0.75117746  0.49910760  1
  Fe  Fe67  1  0.87458636  0.37667982  0.12273904  1
  Fe  Fe68  1  0.37622726  0.37640837  0.37584625  1
  Fe  Fe69  1  0.00228564  0.74966382  -0.00061461  1
  Fe  Fe70  1  0.75038558  -0.00189184  0.24791428  1
  Fe  Fe71  1  0.25113547  -0.00066742  0.75050277  1
  Fe  Fe72  1  0.75063469  0.75036177  0.25053927  1
  Fe  Fe73  1  0.37491871  0.62823883  0.12551772  1
  Fe  Fe74  1  0.74550151  0.24928561  -0.00290348  1
  Fe  Fe75  1  0.37203557  0.87197616  0.12124886  1
  Fe  Fe76  1  0.62445121  0.87007000  0.62247341  1
  Fe  Fe77  1  0.24858946  0.49864118  0.50077658  1
  Fe  Fe78  1  0.00214080  0.50242620  -0.00208943  1
  Fe  Fe79  1  0.00077440  -0.00081325  0.24550785  1
  Fe  Fe80  1  0.87484709  0.37795135  0.62654746  1
  Fe  Fe81  1  0.12601695  0.62431837  0.62901756  1
  Fe  Fe82  1  0.74826183  -0.00130573  0.00158138  1
  Fe  Fe83  1  0.87398810  0.62590871  0.12172051  1
  Fe  Fe84  1  0.62980559  0.62982238  0.63041206  1
  Fe  Fe85  1  0.37259995  0.12430685  0.62280344  1
  Fe  Fe86  1  0.75017928  -0.00377771  0.74892834  1
  Fe  Fe87  1  0.37518276  0.87481588  0.37902022  1
  Fe  Fe88  1  0.49870486  -0.00298641  0.74656329  1
  Fe  Fe89  1  0.87436976  0.12444380  0.62563035  1
  Co  Co90  1  0.50033756  0.24699205  0.74943879  1
  Co  Co91  1  0.49773018  0.75292215  0.74961113  1
  Co  Co92  1  0.87389901  0.87284922  0.12344044  1
  Co  Co93  1  0.49786510  0.75222689  0.25015254  1
  Co  Co94  1  0.74936680  0.49777192  0.75332988  1
  Co  Co95  1  0.25375911  0.50360680  0.75240564  1
  Co  Co96  1  -0.00182926  0.50212526  0.75114442  1
  Co  Co97  1  0.75311645  0.75018788  0.49819527  1
  Co  Co98  1  0.50187169  0.24991338  -0.00347151  1
  Co  Co99  1  0.62537441  0.87296133  0.12606815  1
  Co  Co100  1  0.62338622  0.11959243  0.87389282  1
  Co  Co101  1  0.00074072  -0.00099011  0.00171252  1
  Co  Co102  1  0.24969499  0.75107537  0.25235310  1
  Co  Co103  1  0.24703438  -0.00334180  0.50214510  1
  Co  Co104  1  0.87585681  0.87556850  0.62389078  1
  Co  Co105  1  0.87209666  0.62462907  0.87663537  1
  Co  Co106  1  0.00002187  0.50242824  0.24538124  1
  Co  Co107  1  0.49882751  0.24907269  0.25231098  1
  Co  Co108  1  0.49992481  -0.00223293  0.00348199  1
  Co  Co109  1  0.50117547  0.75066291  0.00007520  1
  Co  Co110  1  0.24894612  0.25263847  0.49813002  1
  Co  Co111  1  0.25257081  -0.00072285  0.24860742  1
  Co  Co112  1  0.37352641  0.87416670  0.62268268  1
  Co  Co113  1  0.12415372  0.37737729  0.37130957  1
  Co  Co114  1  0.12550732  0.12517919  0.12462561  1
  Co  Co115  1  0.49976860  0.50112227  0.00197897  1
  Co  Co116  1  0.75263632  0.75452217  0.75386711  1
  Co  Co117  1  0.25082539  0.74657472  -0.00449390  1
  Co  Co118  1  0.00253620  0.49991670  0.50503455  1
  Co  Co119  1  0.37476497  0.87638811  0.87775839  1
  Co  Co120  1  0.49918950  0.50285372  0.74498105  1
  Co  Co121  1  0.25143610  0.00331178  -0.00087961  1
  Co  Co122  1  0.62205147  0.62589233  0.87108655  1
  Co  Co123  1  0.50133470  -0.00026157  0.50225103  1
  Co  Co124  1  0.49923167  0.74706665  0.50121501  1
  Co  Co125  1  0.86986278  0.62304316  0.62738114  1
  Co  Co126  1  0.12446795  0.62603160  0.87177675  1
  Co  Co127  1  0.25109525  0.24589081  0.75372588  1
