# generated using pymatgen
data_Fe45Co19
_symmetry_space_group_name_H-M   'P 1'
_cell_length_a   11.41549212
_cell_length_b   11.41599027
_cell_length_c   11.41491104
_cell_angle_alpha   90.00215613
_cell_angle_beta   90.00270428
_cell_angle_gamma   89.99773315
_symmetry_Int_Tables_number   1
_chemical_formula_structural   Fe45Co19
_chemical_formula_sum   'Fe90 Co38'
_cell_volume   1487.58146706
_cell_formula_units_Z   2
loop_
 _symmetry_equiv_pos_site_id
 _symmetry_equiv_pos_as_xyz
  1  'x, y, z'
loop_
 _atom_site_type_symbol
 _atom_site_label
 _atom_site_symmetry_multiplicity
 _atom_site_fract_x
 _atom_site_fract_y
 _atom_site_fract_z
 _atom_site_occupancy
  Fe  Fe0  1  0.37445461  0.12463126  0.87561882  1
  Fe  Fe1  1  0.74723753  0.25386172  0.49903150  1
  Fe  Fe2  1  0.12585367  0.12722277  0.37446548  1
  Fe  Fe3  1  0.74970083  -0.00095393  0.75162057  1
  Fe  Fe4  1  0.25141003  0.74670846  0.49842437  1
  Fe  Fe5  1  0.74591064  0.49899649  0.50336720  1
  Fe  Fe6  1  0.12600251  0.12332292  0.62456525  1
  Fe  Fe7  1  0.75045538  0.74752249  0.49801146  1
  Fe  Fe8  1  0.24855293  -0.00169650  -0.00298659  1
  Fe  Fe9  1  0.37805046  0.37627527  0.38154645  1
  Fe  Fe10  1  0.62737996  0.87511464  0.12741171  1
  Fe  Fe11  1  0.75018023  0.74966021  0.00030103  1
  Fe  Fe12  1  0.62338052  0.37505319  0.87442650  1
  Fe  Fe13  1  0.00155119  0.25009471  0.74936229  1
  Fe  Fe14  1  0.87687929  0.12719081  0.37299563  1
  Fe  Fe15  1  0.12721600  0.62446293  0.12514819  1
  Fe  Fe16  1  0.37309645  0.62573835  0.87542469  1
  Fe  Fe17  1  0.12794074  0.12854268  0.12793855  1
  Fe  Fe18  1  0.25181849  0.74792819  0.24912123  1
  Fe  Fe19  1  0.62499432  0.12752357  0.12637503  1
  Fe  Fe20  1  0.50081695  0.00090317  0.74983723  1
  Fe  Fe21  1  0.24906948  0.75269661  0.75489767  1
  Fe  Fe22  1  0.24814612  -0.00237849  0.75303781  1
  Fe  Fe23  1  0.74917849  -0.00075458  0.49572120  1
  Fe  Fe24  1  0.49983350  0.50232369  0.74730344  1
  Fe  Fe25  1  0.37580470  0.87321072  0.37581874  1
  Fe  Fe26  1  0.12499949  0.62282708  0.37324112  1
  Fe  Fe27  1  0.74970435  0.00169856  0.00112324  1
  Fe  Fe28  1  0.87619428  0.37686292  0.62283239  1
  Fe  Fe29  1  0.49993235  0.74941210  0.24818797  1
  Fe  Fe30  1  0.37595157  0.37663439  0.62143200  1
  Fe  Fe31  1  0.12438267  0.87301912  0.37396866  1
  Fe  Fe32  1  0.87581248  0.12689594  0.12913505  1
  Fe  Fe33  1  0.62701570  0.12616068  0.62588963  1
  Fe  Fe34  1  0.37392901  0.87478869  0.62483602  1
  Fe  Fe35  1  0.62387079  0.87549624  0.87585120  1
  Fe  Fe36  1  0.87495914  0.87331396  0.36989479  1
  Fe  Fe37  1  -0.00060543  0.50159888  0.74973059  1
  Fe  Fe38  1  0.49666632  0.25348903  0.24868543  1
  Fe  Fe39  1  0.87488742  0.87490890  0.62428040  1
  Fe  Fe40  1  0.12491368  0.37628984  0.37661245  1
  Fe  Fe41  1  0.75044885  0.25248240  0.75067416  1
  Fe  Fe42  1  0.87387361  0.62371339  0.87320184  1
  Fe  Fe43  1  0.00112810  0.00153862  0.00280440  1
  Fe  Fe44  1  0.49894713  0.74464629  0.50235521  1
  Fe  Fe45  1  0.87449265  0.87382821  0.12970588  1
  Fe  Fe46  1  0.87725650  0.12423916  0.87376746  1
  Fe  Fe47  1  0.24831004  0.25251865  0.75219511  1
  Fe  Fe48  1  0.37399470  0.87312713  0.12276348  1
  Fe  Fe49  1  -0.00098867  0.74814285  0.74924302  1
  Fe  Fe50  1  0.87613490  0.62066810  0.37502584  1
  Fe  Fe51  1  0.24968658  0.50043488  -0.00240929  1
  Fe  Fe52  1  0.49935501  0.25095959  0.00081835  1
  Fe  Fe53  1  0.00160065  0.25214837  0.49981573  1
  Fe  Fe54  1  0.62589595  0.87296065  0.62311659  1
  Fe  Fe55  1  0.00313876  0.24950302  -0.00019243  1
  Fe  Fe56  1  0.74912846  0.25040511  -0.00103676  1
  Fe  Fe57  1  0.87403439  0.12496560  0.62402148  1
  Fe  Fe58  1  0.50016069  -0.00070901  0.25077859  1
  Fe  Fe59  1  0.12926511  0.62300683  0.62737567  1
  Fe  Fe60  1  0.37600742  0.37565632  0.87659850  1
  Fe  Fe61  1  0.12686647  0.37902383  0.62450368  1
  Fe  Fe62  1  0.75077245  0.49626626  0.24821339  1
  Fe  Fe63  1  0.62274172  0.62267428  0.37349818  1
  Fe  Fe64  1  0.75080801  0.25580236  0.25084579  1
  Fe  Fe65  1  0.25375396  0.49804359  0.25052764  1
  Fe  Fe66  1  -0.00077537  0.74540046  0.50021504  1
  Fe  Fe67  1  0.24967262  -0.00025526  0.25180807  1
  Fe  Fe68  1  0.87470505  0.62448619  0.12602759  1
  Fe  Fe69  1  0.49693551  0.49734600  0.24665321  1
  Fe  Fe70  1  0.50090751  0.00114867  0.00074983  1
  Fe  Fe71  1  0.37159851  0.12723903  0.12444435  1
  Fe  Fe72  1  0.00127629  0.74655704  0.00021368  1
  Fe  Fe73  1  0.50001626  0.00069987  0.49962620  1
  Fe  Fe74  1  0.12710592  0.37353289  0.12368520  1
  Fe  Fe75  1  0.87892288  0.37627891  0.87753687  1
  Fe  Fe76  1  0.87834753  0.87641841  0.87511953  1
  Fe  Fe77  1  0.37250809  0.12659429  0.37779025  1
  Fe  Fe78  1  0.00015245  -0.00085263  0.49800808  1
  Fe  Fe79  1  0.74953305  0.49877649  -0.00061580  1
  Fe  Fe80  1  0.62833015  0.62448062  0.87134181  1
  Fe  Fe81  1  0.62375439  0.62216252  0.12466104  1
  Fe  Fe82  1  0.12482602  0.87276506  0.12527886  1
  Fe  Fe83  1  0.62425843  0.12708492  0.37327242  1
  Fe  Fe84  1  -0.00179224  0.49602943  0.24764429  1
  Fe  Fe85  1  0.49977520  0.74924929  0.74947377  1
  Fe  Fe86  1  0.49919602  0.24837202  0.74874023  1
  Fe  Fe87  1  0.12458592  0.87514727  0.62443123  1
  Fe  Fe88  1  0.37152356  0.12468627  0.62316796  1
  Fe  Fe89  1  0.49968182  0.74782361  -0.00010087  1
  Co  Co90  1  0.37392196  0.62443445  0.12292890  1
  Co  Co91  1  0.37725494  0.62423521  0.37233630  1
  Co  Co92  1  0.62451016  0.12652758  0.87494619  1
  Co  Co93  1  0.37793015  0.87524985  0.87613198  1
  Co  Co94  1  0.50045725  0.50148706  -0.00239363  1
  Co  Co95  1  0.87160945  0.62371389  0.62664288  1
  Co  Co96  1  0.24884246  0.74991337  -0.00239533  1
  Co  Co97  1  0.74899503  0.00087862  0.25096313  1
  Co  Co98  1  0.75224677  0.75484501  0.75186410  1
  Co  Co99  1  0.11952647  0.87515190  0.87564192  1
  Co  Co100  1  -0.00037160  0.00077486  0.74689957  1
  Co  Co101  1  0.50089891  0.50687317  0.50639141  1
  Co  Co102  1  0.25198863  0.50276343  0.49828824  1
  Co  Co103  1  0.74850527  0.74609773  0.25025507  1
  Co  Co104  1  0.63032710  0.62729568  0.62979003  1
  Co  Co105  1  0.25352684  0.25379948  0.25284689  1
  Co  Co106  1  0.62344035  0.87197406  0.37550130  1
  Co  Co107  1  0.00218505  0.50272809  0.50252903  1
  Co  Co108  1  0.00081264  0.50261060  0.00206630  1
  Co  Co109  1  0.00034421  0.74698692  0.24989976  1
  Co  Co110  1  0.75092564  0.49457540  0.74959210  1
  Co  Co111  1  0.12167696  0.37744412  0.87591505  1
  Co  Co112  1  0.62418806  0.37517559  0.12335132  1
  Co  Co113  1  0.00227013  0.00067273  0.25038625  1
  Co  Co114  1  0.87566020  0.37337460  0.12081257  1
  Co  Co115  1  0.24915983  -0.00171261  0.49861075  1
  Co  Co116  1  0.62079531  0.37737770  0.37590632  1
  Co  Co117  1  0.12379039  0.12404427  0.87357623  1
  Co  Co118  1  0.36903332  0.62534732  0.62887549  1
  Co  Co119  1  -0.00016223  0.25456767  0.25112736  1
  Co  Co120  1  0.24905702  0.25114254  -0.00467574  1
  Co  Co121  1  0.25187677  0.49630920  0.75236252  1
  Co  Co122  1  0.50156032  0.24688522  0.50138433  1
  Co  Co123  1  0.12591030  0.62315350  0.87338228  1
  Co  Co124  1  0.37299671  0.37563873  0.12000736  1
  Co  Co125  1  0.87554057  0.37757367  0.37906334  1
  Co  Co126  1  0.24802157  0.25225946  0.50142921  1
  Co  Co127  1  0.62135927  0.37401441  0.62588849  1
