# generated using pymatgen
data_Fe45Co19
_symmetry_space_group_name_H-M   'P 1'
_cell_length_a   11.41526285
_cell_length_b   11.41511074
_cell_length_c   11.41520119
_cell_angle_alpha   89.99793441
_cell_angle_beta   89.98674764
_cell_angle_gamma   89.99940810
_symmetry_Int_Tables_number   1
_chemical_formula_structural   Fe45Co19
_chemical_formula_sum   'Fe90 Co38'
_cell_volume   1487.47475451
_cell_formula_units_Z   2
loop_
 _symmetry_equiv_pos_site_id
 _symmetry_equiv_pos_as_xyz
  1  'x, y, z'
loop_
 _atom_site_type_symbol
 _atom_site_label
 _atom_site_symmetry_multiplicity
 _atom_site_fract_x
 _atom_site_fract_y
 _atom_site_fract_z
 _atom_site_occupancy
  Fe  Fe0  1  0.37387627  0.87338814  0.37585304  1
  Fe  Fe1  1  0.25213613  0.74996309  0.00055496  1
  Fe  Fe2  1  -0.00036029  0.24981054  -0.00012035  1
  Fe  Fe3  1  0.37690405  0.12516858  0.37437427  1
  Fe  Fe4  1  0.12824675  0.37188849  0.87312788  1
  Fe  Fe5  1  0.37588858  0.87677515  0.87356946  1
  Fe  Fe6  1  0.87458093  0.12453763  0.37495653  1
  Fe  Fe7  1  0.12523956  0.62486456  0.87586876  1
  Fe  Fe8  1  0.12324250  0.37400861  0.62523161  1
  Fe  Fe9  1  0.50084848  0.25126847  0.49986481  1
  Fe  Fe10  1  0.62370983  0.37981467  0.37798908  1
  Fe  Fe11  1  0.74904993  0.25208822  0.25044439  1
  Fe  Fe12  1  0.87343070  0.87566265  0.87536486  1
  Fe  Fe13  1  0.74974751  0.25365981  0.74673514  1
  Fe  Fe14  1  0.74793560  0.00124172  0.50021913  1
  Fe  Fe15  1  0.62558160  0.62339068  0.87751702  1
  Fe  Fe16  1  0.12384806  0.62542344  0.12580085  1
  Fe  Fe17  1  0.75136377  0.49936195  0.50133793  1
  Fe  Fe18  1  0.75136696  0.74771066  0.49783745  1
  Fe  Fe19  1  0.74890558  0.49777982  0.74932421  1
  Fe  Fe20  1  0.49744090  0.74920569  -0.00024673  1
  Fe  Fe21  1  0.25040447  0.00046435  0.74915777  1
  Fe  Fe22  1  0.87454478  0.37422358  0.37424968  1
  Fe  Fe23  1  0.50114716  0.74516874  0.25145938  1
  Fe  Fe24  1  0.25082305  0.74799824  0.25035048  1
  Fe  Fe25  1  0.49622512  0.25356528  -0.00228347  1
  Fe  Fe26  1  0.00102727  0.49878377  0.75196451  1
  Fe  Fe27  1  0.49820491  0.74838882  0.49959488  1
  Fe  Fe28  1  -0.00019863  -0.00086820  0.24979914  1
  Fe  Fe29  1  0.74824046  0.75140745  0.75152576  1
  Fe  Fe30  1  0.49993020  -0.00087613  0.25109634  1
  Fe  Fe31  1  0.38012864  0.12077626  0.62601269  1
  Fe  Fe32  1  0.62413745  0.12553255  0.87357329  1
  Fe  Fe33  1  0.74478727  -0.00275597  0.74830059  1
  Fe  Fe34  1  -0.00107366  0.00126674  0.00075297  1
  Fe  Fe35  1  0.62278759  0.37687701  0.12306201  1
  Fe  Fe36  1  0.87605905  0.62750959  0.36933333  1
  Fe  Fe37  1  0.87268277  0.12469871  0.87323672  1
  Fe  Fe38  1  0.25145669  0.25019326  0.50053666  1
  Fe  Fe39  1  -0.00039559  0.74933319  0.75132743  1
  Fe  Fe40  1  0.62516771  0.62390790  0.12120830  1
  Fe  Fe41  1  0.25064569  0.24862813  0.25019267  1
  Fe  Fe42  1  0.12408345  0.12517033  0.37449382  1
  Fe  Fe43  1  0.50119204  0.49883930  0.75071269  1
  Fe  Fe44  1  0.62503256  0.12610461  0.37596474  1
  Fe  Fe45  1  0.24857192  0.50115281  0.74835474  1
  Fe  Fe46  1  -0.00068493  0.25075653  0.49827241  1
  Fe  Fe47  1  0.12350562  0.12757432  0.62572398  1
  Fe  Fe48  1  0.49799885  0.00069171  0.00019887  1
  Fe  Fe49  1  0.37378897  0.62685288  0.62438791  1
  Fe  Fe50  1  0.25141738  0.49889881  0.00162523  1
  Fe  Fe51  1  0.50178379  0.75335356  0.74920048  1
  Fe  Fe52  1  0.25356077  0.00254395  0.00257245  1
  Fe  Fe53  1  0.62576044  0.62432267  0.62354457  1
  Fe  Fe54  1  0.25117702  0.00028093  0.50031513  1
  Fe  Fe55  1  0.62246232  0.12606661  0.12543973  1
  Fe  Fe56  1  0.37523180  0.37711148  0.62497913  1
  Fe  Fe57  1  -0.00114920  0.74880838  0.00083689  1
  Fe  Fe58  1  0.12487352  0.37172978  0.12696231  1
  Fe  Fe59  1  0.87551470  0.12726650  0.12740143  1
  Fe  Fe60  1  0.25466637  0.24838183  0.00177659  1
  Fe  Fe61  1  0.12662949  0.12675223  0.87420825  1
  Fe  Fe62  1  0.87401509  0.37604915  0.87703331  1
  Fe  Fe63  1  0.74900691  0.50116331  0.24732486  1
  Fe  Fe64  1  0.25152110  0.00211530  0.24810215  1
  Fe  Fe65  1  0.12556323  0.87346511  0.62405023  1
  Fe  Fe66  1  0.87249678  0.87116450  0.12692586  1
  Fe  Fe67  1  0.37575223  0.37907711  0.37449427  1
  Fe  Fe68  1  -0.00010808  0.00096318  0.74905763  1
  Fe  Fe69  1  0.12486945  0.87549729  0.37624105  1
  Fe  Fe70  1  0.62396941  0.87339646  0.12356169  1
  Fe  Fe71  1  0.87446533  0.62252818  0.87831515  1
  Fe  Fe72  1  0.00179640  0.74859457  0.49836393  1
  Fe  Fe73  1  0.00159820  0.50143247  0.49784564  1
  Fe  Fe74  1  0.12693738  0.87625127  0.12389920  1
  Fe  Fe75  1  0.74933934  -0.00012835  0.00153841  1
  Fe  Fe76  1  0.87640548  0.62371535  0.62656594  1
  Fe  Fe77  1  0.49855118  0.25248827  0.75113769  1
  Fe  Fe78  1  0.62605187  0.87311554  0.37659123  1
  Fe  Fe79  1  0.25169892  0.50118943  0.25041737  1
  Fe  Fe80  1  0.74968227  0.25098714  0.00152119  1
  Fe  Fe81  1  0.87462846  0.87465127  0.62287872  1
  Fe  Fe82  1  0.12500032  0.87596268  0.87606992  1
  Fe  Fe83  1  0.87383494  0.12656830  0.62389385  1
  Fe  Fe84  1  0.24777246  0.50317791  0.49963318  1
  Fe  Fe85  1  0.74901980  -0.00147854  0.25047213  1
  Fe  Fe86  1  -0.00009362  0.49790457  0.24765764  1
  Fe  Fe87  1  0.50043628  0.25291849  0.25122015  1
  Fe  Fe88  1  0.37440248  0.62313119  0.87498230  1
  Fe  Fe89  1  0.24960011  0.75055949  0.74921272  1
  Co  Co90  1  0.50088738  -0.00079298  0.49754242  1
  Co  Co91  1  0.75184339  0.74902681  -0.00044458  1
  Co  Co92  1  0.37876848  0.12654045  0.12782646  1
  Co  Co93  1  0.00219230  0.49842710  0.00120471  1
  Co  Co94  1  0.37560222  0.37585063  0.12840987  1
  Co  Co95  1  0.62642743  0.37505201  0.87568377  1
  Co  Co96  1  0.62502612  0.62120417  0.37907283  1
  Co  Co97  1  0.49816673  0.50144008  0.50260414  1
  Co  Co98  1  0.49710462  0.49735937  -0.00203940  1
  Co  Co99  1  0.87787846  0.37632121  0.62345588  1
  Co  Co100  1  0.25400359  0.24822992  0.74632060  1
  Co  Co101  1  0.74563329  0.74820654  0.25072379  1
  Co  Co102  1  0.50490637  -0.00473998  0.74955844  1
  Co  Co103  1  -0.00229449  0.25054925  0.75120359  1
  Co  Co104  1  0.24796564  0.74721295  0.49899399  1
  Co  Co105  1  0.62503054  0.87439127  0.87996116  1
  Co  Co106  1  0.37488585  0.62318597  0.37627162  1
  Co  Co107  1  0.12319700  0.62527282  0.62680371  1
  Co  Co108  1  0.37444148  0.87542847  0.62373718  1
  Co  Co109  1  0.87577721  0.37336291  0.12478424  1
  Co  Co110  1  0.00059051  0.00063947  0.50100006  1
  Co  Co111  1  0.87538138  0.62637285  0.12658832  1
  Co  Co112  1  0.12367944  0.62495075  0.37113690  1
  Co  Co113  1  0.37614535  0.87374294  0.12735466  1
  Co  Co114  1  0.62309277  0.12735135  0.62564229  1
  Co  Co115  1  0.37099552  0.37715434  0.87279461  1
  Co  Co116  1  0.37646088  0.12277299  0.87251818  1
  Co  Co117  1  0.12390618  0.12626066  0.12540956  1
  Co  Co118  1  0.87468588  0.87445845  0.37623502  1
  Co  Co119  1  0.37506493  0.62395298  0.12402214  1
  Co  Co120  1  0.62565842  0.87240085  0.62010086  1
  Co  Co121  1  0.50116689  0.50381599  0.24890165  1
  Co  Co122  1  0.74922856  0.25158585  0.49944198  1
  Co  Co123  1  -0.00070321  0.24986217  0.25246486  1
  Co  Co124  1  0.75097858  0.49891662  0.00210503  1
  Co  Co125  1  0.00196886  0.75364721  0.24893226  1
  Co  Co126  1  0.62413364  0.37558456  0.62309879  1
  Co  Co127  1  0.12677538  0.37464527  0.37454420  1
