# generated using pymatgen
data_Fe45Co19
_symmetry_space_group_name_H-M   'P 1'
_cell_length_a   11.41568785
_cell_length_b   11.41399391
_cell_length_c   11.41630997
_cell_angle_alpha   90.00061221
_cell_angle_beta   89.99917371
_cell_angle_gamma   90.01155463
_symmetry_Int_Tables_number   1
_chemical_formula_structural   Fe45Co19
_chemical_formula_sum   'Fe90 Co38'
_cell_volume   1487.52908049
_cell_formula_units_Z   2
loop_
 _symmetry_equiv_pos_site_id
 _symmetry_equiv_pos_as_xyz
  1  'x, y, z'
loop_
 _atom_site_type_symbol
 _atom_site_label
 _atom_site_symmetry_multiplicity
 _atom_site_fract_x
 _atom_site_fract_y
 _atom_site_fract_z
 _atom_site_occupancy
  Fe  Fe0  1  0.12644499  0.62566134  0.62227612  1
  Fe  Fe1  1  0.24864275  0.25018899  0.50137531  1
  Fe  Fe2  1  0.87262610  0.12438638  0.37665749  1
  Fe  Fe3  1  0.62457411  0.37516921  0.37355981  1
  Fe  Fe4  1  0.87415684  0.62646978  0.87546586  1
  Fe  Fe5  1  0.37286867  0.62639226  0.37410566  1
  Fe  Fe6  1  0.49681023  0.24864653  -0.00162615  1
  Fe  Fe7  1  0.12563038  0.62508548  0.37721160  1
  Fe  Fe8  1  0.37308736  0.37285654  0.12519396  1
  Fe  Fe9  1  0.25157846  0.75665646  0.49675799  1
  Fe  Fe10  1  0.75095752  0.75008233  0.00133244  1
  Fe  Fe11  1  0.12461174  0.37485711  0.12570492  1
  Fe  Fe12  1  0.62823464  0.12340311  0.37549656  1
  Fe  Fe13  1  0.75228607  0.49804721  0.00300490  1
  Fe  Fe14  1  0.49876720  -0.00060215  -0.00114628  1
  Fe  Fe15  1  0.87364780  0.87604809  0.37434975  1
  Fe  Fe16  1  0.87734108  0.37387797  0.87496287  1
  Fe  Fe17  1  0.49727460  0.49927193  0.00120162  1
  Fe  Fe18  1  0.12883099  0.37586787  0.87323244  1
  Fe  Fe19  1  -0.00208313  0.00008624  0.50247172  1
  Fe  Fe20  1  -0.00244983  -0.00656486  -0.00584233  1
  Fe  Fe21  1  0.62449960  0.87831256  0.37532905  1
  Fe  Fe22  1  0.87466718  0.62513024  0.62603016  1
  Fe  Fe23  1  0.12629526  0.12117618  0.37727800  1
  Fe  Fe24  1  0.87518931  0.87519263  0.62863542  1
  Fe  Fe25  1  0.37266662  0.12419020  0.62383930  1
  Fe  Fe26  1  0.37352318  0.37447075  0.37445619  1
  Fe  Fe27  1  0.00469257  0.24942311  -0.00087188  1
  Fe  Fe28  1  0.87767485  0.12630920  0.12271906  1
  Fe  Fe29  1  0.50010972  0.24831740  0.50031184  1
  Fe  Fe30  1  -0.00164584  0.75010294  0.50074582  1
  Fe  Fe31  1  0.75324545  0.00295512  0.74999618  1
  Fe  Fe32  1  0.24714589  0.24801212  0.24876685  1
  Fe  Fe33  1  0.25168444  -0.00038709  0.74768795  1
  Fe  Fe34  1  0.50005641  0.50456658  0.75112435  1
  Fe  Fe35  1  0.12809888  0.62881532  0.87825624  1
  Fe  Fe36  1  0.12627860  0.37731844  0.62533881  1
  Fe  Fe37  1  0.62541190  0.62433275  0.12449736  1
  Fe  Fe38  1  0.49889175  0.49945496  0.24840584  1
  Fe  Fe39  1  0.74460046  0.74607480  0.74937624  1
  Fe  Fe40  1  0.37231791  0.12279790  0.12431243  1
  Fe  Fe41  1  0.74858672  0.50116009  0.75098041  1
  Fe  Fe42  1  0.25182235  0.75167064  0.74994603  1
  Fe  Fe43  1  0.00093945  0.24989238  0.49931717  1
  Fe  Fe44  1  0.87733507  0.37473627  0.62630567  1
  Fe  Fe45  1  0.62319006  0.37468463  0.87414350  1
  Fe  Fe46  1  0.00290488  0.50321252  0.75024072  1
  Fe  Fe47  1  0.24919183  0.50141078  0.24858319  1
  Fe  Fe48  1  0.62045486  0.87346627  0.62536383  1
  Fe  Fe49  1  0.25259116  -0.00736524  -0.00080912  1
  Fe  Fe50  1  0.75267751  0.49869323  0.50073859  1
  Fe  Fe51  1  0.50160608  0.00186269  0.24948123  1
  Fe  Fe52  1  0.12750209  0.12121075  0.87445610  1
  Fe  Fe53  1  0.49855692  0.00273359  0.75024133  1
  Fe  Fe54  1  0.37248602  0.12171163  0.37628060  1
  Fe  Fe55  1  0.12682506  0.63114174  0.12227503  1
  Fe  Fe56  1  0.74997739  0.25138125  -0.00080026  1
  Fe  Fe57  1  0.62723381  0.62258642  0.37532993  1
  Fe  Fe58  1  0.37122393  0.62998914  0.12550448  1
  Fe  Fe59  1  -0.00108024  0.00001481  0.25024685  1
  Fe  Fe60  1  0.62512549  0.87512553  0.12604431  1
  Fe  Fe61  1  0.62522940  0.12723331  0.87337859  1
  Fe  Fe62  1  0.75230565  0.25132881  0.24741359  1
  Fe  Fe63  1  0.87414628  0.62458075  0.37435268  1
  Fe  Fe64  1  0.12318713  0.87722700  0.62629724  1
  Fe  Fe65  1  0.62698798  0.12690781  0.62642522  1
  Fe  Fe66  1  0.37606072  0.62844046  0.62290769  1
  Fe  Fe67  1  0.74847083  0.75170194  0.49974370  1
  Fe  Fe68  1  0.12503569  0.12039810  0.12354299  1
  Fe  Fe69  1  0.37385962  0.37549327  0.62758734  1
  Fe  Fe70  1  0.00091759  0.75060884  0.75283010  1
  Fe  Fe71  1  0.87519703  0.87281605  0.12627604  1
  Fe  Fe72  1  0.37072581  0.37368789  0.87305594  1
  Fe  Fe73  1  0.37263852  0.62696774  0.87759104  1
  Fe  Fe74  1  -0.00137253  0.50051090  0.24924625  1
  Fe  Fe75  1  0.24849648  -0.00786961  0.25147467  1
  Fe  Fe76  1  0.75269387  0.49693845  0.24588123  1
  Fe  Fe77  1  0.49773557  0.50077159  0.49915344  1
  Fe  Fe78  1  0.62499849  0.12695503  0.12428835  1
  Fe  Fe79  1  0.75087592  0.00026848  -0.00006954  1
  Fe  Fe80  1  0.75028666  0.25187618  0.50175335  1
  Fe  Fe81  1  0.62527532  0.87481144  0.87350994  1
  Fe  Fe82  1  0.00123578  0.24519876  0.74931134  1
  Fe  Fe83  1  0.62310012  0.37575949  0.62755037  1
  Fe  Fe84  1  0.12482299  0.37753032  0.37591889  1
  Fe  Fe85  1  0.00089754  0.75020166  0.25058539  1
  Fe  Fe86  1  0.49899479  0.24825811  0.25052140  1
  Fe  Fe87  1  0.00075617  0.50249846  0.00047991  1
  Fe  Fe88  1  0.50158243  0.74990133  0.25203601  1
  Fe  Fe89  1  0.49918409  0.75242638  -0.00167573  1
  Co  Co90  1  0.12211025  0.87277367  0.12366159  1
  Co  Co91  1  0.11969767  0.87645069  0.37752490  1
  Co  Co92  1  0.00272436  0.24715597  0.25183306  1
  Co  Co93  1  0.25001209  0.50410099  0.74968661  1
  Co  Co94  1  0.38069730  0.87824714  0.37562345  1
  Co  Co95  1  0.37796626  0.87475950  0.86999036  1
  Co  Co96  1  -0.00207873  0.75324711  -0.00369214  1
  Co  Co97  1  0.24843104  0.24944287  0.00072933  1
  Co  Co98  1  0.86974280  0.87164628  0.87069271  1
  Co  Co99  1  -0.00327347  0.00176699  0.75231897  1
  Co  Co100  1  0.12482905  0.12133042  0.62329425  1
  Co  Co101  1  0.87504211  0.12584290  0.62319852  1
  Co  Co102  1  0.37213622  0.12419654  0.87612535  1
  Co  Co103  1  0.74955296  -0.00279330  0.50326467  1
  Co  Co104  1  0.50157475  0.74892248  0.49640546  1
  Co  Co105  1  0.88018907  0.37129026  0.12367343  1
  Co  Co106  1  0.24828929  0.24723946  0.74893657  1
  Co  Co107  1  0.75076457  0.00068245  0.24682788  1
  Co  Co108  1  0.62422214  0.62312703  0.62068654  1
  Co  Co109  1  0.24953160  0.49908680  0.00129329  1
  Co  Co110  1  -0.00117947  0.50129567  0.50096645  1
  Co  Co111  1  0.87621534  0.62786398  0.12500201  1
  Co  Co112  1  0.87574293  0.12728807  0.87727806  1
  Co  Co113  1  0.25228577  0.75788985  -0.00006655  1
  Co  Co114  1  0.12694912  0.87521780  0.87165207  1
  Co  Co115  1  0.74874541  0.75105061  0.25092268  1
  Co  Co116  1  0.87666229  0.37417280  0.37423107  1
  Co  Co117  1  0.62594518  0.62341136  0.88085866  1
  Co  Co118  1  0.75229997  0.25044861  0.75057159  1
  Co  Co119  1  0.25089742  -0.00554510  0.50099019  1
  Co  Co120  1  0.24805631  0.75550468  0.25403430  1
  Co  Co121  1  0.25130522  0.50043869  0.50077505  1
  Co  Co122  1  0.50145056  0.00367853  0.50174562  1
  Co  Co123  1  0.49724390  0.24833211  0.75009543  1
  Co  Co124  1  0.37780114  0.87396743  0.12836266  1
  Co  Co125  1  0.37988551  0.87312907  0.62587866  1
  Co  Co126  1  0.50284245  0.74459086  0.75282508  1
  Co  Co127  1  0.62197049  0.37354679  0.12458380  1
