# generated using pymatgen
data_Fe45Co19
_symmetry_space_group_name_H-M   'P 1'
_cell_length_a   11.41609835
_cell_length_b   11.41499214
_cell_length_c   11.41702584
_cell_angle_alpha   89.99672431
_cell_angle_beta   90.00257223
_cell_angle_gamma   90.01616768
_symmetry_Int_Tables_number   1
_chemical_formula_structural   Fe45Co19
_chemical_formula_sum   'Fe90 Co38'
_cell_volume   1487.80592526
_cell_formula_units_Z   2
loop_
 _symmetry_equiv_pos_site_id
 _symmetry_equiv_pos_as_xyz
  1  'x, y, z'
loop_
 _atom_site_type_symbol
 _atom_site_label
 _atom_site_symmetry_multiplicity
 _atom_site_fract_x
 _atom_site_fract_y
 _atom_site_fract_z
 _atom_site_occupancy
  Fe  Fe0  1  0.24717698  0.25046919  -0.00013468  1
  Fe  Fe1  1  0.87385787  0.62594276  0.12349061  1
  Fe  Fe2  1  0.24818650  0.74795052  0.50203066  1
  Fe  Fe3  1  0.87127186  0.87805232  0.62835092  1
  Fe  Fe4  1  0.12458263  0.37450394  0.87180192  1
  Fe  Fe5  1  0.12612275  0.87658860  0.62969030  1
  Fe  Fe6  1  0.75161294  0.50190132  0.25246678  1
  Fe  Fe7  1  0.24933707  0.00034241  0.50018326  1
  Fe  Fe8  1  0.87983020  0.62846429  0.37725964  1
  Fe  Fe9  1  0.37283854  0.87619490  0.12615803  1
  Fe  Fe10  1  0.62738245  0.62660335  0.12382892  1
  Fe  Fe11  1  0.62609261  0.37359598  0.87341053  1
  Fe  Fe12  1  0.37241245  0.12319939  0.12328994  1
  Fe  Fe13  1  0.49958169  0.50162707  0.75044523  1
  Fe  Fe14  1  -0.00412522  0.24528828  0.74825102  1
  Fe  Fe15  1  -0.00311233  0.50292393  0.75050231  1
  Fe  Fe16  1  0.87227253  0.87342655  0.12902514  1
  Fe  Fe17  1  0.62681826  0.37412510  0.62694435  1
  Fe  Fe18  1  0.12528784  0.87716911  0.12651598  1
  Fe  Fe19  1  0.62407494  0.12547406  0.87615575  1
  Fe  Fe20  1  0.87418500  0.37190146  0.12629685  1
  Fe  Fe21  1  0.25064964  0.24741832  0.74872771  1
  Fe  Fe22  1  0.37338166  0.87527526  0.62593823  1
  Fe  Fe23  1  0.12689595  0.37489454  0.12698993  1
  Fe  Fe24  1  0.74891258  -0.00263868  0.49776872  1
  Fe  Fe25  1  0.12585412  0.37088869  0.37527941  1
  Fe  Fe26  1  0.37531456  0.12387222  0.62504349  1
  Fe  Fe27  1  0.49999838  0.49953332  0.00004641  1
  Fe  Fe28  1  0.74926327  0.75250965  0.49900217  1
  Fe  Fe29  1  0.12684955  0.62339950  0.12309922  1
  Fe  Fe30  1  0.37399915  0.37524605  0.37294895  1
  Fe  Fe31  1  0.62723685  0.37518121  0.12732947  1
  Fe  Fe32  1  0.00102994  0.49770926  0.49923793  1
  Fe  Fe33  1  0.50117143  0.25189049  0.00126153  1
  Fe  Fe34  1  0.37289374  0.62290795  0.12575234  1
  Fe  Fe35  1  0.50125709  -0.00044044  0.74814545  1
  Fe  Fe36  1  -0.00309888  0.74771653  0.74785741  1
  Fe  Fe37  1  0.37223193  0.62729710  0.87793188  1
  Fe  Fe38  1  0.62471321  0.37540325  0.37252662  1
  Fe  Fe39  1  0.50271015  0.75255820  0.24884361  1
  Fe  Fe40  1  0.62628896  0.62620610  0.62456833  1
  Fe  Fe41  1  0.24824556  0.00169847  0.25176432  1
  Fe  Fe42  1  0.75361860  0.50390289  0.75078828  1
  Fe  Fe43  1  0.00137081  0.50094978  0.25141044  1
  Fe  Fe44  1  0.87636135  0.12844742  0.12450643  1
  Fe  Fe45  1  0.75154999  0.25085044  0.49634536  1
  Fe  Fe46  1  0.37225523  0.37766947  0.12704211  1
  Fe  Fe47  1  0.25067774  0.50445932  0.74851810  1
  Fe  Fe48  1  0.12207973  0.12311024  0.87575449  1
  Fe  Fe49  1  0.87447613  0.87662131  0.87210424  1
  Fe  Fe50  1  0.24759786  0.74800696  0.25027032  1
  Fe  Fe51  1  0.37513999  0.37409092  0.87406036  1
  Fe  Fe52  1  0.24858752  0.50258444  0.49943373  1
  Fe  Fe53  1  0.50238358  0.75407311  0.50043818  1
  Fe  Fe54  1  0.75290244  0.24537212  0.75090573  1
  Fe  Fe55  1  0.75060127  0.49898707  -0.00138028  1
  Fe  Fe56  1  0.00010010  0.75220347  0.00078832  1
  Fe  Fe57  1  0.87765408  0.87240536  0.37101078  1
  Fe  Fe58  1  0.62731297  0.62690226  0.87650194  1
  Fe  Fe59  1  0.49964137  0.74906318  0.74827157  1
  Fe  Fe60  1  0.37617285  0.12371405  0.37555590  1
  Fe  Fe61  1  0.37638094  0.12525356  0.87540660  1
  Fe  Fe62  1  0.49923599  0.24929084  0.24886533  1
  Fe  Fe63  1  0.87802702  0.12581403  0.37480505  1
  Fe  Fe64  1  0.62824120  0.87350168  0.87237543  1
  Fe  Fe65  1  0.87532371  0.37142074  0.87711635  1
  Fe  Fe66  1  0.50084818  -0.00375520  0.00061187  1
  Fe  Fe67  1  0.75043590  -0.00063464  0.00015796  1
  Fe  Fe68  1  0.37604683  0.87660944  0.37518709  1
  Fe  Fe69  1  -0.00005605  -0.00173760  0.00077398  1
  Fe  Fe70  1  0.12320799  0.12740374  0.37572163  1
  Fe  Fe71  1  0.87420662  0.37456232  0.62343306  1
  Fe  Fe72  1  -0.00017095  -0.00245831  0.50040527  1
  Fe  Fe73  1  0.62366332  0.62542535  0.37507889  1
  Fe  Fe74  1  0.37171853  0.87297144  0.87271459  1
  Fe  Fe75  1  0.12236776  0.87249261  0.37318795  1
  Fe  Fe76  1  0.49934338  0.25042895  0.50086344  1
  Fe  Fe77  1  0.50079309  0.49879176  0.50063711  1
  Fe  Fe78  1  0.62615274  0.12428868  0.62326173  1
  Fe  Fe79  1  0.37653133  0.62465039  0.37414435  1
  Fe  Fe80  1  0.12350988  0.12496278  0.62314801  1
  Fe  Fe81  1  0.24774796  -0.00278888  -0.00376862  1
  Fe  Fe82  1  0.00089993  0.49760803  -0.00100059  1
  Fe  Fe83  1  0.37507562  0.37554553  0.62568565  1
  Fe  Fe84  1  0.62210739  0.12060501  0.37363202  1
  Fe  Fe85  1  0.12538082  0.62783727  0.87630370  1
  Fe  Fe86  1  0.75068187  0.49984716  0.49800621  1
  Fe  Fe87  1  0.12473031  0.37389643  0.62558024  1
  Fe  Fe88  1  0.50060692  0.75247560  0.00242731  1
  Fe  Fe89  1  0.62598431  0.12257413  0.12687694  1
  Co  Co90  1  0.62887398  0.87636728  0.12722985  1
  Co  Co91  1  0.62843092  0.87435381  0.62870413  1
  Co  Co92  1  0.24970599  0.74638961  0.74691303  1
  Co  Co93  1  0.12101746  0.62393389  0.62390107  1
  Co  Co94  1  0.24985984  0.24764729  0.24904693  1
  Co  Co95  1  0.50039333  0.24906287  0.74893236  1
  Co  Co96  1  0.24999796  0.00198576  0.75122317  1
  Co  Co97  1  0.49800169  -0.00135208  0.24703494  1
  Co  Co98  1  0.25184134  0.24958526  0.50137882  1
  Co  Co99  1  0.87658778  0.12460019  0.88043566  1
  Co  Co100  1  0.24844242  0.75274904  0.00230171  1
  Co  Co101  1  0.87668872  0.37529565  0.37350579  1
  Co  Co102  1  -0.00024911  0.00122917  0.24994185  1
  Co  Co103  1  0.87666556  0.62557539  0.88031362  1
  Co  Co104  1  0.00166267  0.74859227  0.24539761  1
  Co  Co105  1  0.87572338  0.62367235  0.61882917  1
  Co  Co106  1  0.75351977  0.00131656  0.25108602  1
  Co  Co107  1  -0.00209627  0.00379005  0.74876659  1
  Co  Co108  1  0.74833117  0.74875874  0.25305231  1
  Co  Co109  1  0.74780731  0.24974396  0.00000196  1
  Co  Co110  1  -0.00200424  0.25077436  0.50116548  1
  Co  Co111  1  0.50178677  0.50085235  0.24888278  1
  Co  Co112  1  0.12323745  0.87317739  0.87100298  1
  Co  Co113  1  0.50016522  -0.00220154  0.50415706  1
  Co  Co114  1  0.87339238  0.12234470  0.61949627  1
  Co  Co115  1  0.74986737  0.24851755  0.25296918  1
  Co  Co116  1  0.75151399  0.75282123  -0.00112008  1
  Co  Co117  1  0.74975421  0.00525970  0.75174505  1
  Co  Co118  1  0.62293025  0.87946703  0.37185684  1
  Co  Co119  1  0.24632336  0.50272488  0.25463024  1
  Co  Co120  1  0.12478115  0.12234120  0.12388581  1
  Co  Co121  1  0.00358622  0.25150798  0.00063196  1
  Co  Co122  1  -0.00038865  0.75619544  0.50632607  1
  Co  Co123  1  0.75409948  0.74517752  0.74975110  1
  Co  Co124  1  0.11987146  0.62984931  0.37812281  1
  Co  Co125  1  0.37778268  0.62519593  0.62165271  1
  Co  Co126  1  0.24946988  0.49812471  -0.00248677  1
  Co  Co127  1  0.00163247  0.25000502  0.24934272  1
