# generated using pymatgen
data_Fe45Co19
_symmetry_space_group_name_H-M   'P 1'
_cell_length_a   11.41407310
_cell_length_b   11.41534204
_cell_length_c   11.41543667
_cell_angle_alpha   89.99265216
_cell_angle_beta   90.00585319
_cell_angle_gamma   90.00234324
_symmetry_Int_Tables_number   1
_chemical_formula_structural   Fe45Co19
_chemical_formula_sum   'Fe90 Co38'
_cell_volume   1487.38056103
_cell_formula_units_Z   2
loop_
 _symmetry_equiv_pos_site_id
 _symmetry_equiv_pos_as_xyz
  1  'x, y, z'
loop_
 _atom_site_type_symbol
 _atom_site_label
 _atom_site_symmetry_multiplicity
 _atom_site_fract_x
 _atom_site_fract_y
 _atom_site_fract_z
 _atom_site_occupancy
  Fe  Fe0  1  0.87752051  0.87267442  0.87775296  1
  Fe  Fe1  1  0.74888337  0.75179608  0.24835259  1
  Fe  Fe2  1  0.24795264  0.74845123  0.50222196  1
  Fe  Fe3  1  0.49948099  0.24825559  0.50313144  1
  Fe  Fe4  1  0.74753747  0.25051545  0.00620101  1
  Fe  Fe5  1  0.75102913  0.49912167  0.49721400  1
  Fe  Fe6  1  0.12422406  0.87260583  0.62945637  1
  Fe  Fe7  1  0.50020755  0.49816285  0.00010179  1
  Fe  Fe8  1  0.74911489  0.75044275  0.50094525  1
  Fe  Fe9  1  0.87556136  0.87556695  0.37416622  1
  Fe  Fe10  1  0.37337603  0.62235349  0.62397856  1
  Fe  Fe11  1  0.37424494  0.12662119  0.37467681  1
  Fe  Fe12  1  0.00014927  0.74796168  0.50031866  1
  Fe  Fe13  1  0.37263110  0.37573655  0.62603354  1
  Fe  Fe14  1  0.50013425  0.74786308  0.74650755  1
  Fe  Fe15  1  0.24962877  -0.00012470  0.75163756  1
  Fe  Fe16  1  0.37382205  0.37345329  0.87415433  1
  Fe  Fe17  1  0.50154524  0.75134452  0.00211820  1
  Fe  Fe18  1  0.49877655  0.50205989  0.25086742  1
  Fe  Fe19  1  0.87577105  0.37821780  0.12456080  1
  Fe  Fe20  1  0.24759693  0.50081632  0.75202821  1
  Fe  Fe21  1  -0.00177456  0.75138529  0.24876069  1
  Fe  Fe22  1  0.24929694  0.25122239  0.00125473  1
  Fe  Fe23  1  0.74768437  -0.00084249  -0.00377593  1
  Fe  Fe24  1  0.37780774  0.12115489  0.12203863  1
  Fe  Fe25  1  -0.00087777  -0.00092338  0.75292163  1
  Fe  Fe26  1  0.49991346  0.50052645  0.49877995  1
  Fe  Fe27  1  0.12518727  0.37369795  0.37454940  1
  Fe  Fe28  1  0.62485577  0.87638553  0.62621947  1
  Fe  Fe29  1  0.62105584  0.88082032  0.12570495  1
  Fe  Fe30  1  0.75148794  0.25109876  0.74859003  1
  Fe  Fe31  1  0.50097092  0.24808772  0.74743691  1
  Fe  Fe32  1  0.74895782  0.00158436  0.49778659  1
  Fe  Fe33  1  0.62723740  0.37516460  0.62366788  1
  Fe  Fe34  1  0.87449819  0.62370983  0.12363286  1
  Fe  Fe35  1  0.12562914  0.87332609  0.37382697  1
  Fe  Fe36  1  0.75198242  0.74967496  0.74864336  1
  Fe  Fe37  1  0.25094076  0.49946248  0.25274089  1
  Fe  Fe38  1  0.37280789  0.62637937  0.12542187  1
  Fe  Fe39  1  -0.00022088  0.50138069  0.49676009  1
  Fe  Fe40  1  0.12387572  0.37489684  0.12567634  1
  Fe  Fe41  1  0.62520078  0.62192350  0.12481525  1
  Fe  Fe42  1  0.37602028  0.87705803  0.62421435  1
  Fe  Fe43  1  0.25010309  0.24942228  0.50161995  1
  Fe  Fe44  1  0.87522275  0.87733548  0.62346711  1
  Fe  Fe45  1  0.75423708  0.24868604  0.49865305  1
  Fe  Fe46  1  0.75077802  0.49974778  0.25204633  1
  Fe  Fe47  1  0.37520615  0.87269153  0.87480649  1
  Fe  Fe48  1  0.25419930  -0.00349045  0.25090871  1
  Fe  Fe49  1  0.87784115  0.37462440  0.88028708  1
  Fe  Fe50  1  0.62458952  0.62716877  0.37539079  1
  Fe  Fe51  1  0.87600430  0.12423023  0.62390460  1
  Fe  Fe52  1  0.50210281  0.50074052  0.74928273  1
  Fe  Fe53  1  0.37359063  0.63042762  0.37354276  1
  Fe  Fe54  1  0.75051428  0.49866646  0.75241759  1
  Fe  Fe55  1  0.37554961  0.37210196  0.37342318  1
  Fe  Fe56  1  0.62640137  0.37108643  0.37217569  1
  Fe  Fe57  1  0.37516147  0.62558280  0.87662724  1
  Fe  Fe58  1  0.50296606  0.24720383  0.24513796  1
  Fe  Fe59  1  0.62562502  0.62629537  0.87550744  1
  Fe  Fe60  1  0.12580236  0.37665585  0.62368500  1
  Fe  Fe61  1  0.87510666  0.12744910  0.87707003  1
  Fe  Fe62  1  0.62012070  0.87303378  0.37522335  1
  Fe  Fe63  1  0.12428771  0.12771781  0.87563915  1
  Fe  Fe64  1  0.24998401  -0.00024193  0.49929483  1
  Fe  Fe65  1  0.74741157  0.00292091  0.25420651  1
  Fe  Fe66  1  0.74945049  0.75254646  0.00310539  1
  Fe  Fe67  1  0.62424586  0.37262284  0.87757591  1
  Fe  Fe68  1  -0.00097687  0.50192071  0.25230222  1
  Fe  Fe69  1  -0.00017710  0.25208317  0.74879954  1
  Fe  Fe70  1  -0.00271679  0.24793812  0.25002044  1
  Fe  Fe71  1  0.12601482  0.62552856  0.12776315  1
  Fe  Fe72  1  0.50036531  0.00264495  0.49840294  1
  Fe  Fe73  1  0.12246032  0.63089546  0.87272586  1
  Fe  Fe74  1  0.12268141  0.87745985  0.12428541  1
  Fe  Fe75  1  0.24870821  -0.00178998  -0.00263762  1
  Fe  Fe76  1  0.12506288  0.12580909  0.37321383  1
  Fe  Fe77  1  0.00147513  0.00079355  0.49839106  1
  Fe  Fe78  1  0.12485398  0.12544821  0.62601956  1
  Fe  Fe79  1  0.87427717  0.62263077  0.62387007  1
  Fe  Fe80  1  0.87628119  0.11901486  0.12555410  1
  Fe  Fe81  1  0.00000380  0.49914982  0.75201356  1
  Fe  Fe82  1  0.37466520  0.37582901  0.12569409  1
  Fe  Fe83  1  0.24814416  0.75226029  0.00069615  1
  Fe  Fe84  1  0.37570451  0.12834781  0.87506713  1
  Fe  Fe85  1  0.24627620  0.49932877  -0.00161109  1
  Fe  Fe86  1  0.87598278  0.62580267  0.87920978  1
  Fe  Fe87  1  0.50328485  0.00292577  0.75265370  1
  Fe  Fe88  1  0.12420890  0.12296661  0.12589662  1
  Fe  Fe89  1  0.74913012  0.00080647  0.75259603  1
  Co  Co90  1  0.25385338  0.74912528  0.74786379  1
  Co  Co91  1  0.62527063  0.37900180  0.12784434  1
  Co  Co92  1  0.50036955  0.25281793  0.00368771  1
  Co  Co93  1  0.50108147  -0.00157468  -0.00762808  1
  Co  Co94  1  0.62504427  0.87043258  0.87249340  1
  Co  Co95  1  0.24903216  0.24979320  0.74839244  1
  Co  Co96  1  0.25020105  0.75485093  0.24775361  1
  Co  Co97  1  0.25158411  0.50036514  0.49645938  1
  Co  Co98  1  0.12452274  0.37164201  0.87591288  1
  Co  Co99  1  0.75105952  0.24677637  0.24499668  1
  Co  Co100  1  0.12399896  0.62384325  0.62644455  1
  Co  Co101  1  0.37399917  0.12289489  0.62601813  1
  Co  Co102  1  -0.00046191  0.75161190  0.00466240  1
  Co  Co103  1  0.50132440  0.74717889  0.50447285  1
  Co  Co104  1  0.87382709  0.88041569  0.12620238  1
  Co  Co105  1  0.62855854  0.12479411  0.62477566  1
  Co  Co106  1  0.87473536  0.37335295  0.37338117  1
  Co  Co107  1  0.50022458  0.75036136  0.24635267  1
  Co  Co108  1  0.12358197  0.87106171  0.87208464  1
  Co  Co109  1  0.00058304  0.24913727  0.49963008  1
  Co  Co110  1  0.00125217  -0.00074800  -0.00358871  1
  Co  Co111  1  0.37644704  0.86987282  0.37846544  1
  Co  Co112  1  0.00150303  -0.00101231  0.25235089  1
  Co  Co113  1  0.62592378  0.13031443  0.87697177  1
  Co  Co114  1  0.62907115  0.62234033  0.62505809  1
  Co  Co115  1  0.25054287  0.24879723  0.24787026  1
  Co  Co116  1  -0.00021411  0.24845607  0.00352021  1
  Co  Co117  1  0.62153846  0.11814611  0.12276502  1
  Co  Co118  1  0.87616376  0.37670491  0.62350119  1
  Co  Co119  1  0.12651208  0.62608061  0.37225133  1
  Co  Co120  1  0.87351537  0.62780134  0.37435875  1
  Co  Co121  1  0.74841433  0.49889724  -0.00161696  1
  Co  Co122  1  0.62405972  0.12943784  0.37526778  1
  Co  Co123  1  0.87687914  0.12411742  0.37521551  1
  Co  Co124  1  0.37769829  0.87682973  0.12176770  1
  Co  Co125  1  0.00417692  0.50196859  -0.00061124  1
  Co  Co126  1  0.49539451  -0.00027719  0.25525466  1
  Co  Co127  1  -0.00520632  0.75029973  0.74738008  1
