# generated using pymatgen
data_Fe45Co19
_symmetry_space_group_name_H-M   'P 1'
_cell_length_a   11.41424083
_cell_length_b   11.41512194
_cell_length_c   11.41399227
_cell_angle_alpha   89.99004377
_cell_angle_beta   89.99139835
_cell_angle_gamma   89.99736883
_symmetry_Int_Tables_number   1
_chemical_formula_structural   Fe45Co19
_chemical_formula_sum   'Fe90 Co38'
_cell_volume   1487.18552210
_cell_formula_units_Z   2
loop_
 _symmetry_equiv_pos_site_id
 _symmetry_equiv_pos_as_xyz
  1  'x, y, z'
loop_
 _atom_site_type_symbol
 _atom_site_label
 _atom_site_symmetry_multiplicity
 _atom_site_fract_x
 _atom_site_fract_y
 _atom_site_fract_z
 _atom_site_occupancy
  Fe  Fe0  1  -0.00179198  0.24907072  0.50213733  1
  Fe  Fe1  1  0.12591618  0.37664209  0.62385157  1
  Fe  Fe2  1  0.37424159  0.87621819  0.87514471  1
  Fe  Fe3  1  0.37370459  0.62527517  0.87474773  1
  Fe  Fe4  1  0.12726106  0.37564820  0.87332633  1
  Fe  Fe5  1  0.87708561  0.87508497  0.37359056  1
  Fe  Fe6  1  0.62664550  0.87346888  0.37635778  1
  Fe  Fe7  1  0.24875240  0.49880419  0.00251836  1
  Fe  Fe8  1  0.00599059  0.49942876  0.24819797  1
  Fe  Fe9  1  0.49883822  0.49965775  0.00192080  1
  Fe  Fe10  1  0.74775680  0.50082194  0.50097569  1
  Fe  Fe11  1  0.37361813  0.37695500  0.62280235  1
  Fe  Fe12  1  0.87429350  0.62249372  0.62583367  1
  Fe  Fe13  1  0.87497824  0.37593124  0.12607022  1
  Fe  Fe14  1  0.87499689  0.12423426  0.37497892  1
  Fe  Fe15  1  0.24837753  -0.00206481  0.50178954  1
  Fe  Fe16  1  0.74925351  0.00115302  0.75223202  1
  Fe  Fe17  1  -0.00025712  0.25097071  -0.00220791  1
  Fe  Fe18  1  0.87880433  0.87665073  0.62674107  1
  Fe  Fe19  1  0.75066040  0.74914117  0.25023122  1
  Fe  Fe20  1  -0.00078419  0.74972931  -0.00349144  1
  Fe  Fe21  1  0.49958428  0.50064256  0.74649406  1
  Fe  Fe22  1  0.49799134  0.24929848  0.50018738  1
  Fe  Fe23  1  0.62318803  0.87535436  0.12357295  1
  Fe  Fe24  1  0.12639665  0.12430386  0.37494815  1
  Fe  Fe25  1  -0.00142458  0.25021201  0.74875991  1
  Fe  Fe26  1  0.75326920  0.24976687  0.50179908  1
  Fe  Fe27  1  0.87705600  0.62449757  0.12459491  1
  Fe  Fe28  1  0.25004829  -0.00177812  0.75061601  1
  Fe  Fe29  1  0.87520406  0.12495412  0.12353704  1
  Fe  Fe30  1  0.50029101  -0.00129421  0.49959471  1
  Fe  Fe31  1  0.00318162  0.49997017  0.00078108  1
  Fe  Fe32  1  0.13035455  0.62916310  0.36975251  1
  Fe  Fe33  1  0.87554412  0.62445967  0.37494333  1
  Fe  Fe34  1  0.25365841  0.24972245  -0.00091567  1
  Fe  Fe35  1  0.74869357  0.50135315  0.25085163  1
  Fe  Fe36  1  0.62326865  0.62513406  0.12545168  1
  Fe  Fe37  1  0.12680990  0.62398007  0.62683504  1
  Fe  Fe38  1  0.74767543  0.24864467  0.24869877  1
  Fe  Fe39  1  0.37653680  0.37417483  0.87471718  1
  Fe  Fe40  1  0.12410398  0.87416905  0.37396469  1
  Fe  Fe41  1  0.74918159  0.00127254  0.24987609  1
  Fe  Fe42  1  0.74832431  0.49984501  -0.00008433  1
  Fe  Fe43  1  0.75308983  0.25052442  0.74730241  1
  Fe  Fe44  1  0.75023626  0.74830354  0.00043532  1
  Fe  Fe45  1  0.49806702  0.75091673  0.74883640  1
  Fe  Fe46  1  0.24876376  -0.00113813  0.24831941  1
  Fe  Fe47  1  0.00188448  0.24989749  0.25084908  1
  Fe  Fe48  1  0.87632019  0.37682855  0.37502413  1
  Fe  Fe49  1  0.25126825  0.50008126  0.49471775  1
  Fe  Fe50  1  0.62533890  0.87245615  0.62427177  1
  Fe  Fe51  1  0.00152550  0.74984001  0.50093957  1
  Fe  Fe52  1  0.12279243  0.12253154  0.62548577  1
  Fe  Fe53  1  -0.00053098  0.00029927  0.75516605  1
  Fe  Fe54  1  0.50103957  0.00086912  0.25351976  1
  Fe  Fe55  1  0.12607537  0.12668317  0.12383876  1
  Fe  Fe56  1  0.75230922  0.74783513  0.75057654  1
  Fe  Fe57  1  0.37822686  0.87664544  0.12305007  1
  Fe  Fe58  1  0.37266278  0.87264520  0.37779396  1
  Fe  Fe59  1  0.62385109  0.62502651  0.87392603  1
  Fe  Fe60  1  0.62392140  0.12423106  0.62493040  1
  Fe  Fe61  1  0.74937950  0.00111778  -0.00189061  1
  Fe  Fe62  1  0.87341233  0.37629024  0.87420090  1
  Fe  Fe63  1  0.50119007  0.24773738  0.24958099  1
  Fe  Fe64  1  0.37688372  0.12107986  0.62723828  1
  Fe  Fe65  1  0.62384489  0.37360105  0.37518573  1
  Fe  Fe66  1  0.12761363  0.12444030  0.87630351  1
  Fe  Fe67  1  0.75195182  -0.00016697  0.49995636  1
  Fe  Fe68  1  0.24990450  0.75216352  0.74618186  1
  Fe  Fe69  1  0.74659859  0.25082958  0.00264250  1
  Fe  Fe70  1  0.62382167  0.87204510  0.87671213  1
  Fe  Fe71  1  0.25130488  0.25015621  0.74888182  1
  Fe  Fe72  1  0.12277155  0.87302519  0.12503139  1
  Fe  Fe73  1  0.37496915  0.12520917  0.12651836  1
  Fe  Fe74  1  0.25152329  0.75181156  0.00171969  1
  Fe  Fe75  1  0.37172579  0.62386634  0.12873574  1
  Fe  Fe76  1  0.62523642  0.37567929  0.62470611  1
  Fe  Fe77  1  0.12695316  0.62660029  0.87392223  1
  Fe  Fe78  1  0.49940394  0.00344334  -0.00364478  1
  Fe  Fe79  1  0.49889984  0.75053365  0.25087492  1
  Fe  Fe80  1  0.00002140  -0.00081074  -0.00224714  1
  Fe  Fe81  1  0.49738666  0.50056606  0.25353446  1
  Fe  Fe82  1  0.62114697  0.12927063  0.87283619  1
  Fe  Fe83  1  0.62286479  0.62794981  0.37934950  1
  Fe  Fe84  1  0.37592944  0.62635410  0.61982852  1
  Fe  Fe85  1  -0.00005756  0.49978813  0.75138120  1
  Fe  Fe86  1  0.87549860  0.87498705  0.12534072  1
  Fe  Fe87  1  0.62206024  0.37404369  0.87432296  1
  Fe  Fe88  1  0.25106804  0.24853207  0.49970516  1
  Fe  Fe89  1  0.00281819  0.50106381  0.49831042  1
  Co  Co90  1  0.87369634  0.87418259  0.87449919  1
  Co  Co91  1  0.62341491  0.12142638  0.12481314  1
  Co  Co92  1  0.62570941  0.12536930  0.37816246  1
  Co  Co93  1  0.37596115  0.37284984  0.37349748  1
  Co  Co94  1  0.37579401  0.87666970  0.62419724  1
  Co  Co95  1  0.24848608  0.25122826  0.25159656  1
  Co  Co96  1  0.00097794  0.00197439  0.24864057  1
  Co  Co97  1  0.62459776  0.62801750  0.62388196  1
  Co  Co98  1  0.49988076  0.49936750  0.49979648  1
  Co  Co99  1  -0.00185617  0.74894372  0.25101085  1
  Co  Co100  1  0.87641965  0.12058071  0.62622759  1
  Co  Co101  1  0.37230078  0.62837354  0.37535224  1
  Co  Co102  1  0.87516385  0.62275553  0.87555471  1
  Co  Co103  1  0.12748846  0.87336488  0.87440718  1
  Co  Co104  1  0.37595999  0.12505319  0.87182715  1
  Co  Co105  1  0.12672847  0.62870505  0.12538392  1
  Co  Co106  1  0.12456813  0.37202308  0.37827759  1
  Co  Co107  1  0.49698756  0.25270257  0.74621104  1
  Co  Co108  1  0.25298684  0.49990252  0.74956721  1
  Co  Co109  1  0.49798608  0.74729848  0.00054639  1
  Co  Co110  1  0.24663194  0.49554519  0.25034694  1
  Co  Co111  1  0.62356935  0.37768622  0.12741497  1
  Co  Co112  1  0.49925647  0.75222386  0.50026031  1
  Co  Co113  1  -0.00035321  0.74792739  0.75039689  1
  Co  Co114  1  0.37484048  0.37441850  0.12752726  1
  Co  Co115  1  0.24608254  0.75222134  0.50372468  1
  Co  Co116  1  0.00021600  0.00023655  0.49698602  1
  Co  Co117  1  0.37373612  0.12370987  0.37491631  1
  Co  Co118  1  0.87626321  0.37975520  0.62438161  1
  Co  Co119  1  0.87346604  0.12677298  0.87606678  1
  Co  Co120  1  0.75425147  0.75025063  0.50008392  1
  Co  Co121  1  0.25054474  -0.00042749  0.00145012  1
  Co  Co122  1  0.74732497  0.50017343  0.75020783  1
  Co  Co123  1  0.25308787  0.75494998  0.24650270  1
  Co  Co124  1  0.12016074  0.87723021  0.62735925  1
  Co  Co125  1  0.50180049  -0.00326845  0.75154519  1
  Co  Co126  1  0.12634096  0.37098213  0.12311619  1
  Co  Co127  1  0.49928127  0.24997824  0.00333511  1
