# generated using pymatgen
data_Fe45Co19
_symmetry_space_group_name_H-M   'P 1'
_cell_length_a   11.41452965
_cell_length_b   11.41383960
_cell_length_c   11.41558226
_cell_angle_alpha   89.99858442
_cell_angle_beta   90.00192425
_cell_angle_gamma   90.00119782
_symmetry_Int_Tables_number   1
_chemical_formula_structural   Fe45Co19
_chemical_formula_sum   'Fe90 Co38'
_cell_volume   1487.26327037
_cell_formula_units_Z   2
loop_
 _symmetry_equiv_pos_site_id
 _symmetry_equiv_pos_as_xyz
  1  'x, y, z'
loop_
 _atom_site_type_symbol
 _atom_site_label
 _atom_site_symmetry_multiplicity
 _atom_site_fract_x
 _atom_site_fract_y
 _atom_site_fract_z
 _atom_site_occupancy
  Fe  Fe0  1  0.00325718  0.50137504  0.24701994  1
  Fe  Fe1  1  0.87861853  0.37642818  0.87390510  1
  Fe  Fe2  1  0.37326235  0.37620686  0.62763839  1
  Fe  Fe3  1  0.87243151  0.12136655  0.62404329  1
  Fe  Fe4  1  0.62108479  0.12594260  0.37560127  1
  Fe  Fe5  1  0.00084271  0.24899799  0.74920969  1
  Fe  Fe6  1  0.12843980  0.87239867  0.12250974  1
  Fe  Fe7  1  0.12569633  0.62702243  0.62448362  1
  Fe  Fe8  1  0.12819673  0.37567612  0.12304951  1
  Fe  Fe9  1  0.74981964  0.75148392  0.75012461  1
  Fe  Fe10  1  0.74657848  0.00199533  0.25099827  1
  Fe  Fe11  1  0.87489150  0.62554461  0.62482949  1
  Fe  Fe12  1  0.62389291  0.87352813  0.87521391  1
  Fe  Fe13  1  0.25063802  0.24922432  0.25012003  1
  Fe  Fe14  1  0.87535974  0.62541013  0.37340183  1
  Fe  Fe15  1  0.74761500  0.00012352  0.00058621  1
  Fe  Fe16  1  0.87191974  0.12812582  0.12774347  1
  Fe  Fe17  1  0.25100299  0.50226003  0.25005840  1
  Fe  Fe18  1  0.62369786  0.12545859  0.87542042  1
  Fe  Fe19  1  0.12575483  0.12277546  0.87610160  1
  Fe  Fe20  1  0.49797600  0.25331093  0.24832313  1
  Fe  Fe21  1  0.75034260  0.50121787  0.75061915  1
  Fe  Fe22  1  0.62171910  0.62529192  0.12317180  1
  Fe  Fe23  1  0.62738635  0.12194275  0.62533676  1
  Fe  Fe24  1  0.37277720  0.12293723  0.62645506  1
  Fe  Fe25  1  0.62480884  0.12877298  0.12367801  1
  Fe  Fe26  1  0.00156525  0.75123454  0.75168309  1
  Fe  Fe27  1  0.25199417  -0.00097029  0.24864817  1
  Fe  Fe28  1  0.25252713  0.25268719  -0.00448126  1
  Fe  Fe29  1  0.87632262  0.62585250  0.87822201  1
  Fe  Fe30  1  0.75135614  0.24861559  0.75157327  1
  Fe  Fe31  1  0.00209836  0.50165465  0.49938725  1
  Fe  Fe32  1  0.87138258  0.87701480  0.62173712  1
  Fe  Fe33  1  0.24991000  0.24968520  0.75269365  1
  Fe  Fe34  1  0.49845419  -0.00322925  0.50087953  1
  Fe  Fe35  1  0.75034576  0.24925916  0.49791697  1
  Fe  Fe36  1  0.25217799  0.75149908  0.49907136  1
  Fe  Fe37  1  0.00057137  -0.00006052  0.00372215  1
  Fe  Fe38  1  0.25028372  -0.00304331  0.50121630  1
  Fe  Fe39  1  0.24716628  0.75239580  0.75523586  1
  Fe  Fe40  1  0.62042053  0.37785318  0.37571015  1
  Fe  Fe41  1  0.49832383  0.24901946  0.74970823  1
  Fe  Fe42  1  0.87573683  0.37661061  0.62594507  1
  Fe  Fe43  1  0.62598306  0.37499463  0.62492957  1
  Fe  Fe44  1  0.49979920  -0.00119129  0.74971895  1
  Fe  Fe45  1  0.00023401  0.75031083  0.49892633  1
  Fe  Fe46  1  0.25294081  -0.00172659  -0.00142583  1
  Fe  Fe47  1  0.87574246  0.12257006  0.87534433  1
  Fe  Fe48  1  0.25419943  0.74912438  0.24808458  1
  Fe  Fe49  1  0.12145935  0.62380827  0.88271619  1
  Fe  Fe50  1  0.37565066  0.12399430  0.12294782  1
  Fe  Fe51  1  0.00350734  0.00147395  0.24712705  1
  Fe  Fe52  1  0.24604354  0.49977348  0.75463742  1
  Fe  Fe53  1  0.87343978  0.87394185  0.12600915  1
  Fe  Fe54  1  0.25145422  0.50005564  0.49989327  1
  Fe  Fe55  1  0.00318724  0.74792929  0.24744617  1
  Fe  Fe56  1  0.87133109  0.37072104  0.12778575  1
  Fe  Fe57  1  0.87495345  0.87555236  0.37405630  1
  Fe  Fe58  1  0.00159616  -0.00319271  0.74886961  1
  Fe  Fe59  1  0.75020593  0.49889956  0.00041701  1
  Fe  Fe60  1  0.12586897  0.12476463  0.37510087  1
  Fe  Fe61  1  0.62450900  0.37491981  0.87482919  1
  Fe  Fe62  1  0.37666198  0.87667127  0.87466577  1
  Fe  Fe63  1  0.00218398  0.24861900  0.50010424  1
  Fe  Fe64  1  0.37799857  0.62296824  0.37545733  1
  Fe  Fe65  1  0.87794494  0.12537984  0.37212398  1
  Fe  Fe66  1  0.61953461  0.87431712  0.12634202  1
  Fe  Fe67  1  0.37763752  0.62258758  0.87646179  1
  Fe  Fe68  1  0.12673189  0.12217226  0.62558212  1
  Fe  Fe69  1  0.49708774  0.25400659  -0.00070107  1
  Fe  Fe70  1  0.87680460  0.37396737  0.37259962  1
  Fe  Fe71  1  0.00041085  0.24933975  0.00283580  1
  Fe  Fe72  1  0.37424422  0.12517536  0.37590644  1
  Fe  Fe73  1  0.37347944  0.62691120  0.62847960  1
  Fe  Fe74  1  0.62189545  0.87342275  0.37378838  1
  Fe  Fe75  1  0.87492500  0.62704837  0.12375107  1
  Fe  Fe76  1  0.37533666  0.62304008  0.12001565  1
  Fe  Fe77  1  0.74967914  0.50143813  0.49951289  1
  Fe  Fe78  1  0.87519807  0.87461892  0.87806121  1
  Fe  Fe79  1  0.49849734  0.75168114  0.50259848  1
  Fe  Fe80  1  0.12493277  0.37575691  0.62628881  1
  Fe  Fe81  1  0.62370657  0.62586337  0.87739422  1
  Fe  Fe82  1  0.62540397  0.62760865  0.62468516  1
  Fe  Fe83  1  0.50158264  0.50127929  0.74877614  1
  Fe  Fe84  1  0.49616367  0.25206063  0.50221904  1
  Fe  Fe85  1  0.12612811  0.87345495  0.37424484  1
  Fe  Fe86  1  0.74731793  0.74888468  0.24983018  1
  Fe  Fe87  1  0.74734528  0.49972708  0.24952359  1
  Fe  Fe88  1  0.62068152  0.62397837  0.37501324  1
  Fe  Fe89  1  0.12742060  0.37500373  0.37480608  1
  Co  Co90  1  0.12385197  0.87772034  0.87888970  1
  Co  Co91  1  0.62751276  0.87617600  0.62492285  1
  Co  Co92  1  0.49779816  0.75081908  -0.00050536  1
  Co  Co93  1  0.00154024  0.50315510  0.74969159  1
  Co  Co94  1  0.24935416  -0.00214222  0.75077790  1
  Co  Co95  1  0.12586329  0.87304568  0.62392318  1
  Co  Co96  1  0.12635711  0.62642880  0.37483759  1
  Co  Co97  1  0.25142416  0.49697550  -0.00384892  1
  Co  Co98  1  0.12831306  0.62583836  0.12066451  1
  Co  Co99  1  0.74942083  -0.00116028  0.75372552  1
  Co  Co100  1  -0.00242334  0.49828710  0.00517151  1
  Co  Co101  1  0.00043440  0.75171184  0.00189110  1
  Co  Co102  1  0.37579393  0.87576233  0.37312414  1
  Co  Co103  1  0.37743443  0.37739489  0.87078443  1
  Co  Co104  1  0.25033404  0.25028206  0.50168802  1
  Co  Co105  1  0.50112839  -0.00007631  -0.00089688  1
  Co  Co106  1  0.62880275  0.37202086  0.12365265  1
  Co  Co107  1  0.37745355  0.87725730  0.12458528  1
  Co  Co108  1  0.50035008  0.49612255  0.00162119  1
  Co  Co109  1  0.37350450  0.87351212  0.62862676  1
  Co  Co110  1  0.49916239  0.49772625  0.24522398  1
  Co  Co111  1  0.13013290  0.12492561  0.12158905  1
  Co  Co112  1  0.74861036  0.00116791  0.49419304  1
  Co  Co113  1  0.49924593  0.00284072  0.25006912  1
  Co  Co114  1  0.75187618  0.24945905  -0.00518197  1
  Co  Co115  1  0.00163054  -0.00014475  0.49926028  1
  Co  Co116  1  0.49620163  0.74778131  0.24842125  1
  Co  Co117  1  0.49677069  0.50068444  0.50462864  1
  Co  Co118  1  0.12061939  0.37462202  0.87602818  1
  Co  Co119  1  0.50043351  0.75058316  0.75047292  1
  Co  Co120  1  0.74902340  0.74941396  0.49785342  1
  Co  Co121  1  0.74584625  0.24963823  0.25577119  1
  Co  Co122  1  0.74748456  0.75142844  0.00129545  1
  Co  Co123  1  0.00567612  0.24930634  0.24779813  1
  Co  Co124  1  0.37491869  0.37567072  0.37481561  1
  Co  Co125  1  0.37516541  0.12364712  0.87472656  1
  Co  Co126  1  0.37109965  0.37597638  0.12563450  1
  Co  Co127  1  0.25416578  0.75153946  -0.00221805  1
