# generated using pymatgen
data_Fe45Co19
_symmetry_space_group_name_H-M   'P 1'
_cell_length_a   11.41682116
_cell_length_b   11.41477882
_cell_length_c   11.41593372
_cell_angle_alpha   89.99745222
_cell_angle_beta   89.99923696
_cell_angle_gamma   89.99636036
_symmetry_Int_Tables_number   1
_chemical_formula_structural   Fe45Co19
_chemical_formula_sum   'Fe90 Co38'
_cell_volume   1487.73005198
_cell_formula_units_Z   2
loop_
 _symmetry_equiv_pos_site_id
 _symmetry_equiv_pos_as_xyz
  1  'x, y, z'
loop_
 _atom_site_type_symbol
 _atom_site_label
 _atom_site_symmetry_multiplicity
 _atom_site_fract_x
 _atom_site_fract_y
 _atom_site_fract_z
 _atom_site_occupancy
  Fe  Fe0  1  0.12483168  0.62548746  0.62505554  1
  Fe  Fe1  1  0.74901627  0.00046169  0.24929661  1
  Fe  Fe2  1  0.74920129  0.24713232  0.50215381  1
  Fe  Fe3  1  0.87360892  0.12421689  0.37470696  1
  Fe  Fe4  1  0.62124574  0.13003382  0.12735420  1
  Fe  Fe5  1  0.74808315  0.49777087  0.24685899  1
  Fe  Fe6  1  0.37586279  0.37823644  0.62337421  1
  Fe  Fe7  1  0.62279008  0.62488381  0.12222256  1
  Fe  Fe8  1  0.37784104  0.62835142  0.12468311  1
  Fe  Fe9  1  0.49915553  0.24933841  0.49948835  1
  Fe  Fe10  1  -0.00017791  0.49983681  -0.00003916  1
  Fe  Fe11  1  0.62658865  0.37537298  0.37479068  1
  Fe  Fe12  1  0.00179943  0.24928137  0.74649122  1
  Fe  Fe13  1  0.87446825  0.87613766  0.12418784  1
  Fe  Fe14  1  0.62549437  0.62322058  0.87800860  1
  Fe  Fe15  1  0.74653978  0.50447857  0.50376928  1
  Fe  Fe16  1  0.87529916  0.37714085  0.62309358  1
  Fe  Fe17  1  0.87330444  0.37342885  0.87502821  1
  Fe  Fe18  1  0.49742757  0.00185005  -0.00142053  1
  Fe  Fe19  1  0.74833093  0.50138209  0.74830608  1
  Fe  Fe20  1  0.12922036  0.12584529  0.87171068  1
  Fe  Fe21  1  0.12751762  0.12584126  0.37584235  1
  Fe  Fe22  1  0.37946705  0.12178756  0.63012663  1
  Fe  Fe23  1  0.12788612  0.87312515  0.37591267  1
  Fe  Fe24  1  0.87443272  0.62352267  0.37555950  1
  Fe  Fe25  1  0.25416186  0.74968486  0.25323105  1
  Fe  Fe26  1  0.61832391  0.87542303  0.62239912  1
  Fe  Fe27  1  0.00054177  0.49616230  0.25534666  1
  Fe  Fe28  1  0.12841527  0.87464115  0.87564995  1
  Fe  Fe29  1  0.74712496  0.00208109  0.50260795  1
  Fe  Fe30  1  0.62717401  0.87522136  0.87790538  1
  Fe  Fe31  1  0.87332832  0.37200303  0.12437599  1
  Fe  Fe32  1  0.74826944  0.74935804  0.24929218  1
  Fe  Fe33  1  0.12696311  0.62447778  0.87520389  1
  Fe  Fe34  1  0.87288058  0.87719846  0.87494565  1
  Fe  Fe35  1  0.74726856  0.00074400  0.74469632  1
  Fe  Fe36  1  -0.00018554  0.00058259  0.49993975  1
  Fe  Fe37  1  0.25012907  0.49830515  0.24970320  1
  Fe  Fe38  1  0.12570210  0.37569534  0.62269166  1
  Fe  Fe39  1  -0.00006256  0.75069692  0.00021451  1
  Fe  Fe40  1  0.24756358  0.50450634  0.49818440  1
  Fe  Fe41  1  0.87603758  0.12632358  0.12740356  1
  Fe  Fe42  1  0.74884799  0.00404653  0.00182179  1
  Fe  Fe43  1  0.25096634  0.49985217  0.74935917  1
  Fe  Fe44  1  0.12641680  0.87469068  0.62292252  1
  Fe  Fe45  1  0.25283569  0.24795929  0.50218945  1
  Fe  Fe46  1  0.00000856  0.25244313  0.25543894  1
  Fe  Fe47  1  0.25332362  0.75261559  0.74705454  1
  Fe  Fe48  1  0.62590107  0.37446178  0.87920640  1
  Fe  Fe49  1  0.50113352  0.49859881  0.24985014  1
  Fe  Fe50  1  0.00146710  0.00085611  0.00002388  1
  Fe  Fe51  1  0.25383560  -0.00132787  0.50253981  1
  Fe  Fe52  1  0.62560792  0.12839950  0.86995248  1
  Fe  Fe53  1  0.37266559  0.37330665  0.87631389  1
  Fe  Fe54  1  0.37470596  0.12426057  0.37172232  1
  Fe  Fe55  1  0.12625904  0.12788547  0.12719116  1
  Fe  Fe56  1  0.00241159  0.00090504  0.74768966  1
  Fe  Fe57  1  0.62185962  0.87348455  0.12424521  1
  Fe  Fe58  1  0.25262579  0.00149319  0.00260212  1
  Fe  Fe59  1  0.49998987  0.49843182  0.75209025  1
  Fe  Fe60  1  0.87343425  0.12545196  0.87200336  1
  Fe  Fe61  1  0.12646426  0.87307885  0.12574384  1
  Fe  Fe62  1  0.12351591  0.62579089  0.12834521  1
  Fe  Fe63  1  0.12749884  0.37475331  0.87514469  1
  Fe  Fe64  1  0.25257455  -0.00010928  0.24786188  1
  Fe  Fe65  1  0.87638403  0.62527047  0.12535293  1
  Fe  Fe66  1  0.74692998  0.74737030  0.50137421  1
  Fe  Fe67  1  0.87470507  0.87479335  0.62443906  1
  Fe  Fe68  1  0.12595103  0.37204616  0.12517095  1
  Fe  Fe69  1  0.00074395  0.24876862  -0.00150191  1
  Fe  Fe70  1  0.37370516  0.37714894  0.37603861  1
  Fe  Fe71  1  0.37292220  0.12618254  0.87072368  1
  Fe  Fe72  1  0.37900910  0.62396750  0.62333136  1
  Fe  Fe73  1  0.49696569  -0.00115002  0.24976473  1
  Fe  Fe74  1  0.00113044  -0.00207046  0.25162217  1
  Fe  Fe75  1  0.37401794  0.62610474  0.87737215  1
  Fe  Fe76  1  0.00023794  0.74787712  0.49846382  1
  Fe  Fe77  1  -0.00047952  0.75041000  0.75010577  1
  Fe  Fe78  1  0.49876607  0.75270235  0.75411295  1
  Fe  Fe79  1  0.87265870  0.87497727  0.37556947  1
  Fe  Fe80  1  0.37832897  0.36894541  0.12406810  1
  Fe  Fe81  1  0.74785634  0.74928845  0.74747220  1
  Fe  Fe82  1  0.62330620  0.87583000  0.37446589  1
  Fe  Fe83  1  0.62278443  0.37408706  0.62513208  1
  Fe  Fe84  1  -0.00077068  0.25093760  0.49891145  1
  Fe  Fe85  1  0.25111907  0.49999418  0.00265206  1
  Fe  Fe86  1  0.87302567  0.62556278  0.87505362  1
  Fe  Fe87  1  0.49809938  0.74688984  0.49370199  1
  Fe  Fe88  1  -0.00019968  0.50076473  0.74915918  1
  Fe  Fe89  1  0.62436365  0.12538484  0.37399515  1
  Co  Co90  1  0.75084901  0.74986375  0.00176193  1
  Co  Co91  1  0.50018005  0.74907604  0.25349569  1
  Co  Co92  1  0.12994705  0.37348869  0.37757123  1
  Co  Co93  1  0.74971749  0.25209547  0.74723581  1
  Co  Co94  1  0.37120002  0.87510843  0.87891806  1
  Co  Co95  1  0.74938463  0.25081619  0.25045784  1
  Co  Co96  1  0.25352581  0.74841927  0.50014491  1
  Co  Co97  1  0.86936432  0.37766328  0.37874313  1
  Co  Co98  1  0.00272003  0.50118662  0.49743548  1
  Co  Co99  1  0.61801958  0.62645028  0.62704505  1
  Co  Co100  1  0.61943558  0.12520523  0.62780207  1
  Co  Co101  1  0.25101787  0.25067952  0.25120268  1
  Co  Co102  1  0.62245217  0.37214762  0.12247661  1
  Co  Co103  1  0.50031131  -0.00434982  0.75498661  1
  Co  Co104  1  0.37576430  0.61954180  0.37454218  1
  Co  Co105  1  0.25060191  0.24918397  0.00028881  1
  Co  Co106  1  0.38166941  0.87570043  0.62210885  1
  Co  Co107  1  0.49930885  0.24716444  -0.00403343  1
  Co  Co108  1  0.49724270  0.49950938  0.00022375  1
  Co  Co109  1  0.12622881  0.12413844  0.62318470  1
  Co  Co110  1  0.25041056  0.25207776  0.74581934  1
  Co  Co111  1  0.75168438  0.49892663  0.00152731  1
  Co  Co112  1  0.87539285  0.12448162  0.62522504  1
  Co  Co113  1  0.49860820  0.25491084  0.75013970  1
  Co  Co114  1  0.50322805  0.49903539  0.49855455  1
  Co  Co115  1  0.24830794  0.74802362  0.00160109  1
  Co  Co116  1  0.74935437  0.24769267  0.00116125  1
  Co  Co117  1  0.50004510  0.25202965  0.25517615  1
  Co  Co118  1  -0.00255042  0.75283416  0.25125503  1
  Co  Co119  1  0.25120271  -0.00418259  0.74694480  1
  Co  Co120  1  0.50068268  0.75111269  -0.00307460  1
  Co  Co121  1  0.62536289  0.62227039  0.37313061  1
  Co  Co122  1  0.12481030  0.62675033  0.37161625  1
  Co  Co123  1  0.37685885  0.12851486  0.12697060  1
  Co  Co124  1  0.87621707  0.62489774  0.62504754  1
  Co  Co125  1  0.49954769  0.00413521  0.49668704  1
  Co  Co126  1  0.37726950  0.87213753  0.12334397  1
  Co  Co127  1  0.37584471  0.87658014  0.37506483  1
