# generated using pymatgen
data_Fe45Co19
_symmetry_space_group_name_H-M   'P 1'
_cell_length_a   11.41548817
_cell_length_b   11.41486499
_cell_length_c   11.41613361
_cell_angle_alpha   89.99517133
_cell_angle_beta   89.99440177
_cell_angle_gamma   89.98966660
_symmetry_Int_Tables_number   1
_chemical_formula_structural   Fe45Co19
_chemical_formula_sum   'Fe90 Co38'
_cell_volume   1487.59359490
_cell_formula_units_Z   2
loop_
 _symmetry_equiv_pos_site_id
 _symmetry_equiv_pos_as_xyz
  1  'x, y, z'
loop_
 _atom_site_type_symbol
 _atom_site_label
 _atom_site_symmetry_multiplicity
 _atom_site_fract_x
 _atom_site_fract_y
 _atom_site_fract_z
 _atom_site_occupancy
  Fe  Fe0  1  0.12581689  0.37263496  0.62381578  1
  Fe  Fe1  1  0.37587916  0.12494215  0.87468199  1
  Fe  Fe2  1  0.62706922  0.37490122  0.62488181  1
  Fe  Fe3  1  -0.00408518  0.24880000  0.49729421  1
  Fe  Fe4  1  0.00039008  -0.00232703  0.00204354  1
  Fe  Fe5  1  0.12414774  0.12731145  0.12786838  1
  Fe  Fe6  1  0.62266195  0.62251505  0.62617106  1
  Fe  Fe7  1  0.12501946  0.87500487  0.37556222  1
  Fe  Fe8  1  0.50065916  0.00315677  0.50044972  1
  Fe  Fe9  1  -0.00335275  0.00164144  0.49873950  1
  Fe  Fe10  1  0.37499707  0.12802513  0.62512572  1
  Fe  Fe11  1  0.37540444  0.62434980  0.87268882  1
  Fe  Fe12  1  0.00098373  0.50068360  0.00110684  1
  Fe  Fe13  1  0.75226590  0.00227639  -0.00104814  1
  Fe  Fe14  1  0.87741711  0.37422357  0.87352159  1
  Fe  Fe15  1  0.87465217  0.87375674  0.62406676  1
  Fe  Fe16  1  0.50039026  0.25179968  0.00161240  1
  Fe  Fe17  1  0.25268203  0.49994433  0.49961840  1
  Fe  Fe18  1  0.62023977  0.62354561  0.37462599  1
  Fe  Fe19  1  0.75245419  0.24934201  -0.00080092  1
  Fe  Fe20  1  0.37376338  0.12879031  0.12486585  1
  Fe  Fe21  1  0.37586351  0.13324657  0.37595704  1
  Fe  Fe22  1  0.49936422  0.75100848  0.24901761  1
  Fe  Fe23  1  0.75065821  0.50114531  0.75026370  1
  Fe  Fe24  1  0.87759882  0.61887975  0.37840486  1
  Fe  Fe25  1  0.62545815  0.87510916  0.37590827  1
  Fe  Fe26  1  0.12069814  0.62773650  0.87422873  1
  Fe  Fe27  1  0.87429043  0.37435907  0.12740221  1
  Fe  Fe28  1  0.12314940  0.62783401  0.62095146  1
  Fe  Fe29  1  0.50150923  -0.00043817  0.74951021  1
  Fe  Fe30  1  0.25237063  0.49581981  0.25203737  1
  Fe  Fe31  1  0.62666768  0.87401969  0.87575012  1
  Fe  Fe32  1  0.74975926  0.00261303  0.24846690  1
  Fe  Fe33  1  0.75135993  0.74653752  0.25093127  1
  Fe  Fe34  1  0.37307556  0.87669218  0.12472144  1
  Fe  Fe35  1  0.24976929  0.75188371  0.74748992  1
  Fe  Fe36  1  0.62716190  0.87502443  0.12585289  1
  Fe  Fe37  1  0.50130717  0.00042938  0.00070185  1
  Fe  Fe38  1  0.12518960  0.37567132  0.87571136  1
  Fe  Fe39  1  0.24855280  0.50010457  0.74914143  1
  Fe  Fe40  1  0.12484920  0.62620097  0.37727543  1
  Fe  Fe41  1  0.37378146  0.87693372  0.87451519  1
  Fe  Fe42  1  0.12649163  0.37151052  0.37703032  1
  Fe  Fe43  1  -0.00273321  -0.00099890  0.74934012  1
  Fe  Fe44  1  0.49976752  0.49967882  -0.00016989  1
  Fe  Fe45  1  0.12426452  0.62476326  0.12644861  1
  Fe  Fe46  1  0.25145551  0.74961855  0.25225373  1
  Fe  Fe47  1  0.49982356  0.75028175  0.74978544  1
  Fe  Fe48  1  0.87310745  0.87656094  0.37344389  1
  Fe  Fe49  1  0.24773431  0.24905428  0.75118337  1
  Fe  Fe50  1  0.75147906  0.74753708  0.74812913  1
  Fe  Fe51  1  -0.00285633  0.74979971  0.24918407  1
  Fe  Fe52  1  0.62793851  0.12568812  0.87212993  1
  Fe  Fe53  1  0.24625891  0.75093280  -0.00022211  1
  Fe  Fe54  1  0.75127789  0.74636599  0.49922580  1
  Fe  Fe55  1  0.12901232  0.37350657  0.12211226  1
  Fe  Fe56  1  0.49592900  0.74914926  0.50092096  1
  Fe  Fe57  1  0.75290019  0.74689753  0.00298470  1
  Fe  Fe58  1  0.25036425  0.00190173  0.49969811  1
  Fe  Fe59  1  0.25065376  0.00324686  0.25221441  1
  Fe  Fe60  1  0.49650665  0.49232476  0.24824262  1
  Fe  Fe61  1  0.75175408  0.00369896  0.50089377  1
  Fe  Fe62  1  0.24691655  -0.00002441  -0.00045662  1
  Fe  Fe63  1  0.62567872  0.62177070  0.12561390  1
  Fe  Fe64  1  0.12432666  0.87368708  0.62256725  1
  Fe  Fe65  1  0.24905092  0.00055232  0.74872594  1
  Fe  Fe66  1  0.62603724  0.12814979  0.12621811  1
  Fe  Fe67  1  0.62531519  0.12908762  0.37336079  1
  Fe  Fe68  1  0.62507876  0.87579541  0.62390821  1
  Fe  Fe69  1  0.74882499  0.49845017  0.25250915  1
  Fe  Fe70  1  0.00071618  0.49988320  0.74690513  1
  Fe  Fe71  1  0.75187840  0.50133590  -0.00096934  1
  Fe  Fe72  1  0.49672811  0.49684296  0.50102572  1
  Fe  Fe73  1  0.12066428  0.12405035  0.87320786  1
  Fe  Fe74  1  0.37171536  0.37570794  0.87641294  1
  Fe  Fe75  1  0.63022205  0.12598376  0.62873209  1
  Fe  Fe76  1  0.12140110  0.12574913  0.62418120  1
  Fe  Fe77  1  0.50075806  0.25277497  0.74985968  1
  Fe  Fe78  1  0.87840323  0.62617830  0.87441248  1
  Fe  Fe79  1  0.62615897  0.37636016  0.87603621  1
  Fe  Fe80  1  -0.00088446  0.00134338  0.24935997  1
  Fe  Fe81  1  0.62551319  0.37086475  0.37635426  1
  Fe  Fe82  1  0.00032406  0.25001011  -0.00039468  1
  Fe  Fe83  1  0.87371806  0.37687706  0.62101648  1
  Fe  Fe84  1  0.00226167  0.49620077  0.25129864  1
  Fe  Fe85  1  0.37361170  0.62254426  0.12594004  1
  Fe  Fe86  1  0.50065472  0.74932871  0.00112535  1
  Fe  Fe87  1  0.87768063  0.87271831  0.87626835  1
  Fe  Fe88  1  0.49983083  0.00161120  0.25062723  1
  Fe  Fe89  1  0.37547700  0.87571547  0.37662911  1
  Co  Co90  1  0.37653687  0.62268415  0.37387751  1
  Co  Co91  1  -0.00297073  0.75167813  0.49741528  1
  Co  Co92  1  0.50401834  0.24969151  0.50456981  1
  Co  Co93  1  0.50049950  0.49669641  0.75140343  1
  Co  Co94  1  0.37585084  0.87768111  0.62471872  1
  Co  Co95  1  0.75199779  0.25119035  0.25086592  1
  Co  Co96  1  0.25334733  0.74996166  0.49961903  1
  Co  Co97  1  0.24766416  0.50510070  -0.00224637  1
  Co  Co98  1  0.00058237  0.25314449  0.74883982  1
  Co  Co99  1  0.24716585  0.24586261  -0.00390793  1
  Co  Co100  1  0.87673724  0.62080172  0.62153364  1
  Co  Co101  1  0.00027005  0.25273979  0.25258345  1
  Co  Co102  1  0.62980611  0.37618676  0.12299267  1
  Co  Co103  1  0.37533293  0.62190643  0.62713558  1
  Co  Co104  1  0.12322320  0.87494699  0.87200970  1
  Co  Co105  1  0.49941312  0.25450060  0.24512462  1
  Co  Co106  1  0.87431072  0.12758326  0.62939176  1
  Co  Co107  1  0.75261839  0.24736593  0.49947927  1
  Co  Co108  1  0.37255162  0.37324883  0.62563465  1
  Co  Co109  1  0.87707585  0.12730114  0.12490097  1
  Co  Co110  1  0.12359942  0.12504437  0.37536177  1
  Co  Co111  1  0.87709255  0.12627585  0.87272434  1
  Co  Co112  1  0.00447606  0.49711191  0.50025884  1
  Co  Co113  1  -0.00142022  0.74923632  0.74605029  1
  Co  Co114  1  0.00099290  0.75118860  0.00520541  1
  Co  Co115  1  0.37504487  0.36834635  0.37939862  1
  Co  Co116  1  0.75250157  -0.00325952  0.75140465  1
  Co  Co117  1  0.24897799  0.25173970  0.25052302  1
  Co  Co118  1  0.36853701  0.37365614  0.11883704  1
  Co  Co119  1  0.87293521  0.87665776  0.12648900  1
  Co  Co120  1  0.87444331  0.12501267  0.37122081  1
  Co  Co121  1  0.87353883  0.37809093  0.37661386  1
  Co  Co122  1  0.87633821  0.61964699  0.12737573  1
  Co  Co123  1  0.62570612  0.62474091  0.87502560  1
  Co  Co124  1  0.74544832  0.50138951  0.49888821  1
  Co  Co125  1  0.75148075  0.25403086  0.75081999  1
  Co  Co126  1  0.12632533  0.87526104  0.12988837  1
  Co  Co127  1  0.24686807  0.24836001  0.50153744  1
