# generated using pymatgen
data_Fe45Co19
_symmetry_space_group_name_H-M   'P 1'
_cell_length_a   11.41448997
_cell_length_b   11.41538879
_cell_length_c   11.41537688
_cell_angle_alpha   89.99720415
_cell_angle_beta   89.99143201
_cell_angle_gamma   89.99268061
_symmetry_Int_Tables_number   1
_chemical_formula_structural   Fe45Co19
_chemical_formula_sum   'Fe90 Co38'
_cell_volume   1487.43317591
_cell_formula_units_Z   2
loop_
 _symmetry_equiv_pos_site_id
 _symmetry_equiv_pos_as_xyz
  1  'x, y, z'
loop_
 _atom_site_type_symbol
 _atom_site_label
 _atom_site_symmetry_multiplicity
 _atom_site_fract_x
 _atom_site_fract_y
 _atom_site_fract_z
 _atom_site_occupancy
  Fe  Fe0  1  0.37364798  0.87795192  0.62707571  1
  Fe  Fe1  1  0.75320049  0.24656557  0.74617894  1
  Fe  Fe2  1  0.25023591  0.00020293  0.00137460  1
  Fe  Fe3  1  0.37301781  0.62497199  0.37754964  1
  Fe  Fe4  1  0.00236240  0.49910709  0.74967107  1
  Fe  Fe5  1  0.50156920  0.25259526  -0.00256680  1
  Fe  Fe6  1  0.49842976  0.49772846  0.49970002  1
  Fe  Fe7  1  0.74918859  0.49842426  0.50171838  1
  Fe  Fe8  1  0.87383912  0.87468578  0.87393998  1
  Fe  Fe9  1  0.49729279  0.49864880  0.75305866  1
  Fe  Fe10  1  0.62469913  0.87696092  0.62699327  1
  Fe  Fe11  1  0.87475903  0.62378551  0.87435988  1
  Fe  Fe12  1  0.00585221  0.49576948  0.50025754  1
  Fe  Fe13  1  0.87602257  0.87713087  0.37749869  1
  Fe  Fe14  1  0.62457283  0.87693345  0.37346503  1
  Fe  Fe15  1  0.25038813  0.24663970  0.24684371  1
  Fe  Fe16  1  0.37170412  0.87778217  0.37376016  1
  Fe  Fe17  1  0.24561196  0.00860064  0.74959788  1
  Fe  Fe18  1  0.37000603  0.37310784  0.37580881  1
  Fe  Fe19  1  0.24409926  0.00088366  0.50369797  1
  Fe  Fe20  1  0.50196946  0.75287124  -0.00234009  1
  Fe  Fe21  1  0.25081744  0.74706878  0.75106963  1
  Fe  Fe22  1  0.74985028  0.25038524  0.00017648  1
  Fe  Fe23  1  0.62404282  0.12445882  0.62303784  1
  Fe  Fe24  1  0.75295258  0.24579331  0.25295578  1
  Fe  Fe25  1  0.12458039  0.87642111  0.87346692  1
  Fe  Fe26  1  0.24609092  0.24722601  0.50525277  1
  Fe  Fe27  1  0.74945248  0.75200290  0.50106268  1
  Fe  Fe28  1  0.49780056  0.24577720  0.25312039  1
  Fe  Fe29  1  0.37525727  0.62591368  0.11942344  1
  Fe  Fe30  1  0.75065245  0.75013643  0.00013655  1
  Fe  Fe31  1  0.37020325  0.37418133  0.62955167  1
  Fe  Fe32  1  0.62731819  0.37517226  0.12771369  1
  Fe  Fe33  1  0.62555200  0.62313806  0.87303604  1
  Fe  Fe34  1  -0.00185709  -0.00230631  -0.00015177  1
  Fe  Fe35  1  -0.00155451  0.24889621  0.25153251  1
  Fe  Fe36  1  -0.00068334  0.75032116  0.25057463  1
  Fe  Fe37  1  0.87774780  0.37430533  0.62490942  1
  Fe  Fe38  1  0.24641191  0.75311697  0.50147982  1
  Fe  Fe39  1  0.75367163  0.00191687  0.74723075  1
  Fe  Fe40  1  0.87571223  0.62341082  0.12379539  1
  Fe  Fe41  1  0.62631432  0.62298368  0.12641158  1
  Fe  Fe42  1  0.87729064  0.62512480  0.37891342  1
  Fe  Fe43  1  0.87958184  0.62671754  0.62228004  1
  Fe  Fe44  1  0.12426401  0.62694415  0.87629292  1
  Fe  Fe45  1  0.49892166  0.24862015  0.75081958  1
  Fe  Fe46  1  0.25067311  0.49821623  -0.00383656  1
  Fe  Fe47  1  0.37399932  0.87441705  0.87363830  1
  Fe  Fe48  1  0.75191292  0.74982746  0.25086343  1
  Fe  Fe49  1  0.12469830  0.62625082  0.37655941  1
  Fe  Fe50  1  0.62271147  0.62416883  0.62552483  1
  Fe  Fe51  1  0.49949871  -0.00141790  -0.00044233  1
  Fe  Fe52  1  0.49866748  0.75211821  0.50116843  1
  Fe  Fe53  1  0.50097017  0.49512247  -0.00372516  1
  Fe  Fe54  1  0.37467683  0.62488328  0.62598702  1
  Fe  Fe55  1  0.62489501  0.62376042  0.37556656  1
  Fe  Fe56  1  0.87809282  0.12552759  0.87796763  1
  Fe  Fe57  1  0.62706476  0.12457486  0.87455666  1
  Fe  Fe58  1  0.87052919  0.37604951  0.87292018  1
  Fe  Fe59  1  0.49808513  0.75028636  0.25044488  1
  Fe  Fe60  1  0.50031723  0.00079554  0.49653071  1
  Fe  Fe61  1  0.12504165  0.37470312  0.12595270  1
  Fe  Fe62  1  0.00053027  0.49649708  -0.00257271  1
  Fe  Fe63  1  0.62541575  0.37448754  0.62778012  1
  Fe  Fe64  1  0.24584405  0.49863000  0.50284632  1
  Fe  Fe65  1  0.25052160  0.50207326  0.24895787  1
  Fe  Fe66  1  0.12320203  0.87298353  0.12478106  1
  Fe  Fe67  1  0.87332860  0.37603784  0.12512276  1
  Fe  Fe68  1  0.49858946  0.24924572  0.49944208  1
  Fe  Fe69  1  0.37373055  0.12737108  0.87794274  1
  Fe  Fe70  1  0.13006033  0.36799091  0.86922468  1
  Fe  Fe71  1  0.37477668  0.37360808  0.12420113  1
  Fe  Fe72  1  0.62610686  0.37400452  0.37479859  1
  Fe  Fe73  1  0.62492693  0.87772964  0.12695063  1
  Fe  Fe74  1  0.25268691  0.00272890  0.24492760  1
  Fe  Fe75  1  0.25127486  0.74877968  0.24712994  1
  Fe  Fe76  1  0.75182042  -0.00020417  0.00108265  1
  Fe  Fe77  1  0.00011606  0.75212802  0.74915301  1
  Fe  Fe78  1  0.74896765  0.75008712  0.74832429  1
  Fe  Fe79  1  0.87384893  0.37442206  0.37617134  1
  Fe  Fe80  1  0.62414784  0.12387494  0.12606385  1
  Fe  Fe81  1  0.75318020  0.00375163  0.25150440  1
  Fe  Fe82  1  0.00057626  0.49921433  0.25169312  1
  Fe  Fe83  1  0.88268582  0.12323019  0.61639969  1
  Fe  Fe84  1  0.12365466  0.62600639  0.12164793  1
  Fe  Fe85  1  0.49807231  0.50003879  0.25143002  1
  Fe  Fe86  1  -0.00243522  0.00213738  0.24957213  1
  Fe  Fe87  1  0.12312232  0.12466808  0.37634038  1
  Fe  Fe88  1  0.12040451  0.12706091  0.12015528  1
  Fe  Fe89  1  0.49985682  0.00072135  0.75197908  1
  Co  Co90  1  0.36989621  0.12447396  0.37779129  1
  Co  Co91  1  0.37863666  0.12188694  0.62303257  1
  Co  Co92  1  0.37671332  0.87389886  0.12482543  1
  Co  Co93  1  -0.00167112  0.75154416  -0.00104580  1
  Co  Co94  1  0.12667092  0.87444264  0.63269109  1
  Co  Co95  1  0.74855553  -0.00100775  0.50158389  1
  Co  Co96  1  0.87874296  0.12322916  0.38358443  1
  Co  Co97  1  0.12950480  0.37399518  0.37121375  1
  Co  Co98  1  0.62813250  0.87757606  0.87371574  1
  Co  Co99  1  -0.00311345  0.24832572  0.75241408  1
  Co  Co100  1  0.24940230  0.24942125  0.00268667  1
  Co  Co101  1  0.62727403  0.12543882  0.37662097  1
  Co  Co102  1  0.24987777  0.23868258  0.74576887  1
  Co  Co103  1  -0.00152662  0.25610695  -0.00142032  1
  Co  Co104  1  0.63049210  0.37398658  0.87022450  1
  Co  Co105  1  0.37869973  0.12640256  0.12141788  1
  Co  Co106  1  0.12817782  0.87652702  0.36775939  1
  Co  Co107  1  0.11436226  0.12661950  0.62447058  1
  Co  Co108  1  0.74929375  0.50019328  -0.00002775  1
  Co  Co109  1  0.00519115  0.75724667  0.49954595  1
  Co  Co110  1  0.75138651  0.50190717  0.74561982  1
  Co  Co111  1  0.24908959  0.50508072  0.75237839  1
  Co  Co112  1  -0.00134702  0.00069840  0.75106722  1
  Co  Co113  1  0.37734780  0.62703098  0.87708595  1
  Co  Co114  1  0.74944898  0.25080948  0.50252485  1
  Co  Co115  1  0.87504359  0.87476777  0.12575431  1
  Co  Co116  1  0.00691687  -0.00900786  0.50048644  1
  Co  Co117  1  0.49718181  0.00301720  0.25258292  1
  Co  Co118  1  0.24870829  0.75249087  -0.00145216  1
  Co  Co119  1  0.87513447  0.87467411  0.62430401  1
  Co  Co120  1  0.00474118  0.25639439  0.49661376  1
  Co  Co121  1  0.12691603  0.37263083  0.63242526  1
  Co  Co122  1  0.12298437  0.62648682  0.62409841  1
  Co  Co123  1  0.12160985  0.12723352  0.87996405  1
  Co  Co124  1  0.75117545  0.50077346  0.25222551  1
  Co  Co125  1  0.87654967  0.12678745  0.12213322  1
  Co  Co126  1  0.36956820  0.37003699  0.87097126  1
  Co  Co127  1  0.50052363  0.75153492  0.74990171  1
