# generated using pymatgen
data_Fe45Co19
_symmetry_space_group_name_H-M   'P 1'
_cell_length_a   11.41547868
_cell_length_b   11.41706985
_cell_length_c   11.41437809
_cell_angle_alpha   90.00085203
_cell_angle_beta   89.98616738
_cell_angle_gamma   90.00518603
_symmetry_Int_Tables_number   1
_chemical_formula_structural   Fe45Co19
_chemical_formula_sum   'Fe90 Co38'
_cell_volume   1487.65088449
_cell_formula_units_Z   2
loop_
 _symmetry_equiv_pos_site_id
 _symmetry_equiv_pos_as_xyz
  1  'x, y, z'
loop_
 _atom_site_type_symbol
 _atom_site_label
 _atom_site_symmetry_multiplicity
 _atom_site_fract_x
 _atom_site_fract_y
 _atom_site_fract_z
 _atom_site_occupancy
  Fe  Fe0  1  0.87906196  0.62513485  0.12296859  1
  Fe  Fe1  1  0.87555215  0.12547097  0.62632910  1
  Fe  Fe2  1  0.49639128  0.25292973  0.75111917  1
  Fe  Fe3  1  0.49989062  -0.00065668  0.00125052  1
  Fe  Fe4  1  0.75127779  0.24945447  0.25239319  1
  Fe  Fe5  1  0.62500851  0.62318332  0.87487636  1
  Fe  Fe6  1  0.87673091  0.87480054  0.12482503  1
  Fe  Fe7  1  0.50190139  0.24995710  0.49730353  1
  Fe  Fe8  1  0.12600688  0.37600811  0.87463169  1
  Fe  Fe9  1  0.12345200  0.62412352  0.37380721  1
  Fe  Fe10  1  0.25004996  0.00201251  0.74777051  1
  Fe  Fe11  1  -0.00134030  0.49445458  0.24560624  1
  Fe  Fe12  1  0.62398792  0.12371885  0.12625340  1
  Fe  Fe13  1  0.74716343  0.00276357  0.50171702  1
  Fe  Fe14  1  0.12057569  0.12316660  0.87444761  1
  Fe  Fe15  1  0.62773473  0.37238502  0.62406457  1
  Fe  Fe16  1  0.75245090  0.50050379  0.74654404  1
  Fe  Fe17  1  -0.00145038  0.75083617  0.74932208  1
  Fe  Fe18  1  0.37690949  0.12279852  0.37515179  1
  Fe  Fe19  1  0.37440989  0.37728028  0.37511260  1
  Fe  Fe20  1  0.50098071  0.75145070  -0.00087276  1
  Fe  Fe21  1  0.00019734  0.25205279  0.49778086  1
  Fe  Fe22  1  0.50357296  0.49865519  0.49800584  1
  Fe  Fe23  1  -0.00099300  0.75199368  0.49930472  1
  Fe  Fe24  1  0.24665191  0.50299120  0.00394960  1
  Fe  Fe25  1  0.75177174  0.50042314  0.00247210  1
  Fe  Fe26  1  0.12105296  0.62390721  0.87574853  1
  Fe  Fe27  1  0.62689472  0.37499243  0.12740984  1
  Fe  Fe28  1  0.12690570  0.37697157  0.37536588  1
  Fe  Fe29  1  0.49901104  0.49805397  0.74959002  1
  Fe  Fe30  1  0.49939559  0.75104124  0.74901081  1
  Fe  Fe31  1  0.24947139  0.24899949  0.49833465  1
  Fe  Fe32  1  0.24901015  0.00176681  0.50029819  1
  Fe  Fe33  1  -0.00054323  0.49871932  0.74498723  1
  Fe  Fe34  1  0.87029596  0.87502516  0.62770404  1
  Fe  Fe35  1  0.87774639  0.62385715  0.87621892  1
  Fe  Fe36  1  0.37269870  0.87485094  0.12504681  1
  Fe  Fe37  1  0.75495550  0.00229603  -0.00308471  1
  Fe  Fe38  1  0.50232615  0.00018559  0.50339568  1
  Fe  Fe39  1  0.49964236  0.49765604  0.00091335  1
  Fe  Fe40  1  0.12352286  0.87226540  0.12711129  1
  Fe  Fe41  1  0.25023982  0.50315926  0.24697763  1
  Fe  Fe42  1  0.24860849  0.50037092  0.74708964  1
  Fe  Fe43  1  0.12497988  0.12776897  0.62406734  1
  Fe  Fe44  1  0.37302047  0.87637612  0.37505613  1
  Fe  Fe45  1  0.75199975  0.00077844  0.24989236  1
  Fe  Fe46  1  0.50122331  0.24957687  0.25124521  1
  Fe  Fe47  1  0.62554107  0.37549664  0.87568692  1
  Fe  Fe48  1  0.37375476  0.87586421  0.87523046  1
  Fe  Fe49  1  0.74884518  0.24816361  0.49756041  1
  Fe  Fe50  1  0.12279893  0.87725372  0.87536481  1
  Fe  Fe51  1  0.87089455  0.37881099  0.37740445  1
  Fe  Fe52  1  0.87846547  0.12226473  0.37338339  1
  Fe  Fe53  1  0.88093530  0.12831326  0.12690110  1
  Fe  Fe54  1  0.87547593  0.37541195  0.87668937  1
  Fe  Fe55  1  0.75199596  0.75031872  -0.00203701  1
  Fe  Fe56  1  0.62595547  0.62613076  0.62574956  1
  Fe  Fe57  1  0.62673293  0.87606346  0.37381535  1
  Fe  Fe58  1  0.37545944  0.62369630  0.87657272  1
  Fe  Fe59  1  0.12749449  0.87284006  0.62423394  1
  Fe  Fe60  1  0.24652709  0.00105867  0.25126248  1
  Fe  Fe61  1  0.25051848  0.74890297  0.75057196  1
  Fe  Fe62  1  0.37622301  0.12493703  0.12517970  1
  Fe  Fe63  1  0.62684415  0.87651146  0.12503608  1
  Fe  Fe64  1  0.00102092  -0.00283507  0.49911689  1
  Fe  Fe65  1  0.87484167  0.62144355  0.37668076  1
  Fe  Fe66  1  0.24929464  0.24814656  -0.00266009  1
  Fe  Fe67  1  0.11911113  0.12893584  0.12859907  1
  Fe  Fe68  1  0.62193492  0.12516096  0.87388983  1
  Fe  Fe69  1  0.37667040  0.12438440  0.87482194  1
  Fe  Fe70  1  0.25010088  0.74702555  0.49839566  1
  Fe  Fe71  1  0.75022031  0.24719068  -0.00185405  1
  Fe  Fe72  1  0.49913379  0.75151660  0.24989214  1
  Fe  Fe73  1  0.24907167  0.24869800  0.25316496  1
  Fe  Fe74  1  0.62788865  0.87577116  0.87255069  1
  Fe  Fe75  1  0.00194074  0.49876494  0.50531345  1
  Fe  Fe76  1  0.74963060  0.74725046  0.49852834  1
  Fe  Fe77  1  0.24786376  0.74731521  0.00148237  1
  Fe  Fe78  1  0.37418969  0.62411128  0.62421848  1
  Fe  Fe79  1  0.00061949  0.25196612  0.74916359  1
  Fe  Fe80  1  -0.00148918  0.75342292  0.25461466  1
  Fe  Fe81  1  0.62327515  0.62447312  0.12658727  1
  Fe  Fe82  1  0.37108683  0.37439193  0.62373331  1
  Fe  Fe83  1  0.75167378  0.24815783  0.75158527  1
  Fe  Fe84  1  0.24683609  0.00164250  0.00186812  1
  Fe  Fe85  1  0.50066286  0.75112779  0.50090247  1
  Fe  Fe86  1  0.75161929  0.74803872  0.25058988  1
  Fe  Fe87  1  0.50047325  -0.00137351  0.74498691  1
  Fe  Fe88  1  0.37406528  0.37343816  0.12389489  1
  Fe  Fe89  1  0.37651078  0.62327778  0.37422434  1
  Co  Co90  1  0.00099454  -0.00140877  0.74627086  1
  Co  Co91  1  0.12771953  0.37125213  0.62450374  1
  Co  Co92  1  0.49900839  0.49853341  0.25075632  1
  Co  Co93  1  0.37190633  0.37717450  0.87763488  1
  Co  Co94  1  0.74708273  0.50215875  0.50279977  1
  Co  Co95  1  0.00081951  0.25295315  -0.00201262  1
  Co  Co96  1  0.62529396  0.62509779  0.37260645  1
  Co  Co97  1  0.25039686  0.24828384  0.75272581  1
  Co  Co98  1  0.11845342  0.62840422  0.12718616  1
  Co  Co99  1  0.87492225  0.87670643  0.87138177  1
  Co  Co100  1  -0.00110793  0.25650251  0.25500370  1
  Co  Co101  1  0.12804698  0.37026711  0.12542049  1
  Co  Co102  1  0.75102524  0.74640651  0.75291189  1
  Co  Co103  1  0.88049402  0.12490394  0.87362412  1
  Co  Co104  1  0.25133759  0.74654255  0.24972141  1
  Co  Co105  1  0.37186304  0.87423127  0.62413236  1
  Co  Co106  1  0.12875505  0.87332970  0.37573497  1
  Co  Co107  1  0.00171732  0.49548701  0.00371326  1
  Co  Co108  1  0.87328460  0.37245696  0.62323872  1
  Co  Co109  1  0.12469071  0.62828962  0.62475156  1
  Co  Co110  1  -0.00160672  -0.00074692  0.00258158  1
  Co  Co111  1  0.37877433  0.62596058  0.12325079  1
  Co  Co112  1  0.62977296  0.87308507  0.62589998  1
  Co  Co113  1  -0.00062386  0.75330266  -0.00267487  1
  Co  Co114  1  0.24782365  0.50176039  0.50109133  1
  Co  Co115  1  0.00171830  -0.00376276  0.25212115  1
  Co  Co116  1  0.62446178  0.12954127  0.62667895  1
  Co  Co117  1  0.74950164  0.00460679  0.75148917  1
  Co  Co118  1  0.75233830  0.50239248  0.24765608  1
  Co  Co119  1  0.62429250  0.12249686  0.37280113  1
  Co  Co120  1  0.87226710  0.37063481  0.12296983  1
  Co  Co121  1  0.49915636  -0.00179788  0.24959217  1
  Co  Co122  1  0.37506624  0.12751156  0.62421241  1
  Co  Co123  1  0.12150280  0.12537995  0.37496766  1
  Co  Co124  1  0.62913254  0.37679315  0.37268357  1
  Co  Co125  1  0.87063236  0.87739452  0.37696402  1
  Co  Co126  1  0.50058597  0.25087257  0.00062739  1
  Co  Co127  1  0.87538557  0.62700886  0.62357171  1
