# generated using pymatgen
data_Fe45Co19
_symmetry_space_group_name_H-M   'P 1'
_cell_length_a   11.41652752
_cell_length_b   11.41457497
_cell_length_c   11.41645163
_cell_angle_alpha   89.99536666
_cell_angle_beta   90.00020380
_cell_angle_gamma   90.00139447
_symmetry_Int_Tables_number   1
_chemical_formula_structural   Fe45Co19
_chemical_formula_sum   'Fe90 Co38'
_cell_volume   1487.73271135
_cell_formula_units_Z   2
loop_
 _symmetry_equiv_pos_site_id
 _symmetry_equiv_pos_as_xyz
  1  'x, y, z'
loop_
 _atom_site_type_symbol
 _atom_site_label
 _atom_site_symmetry_multiplicity
 _atom_site_fract_x
 _atom_site_fract_y
 _atom_site_fract_z
 _atom_site_occupancy
  Fe  Fe0  1  0.37619544  0.62356634  0.87715298  1
  Fe  Fe1  1  0.37791918  0.87085921  0.12860046  1
  Fe  Fe2  1  0.12348442  0.37219760  0.12690388  1
  Fe  Fe3  1  0.62508279  0.87583932  0.62531594  1
  Fe  Fe4  1  0.25096290  0.49941462  0.00179899  1
  Fe  Fe5  1  0.24875100  0.25025053  0.25326446  1
  Fe  Fe6  1  0.25286984  0.75320497  0.49825820  1
  Fe  Fe7  1  0.87593379  0.36990177  0.87392675  1
  Fe  Fe8  1  -0.00170613  0.75001822  0.50057597  1
  Fe  Fe9  1  0.49972876  0.49671307  -0.00083376  1
  Fe  Fe10  1  0.62512721  0.37549553  0.62710287  1
  Fe  Fe11  1  0.49988097  0.00151219  0.74863766  1
  Fe  Fe12  1  0.75166125  0.24506419  0.74936222  1
  Fe  Fe13  1  0.87329580  0.87987088  0.87429446  1
  Fe  Fe14  1  0.25097751  0.25107484  0.74935143  1
  Fe  Fe15  1  0.49976017  0.25248889  0.49712326  1
  Fe  Fe16  1  0.25037435  -0.00101354  0.00287992  1
  Fe  Fe17  1  0.75079878  0.74991408  0.50086306  1
  Fe  Fe18  1  0.37278244  0.12382289  0.37638266  1
  Fe  Fe19  1  -0.00272888  0.49746200  0.00241071  1
  Fe  Fe20  1  0.87456710  0.62397245  0.62588877  1
  Fe  Fe21  1  0.49862544  0.49732516  0.49910095  1
  Fe  Fe22  1  0.00060697  0.00535912  0.00416766  1
  Fe  Fe23  1  0.37566729  0.37274535  0.12647510  1
  Fe  Fe24  1  0.00342579  0.25624557  0.50122976  1
  Fe  Fe25  1  0.75060267  0.00631772  0.74657090  1
  Fe  Fe26  1  0.49751847  0.25089971  0.75120366  1
  Fe  Fe27  1  0.74852281  0.00344509  0.24803930  1
  Fe  Fe28  1  0.25252182  0.49449371  0.49858582  1
  Fe  Fe29  1  0.12371575  0.62239222  0.87550196  1
  Fe  Fe30  1  0.62661461  0.36923961  0.12533910  1
  Fe  Fe31  1  0.62576282  0.62279125  0.37585925  1
  Fe  Fe32  1  0.37692746  0.12712480  0.12540094  1
  Fe  Fe33  1  0.37590651  0.12548950  0.87725292  1
  Fe  Fe34  1  -0.00300356  0.49758110  0.74707217  1
  Fe  Fe35  1  0.12612736  0.12656458  0.62302629  1
  Fe  Fe36  1  0.87507219  0.37485201  0.37359479  1
  Fe  Fe37  1  0.12386238  0.87681194  0.87604032  1
  Fe  Fe38  1  0.87637923  0.12617862  0.37697264  1
  Fe  Fe39  1  0.25040213  0.25090030  -0.00068099  1
  Fe  Fe40  1  0.12471887  0.12529509  0.87504026  1
  Fe  Fe41  1  0.74696764  0.75082820  0.24980842  1
  Fe  Fe42  1  0.12501895  0.62206417  0.37677159  1
  Fe  Fe43  1  0.74632107  0.00655091  0.00131451  1
  Fe  Fe44  1  0.37909866  0.62912638  0.12698596  1
  Fe  Fe45  1  0.24721446  -0.00009617  0.24704448  1
  Fe  Fe46  1  0.00020505  0.74982806  0.24918079  1
  Fe  Fe47  1  0.62389488  0.62195915  0.62616564  1
  Fe  Fe48  1  -0.00044330  0.75008390  0.74990066  1
  Fe  Fe49  1  0.50239120  0.25009256  0.25316240  1
  Fe  Fe50  1  0.62377736  0.62731551  0.12212630  1
  Fe  Fe51  1  0.12616818  0.87574161  0.37366006  1
  Fe  Fe52  1  0.24984616  0.74957258  0.75075078  1
  Fe  Fe53  1  0.49858732  0.75292079  0.49523044  1
  Fe  Fe54  1  0.87319079  0.87596277  0.37410933  1
  Fe  Fe55  1  0.74825192  0.74844076  0.75184836  1
  Fe  Fe56  1  0.12437536  0.37504156  0.87342858  1
  Fe  Fe57  1  0.25037807  0.75077549  0.00026643  1
  Fe  Fe58  1  0.87422724  0.62413160  0.37376626  1
  Fe  Fe59  1  0.12355471  0.62607237  0.12338604  1
  Fe  Fe60  1  0.00047218  0.00409590  0.24647220  1
  Fe  Fe61  1  0.50385612  -0.00221283  0.24997570  1
  Fe  Fe62  1  0.50266906  0.00046290  0.00152416  1
  Fe  Fe63  1  0.74952941  0.49892872  0.24783275  1
  Fe  Fe64  1  0.75188117  0.49731096  0.00063034  1
  Fe  Fe65  1  0.12553705  0.87465071  0.62584230  1
  Fe  Fe66  1  0.25114774  0.00041731  0.74783272  1
  Fe  Fe67  1  0.49683296  -0.00349865  0.49951334  1
  Fe  Fe68  1  0.37585573  0.87595559  0.87372364  1
  Fe  Fe69  1  0.62482277  0.37457121  0.87304845  1
  Fe  Fe70  1  0.25438372  0.49882235  0.74975009  1
  Fe  Fe71  1  -0.00186567  0.00245071  0.74711159  1
  Fe  Fe72  1  0.75177161  0.49885812  0.50142581  1
  Fe  Fe73  1  0.50299668  0.74826755  0.75376267  1
  Fe  Fe74  1  0.87383986  0.36575815  0.12676110  1
  Fe  Fe75  1  0.25103435  0.50110895  0.24973415  1
  Fe  Fe76  1  0.75127600  0.00155283  0.50367413  1
  Fe  Fe77  1  -0.00210403  0.75055993  -0.00033461  1
  Fe  Fe78  1  0.12553018  0.62182688  0.62311990  1
  Fe  Fe79  1  0.87475995  0.62301551  0.87535038  1
  Fe  Fe80  1  0.74866105  0.75027167  -0.00273554  1
  Fe  Fe81  1  0.74786286  0.25040537  0.49878563  1
  Fe  Fe82  1  0.50107504  0.49997606  0.25057693  1
  Fe  Fe83  1  0.12647153  0.12484748  0.37785953  1
  Fe  Fe84  1  0.37381478  0.12696515  0.62141814  1
  Fe  Fe85  1  0.62442244  0.12270228  0.37724766  1
  Fe  Fe86  1  0.87359362  0.87647599  0.12449705  1
  Fe  Fe87  1  -0.00227289  0.50051315  0.24843696  1
  Fe  Fe88  1  0.37662661  0.62509480  0.62371858  1
  Fe  Fe89  1  -0.00037356  -0.00283354  0.50158353  1
  Co  Co90  1  0.12367715  0.87286346  0.12383314  1
  Co  Co91  1  0.62105939  0.12569798  0.87327774  1
  Co  Co92  1  0.75147159  0.50017899  0.75120841  1
  Co  Co93  1  0.62408191  0.13041998  0.12633170  1
  Co  Co94  1  0.49774101  0.49987529  0.75138749  1
  Co  Co95  1  0.00009491  0.24928171  0.74785630  1
  Co  Co96  1  0.62098496  0.12643457  0.62288782  1
  Co  Co97  1  0.12692101  0.37747768  0.62800177  1
  Co  Co98  1  0.87310236  0.62666296  0.12474043  1
  Co  Co99  1  0.37425030  0.37475475  0.87656171  1
  Co  Co100  1  0.62982450  0.87761364  0.37791344  1
  Co  Co101  1  0.12814104  0.12927687  0.12421356  1
  Co  Co102  1  0.87152204  0.37256349  0.62506036  1
  Co  Co103  1  0.37676265  0.37324051  0.62446487  1
  Co  Co104  1  0.50441563  0.75097835  0.25683038  1
  Co  Co105  1  0.87173058  0.13103704  0.12572419  1
  Co  Co106  1  0.87806093  0.12519638  0.87580524  1
  Co  Co107  1  0.24795185  0.74814874  0.25042734  1
  Co  Co108  1  0.37577880  0.37503858  0.37226133  1
  Co  Co109  1  0.12340396  0.37813580  0.37164673  1
  Co  Co110  1  0.25162523  -0.00306877  0.50248159  1
  Co  Co111  1  -0.00332461  0.49800419  0.50143219  1
  Co  Co112  1  0.74729475  0.24768291  0.25614792  1
  Co  Co113  1  0.87322162  0.87442374  0.62679526  1
  Co  Co114  1  0.37697697  0.87352223  0.62836787  1
  Co  Co115  1  0.62755874  0.88045267  0.87290013  1
  Co  Co116  1  0.50162840  0.75204237  -0.00515560  1
  Co  Co117  1  0.00170363  0.24613324  0.25175155  1
  Co  Co118  1  0.62538753  0.37769024  0.37499689  1
  Co  Co119  1  0.37155625  0.87708503  0.36939906  1
  Co  Co120  1  0.74749267  0.24632213  -0.00450418  1
  Co  Co121  1  0.62488792  0.87282486  0.12338369  1
  Co  Co122  1  0.37499123  0.62310927  0.37428247  1
  Co  Co123  1  0.50052030  0.25105233  -0.00120506  1
  Co  Co124  1  0.62555646  0.61951876  0.87779570  1
  Co  Co125  1  0.00228877  0.24811497  0.00011202  1
  Co  Co126  1  0.87848815  0.12865195  0.62019827  1
  Co  Co127  1  0.24833957  0.25414518  0.49828632  1
