# generated using pymatgen
data_Fe45Co19
_symmetry_space_group_name_H-M   'P 1'
_cell_length_a   11.41514171
_cell_length_b   11.41610124
_cell_length_c   11.41620692
_cell_angle_alpha   90.00117281
_cell_angle_beta   89.99877380
_cell_angle_gamma   89.99552605
_symmetry_Int_Tables_number   1
_chemical_formula_structural   Fe45Co19
_chemical_formula_sum   'Fe90 Co38'
_cell_volume   1487.71913499
_cell_formula_units_Z   2
loop_
 _symmetry_equiv_pos_site_id
 _symmetry_equiv_pos_as_xyz
  1  'x, y, z'
loop_
 _atom_site_type_symbol
 _atom_site_label
 _atom_site_symmetry_multiplicity
 _atom_site_fract_x
 _atom_site_fract_y
 _atom_site_fract_z
 _atom_site_occupancy
  Fe  Fe0  1  0.87862854  0.12147330  0.87532656  1
  Fe  Fe1  1  0.75004205  0.74825972  0.24969937  1
  Fe  Fe2  1  0.25126111  0.49948283  0.49752991  1
  Fe  Fe3  1  0.00035578  0.75001808  0.50094580  1
  Fe  Fe4  1  0.00170490  0.49738970  0.24723619  1
  Fe  Fe5  1  0.12521597  0.87921667  0.12462177  1
  Fe  Fe6  1  0.12446790  0.62554703  0.12366258  1
  Fe  Fe7  1  0.49867373  0.75156981  0.25015656  1
  Fe  Fe8  1  -0.00098754  -0.00054450  0.50169118  1
  Fe  Fe9  1  0.87474148  0.37407199  0.62449443  1
  Fe  Fe10  1  0.62282866  0.62632625  0.37541300  1
  Fe  Fe11  1  0.74911307  0.24769136  -0.00117741  1
  Fe  Fe12  1  0.87536843  0.37674134  0.87822185  1
  Fe  Fe13  1  0.62288749  0.12172765  0.12091140  1
  Fe  Fe14  1  0.87623996  0.12636182  0.37588805  1
  Fe  Fe15  1  0.74642305  0.50270580  -0.00010274  1
  Fe  Fe16  1  0.75216037  0.74881595  0.50049285  1
  Fe  Fe17  1  0.37124217  0.37440438  0.12698286  1
  Fe  Fe18  1  0.37438639  0.62541005  0.62601575  1
  Fe  Fe19  1  0.50051803  0.75137800  0.00020383  1
  Fe  Fe20  1  0.37496793  0.62495574  0.12399763  1
  Fe  Fe21  1  0.62636878  0.37268980  0.62598154  1
  Fe  Fe22  1  0.12818960  0.87367150  0.37493259  1
  Fe  Fe23  1  0.00334080  0.25265208  0.00237584  1
  Fe  Fe24  1  0.62449156  0.37446239  0.37363025  1
  Fe  Fe25  1  0.24940744  0.75281219  -0.00009407  1
  Fe  Fe26  1  0.87410542  0.37331358  0.37225308  1
  Fe  Fe27  1  0.75147030  0.00246857  0.50339462  1
  Fe  Fe28  1  0.74838810  0.24851503  0.24956076  1
  Fe  Fe29  1  0.00191101  0.49783271  0.49733358  1
  Fe  Fe30  1  0.24773764  0.74851628  0.75101706  1
  Fe  Fe31  1  0.37515519  0.12438443  0.87538313  1
  Fe  Fe32  1  0.87430112  0.87509819  0.37362900  1
  Fe  Fe33  1  0.37690058  0.62510170  0.87608677  1
  Fe  Fe34  1  0.37628325  0.12436207  0.62601853  1
  Fe  Fe35  1  0.49649755  0.50093120  0.25079412  1
  Fe  Fe36  1  0.12612593  0.87390775  0.62655017  1
  Fe  Fe37  1  -0.00075852  0.50018166  0.75048790  1
  Fe  Fe38  1  0.00248171  0.25041247  0.75089365  1
  Fe  Fe39  1  0.50052226  0.25139363  -0.00200872  1
  Fe  Fe40  1  -0.00383690  0.75540228  -0.00137799  1
  Fe  Fe41  1  0.74996026  0.49919548  0.49967539  1
  Fe  Fe42  1  0.12878399  0.62842212  0.37373571  1
  Fe  Fe43  1  0.74942637  0.00199185  0.24924920  1
  Fe  Fe44  1  0.24979498  0.00455525  0.25214039  1
  Fe  Fe45  1  0.87645728  0.62438430  0.37441818  1
  Fe  Fe46  1  0.87646470  0.62462807  0.12357818  1
  Fe  Fe47  1  0.75341558  0.74544408  0.75156632  1
  Fe  Fe48  1  0.87599561  0.87311505  0.62830615  1
  Fe  Fe49  1  0.62316684  0.12434893  0.37816807  1
  Fe  Fe50  1  0.24865288  0.49969900  0.75174765  1
  Fe  Fe51  1  0.24752488  0.00227573  0.75229475  1
  Fe  Fe52  1  0.74926779  0.00510447  0.74617866  1
  Fe  Fe53  1  0.62429909  0.62639688  0.62448629  1
  Fe  Fe54  1  0.75231113  0.75099825  -0.00122157  1
  Fe  Fe55  1  -0.00018297  0.00058054  0.25064794  1
  Fe  Fe56  1  0.37470794  0.87901125  0.12635678  1
  Fe  Fe57  1  0.74984537  0.50064980  0.24900348  1
  Fe  Fe58  1  0.50285042  -0.00020257  0.74970290  1
  Fe  Fe59  1  0.13186273  0.37030760  0.37090387  1
  Fe  Fe60  1  0.50153249  0.49872638  0.75242073  1
  Fe  Fe61  1  0.49832160  0.24804253  0.24986447  1
  Fe  Fe62  1  0.49990674  0.75178877  0.74877357  1
  Fe  Fe63  1  0.49534804  0.75400908  0.50164477  1
  Fe  Fe64  1  0.62474610  0.37562416  0.12410082  1
  Fe  Fe65  1  0.00074599  0.75112944  0.24961986  1
  Fe  Fe66  1  0.12434329  0.62394258  0.62421649  1
  Fe  Fe67  1  0.24674153  0.24769449  -0.00034668  1
  Fe  Fe68  1  0.62604668  0.87682818  0.12424395  1
  Fe  Fe69  1  0.62846551  0.87672087  0.87458416  1
  Fe  Fe70  1  0.25097506  0.00153756  0.49884601  1
  Fe  Fe71  1  0.37366933  0.37535175  0.87593574  1
  Fe  Fe72  1  0.37668398  0.12140028  0.12204140  1
  Fe  Fe73  1  0.00109218  0.25233006  0.49990004  1
  Fe  Fe74  1  0.24672118  0.25008274  0.75078915  1
  Fe  Fe75  1  0.12131718  0.62372778  0.87750934  1
  Fe  Fe76  1  0.49868253  -0.00453009  0.50227612  1
  Fe  Fe77  1  0.12423395  0.12672095  0.62310459  1
  Fe  Fe78  1  0.49783073  0.25239986  0.49941179  1
  Fe  Fe79  1  0.49733383  0.49911571  0.49767344  1
  Fe  Fe80  1  0.74899808  0.24733745  0.75113263  1
  Fe  Fe81  1  0.87655636  0.12491986  0.12480386  1
  Fe  Fe82  1  0.37261318  0.37482148  0.62558728  1
  Fe  Fe83  1  0.50188346  0.25010801  0.75287628  1
  Fe  Fe84  1  0.37421196  0.87549691  0.87311735  1
  Fe  Fe85  1  0.24875512  0.49950075  0.00010973  1
  Fe  Fe86  1  0.12109133  0.87884199  0.87409331  1
  Fe  Fe87  1  0.00223178  0.25046073  0.24642278  1
  Fe  Fe88  1  0.75019581  0.50239117  0.75112062  1
  Fe  Fe89  1  0.62603522  0.87561099  0.37565408  1
  Co  Co90  1  0.62337587  0.62558832  0.12550707  1
  Co  Co91  1  0.25144869  -0.00082978  -0.00274464  1
  Co  Co92  1  0.12595413  0.37571253  0.62486871  1
  Co  Co93  1  0.62653486  0.37518633  0.87581927  1
  Co  Co94  1  0.49948970  -0.00275485  -0.00334315  1
  Co  Co95  1  0.12479952  0.37611276  0.87507455  1
  Co  Co96  1  0.62853341  0.87285761  0.62611118  1
  Co  Co97  1  0.37315680  0.63039936  0.37466517  1
  Co  Co98  1  0.87704490  0.62370151  0.62247866  1
  Co  Co99  1  0.00149392  0.00261501  0.74555583  1
  Co  Co100  1  0.37154402  0.87458363  0.37235945  1
  Co  Co101  1  0.75435116  -0.00134396  0.00169182  1
  Co  Co102  1  -0.00489382  -0.00327234  0.00193810  1
  Co  Co103  1  0.87741428  0.12950576  0.62350459  1
  Co  Co104  1  0.24997386  0.75094069  0.24467463  1
  Co  Co105  1  0.37061483  0.87671021  0.62926572  1
  Co  Co106  1  0.00019524  0.74743896  0.75072971  1
  Co  Co107  1  0.25088558  0.50369493  0.25110699  1
  Co  Co108  1  0.75011989  0.25050673  0.49811695  1
  Co  Co109  1  0.00269292  0.49490622  0.00460243  1
  Co  Co110  1  0.25189099  0.24794975  0.50150711  1
  Co  Co111  1  0.12418731  0.12055905  0.12183139  1
  Co  Co112  1  0.37091607  0.37157615  0.37181094  1
  Co  Co113  1  0.87386105  0.87450523  0.12978686  1
  Co  Co114  1  0.12199836  0.12679200  0.37690907  1
  Co  Co115  1  0.12191402  0.12261477  0.87846804  1
  Co  Co116  1  0.37867715  0.12387027  0.37746808  1
  Co  Co117  1  0.87140733  0.37463779  0.12323448  1
  Co  Co118  1  0.62204520  0.62658817  0.87512057  1
  Co  Co119  1  0.25182200  0.75082588  0.50367291  1
  Co  Co120  1  0.25209170  0.23976449  0.24886094  1
  Co  Co121  1  0.62460520  0.12216586  0.87791865  1
  Co  Co122  1  0.87460040  0.87960592  0.86836982  1
  Co  Co123  1  0.87871665  0.62217419  0.87956538  1
  Co  Co124  1  0.50159869  -0.00012603  0.25115984  1
  Co  Co125  1  0.13198830  0.37366552  0.12863688  1
  Co  Co126  1  0.49990566  0.49812461  -0.00006304  1
  Co  Co127  1  0.62180683  0.12829573  0.62223986  1
