# generated using pymatgen
data_Fe45Co19
_symmetry_space_group_name_H-M   'P 1'
_cell_length_a   11.41520360
_cell_length_b   11.41512072
_cell_length_c   11.41525564
_cell_angle_alpha   90.00609250
_cell_angle_beta   89.98676642
_cell_angle_gamma   89.99998683
_symmetry_Int_Tables_number   1
_chemical_formula_structural   Fe45Co19
_chemical_formula_sum   'Fe90 Co38'
_cell_volume   1487.47542273
_cell_formula_units_Z   2
loop_
 _symmetry_equiv_pos_site_id
 _symmetry_equiv_pos_as_xyz
  1  'x, y, z'
loop_
 _atom_site_type_symbol
 _atom_site_label
 _atom_site_symmetry_multiplicity
 _atom_site_fract_x
 _atom_site_fract_y
 _atom_site_fract_z
 _atom_site_occupancy
  Fe  Fe0  1  0.75264412  0.00180764  0.24891025  1
  Fe  Fe1  1  0.12665268  0.62551678  0.62676403  1
  Fe  Fe2  1  0.87254273  0.37333839  0.37311937  1
  Fe  Fe3  1  -0.00289049  0.00526848  0.24820385  1
  Fe  Fe4  1  0.75070274  0.74962438  0.50089497  1
  Fe  Fe5  1  0.62632305  0.12259572  0.37661246  1
  Fe  Fe6  1  0.12514634  0.87560587  0.62646521  1
  Fe  Fe7  1  0.74864244  -0.00350130  0.74980723  1
  Fe  Fe8  1  0.87413548  0.62660889  0.62690231  1
  Fe  Fe9  1  -0.00304318  0.50034237  0.50015177  1
  Fe  Fe10  1  0.74961319  0.49923812  0.74748476  1
  Fe  Fe11  1  0.87426833  0.62843457  0.12476970  1
  Fe  Fe12  1  0.37757047  0.37536591  0.12313422  1
  Fe  Fe13  1  0.12720667  0.12424439  0.87728281  1
  Fe  Fe14  1  0.87380274  0.87280096  0.87524202  1
  Fe  Fe15  1  0.37452759  0.87399628  0.37199367  1
  Fe  Fe16  1  0.62393307  0.37504797  0.87518282  1
  Fe  Fe17  1  -0.00110520  0.75022422  0.25154326  1
  Fe  Fe18  1  0.74931626  -0.00167682  0.00040116  1
  Fe  Fe19  1  0.25251875  0.25048310  0.75084906  1
  Fe  Fe20  1  0.00027009  0.49967695  0.00176886  1
  Fe  Fe21  1  0.37445401  0.62529007  0.62667916  1
  Fe  Fe22  1  0.62323424  0.87162772  0.12530739  1
  Fe  Fe23  1  0.87525185  0.12547476  0.62567417  1
  Fe  Fe24  1  0.75112370  0.49951996  0.00243480  1
  Fe  Fe25  1  0.12443878  0.37631938  0.37332255  1
  Fe  Fe26  1  0.87508764  0.37353806  0.87300726  1
  Fe  Fe27  1  0.37691445  0.87521692  0.62445729  1
  Fe  Fe28  1  0.74814316  0.25016460  -0.00086313  1
  Fe  Fe29  1  0.50236461  0.25007325  0.24974643  1
  Fe  Fe30  1  0.12580375  0.87553824  0.87667276  1
  Fe  Fe31  1  0.49935758  0.50110308  0.75162240  1
  Fe  Fe32  1  -0.00092886  0.24991555  0.49851038  1
  Fe  Fe33  1  0.50119510  0.75020415  0.75230828  1
  Fe  Fe34  1  0.62922935  0.62613769  0.87510056  1
  Fe  Fe35  1  0.24820709  0.25017417  0.24833466  1
  Fe  Fe36  1  -0.00163418  0.49960403  0.24842391  1
  Fe  Fe37  1  0.25049571  0.50028751  0.50111184  1
  Fe  Fe38  1  0.62266579  0.87566202  0.62455882  1
  Fe  Fe39  1  0.37678856  0.37645903  0.62465892  1
  Fe  Fe40  1  0.00116975  0.75049986  0.49886972  1
  Fe  Fe41  1  0.12485913  0.62390010  0.37336358  1
  Fe  Fe42  1  0.12775441  0.62401018  0.87551090  1
  Fe  Fe43  1  -0.00078785  0.00032880  0.75084507  1
  Fe  Fe44  1  0.12594017  0.37614028  0.87643427  1
  Fe  Fe45  1  0.37522608  0.37730768  0.37349222  1
  Fe  Fe46  1  0.63070201  0.62206512  0.37314772  1
  Fe  Fe47  1  -0.00099507  -0.00020516  0.50046203  1
  Fe  Fe48  1  0.37244642  0.62453004  0.37242071  1
  Fe  Fe49  1  0.49871666  0.24948554  0.49773068  1
  Fe  Fe50  1  0.50127016  0.50281584  0.24909390  1
  Fe  Fe51  1  0.12589965  0.12364667  0.37432786  1
  Fe  Fe52  1  0.25046928  -0.00060212  0.24278521  1
  Fe  Fe53  1  0.87389827  0.87605590  0.37647310  1
  Fe  Fe54  1  0.87239980  0.62631380  0.87467778  1
  Fe  Fe55  1  0.25188624  0.25014388  0.49885442  1
  Fe  Fe56  1  0.74877816  0.25028673  0.74900870  1
  Fe  Fe57  1  0.24898927  0.75068504  0.49989058  1
  Fe  Fe58  1  0.62714628  0.37881283  0.37561738  1
  Fe  Fe59  1  0.12541914  0.87704998  0.37239833  1
  Fe  Fe60  1  0.50178896  0.74696678  0.00039634  1
  Fe  Fe61  1  0.62290820  0.37845775  0.62273353  1
  Fe  Fe62  1  0.37035880  0.62279464  0.87554198  1
  Fe  Fe63  1  0.50062819  0.74747434  0.49636172  1
  Fe  Fe64  1  0.49876714  0.00190121  0.00081560  1
  Fe  Fe65  1  0.62127211  0.12170826  0.62412589  1
  Fe  Fe66  1  0.62562941  0.37573581  0.12515530  1
  Fe  Fe67  1  0.25156354  0.25048839  0.00105241  1
  Fe  Fe68  1  0.24790755  0.50047255  0.24408501  1
  Fe  Fe69  1  0.87627068  0.36792960  0.12644811  1
  Fe  Fe70  1  0.49769654  0.24916527  0.75200037  1
  Fe  Fe71  1  0.37535640  0.87607900  0.87857660  1
  Fe  Fe72  1  0.12585076  0.12552045  0.62519521  1
  Fe  Fe73  1  0.37478083  0.12457238  0.37282379  1
  Fe  Fe74  1  0.00102569  0.49910019  0.75017866  1
  Fe  Fe75  1  0.87383419  0.12599788  0.87556974  1
  Fe  Fe76  1  0.00091357  0.75055657  0.75206793  1
  Fe  Fe77  1  0.25244330  -0.00048596  0.49997357  1
  Fe  Fe78  1  0.50089182  0.50166435  -0.00023517  1
  Fe  Fe79  1  0.62322586  0.12372487  0.87436926  1
  Fe  Fe80  1  0.62532639  0.12594861  0.12478240  1
  Fe  Fe81  1  0.00024418  0.00140273  0.00095594  1
  Fe  Fe82  1  0.74923055  0.25048599  0.50097093  1
  Fe  Fe83  1  0.62685939  0.87633334  0.37481878  1
  Fe  Fe84  1  0.87636929  0.87337315  0.12357666  1
  Fe  Fe85  1  0.24937603  0.75043800  0.24529694  1
  Fe  Fe86  1  0.24777970  0.75101211  0.00428734  1
  Fe  Fe87  1  0.49920725  -0.00051459  0.24970195  1
  Fe  Fe88  1  0.25387502  0.00021812  0.75139406  1
  Fe  Fe89  1  0.12369463  0.37369832  0.62512854  1
  Co  Co90  1  0.38007350  0.87234584  0.12450423  1
  Co  Co91  1  0.87275333  0.12572621  0.37756481  1
  Co  Co92  1  0.75319080  0.49928863  0.24615601  1
  Co  Co93  1  0.00145659  0.24876610  0.75226120  1
  Co  Co94  1  0.62462205  0.62427173  0.62547972  1
  Co  Co95  1  0.00041038  0.25000055  -0.00364907  1
  Co  Co96  1  0.49735161  -0.00087793  0.49691642  1
  Co  Co97  1  0.74714616  0.24764806  0.25067961  1
  Co  Co98  1  0.75119014  -0.00054086  0.50232330  1
  Co  Co99  1  0.12124335  0.62713302  0.12533608  1
  Co  Co100  1  0.00106038  0.24621546  0.25271019  1
  Co  Co101  1  0.87584902  0.37329363  0.62742396  1
  Co  Co102  1  0.87384680  0.62546965  0.37446741  1
  Co  Co103  1  0.49804058  0.50348037  0.49769524  1
  Co  Co104  1  0.12380214  0.12676059  0.12293383  1
  Co  Co105  1  0.37679879  0.62523593  0.12470695  1
  Co  Co106  1  0.50216665  0.74739370  0.25294115  1
  Co  Co107  1  0.37642952  0.12734019  0.12521749  1
  Co  Co108  1  0.37617012  0.12447156  0.62460620  1
  Co  Co109  1  0.11980389  0.87480379  0.12550348  1
  Co  Co110  1  0.74784570  0.75303492  0.74990082  1
  Co  Co111  1  0.62716450  0.62592079  0.12552638  1
  Co  Co112  1  0.37550730  0.12436879  0.87851288  1
  Co  Co113  1  0.37545816  0.37690929  0.87759001  1
  Co  Co114  1  0.75054384  0.75197745  0.24962196  1
  Co  Co115  1  0.75392026  0.50017771  0.50259727  1
  Co  Co116  1  0.12222042  0.37201749  0.12527236  1
  Co  Co117  1  0.25041791  0.75305296  0.75093558  1
  Co  Co118  1  0.25021848  -0.00236456  0.00456978  1
  Co  Co119  1  0.50190552  0.24982526  -0.00040050  1
  Co  Co120  1  0.24985951  0.49685865  0.74881134  1
  Co  Co121  1  0.87649500  0.87378467  0.62555213  1
  Co  Co122  1  0.74957879  0.75126394  0.00067492  1
  Co  Co123  1  0.00048357  0.74893312  -0.00315375  1
  Co  Co124  1  0.49818705  -0.00104603  0.75215954  1
  Co  Co125  1  0.62321344  0.87516011  0.87756977  1
  Co  Co126  1  0.87432910  0.12895845  0.12175012  1
  Co  Co127  1  0.24801151  0.50009660  0.00462541  1
