# generated using pymatgen
data_Fe45Co19
_symmetry_space_group_name_H-M   'P 1'
_cell_length_a   11.41491730
_cell_length_b   11.41580346
_cell_length_c   11.41461562
_cell_angle_alpha   90.01152753
_cell_angle_beta   89.99497088
_cell_angle_gamma   90.00940993
_symmetry_Int_Tables_number   1
_chemical_formula_structural   Fe45Co19
_chemical_formula_sum   'Fe90 Co38'
_cell_volume   1487.44367024
_cell_formula_units_Z   2
loop_
 _symmetry_equiv_pos_site_id
 _symmetry_equiv_pos_as_xyz
  1  'x, y, z'
loop_
 _atom_site_type_symbol
 _atom_site_label
 _atom_site_symmetry_multiplicity
 _atom_site_fract_x
 _atom_site_fract_y
 _atom_site_fract_z
 _atom_site_occupancy
  Fe  Fe0  1  0.37525531  0.87425422  0.62508790  1
  Fe  Fe1  1  0.12509086  0.87422735  0.37503277  1
  Fe  Fe2  1  0.37318750  0.62372155  0.12561819  1
  Fe  Fe3  1  0.74759279  0.00083715  -0.00016110  1
  Fe  Fe4  1  -0.00045432  0.74975386  0.50193681  1
  Fe  Fe5  1  0.87993788  0.87542684  0.62939411  1
  Fe  Fe6  1  0.87064450  0.62680205  0.37331285  1
  Fe  Fe7  1  0.87348649  0.87286238  0.37311648  1
  Fe  Fe8  1  0.75014669  0.49867193  0.24679499  1
  Fe  Fe9  1  0.62780601  0.87202272  0.37582863  1
  Fe  Fe10  1  0.37466066  0.62045512  0.62689282  1
  Fe  Fe11  1  0.25216198  0.25313502  0.00412668  1
  Fe  Fe12  1  0.24762016  -0.00000293  0.50199881  1
  Fe  Fe13  1  0.75246051  0.25097164  0.50081307  1
  Fe  Fe14  1  -0.00013264  0.24890374  0.24856455  1
  Fe  Fe15  1  0.87589063  0.12447914  0.12389446  1
  Fe  Fe16  1  0.87361423  0.12581645  0.37492542  1
  Fe  Fe17  1  0.37700482  0.37713746  0.62675556  1
  Fe  Fe18  1  0.62283982  0.87404202  0.12429177  1
  Fe  Fe19  1  0.49970147  0.74483875  0.49779290  1
  Fe  Fe20  1  0.49720244  0.75011213  -0.00171558  1
  Fe  Fe21  1  0.25010807  0.75021891  0.24922903  1
  Fe  Fe22  1  0.62513084  0.12668268  0.62518596  1
  Fe  Fe23  1  0.50144133  0.25163664  0.75395938  1
  Fe  Fe24  1  0.37722310  0.12512218  0.12559779  1
  Fe  Fe25  1  0.12423122  0.87444525  0.87295671  1
  Fe  Fe26  1  0.49755838  0.49663904  -0.00199227  1
  Fe  Fe27  1  0.75183999  0.25080689  -0.00171648  1
  Fe  Fe28  1  0.25097785  0.75152971  0.00028350  1
  Fe  Fe29  1  0.62164213  0.37232672  0.12463405  1
  Fe  Fe30  1  0.74789341  0.00115754  0.24928312  1
  Fe  Fe31  1  0.00190222  0.00197770  0.25169992  1
  Fe  Fe32  1  0.12503376  0.62548070  0.87790828  1
  Fe  Fe33  1  0.87857858  0.87574071  0.87268910  1
  Fe  Fe34  1  0.50089112  0.74841687  0.75209667  1
  Fe  Fe35  1  0.50075237  0.74606298  0.25259422  1
  Fe  Fe36  1  0.12230958  0.37268896  0.62311002  1
  Fe  Fe37  1  0.24871449  0.25056973  0.74766670  1
  Fe  Fe38  1  0.75143447  0.75143334  -0.00164663  1
  Fe  Fe39  1  0.25101811  -0.00086753  0.00196853  1
  Fe  Fe40  1  0.24964894  0.49653418  0.00164444  1
  Fe  Fe41  1  0.75016753  0.49815782  0.50213144  1
  Fe  Fe42  1  0.87977375  0.37468296  0.12139705  1
  Fe  Fe43  1  -0.00158373  0.74705199  0.24504354  1
  Fe  Fe44  1  0.50492018  0.49750750  0.75236045  1
  Fe  Fe45  1  0.50163560  0.50272427  0.25255923  1
  Fe  Fe46  1  0.12446984  0.12815703  0.37916848  1
  Fe  Fe47  1  0.87358567  0.62550438  0.62797941  1
  Fe  Fe48  1  0.12532415  0.62479937  0.37550957  1
  Fe  Fe49  1  0.37557289  0.12633738  0.62436175  1
  Fe  Fe50  1  0.62154987  0.12869108  0.12354131  1
  Fe  Fe51  1  0.37345487  0.12431919  0.37634092  1
  Fe  Fe52  1  0.49983002  0.25119375  0.49872513  1
  Fe  Fe53  1  0.75163985  0.49814345  -0.00284226  1
  Fe  Fe54  1  0.74901411  -0.00079173  0.75007776  1
  Fe  Fe55  1  0.00232916  0.50122892  0.75085842  1
  Fe  Fe56  1  0.75004331  0.25078681  0.75307411  1
  Fe  Fe57  1  0.24979486  0.25045816  0.24859618  1
  Fe  Fe58  1  0.37600170  0.37729271  0.37399668  1
  Fe  Fe59  1  0.24655007  0.74742286  0.74700525  1
  Fe  Fe60  1  0.37364477  0.87635684  0.87245156  1
  Fe  Fe61  1  0.50194382  0.00204080  0.25243241  1
  Fe  Fe62  1  0.87416142  0.37470269  0.37189200  1
  Fe  Fe63  1  0.00257440  0.00376333  -0.00347667  1
  Fe  Fe64  1  0.37300576  0.62143738  0.87307835  1
  Fe  Fe65  1  0.62391673  0.87324049  0.62521766  1
  Fe  Fe66  1  0.24754981  0.49822420  0.24755193  1
  Fe  Fe67  1  0.87830002  0.12342569  0.62513272  1
  Fe  Fe68  1  0.00014190  0.50345727  0.24590930  1
  Fe  Fe69  1  0.62667838  0.62504517  0.12208445  1
  Fe  Fe70  1  0.12422517  0.87645116  0.12537513  1
  Fe  Fe71  1  0.87553049  0.62501132  0.87457374  1
  Fe  Fe72  1  0.62750009  0.62500935  0.62568116  1
  Fe  Fe73  1  -0.00306404  0.49897271  0.49977594  1
  Fe  Fe74  1  0.24646836  0.00287918  0.74623754  1
  Fe  Fe75  1  0.12325771  0.37411134  0.37527885  1
  Fe  Fe76  1  0.12280162  0.37332161  0.87841530  1
  Fe  Fe77  1  0.37429127  0.12549818  0.87637109  1
  Fe  Fe78  1  0.87632375  0.87679157  0.12395835  1
  Fe  Fe79  1  0.75159422  -0.00114896  0.50088452  1
  Fe  Fe80  1  0.62345799  0.87628337  0.87524070  1
  Fe  Fe81  1  0.37640848  0.87687898  0.12776552  1
  Fe  Fe82  1  0.50193117  0.00108906  0.49930973  1
  Fe  Fe83  1  0.62636970  0.37349701  0.37512935  1
  Fe  Fe84  1  0.49969937  0.00131294  0.75110033  1
  Fe  Fe85  1  0.24996334  0.49787862  0.50131378  1
  Fe  Fe86  1  0.87476594  0.37502994  0.62969278  1
  Fe  Fe87  1  0.37422912  0.87479002  0.37560199  1
  Fe  Fe88  1  0.24912532  0.74842474  0.50303710  1
  Fe  Fe89  1  0.00030281  0.24543869  0.75376637  1
  Co  Co90  1  0.74938747  0.75109712  0.75260177  1
  Co  Co91  1  0.00334642  0.74637079  0.74909513  1
  Co  Co92  1  -0.00165660  0.24500584  -0.00263968  1
  Co  Co93  1  0.50216457  0.50161141  0.49819746  1
  Co  Co94  1  0.49863431  -0.00030781  -0.00069800  1
  Co  Co95  1  0.37040132  0.62289208  0.37467895  1
  Co  Co96  1  0.12435454  0.62126314  0.62098387  1
  Co  Co97  1  0.75224316  0.75167176  0.50417177  1
  Co  Co98  1  0.75018661  0.75078806  0.24493521  1
  Co  Co99  1  0.12518024  0.12521582  0.12442790  1
  Co  Co100  1  0.63284744  0.62514015  0.37508666  1
  Co  Co101  1  -0.00071710  0.74969940  0.00220027  1
  Co  Co102  1  0.62498445  0.62441678  0.87755423  1
  Co  Co103  1  0.62466438  0.12475033  0.87580750  1
  Co  Co104  1  0.75183202  0.25090290  0.24670057  1
  Co  Co105  1  0.12188767  0.12834165  0.61912383  1
  Co  Co106  1  -0.00077392  -0.00162660  0.49760264  1
  Co  Co107  1  0.62756030  0.37381552  0.87666953  1
  Co  Co108  1  0.37198456  0.37634572  0.87164619  1
  Co  Co109  1  0.49717698  0.25308291  -0.00414099  1
  Co  Co110  1  0.87096555  0.12271379  0.87484246  1
  Co  Co111  1  0.00464418  0.00661653  0.75313846  1
  Co  Co112  1  0.24900135  0.00186541  0.25117786  1
  Co  Co113  1  0.00070299  0.50368126  0.00114657  1
  Co  Co114  1  0.49862300  0.24880204  0.25394464  1
  Co  Co115  1  -0.00546186  0.25340554  0.49890491  1
  Co  Co116  1  0.12172578  0.87739802  0.62663401  1
  Co  Co117  1  0.11994925  0.37355250  0.12346456  1
  Co  Co118  1  0.24431937  0.49841743  0.75006807  1
  Co  Co119  1  0.62535037  0.37330315  0.62432262  1
  Co  Co120  1  0.87128397  0.62422830  0.12252229  1
  Co  Co121  1  0.87837993  0.37651506  0.87458885  1
  Co  Co122  1  0.13123505  0.12721100  0.87817689  1
  Co  Co123  1  0.74829122  0.49981022  0.75143868  1
  Co  Co124  1  0.62921849  0.12756455  0.37649109  1
  Co  Co125  1  0.37850036  0.37530673  0.12886539  1
  Co  Co126  1  0.12885578  0.62575512  0.12322380  1
  Co  Co127  1  0.25350602  0.25342201  0.50092253  1
