# generated using pymatgen
data_Fe45Co19
_symmetry_space_group_name_H-M   'P 1'
_cell_length_a   11.41494487
_cell_length_b   11.41540265
_cell_length_c   11.41593585
_cell_angle_alpha   90.00122721
_cell_angle_beta   90.00445233
_cell_angle_gamma   89.98840804
_symmetry_Int_Tables_number   1
_chemical_formula_structural   Fe45Co19
_chemical_formula_sum   'Fe90 Co38'
_cell_volume   1487.56709236
_cell_formula_units_Z   2
loop_
 _symmetry_equiv_pos_site_id
 _symmetry_equiv_pos_as_xyz
  1  'x, y, z'
loop_
 _atom_site_type_symbol
 _atom_site_label
 _atom_site_symmetry_multiplicity
 _atom_site_fract_x
 _atom_site_fract_y
 _atom_site_fract_z
 _atom_site_occupancy
  Fe  Fe0  1  0.37011964  0.12134505  0.37422738  1
  Fe  Fe1  1  0.37154458  0.87242825  0.87484813  1
  Fe  Fe2  1  0.12342763  0.87636061  0.62614049  1
  Fe  Fe3  1  0.37922529  0.87401553  0.12656914  1
  Fe  Fe4  1  0.37358284  0.37521748  0.87430897  1
  Fe  Fe5  1  0.74648364  0.24881730  0.74653284  1
  Fe  Fe6  1  0.37514457  0.12468665  0.87683530  1
  Fe  Fe7  1  0.12806500  0.87853938  0.37480117  1
  Fe  Fe8  1  0.12060788  0.62280928  0.62365192  1
  Fe  Fe9  1  0.00036741  0.00007269  0.50150301  1
  Fe  Fe10  1  0.00363617  0.24883839  0.25256591  1
  Fe  Fe11  1  0.24537524  0.24721612  0.25096344  1
  Fe  Fe12  1  -0.00266760  -0.00294627  -0.00275222  1
  Fe  Fe13  1  0.38005413  0.62656139  0.12639931  1
  Fe  Fe14  1  0.24830746  0.50369587  0.00212893  1
  Fe  Fe15  1  0.12582319  0.37746537  0.87628577  1
  Fe  Fe16  1  0.87216113  0.87579343  0.37013467  1
  Fe  Fe17  1  0.62758385  0.87660631  0.37307804  1
  Fe  Fe18  1  0.87362587  0.12508725  0.87430181  1
  Fe  Fe19  1  0.24999846  -0.00173729  0.00302648  1
  Fe  Fe20  1  0.62699873  0.37351853  0.87647955  1
  Fe  Fe21  1  0.12115646  0.87344867  0.12569226  1
  Fe  Fe22  1  0.49896642  0.49949950  0.50009788  1
  Fe  Fe23  1  0.37516456  0.37435635  0.12611588  1
  Fe  Fe24  1  0.62707673  0.62588413  0.87662966  1
  Fe  Fe25  1  0.62647921  0.12347877  0.37681752  1
  Fe  Fe26  1  0.12371772  0.37586167  0.12586590  1
  Fe  Fe27  1  0.24840453  0.50216047  0.74912209  1
  Fe  Fe28  1  0.75180661  0.49992942  0.74416757  1
  Fe  Fe29  1  0.24996123  0.75010215  0.50240460  1
  Fe  Fe30  1  -0.00132468  0.25128065  -0.00098258  1
  Fe  Fe31  1  0.87471030  0.12462232  0.37467787  1
  Fe  Fe32  1  0.12569035  0.62226567  0.37633527  1
  Fe  Fe33  1  0.37091510  0.62822165  0.87554943  1
  Fe  Fe34  1  0.87484941  0.62549488  0.87241290  1
  Fe  Fe35  1  -0.00076751  0.50067661  0.25235162  1
  Fe  Fe36  1  0.87315939  0.37469222  0.87331782  1
  Fe  Fe37  1  0.00490269  0.25095745  0.49648674  1
  Fe  Fe38  1  0.50195369  0.00235183  0.75265918  1
  Fe  Fe39  1  0.00321953  0.25045445  0.75027035  1
  Fe  Fe40  1  0.37696851  0.12405080  0.12409016  1
  Fe  Fe41  1  0.49813063  -0.00037708  0.49905757  1
  Fe  Fe42  1  -0.00099823  0.75042953  -0.00247068  1
  Fe  Fe43  1  0.37677685  0.87408367  0.62658232  1
  Fe  Fe44  1  0.87331639  0.62615288  0.37596390  1
  Fe  Fe45  1  0.62280946  0.12587469  0.12003275  1
  Fe  Fe46  1  0.62349684  0.87159906  0.12583839  1
  Fe  Fe47  1  0.75305229  0.50096177  0.50621694  1
  Fe  Fe48  1  0.87301729  0.37367753  0.37579076  1
  Fe  Fe49  1  0.37518323  0.62465567  0.37436682  1
  Fe  Fe50  1  0.37230339  0.37535085  0.37501050  1
  Fe  Fe51  1  0.87701286  0.12417622  0.12433461  1
  Fe  Fe52  1  0.87685931  0.12723744  0.62451949  1
  Fe  Fe53  1  0.12501092  0.12353031  0.87583748  1
  Fe  Fe54  1  0.00165705  0.00114175  0.24953982  1
  Fe  Fe55  1  0.75272270  -0.00386165  0.00152299  1
  Fe  Fe56  1  0.87622632  0.37491424  0.12666553  1
  Fe  Fe57  1  0.74979111  0.00168788  0.74935406  1
  Fe  Fe58  1  0.12752794  0.87327454  0.87386085  1
  Fe  Fe59  1  0.00140746  0.75030658  0.75206808  1
  Fe  Fe60  1  0.00003946  0.50164591  -0.00193865  1
  Fe  Fe61  1  0.62403844  0.87498882  0.62442392  1
  Fe  Fe62  1  0.24861291  0.74976463  0.24814932  1
  Fe  Fe63  1  0.87524253  0.87333744  0.62698240  1
  Fe  Fe64  1  0.62730936  0.87407235  0.87609726  1
  Fe  Fe65  1  0.62722796  0.37532743  0.37762230  1
  Fe  Fe66  1  0.87779025  0.62906733  0.12707863  1
  Fe  Fe67  1  0.50320103  0.24784187  0.75179242  1
  Fe  Fe68  1  0.50073869  0.24979303  0.25102203  1
  Fe  Fe69  1  0.24893006  0.00089298  0.74778541  1
  Fe  Fe70  1  -0.00115386  0.75163052  0.49675864  1
  Fe  Fe71  1  0.37216542  0.12715471  0.62468757  1
  Fe  Fe72  1  0.37418874  0.37292245  0.62529612  1
  Fe  Fe73  1  0.50086255  0.74957134  0.75240073  1
  Fe  Fe74  1  0.50001124  0.49994723  -0.00088458  1
  Fe  Fe75  1  0.37212460  0.87798674  0.37243428  1
  Fe  Fe76  1  0.62585765  0.62425290  0.37626610  1
  Fe  Fe77  1  0.50088533  0.75156189  0.49734867  1
  Fe  Fe78  1  0.25009696  0.50157396  0.24852898  1
  Fe  Fe79  1  0.75115419  0.50205056  0.00264115  1
  Fe  Fe80  1  0.74846715  0.50192640  0.24771006  1
  Fe  Fe81  1  0.24967863  0.24992849  0.00014333  1
  Fe  Fe82  1  0.12571270  0.37648651  0.62308708  1
  Fe  Fe83  1  0.74977787  0.24782276  0.24885131  1
  Fe  Fe84  1  0.50004780  0.24898912  0.49964068  1
  Fe  Fe85  1  0.37776582  0.62621701  0.62528649  1
  Fe  Fe86  1  0.62420029  0.37444597  0.12353761  1
  Fe  Fe87  1  0.50175732  0.50050173  0.75050427  1
  Fe  Fe88  1  0.74959333  0.74863407  0.74709189  1
  Fe  Fe89  1  0.75208943  -0.00037339  0.50125062  1
  Co  Co90  1  0.12658900  0.62711119  0.87474525  1
  Co  Co91  1  0.62274715  0.62664029  0.62380897  1
  Co  Co92  1  0.75049644  0.75122174  0.49985541  1
  Co  Co93  1  0.24950746  0.74971769  0.00588869  1
  Co  Co94  1  0.75258461  0.74991665  0.00246443  1
  Co  Co95  1  0.62279111  0.37512875  0.62340525  1
  Co  Co96  1  0.49948503  0.75005668  -0.00363524  1
  Co  Co97  1  -0.00460952  0.49837705  0.49938630  1
  Co  Co98  1  0.24834880  0.74874324  0.74474540  1
  Co  Co99  1  0.25047601  -0.00239246  0.50552385  1
  Co  Co100  1  0.50172814  0.00146710  0.24995660  1
  Co  Co101  1  0.87340021  0.87317723  0.87139527  1
  Co  Co102  1  0.12075379  0.62524394  0.12660259  1
  Co  Co103  1  0.24824142  -0.00021455  0.24355187  1
  Co  Co104  1  0.12197800  0.12495300  0.12151369  1
  Co  Co105  1  0.00006596  0.00081440  0.75035206  1
  Co  Co106  1  0.50020763  -0.00320295  -0.00205651  1
  Co  Co107  1  0.12795961  0.11844562  0.37615081  1
  Co  Co108  1  0.12621444  0.12541224  0.62435505  1
  Co  Co109  1  0.25279898  0.50129720  0.50224045  1
  Co  Co110  1  0.74868883  0.00265070  0.24645839  1
  Co  Co111  1  0.00159257  0.74996110  0.25552753  1
  Co  Co112  1  0.87776482  0.87288687  0.12979938  1
  Co  Co113  1  0.62740711  0.12554093  0.88041098  1
  Co  Co114  1  -0.00104506  0.49848170  0.75055922  1
  Co  Co115  1  0.62054099  0.62679383  0.12452542  1
  Co  Co116  1  0.50113714  0.49758000  0.25134203  1
  Co  Co117  1  0.24821211  0.25056434  0.75234595  1
  Co  Co118  1  0.12676725  0.38085507  0.37388877  1
  Co  Co119  1  0.24668360  0.25071999  0.49680614  1
  Co  Co120  1  0.50124697  0.75046207  0.25467593  1
  Co  Co121  1  0.74835768  0.74779112  0.24880164  1
  Co  Co122  1  0.74954808  0.24879573  0.50122707  1
  Co  Co123  1  0.49759877  0.25258785  -0.00172429  1
  Co  Co124  1  0.75372546  0.25125921  0.00195636  1
  Co  Co125  1  0.87894358  0.62939182  0.62551357  1
  Co  Co126  1  0.62394998  0.12225629  0.62173549  1
  Co  Co127  1  0.87692283  0.37054763  0.62409987  1
