# generated using pymatgen
data_Fe45Co19
_symmetry_space_group_name_H-M   'P 1'
_cell_length_a   11.41367072
_cell_length_b   11.41487918
_cell_length_c   11.41501936
_cell_angle_alpha   90.00056026
_cell_angle_beta   90.01314122
_cell_angle_gamma   90.00275833
_symmetry_Int_Tables_number   1
_chemical_formula_structural   Fe45Co19
_chemical_formula_sum   'Fe90 Co38'
_cell_volume   1487.21343007
_cell_formula_units_Z   2
loop_
 _symmetry_equiv_pos_site_id
 _symmetry_equiv_pos_as_xyz
  1  'x, y, z'
loop_
 _atom_site_type_symbol
 _atom_site_label
 _atom_site_symmetry_multiplicity
 _atom_site_fract_x
 _atom_site_fract_y
 _atom_site_fract_z
 _atom_site_occupancy
  Fe  Fe0  1  0.49622373  0.50039560  0.74946674  1
  Fe  Fe1  1  0.62210619  0.38107163  0.13070195  1
  Fe  Fe2  1  0.25001975  0.49745193  0.49917697  1
  Fe  Fe3  1  0.49856873  0.74936597  0.75147981  1
  Fe  Fe4  1  0.12517655  0.87406756  0.87362876  1
  Fe  Fe5  1  0.25531314  0.50423262  0.25332221  1
  Fe  Fe6  1  0.12570529  0.37655841  0.37164327  1
  Fe  Fe7  1  0.62229614  0.12340981  0.37388942  1
  Fe  Fe8  1  0.00219510  0.24889025  0.74935379  1
  Fe  Fe9  1  0.12652195  0.62401165  0.12441118  1
  Fe  Fe10  1  0.12584045  0.12257020  0.37214135  1
  Fe  Fe11  1  0.00179864  0.75063345  0.49989937  1
  Fe  Fe12  1  0.25387832  -0.00442258  0.49835726  1
  Fe  Fe13  1  0.00533798  0.25380207  0.00407554  1
  Fe  Fe14  1  0.00271253  0.49961886  0.49909310  1
  Fe  Fe15  1  0.62292080  0.87666624  0.87392960  1
  Fe  Fe16  1  0.37511995  0.12402281  0.12350944  1
  Fe  Fe17  1  0.37056237  0.37011436  0.62488799  1
  Fe  Fe18  1  0.49934244  0.75405304  0.49942130  1
  Fe  Fe19  1  0.87410063  0.12526930  0.62298892  1
  Fe  Fe20  1  0.62339712  0.87333580  0.12659879  1
  Fe  Fe21  1  0.24907436  0.49656449  -0.00150199  1
  Fe  Fe22  1  0.25557386  0.00427356  0.75081704  1
  Fe  Fe23  1  0.62196976  0.87806219  0.62701877  1
  Fe  Fe24  1  0.49770595  0.49876085  0.49852969  1
  Fe  Fe25  1  0.87610644  0.87403277  0.87424284  1
  Fe  Fe26  1  0.87495720  0.12538655  0.37458825  1
  Fe  Fe27  1  0.74872941  0.50151955  0.75067809  1
  Fe  Fe28  1  0.49661105  0.24361480  0.74966920  1
  Fe  Fe29  1  0.74776198  -0.00224942  0.49870439  1
  Fe  Fe30  1  0.00169588  0.00192852  0.75076992  1
  Fe  Fe31  1  0.12912928  0.12515993  0.62278919  1
  Fe  Fe32  1  0.50022127  0.25261831  0.00339638  1
  Fe  Fe33  1  0.12826842  0.37491214  0.87183048  1
  Fe  Fe34  1  0.37603409  0.12350550  0.37426047  1
  Fe  Fe35  1  0.62460350  0.12381803  0.87801909  1
  Fe  Fe36  1  0.12295837  0.87298954  0.36903744  1
  Fe  Fe37  1  0.74906296  0.74865264  0.75007020  1
  Fe  Fe38  1  0.74765554  0.49864853  0.49877208  1
  Fe  Fe39  1  0.37431687  0.62683073  0.62191140  1
  Fe  Fe40  1  0.75001886  0.00196607  0.75100001  1
  Fe  Fe41  1  0.87532800  0.37860033  0.12467499  1
  Fe  Fe42  1  0.25116780  0.25032102  0.24874890  1
  Fe  Fe43  1  0.87394290  0.12490950  0.12321307  1
  Fe  Fe44  1  0.74556876  0.50028872  -0.00273443  1
  Fe  Fe45  1  -0.00162842  0.50414491  0.25085093  1
  Fe  Fe46  1  0.00181378  -0.00142795  0.00315211  1
  Fe  Fe47  1  0.12837732  0.12661317  0.87998600  1
  Fe  Fe48  1  0.25035841  -0.00370737  0.24664339  1
  Fe  Fe49  1  0.74905804  0.00064313  0.24766595  1
  Fe  Fe50  1  0.74790964  0.25187867  0.49931433  1
  Fe  Fe51  1  0.37736583  0.87670193  0.87568227  1
  Fe  Fe52  1  0.24874942  -0.00356872  0.00351555  1
  Fe  Fe53  1  0.87619949  0.87408548  0.37290004  1
  Fe  Fe54  1  0.87234854  0.62663111  0.37873300  1
  Fe  Fe55  1  0.87357300  0.62295692  0.12100418  1
  Fe  Fe56  1  0.37727819  0.62460697  0.88006992  1
  Fe  Fe57  1  0.24966913  0.75406674  0.49922937  1
  Fe  Fe58  1  0.00401570  0.25129199  0.50055874  1
  Fe  Fe59  1  0.12657842  0.87530775  0.62884677  1
  Fe  Fe60  1  0.75053976  0.24834179  0.75012595  1
  Fe  Fe61  1  0.87632792  0.37626483  0.87628775  1
  Fe  Fe62  1  0.25205777  0.74794945  0.75186287  1
  Fe  Fe63  1  0.74783719  0.25025933  0.24853550  1
  Fe  Fe64  1  0.00109001  -0.00099605  0.49861230  1
  Fe  Fe65  1  0.62357640  0.37318197  0.62676685  1
  Fe  Fe66  1  0.00171650  0.50434542  0.75330428  1
  Fe  Fe67  1  0.87646548  0.37578082  0.62572961  1
  Fe  Fe68  1  0.12699196  0.62483361  0.62583804  1
  Fe  Fe69  1  0.62143625  0.37833701  0.37009720  1
  Fe  Fe70  1  0.74592090  0.74882134  -0.00145654  1
  Fe  Fe71  1  0.00156313  0.74725097  -0.00206889  1
  Fe  Fe72  1  0.37359118  0.37202191  0.87384507  1
  Fe  Fe73  1  0.37702106  0.37855487  0.12851701  1
  Fe  Fe74  1  0.87427803  0.62616679  0.62395966  1
  Fe  Fe75  1  0.87507458  0.37423969  0.37385623  1
  Fe  Fe76  1  0.25128451  0.75305295  0.00166221  1
  Fe  Fe77  1  0.62289756  0.37449900  0.87152736  1
  Fe  Fe78  1  0.87547710  0.12537632  0.87928700  1
  Fe  Fe79  1  0.74734401  0.25250002  0.00161498  1
  Fe  Fe80  1  0.87652393  0.87464166  0.62622148  1
  Fe  Fe81  1  0.87714001  0.87333057  0.12578633  1
  Fe  Fe82  1  0.25367446  0.74859124  0.24760577  1
  Fe  Fe83  1  0.50165180  -0.00176736  0.00297254  1
  Fe  Fe84  1  0.49956144  0.24990669  0.49804175  1
  Fe  Fe85  1  0.62351858  0.62536411  0.62311620  1
  Fe  Fe86  1  0.62136436  0.87336616  0.37197856  1
  Fe  Fe87  1  0.49602515  0.74305634  0.24685570  1
  Fe  Fe88  1  0.74933043  0.74544079  0.24989718  1
  Fe  Fe89  1  0.00154391  0.24879781  0.24769572  1
  Co  Co90  1  0.24950718  0.25522884  0.00497182  1
  Co  Co91  1  0.25428835  0.50334429  0.75073496  1
  Co  Co92  1  0.12975950  0.62603185  0.87772384  1
  Co  Co93  1  0.37393289  0.62895824  0.38114326  1
  Co  Co94  1  0.74980730  -0.00329762  0.00165611  1
  Co  Co95  1  0.37795404  0.87517637  0.12519682  1
  Co  Co96  1  0.12752999  0.62611169  0.37455000  1
  Co  Co97  1  0.49592163  0.00519020  0.74984818  1
  Co  Co98  1  0.00371726  0.50010307  -0.00152279  1
  Co  Co99  1  -0.00236562  0.74400540  0.25055443  1
  Co  Co100  1  0.50166988  0.75146263  0.00095449  1
  Co  Co101  1  0.62380269  0.62588909  0.37719457  1
  Co  Co102  1  0.37464321  0.62214356  0.11736610  1
  Co  Co103  1  0.62486077  0.12415565  0.62326844  1
  Co  Co104  1  0.62155213  0.62442182  0.87391278  1
  Co  Co105  1  0.12754519  0.12418850  0.12519100  1
  Co  Co106  1  0.62515728  0.12486085  0.12267849  1
  Co  Co107  1  0.37524633  0.87409514  0.62824307  1
  Co  Co108  1  0.62226425  0.62108387  0.12419799  1
  Co  Co109  1  0.37723251  0.87392103  0.36990415  1
  Co  Co110  1  0.00095509  0.74700522  0.75093947  1
  Co  Co111  1  0.37360593  0.12698564  0.61817197  1
  Co  Co112  1  0.50071359  0.00148485  0.24713238  1
  Co  Co113  1  0.37457203  0.12512750  0.88422394  1
  Co  Co114  1  0.12137935  0.87081528  0.12774656  1
  Co  Co115  1  0.24707608  0.25192662  0.49575209  1
  Co  Co116  1  0.87191244  0.62513374  0.87660306  1
  Co  Co117  1  0.49942350  0.24828672  0.24800851  1
  Co  Co118  1  0.74885836  0.75328483  0.50063240  1
  Co  Co119  1  -0.00129442  0.00148446  0.24752443  1
  Co  Co120  1  0.12744616  0.37647188  0.62907255  1
  Co  Co121  1  0.37623010  0.37324431  0.37364193  1
  Co  Co122  1  0.25162606  0.24460740  0.75106523  1
  Co  Co123  1  0.75160869  0.50325852  0.25217419  1
  Co  Co124  1  0.49719805  -0.00294627  0.50031270  1
  Co  Co125  1  0.12649255  0.38045900  0.13097381  1
  Co  Co126  1  0.49482991  0.50800025  0.25420510  1
  Co  Co127  1  0.50124761  0.49632695  -0.00265842  1
