# generated using pymatgen
data_Fe45Co19
_symmetry_space_group_name_H-M   'P 1'
_cell_length_a   11.41647992
_cell_length_b   11.41443668
_cell_length_c   11.41578276
_cell_angle_alpha   90.00402134
_cell_angle_beta   89.99731924
_cell_angle_gamma   89.99879547
_symmetry_Int_Tables_number   1
_chemical_formula_structural   Fe45Co19
_chemical_formula_sum   'Fe90 Co38'
_cell_volume   1487.62132159
_cell_formula_units_Z   2
loop_
 _symmetry_equiv_pos_site_id
 _symmetry_equiv_pos_as_xyz
  1  'x, y, z'
loop_
 _atom_site_type_symbol
 _atom_site_label
 _atom_site_symmetry_multiplicity
 _atom_site_fract_x
 _atom_site_fract_y
 _atom_site_fract_z
 _atom_site_occupancy
  Fe  Fe0  1  0.74763175  0.25057697  0.49778532  1
  Fe  Fe1  1  0.87689603  0.37077790  0.12804220  1
  Fe  Fe2  1  0.00065264  0.00041716  0.49784346  1
  Fe  Fe3  1  0.74619972  0.49812837  0.24801628  1
  Fe  Fe4  1  0.74892336  -0.00091987  0.50113461  1
  Fe  Fe5  1  0.25015953  0.74981679  0.00265557  1
  Fe  Fe6  1  0.25220518  0.49588333  0.00235200  1
  Fe  Fe7  1  -0.00111713  0.49907987  0.49652934  1
  Fe  Fe8  1  0.87425744  0.62451931  0.12669054  1
  Fe  Fe9  1  0.37691120  0.12400348  0.87177194  1
  Fe  Fe10  1  0.87513085  0.87698157  0.12330887  1
  Fe  Fe11  1  -0.00059382  0.00496837  0.00257901  1
  Fe  Fe12  1  -0.00113253  0.49707261  0.00068552  1
  Fe  Fe13  1  0.00341462  -0.00002708  0.24874510  1
  Fe  Fe14  1  0.12517566  0.37023665  0.12513655  1
  Fe  Fe15  1  0.62367870  0.87085275  0.62708351  1
  Fe  Fe16  1  0.37168063  0.62899730  0.37518379  1
  Fe  Fe17  1  0.50047159  0.00039809  0.50233897  1
  Fe  Fe18  1  0.25000968  0.75199270  0.74921184  1
  Fe  Fe19  1  0.12336153  0.37513483  0.62424228  1
  Fe  Fe20  1  0.12849056  0.62688193  0.37408191  1
  Fe  Fe21  1  0.74311382  0.25107389  0.25004307  1
  Fe  Fe22  1  -0.00115044  0.25018683  0.75118195  1
  Fe  Fe23  1  -0.00222749  0.74791236  0.75146715  1
  Fe  Fe24  1  0.37115849  0.87318658  0.37343258  1
  Fe  Fe25  1  0.37908509  0.37370459  0.62431961  1
  Fe  Fe26  1  0.50216556  0.24596252  0.49971171  1
  Fe  Fe27  1  0.25260551  0.25042450  0.75008821  1
  Fe  Fe28  1  0.87461944  0.87500104  0.37367337  1
  Fe  Fe29  1  0.12489662  0.62365142  0.12505898  1
  Fe  Fe30  1  0.62376648  0.87366628  0.12308877  1
  Fe  Fe31  1  0.62483276  0.63021760  0.62705799  1
  Fe  Fe32  1  0.62524325  0.87509354  0.37451379  1
  Fe  Fe33  1  0.87241927  0.62164312  0.87631837  1
  Fe  Fe34  1  0.49975123  0.00259518  0.24765263  1
  Fe  Fe35  1  -0.00006696  0.74851375  0.00090546  1
  Fe  Fe36  1  0.74855621  -0.00124726  0.24675343  1
  Fe  Fe37  1  0.12753245  0.12610373  0.37397765  1
  Fe  Fe38  1  0.49991659  0.74429403  -0.00347033  1
  Fe  Fe39  1  0.12622079  0.12617792  0.87477900  1
  Fe  Fe40  1  0.25030826  -0.00146853  0.50067788  1
  Fe  Fe41  1  0.50002928  0.74900384  0.25020944  1
  Fe  Fe42  1  0.62729511  0.62792079  0.37317117  1
  Fe  Fe43  1  0.74888527  0.50100278  0.49968489  1
  Fe  Fe44  1  0.12707120  0.62318000  0.87545350  1
  Fe  Fe45  1  0.50108260  0.50453777  0.49799543  1
  Fe  Fe46  1  -0.00118297  0.25192766  0.49517176  1
  Fe  Fe47  1  0.37840176  0.37442165  0.87746279  1
  Fe  Fe48  1  0.25225115  0.25169700  0.49835055  1
  Fe  Fe49  1  0.12449803  0.87574012  0.87715288  1
  Fe  Fe50  1  0.37669691  0.62289420  0.12479626  1
  Fe  Fe51  1  0.87558126  0.87666571  0.87763812  1
  Fe  Fe52  1  0.62343867  0.37695560  0.87788819  1
  Fe  Fe53  1  0.25287021  0.49635427  0.24924506  1
  Fe  Fe54  1  0.25169937  0.49946384  0.49998591  1
  Fe  Fe55  1  0.87216723  0.12589192  0.37161184  1
  Fe  Fe56  1  0.25080957  0.00234041  0.00087186  1
  Fe  Fe57  1  0.74810802  0.25151633  0.74914953  1
  Fe  Fe58  1  0.00125075  0.49645309  0.25202181  1
  Fe  Fe59  1  0.25107623  0.49727572  0.74902524  1
  Fe  Fe60  1  0.37736057  0.87484985  0.62719896  1
  Fe  Fe61  1  0.61458174  0.37878685  0.12343512  1
  Fe  Fe62  1  0.12435485  0.37380132  0.87597039  1
  Fe  Fe63  1  0.37483133  0.12376007  0.37266662  1
  Fe  Fe64  1  0.00254402  0.75263420  0.24874669  1
  Fe  Fe65  1  0.62411363  0.87311550  0.87430464  1
  Fe  Fe66  1  0.87378109  0.37549900  0.87620671  1
  Fe  Fe67  1  0.37455561  0.87604748  0.12469682  1
  Fe  Fe68  1  0.37531455  0.87619262  0.87428451  1
  Fe  Fe69  1  -0.00008979  0.00200920  0.74988429  1
  Fe  Fe70  1  0.74822258  -0.00121649  0.75021384  1
  Fe  Fe71  1  0.62240129  0.37461368  0.62406793  1
  Fe  Fe72  1  0.87496528  0.87402634  0.62482122  1
  Fe  Fe73  1  0.12347716  0.62266495  0.62630702  1
  Fe  Fe74  1  0.62480526  0.12543760  0.87499043  1
  Fe  Fe75  1  0.74836667  0.25065321  0.00312901  1
  Fe  Fe76  1  0.37622299  0.62714145  0.62595455  1
  Fe  Fe77  1  0.12818663  0.12976718  0.12620456  1
  Fe  Fe78  1  0.74962712  0.74851977  0.00183750  1
  Fe  Fe79  1  0.87660484  0.37570116  0.62324114  1
  Fe  Fe80  1  0.12695352  0.12661197  0.62448459  1
  Fe  Fe81  1  0.87202109  0.12497208  0.87679052  1
  Fe  Fe82  1  0.87336452  0.12597384  0.62440324  1
  Fe  Fe83  1  0.12363636  0.87620279  0.62494802  1
  Fe  Fe84  1  0.87231697  0.62545792  0.37240574  1
  Fe  Fe85  1  0.50051312  0.00311376  0.00120616  1
  Fe  Fe86  1  0.38062363  0.37442585  0.37308902  1
  Fe  Fe87  1  0.75087515  0.49984188  0.74731520  1
  Fe  Fe88  1  0.49998372  0.50320882  0.75348907  1
  Fe  Fe89  1  -0.00074977  0.74915724  0.49873404  1
  Co  Co90  1  0.50234490  0.00125482  0.74785202  1
  Co  Co91  1  0.37429639  0.12547782  0.62571099  1
  Co  Co92  1  0.87042904  0.37569774  0.37346965  1
  Co  Co93  1  0.24927002  0.75075388  0.24498168  1
  Co  Co94  1  -0.00124044  0.49908185  0.75268485  1
  Co  Co95  1  0.75112568  0.49784211  0.00605275  1
  Co  Co96  1  0.49906371  0.24532209  0.00111078  1
  Co  Co97  1  0.74837857  -0.00011739  -0.00033742  1
  Co  Co98  1  0.36771757  0.62468491  0.87505138  1
  Co  Co99  1  0.63146278  0.62275676  0.87491650  1
  Co  Co100  1  0.24955432  -0.00044074  0.74987209  1
  Co  Co101  1  0.25341037  0.25391730  0.25116196  1
  Co  Co102  1  0.50097107  0.24957891  0.75033484  1
  Co  Co103  1  0.12565033  0.87616181  0.12141770  1
  Co  Co104  1  0.25442917  0.25046524  -0.00130690  1
  Co  Co105  1  0.87563579  0.62388825  0.62372455  1
  Co  Co106  1  0.00190789  0.25078706  0.25433627  1
  Co  Co107  1  0.24760009  -0.00159450  0.24901934  1
  Co  Co108  1  0.49930109  0.50450560  0.25414092  1
  Co  Co109  1  0.37174453  0.12627310  0.12796295  1
  Co  Co110  1  0.12815647  0.87195847  0.37568897  1
  Co  Co111  1  0.87321863  0.12690711  0.12816449  1
  Co  Co112  1  0.12791168  0.37649884  0.37572903  1
  Co  Co113  1  0.50240438  0.24490206  0.24947586  1
  Co  Co114  1  0.75066623  0.75102982  0.49925029  1
  Co  Co115  1  0.38248902  0.37531319  0.12533553  1
  Co  Co116  1  0.49871346  0.50617789  -0.00480155  1
  Co  Co117  1  0.62666237  0.12596545  0.62513397  1
  Co  Co118  1  0.62682105  0.12290790  0.12380904  1
  Co  Co119  1  0.62118446  0.37560489  0.37606571  1
  Co  Co120  1  0.50016091  0.75102791  0.49708715  1
  Co  Co121  1  0.62318350  0.62416137  0.12498706  1
  Co  Co122  1  0.62576023  0.12123331  0.37548406  1
  Co  Co123  1  0.24977036  0.75084447  0.50461294  1
  Co  Co124  1  0.49815181  0.74665783  0.75524247  1
  Co  Co125  1  0.75387053  0.75075812  0.75127732  1
  Co  Co126  1  0.74896518  0.75253925  0.24772201  1
  Co  Co127  1  -0.00209261  0.24853563  -0.00098486  1
