# generated using pymatgen
data_Fe45Co19
_symmetry_space_group_name_H-M   'P 1'
_cell_length_a   11.41548574
_cell_length_b   11.41399016
_cell_length_c   11.41592101
_cell_angle_alpha   89.99510086
_cell_angle_beta   89.99213780
_cell_angle_gamma   89.99965191
_symmetry_Int_Tables_number   1
_chemical_formula_structural   Fe45Co19
_chemical_formula_sum   'Fe90 Co38'
_cell_volume   1487.45158571
_cell_formula_units_Z   2
loop_
 _symmetry_equiv_pos_site_id
 _symmetry_equiv_pos_as_xyz
  1  'x, y, z'
loop_
 _atom_site_type_symbol
 _atom_site_label
 _atom_site_symmetry_multiplicity
 _atom_site_fract_x
 _atom_site_fract_y
 _atom_site_fract_z
 _atom_site_occupancy
  Fe  Fe0  1  0.12383882  0.12307310  0.87479704  1
  Fe  Fe1  1  0.24959470  0.49908018  0.49743779  1
  Fe  Fe2  1  0.00331164  0.74719397  0.00378954  1
  Fe  Fe3  1  0.12414818  0.37630077  0.62571485  1
  Fe  Fe4  1  0.74955491  0.24814565  -0.00146613  1
  Fe  Fe5  1  0.74667431  0.75402196  0.00095523  1
  Fe  Fe6  1  0.12522232  0.62621323  0.62498280  1
  Fe  Fe7  1  0.62516724  0.62674829  0.87337770  1
  Fe  Fe8  1  0.50190279  0.75053744  0.24810401  1
  Fe  Fe9  1  0.12523511  0.62673258  0.87334039  1
  Fe  Fe10  1  0.74978971  0.25235749  0.24918766  1
  Fe  Fe11  1  -0.00439916  0.50068963  0.75054710  1
  Fe  Fe12  1  0.50147335  0.24940487  -0.00023100  1
  Fe  Fe13  1  0.24886591  0.24975684  0.00047363  1
  Fe  Fe14  1  0.50212884  0.25271346  0.24956834  1
  Fe  Fe15  1  0.50034295  -0.00056148  0.50036080  1
  Fe  Fe16  1  0.37534601  0.12735030  0.37387209  1
  Fe  Fe17  1  0.00188819  0.75287484  0.74725870  1
  Fe  Fe18  1  0.86972002  0.37247095  0.62741270  1
  Fe  Fe19  1  0.74896620  0.50023113  0.50143731  1
  Fe  Fe20  1  0.25121389  0.50150861  0.75108247  1
  Fe  Fe21  1  0.62508804  0.87448970  0.37397756  1
  Fe  Fe22  1  0.12586848  0.87340284  0.12533661  1
  Fe  Fe23  1  0.12336539  0.37717708  0.12548331  1
  Fe  Fe24  1  0.87826879  0.12669667  0.37402056  1
  Fe  Fe25  1  0.24976389  -0.00126444  0.25361139  1
  Fe  Fe26  1  0.24966619  -0.00517664  0.75164016  1
  Fe  Fe27  1  0.75196705  -0.00312700  0.25106438  1
  Fe  Fe28  1  0.62617357  0.12509711  0.37433560  1
  Fe  Fe29  1  0.62571055  0.12142326  0.12369097  1
  Fe  Fe30  1  0.37600472  0.87366704  0.62422842  1
  Fe  Fe31  1  0.12496765  0.12396493  0.12888316  1
  Fe  Fe32  1  0.74987880  -0.00462720  0.75074159  1
  Fe  Fe33  1  0.87386096  0.37332182  0.37710045  1
  Fe  Fe34  1  0.37185928  0.62711153  0.12571967  1
  Fe  Fe35  1  0.12204941  0.37601266  0.87528251  1
  Fe  Fe36  1  0.24985704  -0.00236956  -0.00145530  1
  Fe  Fe37  1  0.62337709  0.12027810  0.87616739  1
  Fe  Fe38  1  0.50355746  0.25231862  0.49993274  1
  Fe  Fe39  1  0.87650289  0.12164062  0.87616917  1
  Fe  Fe40  1  0.75078850  0.50039543  -0.00217633  1
  Fe  Fe41  1  0.87097524  0.62854123  0.37532020  1
  Fe  Fe42  1  0.50075919  0.49785543  0.24997537  1
  Fe  Fe43  1  0.25125946  0.49864602  0.25144215  1
  Fe  Fe44  1  0.12249797  0.87345446  0.37569353  1
  Fe  Fe45  1  0.62845488  0.62467689  0.37167993  1
  Fe  Fe46  1  0.62790199  0.37575066  0.87218552  1
  Fe  Fe47  1  0.87953750  0.87577536  0.87779881  1
  Fe  Fe48  1  0.37899955  0.86926751  0.87644556  1
  Fe  Fe49  1  0.87208227  0.63165689  0.62512985  1
  Fe  Fe50  1  0.62648510  0.12343468  0.62559578  1
  Fe  Fe51  1  0.37588838  0.62576654  0.37413167  1
  Fe  Fe52  1  0.24968831  0.75002271  0.49836405  1
  Fe  Fe53  1  0.63013685  0.62350181  0.12770934  1
  Fe  Fe54  1  -0.00108842  -0.00149714  0.49884499  1
  Fe  Fe55  1  0.37521997  0.37498656  0.62428796  1
  Fe  Fe56  1  0.24921685  0.25057269  0.75068281  1
  Fe  Fe57  1  0.37524012  0.37686027  0.87600043  1
  Fe  Fe58  1  0.61839377  0.87603701  0.87638433  1
  Fe  Fe59  1  -0.00249851  0.50123638  0.50143951  1
  Fe  Fe60  1  0.49884627  -0.00072270  0.24993812  1
  Fe  Fe61  1  0.24793079  0.25075585  0.49684867  1
  Fe  Fe62  1  0.87469842  0.12169362  0.12452884  1
  Fe  Fe63  1  0.50163608  0.24936409  0.74996636  1
  Fe  Fe64  1  -0.00019760  0.24842461  0.00050085  1
  Fe  Fe65  1  0.37535536  0.12430421  0.87440947  1
  Fe  Fe66  1  0.87536672  0.87626782  0.12363680  1
  Fe  Fe67  1  -0.00172960  0.24968470  0.74946781  1
  Fe  Fe68  1  0.25034308  0.00009863  0.49632833  1
  Fe  Fe69  1  0.50304420  0.49891343  0.50128227  1
  Fe  Fe70  1  0.50081842  0.50296603  0.00040065  1
  Fe  Fe71  1  0.75130313  -0.00344075  0.49931828  1
  Fe  Fe72  1  0.37403973  0.12549159  0.12620138  1
  Fe  Fe73  1  0.12113364  0.37318742  0.37326519  1
  Fe  Fe74  1  0.12422581  0.62582230  0.37314473  1
  Fe  Fe75  1  -0.00451607  0.50286883  0.24763604  1
  Fe  Fe76  1  0.87505518  0.62794020  0.87654530  1
  Fe  Fe77  1  0.50050626  0.50197780  0.74881795  1
  Fe  Fe78  1  0.12583245  0.12321880  0.62385089  1
  Fe  Fe79  1  0.37306826  0.62644952  0.62575514  1
  Fe  Fe80  1  0.62947582  0.62872884  0.62810077  1
  Fe  Fe81  1  0.00172355  -0.00330081  0.74788016  1
  Fe  Fe82  1  0.24823203  0.50391972  -0.00063238  1
  Fe  Fe83  1  0.50264375  0.74915211  0.50023795  1
  Fe  Fe84  1  0.37380446  0.12531792  0.62529759  1
  Fe  Fe85  1  0.37529353  0.87251645  0.12470519  1
  Fe  Fe86  1  0.37513605  0.37448232  0.12406423  1
  Fe  Fe87  1  0.87455657  0.37775333  0.12001301  1
  Fe  Fe88  1  -0.00306929  0.74866876  0.24910719  1
  Fe  Fe89  1  0.87391954  0.12401888  0.62480438  1
  Co  Co90  1  -0.00028560  -0.00286215  0.25072828  1
  Co  Co91  1  0.37713385  0.37442966  0.37581718  1
  Co  Co92  1  0.49836444  -0.00007297  0.74845542  1
  Co  Co93  1  -0.00044368  0.25056441  0.50348589  1
  Co  Co94  1  0.50065129  0.74782698  0.74748201  1
  Co  Co95  1  0.74981522  -0.00291601  -0.00167620  1
  Co  Co96  1  0.74991226  0.75594156  0.75434730  1
  Co  Co97  1  0.87409492  0.37487296  0.87627172  1
  Co  Co98  1  0.74912086  0.24820748  0.49892709  1
  Co  Co99  1  0.62904158  0.37434178  0.62819222  1
  Co  Co100  1  0.74971252  0.24440623  0.75307088  1
  Co  Co101  1  0.24967533  0.25089361  0.25086952  1
  Co  Co102  1  0.62643641  0.37645224  0.12338817  1
  Co  Co103  1  0.50264296  0.74612751  0.00494126  1
  Co  Co104  1  0.49593342  0.00077381  0.00165161  1
  Co  Co105  1  0.75069608  0.75383667  0.24739831  1
  Co  Co106  1  -0.00311226  0.25137781  0.24629474  1
  Co  Co107  1  0.87544523  0.87172600  0.37607401  1
  Co  Co108  1  0.24855211  0.74881258  -0.00164981  1
  Co  Co109  1  0.74739195  0.75291632  0.49898957  1
  Co  Co110  1  0.00075547  0.74849972  0.49924546  1
  Co  Co111  1  0.62455464  0.87492227  0.62513537  1
  Co  Co112  1  0.24899509  0.75263735  0.74995440  1
  Co  Co113  1  0.00297921  0.00161510  0.00288356  1
  Co  Co114  1  0.87511945  0.87251231  0.62360324  1
  Co  Co115  1  0.12559081  0.87526058  0.62062076  1
  Co  Co116  1  0.87042220  0.62578721  0.12159679  1
  Co  Co117  1  0.25084881  0.75245857  0.25288574  1
  Co  Co118  1  0.62353688  0.87929856  0.12532350  1
  Co  Co119  1  0.75328441  0.50390642  0.75056097  1
  Co  Co120  1  0.00142111  0.50385214  -0.00045853  1
  Co  Co121  1  0.37866148  0.87326113  0.37597172  1
  Co  Co122  1  0.12726228  0.62557300  0.12911865  1
  Co  Co123  1  0.12147507  0.87374087  0.87732849  1
  Co  Co124  1  0.62716139  0.37696211  0.37462919  1
  Co  Co125  1  0.12109701  0.12692917  0.37377883  1
  Co  Co126  1  0.75420164  0.49731908  0.24979449  1
  Co  Co127  1  0.37566552  0.62746213  0.87467823  1
