# generated using pymatgen
data_Fe45Co19
_symmetry_space_group_name_H-M   'P 1'
_cell_length_a   11.41570121
_cell_length_b   11.41568203
_cell_length_c   11.41516521
_cell_angle_alpha   90.00676792
_cell_angle_beta   89.99441763
_cell_angle_gamma   90.00201051
_symmetry_Int_Tables_number   1
_chemical_formula_structural   Fe45Co19
_chemical_formula_sum   'Fe90 Co38'
_cell_volume   1487.60165295
_cell_formula_units_Z   2
loop_
 _symmetry_equiv_pos_site_id
 _symmetry_equiv_pos_as_xyz
  1  'x, y, z'
loop_
 _atom_site_type_symbol
 _atom_site_label
 _atom_site_symmetry_multiplicity
 _atom_site_fract_x
 _atom_site_fract_y
 _atom_site_fract_z
 _atom_site_occupancy
  Fe  Fe0  1  0.12449423  0.37527249  0.62562243  1
  Fe  Fe1  1  0.62815871  0.62644883  0.62224937  1
  Fe  Fe2  1  0.50040436  0.00560101  0.74850955  1
  Fe  Fe3  1  0.87620067  0.87547544  0.37270576  1
  Fe  Fe4  1  0.12809606  0.12401490  0.62525236  1
  Fe  Fe5  1  0.37971308  0.37657117  0.87264625  1
  Fe  Fe6  1  0.00112541  0.75200104  0.49970796  1
  Fe  Fe7  1  0.74927092  -0.00270177  0.50035211  1
  Fe  Fe8  1  0.25078029  0.50089589  0.75101664  1
  Fe  Fe9  1  0.50157495  0.24821826  -0.00124353  1
  Fe  Fe10  1  0.62086935  0.37600603  0.87181350  1
  Fe  Fe11  1  0.62680301  0.62586181  0.37709714  1
  Fe  Fe12  1  0.75230263  -0.00355290  0.00040450  1
  Fe  Fe13  1  -0.00107568  0.24837726  0.75095900  1
  Fe  Fe14  1  0.00135553  0.24707368  0.24905390  1
  Fe  Fe15  1  0.86980074  0.12577471  0.62640243  1
  Fe  Fe16  1  0.87381971  0.37453494  0.12509357  1
  Fe  Fe17  1  -0.00331164  0.00233418  0.00328476  1
  Fe  Fe18  1  0.37701374  0.87494317  0.62388074  1
  Fe  Fe19  1  0.00066763  0.74868902  0.74975628  1
  Fe  Fe20  1  0.49831478  0.00361451  0.24988186  1
  Fe  Fe21  1  0.12400066  0.37528196  0.87403085  1
  Fe  Fe22  1  0.74769513  0.49786119  0.74853455  1
  Fe  Fe23  1  0.25106303  0.24999415  0.24767668  1
  Fe  Fe24  1  0.12748044  0.62591317  0.37598709  1
  Fe  Fe25  1  0.50252822  0.50375215  0.24690080  1
  Fe  Fe26  1  0.74981301  0.75381000  0.75158653  1
  Fe  Fe27  1  0.87669748  0.87519391  0.62659354  1
  Fe  Fe28  1  0.12679151  0.62409461  0.12469007  1
  Fe  Fe29  1  -0.00009379  0.00128517  0.49936053  1
  Fe  Fe30  1  0.74684186  0.49882338  0.00171909  1
  Fe  Fe31  1  0.25165746  0.25030498  0.75158236  1
  Fe  Fe32  1  0.87191875  0.62499781  0.62201730  1
  Fe  Fe33  1  0.74753425  0.49850172  0.24987231  1
  Fe  Fe34  1  0.74553965  0.25060283  0.25048461  1
  Fe  Fe35  1  0.75095260  0.00041355  0.24834074  1
  Fe  Fe36  1  0.12822471  0.12429423  0.87893932  1
  Fe  Fe37  1  0.49895926  0.74762391  0.00481704  1
  Fe  Fe38  1  0.00068947  0.50285494  0.75116880  1
  Fe  Fe39  1  0.87257149  0.62475512  0.37680989  1
  Fe  Fe40  1  0.50058419  0.50295340  0.50181400  1
  Fe  Fe41  1  0.37389284  0.62921307  0.37303848  1
  Fe  Fe42  1  -0.00013779  0.24833974  0.00054270  1
  Fe  Fe43  1  0.00019684  0.49842512  0.49825247  1
  Fe  Fe44  1  0.12262544  0.87776992  0.12571253  1
  Fe  Fe45  1  0.25173410  0.75300021  0.00341634  1
  Fe  Fe46  1  0.49813760  0.00122846  0.00187540  1
  Fe  Fe47  1  -0.00327138  0.74860948  0.00189519  1
  Fe  Fe48  1  0.00006684  0.74896896  0.24911113  1
  Fe  Fe49  1  -0.00001091  0.50001768  0.25050364  1
  Fe  Fe50  1  0.50163610  0.24307547  0.50032023  1
  Fe  Fe51  1  0.37476008  0.62490035  0.87642256  1
  Fe  Fe52  1  0.25042713  0.49841577  0.25101217  1
  Fe  Fe53  1  0.74914901  0.74975007  0.24871230  1
  Fe  Fe54  1  0.62151087  0.87619549  0.62320187  1
  Fe  Fe55  1  0.37196271  0.12432483  0.87863539  1
  Fe  Fe56  1  0.74562298  0.25423815  0.49887824  1
  Fe  Fe57  1  0.62411144  0.87469760  0.12536472  1
  Fe  Fe58  1  0.25261861  0.00043402  0.24594209  1
  Fe  Fe59  1  0.50214961  0.24466769  0.24945187  1
  Fe  Fe60  1  0.25001418  0.75112597  0.74890131  1
  Fe  Fe61  1  0.62266667  0.87512971  0.87585067  1
  Fe  Fe62  1  0.00000967  0.00185608  0.75006371  1
  Fe  Fe63  1  0.25151698  0.25189860  0.50006770  1
  Fe  Fe64  1  0.37904689  0.37494865  0.12471633  1
  Fe  Fe65  1  0.00037850  0.50127318  -0.00046769  1
  Fe  Fe66  1  0.62535914  0.62637535  0.87759343  1
  Fe  Fe67  1  0.12777555  0.12462753  0.37366658  1
  Fe  Fe68  1  0.87236125  0.62605595  0.87676275  1
  Fe  Fe69  1  0.12250282  0.87455771  0.87614009  1
  Fe  Fe70  1  0.87049366  0.12358475  0.87334482  1
  Fe  Fe71  1  0.87499731  0.37501276  0.62562902  1
  Fe  Fe72  1  0.74771371  0.24996863  -0.00088375  1
  Fe  Fe73  1  0.12788042  0.62541231  0.62310705  1
  Fe  Fe74  1  0.37948990  0.37316927  0.37405693  1
  Fe  Fe75  1  0.38049433  0.37437727  0.62802720  1
  Fe  Fe76  1  0.12515062  0.87647925  0.37341783  1
  Fe  Fe77  1  0.25035678  -0.00193231  0.75196836  1
  Fe  Fe78  1  0.87260161  0.12507169  0.37418849  1
  Fe  Fe79  1  0.87516470  0.37610796  0.87500862  1
  Fe  Fe80  1  0.25210663  -0.00210804  0.49983624  1
  Fe  Fe81  1  0.25224631  0.49732005  0.49823562  1
  Fe  Fe82  1  0.00094421  0.24890848  0.49911909  1
  Fe  Fe83  1  0.62163012  0.87543955  0.37568183  1
  Fe  Fe84  1  0.37722004  0.87211628  0.37351341  1
  Fe  Fe85  1  0.87532326  0.37485419  0.37382255  1
  Fe  Fe86  1  0.25152235  0.49784181  -0.00033615  1
  Fe  Fe87  1  0.49951269  0.74641063  0.74781826  1
  Fe  Fe88  1  0.37744053  0.87389508  0.87508311  1
  Fe  Fe89  1  0.12426615  0.37442747  0.12508871  1
  Co  Co90  1  0.37899807  0.87397974  0.12807512  1
  Co  Co91  1  0.62794872  0.62651082  0.12265235  1
  Co  Co92  1  0.37280183  0.62443197  0.12605144  1
  Co  Co93  1  0.37134306  0.12425903  0.62521989  1
  Co  Co94  1  0.12725252  0.62766330  0.87665571  1
  Co  Co95  1  0.12462752  0.87648485  0.62613798  1
  Co  Co96  1  0.37418507  0.12667313  0.12139827  1
  Co  Co97  1  0.12885275  0.12481068  0.12242215  1
  Co  Co98  1  -0.00070273  0.00360613  0.24880785  1
  Co  Co99  1  0.62700387  0.12194355  0.37566482  1
  Co  Co100  1  0.25099706  0.25539140  -0.00061375  1
  Co  Co101  1  0.50164629  0.50652977  0.74861909  1
  Co  Co102  1  0.75077321  0.75405735  -0.00001435  1
  Co  Co103  1  0.12520877  0.37296241  0.37451918  1
  Co  Co104  1  0.62279074  0.37358128  0.12502843  1
  Co  Co105  1  0.63026749  0.12471469  0.62530897  1
  Co  Co106  1  0.74824810  0.25339952  0.75215999  1
  Co  Co107  1  0.25258145  -0.00551546  0.00173327  1
  Co  Co108  1  0.61887298  0.37243283  0.62689933  1
  Co  Co109  1  0.50052304  0.24184116  0.75219424  1
  Co  Co110  1  0.62591133  0.12298785  0.12380293  1
  Co  Co111  1  0.25049476  0.75327261  0.50011756  1
  Co  Co112  1  0.24820122  0.75188896  0.24748485  1
  Co  Co113  1  0.49952649  0.74833795  0.50003183  1
  Co  Co114  1  0.49868574  0.00347700  0.49981741  1
  Co  Co115  1  0.74780625  0.49479465  0.50003460  1
  Co  Co116  1  0.87266292  0.62352195  0.12495897  1
  Co  Co117  1  0.74853638  -0.00542757  0.75041709  1
  Co  Co118  1  0.75027243  0.75482385  0.49908357  1
  Co  Co119  1  0.87834766  0.87491725  0.87425342  1
  Co  Co120  1  0.62863589  0.12116518  0.87542454  1
  Co  Co121  1  0.50036340  0.50195435  0.00156647  1
  Co  Co122  1  0.50291244  0.74773208  0.24848355  1
  Co  Co123  1  0.87133534  0.12731610  0.12612370  1
  Co  Co124  1  0.37164070  0.62538587  0.62375065  1
  Co  Co125  1  0.87531256  0.87373635  0.12787766  1
  Co  Co126  1  0.61931772  0.37555233  0.37459692  1
  Co  Co127  1  0.37261993  0.12556135  0.37457017  1
