# generated using pymatgen
data_Fe45Co19
_symmetry_space_group_name_H-M   'P 1'
_cell_length_a   11.41579558
_cell_length_b   11.41448727
_cell_length_c   11.41446573
_cell_angle_alpha   89.98806374
_cell_angle_beta   90.00488160
_cell_angle_gamma   89.99948459
_symmetry_Int_Tables_number   1
_chemical_formula_structural   Fe45Co19
_chemical_formula_sum   'Fe90 Co38'
_cell_volume   1487.36709327
_cell_formula_units_Z   2
loop_
 _symmetry_equiv_pos_site_id
 _symmetry_equiv_pos_as_xyz
  1  'x, y, z'
loop_
 _atom_site_type_symbol
 _atom_site_label
 _atom_site_symmetry_multiplicity
 _atom_site_fract_x
 _atom_site_fract_y
 _atom_site_fract_z
 _atom_site_occupancy
  Fe  Fe0  1  0.25175790  0.75031579  -0.00069701  1
  Fe  Fe1  1  0.37649148  0.37932728  0.12803250  1
  Fe  Fe2  1  0.25034969  0.75578246  0.50459823  1
  Fe  Fe3  1  0.25167816  0.50266652  0.75082693  1
  Fe  Fe4  1  0.75014592  -0.00220271  0.75102045  1
  Fe  Fe5  1  0.12781043  0.12386682  0.37957951  1
  Fe  Fe6  1  0.25035702  0.49863679  -0.00071214  1
  Fe  Fe7  1  0.87354632  0.12566742  0.62502363  1
  Fe  Fe8  1  0.62152145  0.12834935  0.37563876  1
  Fe  Fe9  1  0.00126786  0.24924226  0.74937000  1
  Fe  Fe10  1  0.24937165  0.25078396  0.24845117  1
  Fe  Fe11  1  -0.00125620  0.00079209  0.75161402  1
  Fe  Fe12  1  0.62356425  0.37211325  0.37578971  1
  Fe  Fe13  1  0.12590508  0.62510668  0.62585496  1
  Fe  Fe14  1  0.75063696  -0.00296588  -0.00021120  1
  Fe  Fe15  1  0.75087019  0.50573912  0.75256963  1
  Fe  Fe16  1  0.37663270  0.37279952  0.37395223  1
  Fe  Fe17  1  0.75087024  0.49876689  0.50133338  1
  Fe  Fe18  1  0.24738968  0.24869137  0.74796779  1
  Fe  Fe19  1  0.25205070  0.25113881  0.00141290  1
  Fe  Fe20  1  0.00047554  0.74950152  0.24828086  1
  Fe  Fe21  1  0.49814522  0.75399141  0.00388172  1
  Fe  Fe22  1  0.75021883  0.75046006  0.50166873  1
  Fe  Fe23  1  0.62312370  0.87656825  0.62493820  1
  Fe  Fe24  1  0.37780898  0.12153264  0.12616129  1
  Fe  Fe25  1  0.87448369  0.37458827  0.37496810  1
  Fe  Fe26  1  0.62673932  0.12530351  0.62259073  1
  Fe  Fe27  1  0.62479275  0.62673564  0.37457212  1
  Fe  Fe28  1  0.87551166  0.62804278  0.12041962  1
  Fe  Fe29  1  0.37455927  0.37517287  0.62656953  1
  Fe  Fe30  1  -0.00035330  0.25001924  -0.00104883  1
  Fe  Fe31  1  0.37597976  0.37405295  0.87217520  1
  Fe  Fe32  1  0.62362328  0.87344458  0.87413466  1
  Fe  Fe33  1  0.00021585  0.75049950  0.49962504  1
  Fe  Fe34  1  0.12537283  0.37497111  0.37378972  1
  Fe  Fe35  1  -0.00105665  0.49950132  0.50212998  1
  Fe  Fe36  1  0.62408122  0.37746973  0.12554983  1
  Fe  Fe37  1  0.87370153  0.37424307  0.12306656  1
  Fe  Fe38  1  -0.00044196  0.00042069  0.24970794  1
  Fe  Fe39  1  0.74944206  0.24963582  0.75129360  1
  Fe  Fe40  1  0.50073868  0.74723167  0.74892209  1
  Fe  Fe41  1  0.87453848  0.87342529  0.37293495  1
  Fe  Fe42  1  0.87374554  0.62558548  0.37512878  1
  Fe  Fe43  1  0.87581082  0.87281322  0.62563368  1
  Fe  Fe44  1  0.50178320  0.24951101  0.74700854  1
  Fe  Fe45  1  0.61979291  0.62204975  0.12267003  1
  Fe  Fe46  1  0.12464790  0.87551806  0.37448781  1
  Fe  Fe47  1  0.87590720  0.12662966  0.37635265  1
  Fe  Fe48  1  0.37783256  0.62392951  0.87669872  1
  Fe  Fe49  1  -0.00012132  -0.00276941  -0.00117676  1
  Fe  Fe50  1  0.25454391  0.74547199  0.24885766  1
  Fe  Fe51  1  0.12675891  0.12040924  0.62089910  1
  Fe  Fe52  1  0.37538151  0.62529971  0.62253485  1
  Fe  Fe53  1  0.12781663  0.62330789  0.12395290  1
  Fe  Fe54  1  0.00053947  0.25251242  0.50304844  1
  Fe  Fe55  1  0.12695611  0.62537093  0.37600234  1
  Fe  Fe56  1  0.62379069  0.37800437  0.87313233  1
  Fe  Fe57  1  0.00108214  0.50070028  0.24859453  1
  Fe  Fe58  1  0.37285395  0.12222488  0.62396858  1
  Fe  Fe59  1  0.12791988  0.87561870  0.12613322  1
  Fe  Fe60  1  0.87391900  0.12462515  0.12221238  1
  Fe  Fe61  1  0.37582148  0.12474911  0.87240316  1
  Fe  Fe62  1  0.12751389  0.87315008  0.87135184  1
  Fe  Fe63  1  0.74833181  0.75064243  0.24481887  1
  Fe  Fe64  1  0.37726225  0.87215821  0.37216894  1
  Fe  Fe65  1  0.24939012  0.49781613  0.49919638  1
  Fe  Fe66  1  0.75135889  -0.00037015  0.49813443  1
  Fe  Fe67  1  0.12598346  0.12490284  0.87613284  1
  Fe  Fe68  1  0.87348391  0.86862527  0.87762216  1
  Fe  Fe69  1  0.87312506  0.37443484  0.87562770  1
  Fe  Fe70  1  0.74982865  0.50113166  0.24880931  1
  Fe  Fe71  1  0.12597928  0.37523401  0.87400780  1
  Fe  Fe72  1  -0.00313309  0.50305526  0.75155995  1
  Fe  Fe73  1  0.37596668  0.87728833  0.86890345  1
  Fe  Fe74  1  0.25204442  0.00185016  0.25296294  1
  Fe  Fe75  1  0.12551753  0.12456129  0.12276581  1
  Fe  Fe76  1  0.00168979  0.24938437  0.24865637  1
  Fe  Fe77  1  0.50141338  0.49801558  0.50038270  1
  Fe  Fe78  1  0.62262153  0.12152605  0.12301147  1
  Fe  Fe79  1  0.62557328  0.62384938  0.62573785  1
  Fe  Fe80  1  0.49701005  0.00055435  0.49754218  1
  Fe  Fe81  1  -0.00003835  0.74556314  0.75210328  1
  Fe  Fe82  1  0.74999588  -0.00017476  0.25039306  1
  Fe  Fe83  1  0.25231780  -0.00069411  -0.00239712  1
  Fe  Fe84  1  0.50029811  0.25154557  0.00072408  1
  Fe  Fe85  1  0.74846938  0.24923546  0.24852192  1
  Fe  Fe86  1  0.62507643  0.12442147  0.87752306  1
  Fe  Fe87  1  0.62369355  0.87278744  0.37199768  1
  Fe  Fe88  1  0.49973961  0.75031534  0.50065181  1
  Fe  Fe89  1  0.00064850  0.50163985  -0.00172466  1
  Co  Co90  1  0.87282374  0.37498585  0.62756132  1
  Co  Co91  1  0.37444107  0.62597583  0.37972627  1
  Co  Co92  1  0.74701667  0.25130519  -0.00016289  1
  Co  Co93  1  0.12488637  0.37554416  0.12348709  1
  Co  Co94  1  0.24943111  0.25300007  0.50177848  1
  Co  Co95  1  0.25284663  0.74822032  0.74858900  1
  Co  Co96  1  0.62104639  0.87972704  0.12776078  1
  Co  Co97  1  0.50395455  0.00410192  0.74998009  1
  Co  Co98  1  0.49759736  0.74623448  0.24677679  1
  Co  Co99  1  0.49926923  0.50131720  0.74800037  1
  Co  Co100  1  0.25013714  0.50092300  0.25205341  1
  Co  Co101  1  0.49965707  0.50299694  0.25517768  1
  Co  Co102  1  0.49879899  0.00029520  0.25431953  1
  Co  Co103  1  0.74335609  0.75089544  0.00417846  1
  Co  Co104  1  0.12511841  0.37854721  0.62840521  1
  Co  Co105  1  0.12129467  0.87450753  0.62837024  1
  Co  Co106  1  0.74727175  0.74853407  0.74885575  1
  Co  Co107  1  0.87432697  0.62629657  0.62319098  1
  Co  Co108  1  0.87358054  0.12566905  0.87598524  1
  Co  Co109  1  0.87604756  0.87400023  0.12402967  1
  Co  Co110  1  -0.00189438  -0.00200454  0.49929439  1
  Co  Co111  1  0.00661438  0.75074787  0.00026109  1
  Co  Co112  1  0.75105767  0.25060716  0.49923997  1
  Co  Co113  1  0.50057473  0.24999204  0.24649557  1
  Co  Co114  1  0.25357619  -0.00686015  0.50019283  1
  Co  Co115  1  0.74899387  0.50137664  -0.00108036  1
  Co  Co116  1  0.37991302  0.87751606  0.63057250  1
  Co  Co117  1  0.12787097  0.62379710  0.87460259  1
  Co  Co118  1  0.62186113  0.62604980  0.87723043  1
  Co  Co119  1  0.62815312  0.37601127  0.62693088  1
  Co  Co120  1  0.37391459  0.87843403  0.12763719  1
  Co  Co121  1  0.87210123  0.63084848  0.88084300  1
  Co  Co122  1  0.37602050  0.62011558  0.12263187  1
  Co  Co123  1  0.49874560  0.25092344  0.50508116  1
  Co  Co124  1  0.49740911  -0.00179420  -0.00323397  1
  Co  Co125  1  0.37412005  0.12945023  0.37556241  1
  Co  Co126  1  0.49964652  0.49617864  -0.00236794  1
  Co  Co127  1  0.24781288  0.00009209  0.74856676  1
