# generated using pymatgen
data_Fe45Co19
_symmetry_space_group_name_H-M   'P 1'
_cell_length_a   11.41519990
_cell_length_b   11.41476585
_cell_length_c   11.41607865
_cell_angle_alpha   90.00987821
_cell_angle_beta   89.99875439
_cell_angle_gamma   89.99803596
_symmetry_Int_Tables_number   1
_chemical_formula_structural   Fe45Co19
_chemical_formula_sum   'Fe90 Co38'
_cell_volume   1487.53596094
_cell_formula_units_Z   2
loop_
 _symmetry_equiv_pos_site_id
 _symmetry_equiv_pos_as_xyz
  1  'x, y, z'
loop_
 _atom_site_type_symbol
 _atom_site_label
 _atom_site_symmetry_multiplicity
 _atom_site_fract_x
 _atom_site_fract_y
 _atom_site_fract_z
 _atom_site_occupancy
  Fe  Fe0  1  0.87583430  0.12446035  0.87542591  1
  Fe  Fe1  1  0.62830694  0.62496882  0.37235624  1
  Fe  Fe2  1  0.75094771  0.75086254  0.50116796  1
  Fe  Fe3  1  0.49961088  0.50199440  0.75423293  1
  Fe  Fe4  1  0.24907960  0.25046068  0.49804656  1
  Fe  Fe5  1  0.87545308  0.37470645  0.62533259  1
  Fe  Fe6  1  0.75027087  0.50030547  0.49953164  1
  Fe  Fe7  1  0.24999480  0.74884015  0.00461562  1
  Fe  Fe8  1  -0.00229873  0.50367597  0.00123219  1
  Fe  Fe9  1  0.37623079  0.37577805  0.12613931  1
  Fe  Fe10  1  0.62606134  0.37731298  0.87894513  1
  Fe  Fe11  1  0.74905160  -0.00015847  0.74863290  1
  Fe  Fe12  1  0.62704077  0.87732857  0.37382343  1
  Fe  Fe13  1  0.75040808  0.00228734  0.50115995  1
  Fe  Fe14  1  0.37627351  0.12434654  0.62625789  1
  Fe  Fe15  1  0.74977042  0.25049031  0.75002481  1
  Fe  Fe16  1  0.37109314  0.87312485  0.87394765  1
  Fe  Fe17  1  0.50330823  0.24850136  0.49834536  1
  Fe  Fe18  1  0.12505199  0.37730678  0.62363173  1
  Fe  Fe19  1  -0.00125929  -0.00114232  0.49785699  1
  Fe  Fe20  1  -0.00094513  0.74989418  0.75531070  1
  Fe  Fe21  1  0.50113763  0.74686057  0.75318251  1
  Fe  Fe22  1  0.12768451  0.87205405  0.37742859  1
  Fe  Fe23  1  -0.00262625  0.50029388  0.25148936  1
  Fe  Fe24  1  0.50110677  0.74885149  -0.00110739  1
  Fe  Fe25  1  0.12384099  0.87146161  0.62432620  1
  Fe  Fe26  1  0.50133976  0.25078390  0.75208018  1
  Fe  Fe27  1  0.62873695  0.87158319  0.87600917  1
  Fe  Fe28  1  0.74995132  0.24949802  0.00376620  1
  Fe  Fe29  1  0.25057706  -0.00171145  0.24864939  1
  Fe  Fe30  1  0.25000557  -0.00103368  0.50176263  1
  Fe  Fe31  1  0.24775652  0.25045452  0.74999658  1
  Fe  Fe32  1  0.12433154  0.12409293  0.37450258  1
  Fe  Fe33  1  0.37207620  0.37819706  0.87657772  1
  Fe  Fe34  1  0.12239720  0.37674582  0.12598072  1
  Fe  Fe35  1  0.24945301  0.00016656  -0.00023632  1
  Fe  Fe36  1  0.12921619  0.62406344  0.87636496  1
  Fe  Fe37  1  0.74906662  0.50164976  0.74955627  1
  Fe  Fe38  1  -0.00020727  0.25035580  -0.00097428  1
  Fe  Fe39  1  0.49961426  0.24773419  0.00126654  1
  Fe  Fe40  1  0.62372424  0.87496938  0.62534801  1
  Fe  Fe41  1  0.37908344  0.87790196  0.12345533  1
  Fe  Fe42  1  0.37662357  0.87528044  0.62599574  1
  Fe  Fe43  1  0.87729195  0.62672518  0.62620111  1
  Fe  Fe44  1  0.50097883  0.75173941  0.25024100  1
  Fe  Fe45  1  0.50061711  0.00194991  0.49727470  1
  Fe  Fe46  1  -0.00026113  0.24951486  0.25030889  1
  Fe  Fe47  1  0.24976982  0.25001431  0.00330974  1
  Fe  Fe48  1  0.62376401  0.37629973  0.62496351  1
  Fe  Fe49  1  0.00072045  -0.00431265  -0.00452170  1
  Fe  Fe50  1  0.74762536  0.24719091  0.50174273  1
  Fe  Fe51  1  0.50294877  0.24970963  0.24847137  1
  Fe  Fe52  1  0.75375852  0.50223846  0.00426076  1
  Fe  Fe53  1  0.37498971  0.62449551  0.12739993  1
  Fe  Fe54  1  0.75317953  -0.00209640  0.24596733  1
  Fe  Fe55  1  -0.00106073  0.50175644  0.49715686  1
  Fe  Fe56  1  0.12340258  0.12532691  0.62625556  1
  Fe  Fe57  1  0.00071698  0.49968703  0.75101804  1
  Fe  Fe58  1  0.37184020  0.87159686  0.37553874  1
  Fe  Fe59  1  0.62863334  0.62651809  0.12602677  1
  Fe  Fe60  1  0.12280653  0.12294873  0.12419145  1
  Fe  Fe61  1  0.24863793  0.25051324  0.24893186  1
  Fe  Fe62  1  0.12675210  0.37686583  0.87612604  1
  Fe  Fe63  1  0.49931355  0.74898012  0.49748862  1
  Fe  Fe64  1  0.49876979  0.50309826  -0.00040099  1
  Fe  Fe65  1  0.12220113  0.62693395  0.12635147  1
  Fe  Fe66  1  0.50222826  0.49877610  0.25217951  1
  Fe  Fe67  1  0.87648770  0.87371094  0.62626463  1
  Fe  Fe68  1  0.37448770  0.12634514  0.37301464  1
  Fe  Fe69  1  0.50095898  -0.00025133  0.75317424  1
  Fe  Fe70  1  0.25006381  0.49922543  0.25091213  1
  Fe  Fe71  1  0.12828664  0.62933447  0.37486267  1
  Fe  Fe72  1  0.49914769  0.50027944  0.49498380  1
  Fe  Fe73  1  0.62295118  0.62496136  0.62501716  1
  Fe  Fe74  1  0.62667655  0.12466345  0.87649334  1
  Fe  Fe75  1  -0.00025635  0.25033551  0.49884835  1
  Fe  Fe76  1  0.12071234  0.87419451  0.12375164  1
  Fe  Fe77  1  -0.00278905  -0.00131549  0.25199665  1
  Fe  Fe78  1  -0.00230523  0.75249248  0.25333885  1
  Fe  Fe79  1  0.87228907  0.37285241  0.37361402  1
  Fe  Fe80  1  0.87744117  0.12514998  0.62728045  1
  Fe  Fe81  1  0.37196951  0.12398536  0.87477451  1
  Fe  Fe82  1  0.37519328  0.37659017  0.62409094  1
  Fe  Fe83  1  0.87469093  0.37606998  0.87567502  1
  Fe  Fe84  1  0.25139113  0.74498097  0.74510054  1
  Fe  Fe85  1  0.75051379  -0.00305325  0.00363633  1
  Fe  Fe86  1  0.74815348  0.25017042  0.24416948  1
  Fe  Fe87  1  0.25116134  0.50408077  0.49907373  1
  Fe  Fe88  1  0.00356493  -0.00136061  0.75432108  1
  Fe  Fe89  1  0.87052208  0.62758237  0.37187006  1
  Co  Co90  1  0.87811603  0.37478384  0.12527463  1
  Co  Co91  1  0.87831022  0.12339516  0.12292932  1
  Co  Co92  1  0.87553306  0.62983906  0.12857977  1
  Co  Co93  1  0.87321439  0.12674128  0.37367025  1
  Co  Co94  1  0.75182175  0.75051229  0.00319055  1
  Co  Co95  1  0.75055570  0.49652952  0.24695280  1
  Co  Co96  1  0.37286151  0.62777178  0.37157645  1
  Co  Co97  1  0.13164778  0.87089159  0.87437027  1
  Co  Co98  1  0.24781925  0.00094305  0.74792079  1
  Co  Co99  1  0.25241204  0.74713470  0.50493558  1
  Co  Co100  1  0.12453033  0.37618959  0.37528288  1
  Co  Co101  1  -0.00310333  0.75011467  0.49632329  1
  Co  Co102  1  0.87963069  0.87128577  0.12291094  1
  Co  Co103  1  0.38106362  0.62278057  0.62449395  1
  Co  Co104  1  0.62770756  0.12351681  0.37075184  1
  Co  Co105  1  0.25035456  0.75337839  0.24457901  1
  Co  Co106  1  0.62778034  0.37421597  0.37532644  1
  Co  Co107  1  0.24957988  0.49985904  0.00538767  1
  Co  Co108  1  0.37016649  0.62514351  0.87709065  1
  Co  Co109  1  0.62282822  0.12404298  0.62715255  1
  Co  Co110  1  0.00067569  0.25180074  0.75143101  1
  Co  Co111  1  0.62930693  0.62509541  0.87745651  1
  Co  Co112  1  0.62117202  0.11907733  0.12491755  1
  Co  Co113  1  0.74928951  0.74823636  0.74680003  1
  Co  Co114  1  0.87172552  0.62513087  0.87409053  1
  Co  Co115  1  0.37645531  0.12258737  0.12543664  1
  Co  Co116  1  0.62310870  0.37764376  0.12121654  1
  Co  Co117  1  0.87235237  0.87588289  0.37658341  1
  Co  Co118  1  -0.00061925  0.74935577  -0.00544948  1
  Co  Co119  1  0.24987375  0.50209137  0.74670209  1
  Co  Co120  1  0.49964976  -0.00084229  -0.00616535  1
  Co  Co121  1  0.49731600  -0.00165082  0.25387829  1
  Co  Co122  1  0.74933665  0.75589218  0.24783674  1
  Co  Co123  1  0.62123144  0.87705437  0.12412441  1
  Co  Co124  1  0.12589287  0.12643584  0.87629320  1
  Co  Co125  1  0.87016444  0.87439858  0.87384655  1
  Co  Co126  1  0.11952311  0.62620389  0.62380622  1
  Co  Co127  1  0.37560309  0.37344347  0.37430978  1
