# generated using pymatgen
data_Fe45Co19
_symmetry_space_group_name_H-M   'P 1'
_cell_length_a   11.41554382
_cell_length_b   11.41641667
_cell_length_c   11.41557861
_cell_angle_alpha   90.00522363
_cell_angle_beta   89.99548634
_cell_angle_gamma   89.99905579
_symmetry_Int_Tables_number   1
_chemical_formula_structural   Fe45Co19
_chemical_formula_sum   'Fe90 Co38'
_cell_volume   1487.73075897
_cell_formula_units_Z   2
loop_
 _symmetry_equiv_pos_site_id
 _symmetry_equiv_pos_as_xyz
  1  'x, y, z'
loop_
 _atom_site_type_symbol
 _atom_site_label
 _atom_site_symmetry_multiplicity
 _atom_site_fract_x
 _atom_site_fract_y
 _atom_site_fract_z
 _atom_site_occupancy
  Fe  Fe0  1  0.24960056  0.24825369  0.00347610  1
  Fe  Fe1  1  0.75330958  0.25074246  0.75176470  1
  Fe  Fe2  1  0.49925138  -0.00209091  0.24926909  1
  Fe  Fe3  1  0.24906410  0.25278756  0.24737326  1
  Fe  Fe4  1  0.37384117  0.37520735  0.37488995  1
  Fe  Fe5  1  0.12448560  0.87545787  0.62511984  1
  Fe  Fe6  1  0.37352660  0.37601104  0.62460427  1
  Fe  Fe7  1  0.62462144  0.62620486  0.62590457  1
  Fe  Fe8  1  0.49841286  0.49842936  -0.00114452  1
  Fe  Fe9  1  0.00082249  0.50032409  -0.00192197  1
  Fe  Fe10  1  0.62665265  0.62616398  0.87534584  1
  Fe  Fe11  1  0.24991708  0.25005492  0.74945731  1
  Fe  Fe12  1  0.12416266  0.62870530  0.87495438  1
  Fe  Fe13  1  0.49735359  0.49976844  0.75310285  1
  Fe  Fe14  1  0.37232456  0.87723300  0.87806272  1
  Fe  Fe15  1  0.75097068  0.25124512  0.24868843  1
  Fe  Fe16  1  0.87464663  0.87747230  0.37454529  1
  Fe  Fe17  1  0.74992775  0.50358465  0.00164007  1
  Fe  Fe18  1  0.62452004  0.12622118  0.87426597  1
  Fe  Fe19  1  0.62607590  0.37323771  0.87728662  1
  Fe  Fe20  1  0.12203699  0.62842894  0.12781325  1
  Fe  Fe21  1  0.50244483  -0.00028984  0.74725219  1
  Fe  Fe22  1  0.75042070  0.24938799  0.49956906  1
  Fe  Fe23  1  0.12396451  0.37478850  0.37736163  1
  Fe  Fe24  1  0.75050904  0.00086341  0.00110210  1
  Fe  Fe25  1  0.49759706  0.75128031  0.75110618  1
  Fe  Fe26  1  0.62659076  0.87408543  0.37463174  1
  Fe  Fe27  1  0.00280310  -0.00347894  0.00017665  1
  Fe  Fe28  1  0.75099320  0.74859506  0.50018247  1
  Fe  Fe29  1  0.24742393  0.50150870  0.24994886  1
  Fe  Fe30  1  0.25006222  0.50049783  0.75274634  1
  Fe  Fe31  1  0.75321334  0.24743414  0.00025615  1
  Fe  Fe32  1  0.37340285  0.62415513  0.37575113  1
  Fe  Fe33  1  0.87932073  0.12338404  0.87308409  1
  Fe  Fe34  1  0.12216877  0.12508986  0.12920804  1
  Fe  Fe35  1  0.37342662  0.12390200  0.87612777  1
  Fe  Fe36  1  0.37428810  0.87787077  0.62060754  1
  Fe  Fe37  1  0.74731984  0.49832925  0.24751018  1
  Fe  Fe38  1  0.12307309  0.12529482  0.87247632  1
  Fe  Fe39  1  0.49647570  0.75227710  0.25052761  1
  Fe  Fe40  1  0.62838548  0.87497019  0.87558841  1
  Fe  Fe41  1  0.50260631  0.49695611  0.24934546  1
  Fe  Fe42  1  0.87644238  0.62387041  0.62505057  1
  Fe  Fe43  1  0.50037791  0.75185936  0.49898250  1
  Fe  Fe44  1  0.25034489  0.50050564  -0.00031512  1
  Fe  Fe45  1  0.87421165  0.62197603  0.37481021  1
  Fe  Fe46  1  0.87890108  0.12367114  0.12697023  1
  Fe  Fe47  1  0.74917487  0.00205992  0.24973803  1
  Fe  Fe48  1  0.87747856  0.37514391  0.12284046  1
  Fe  Fe49  1  0.00627807  0.00377117  0.49693938  1
  Fe  Fe50  1  -0.00139678  0.75273396  0.75148386  1
  Fe  Fe51  1  0.00057002  0.74803215  0.49686099  1
  Fe  Fe52  1  0.62386357  0.12701192  0.12564458  1
  Fe  Fe53  1  -0.00562860  0.75342100  0.00093297  1
  Fe  Fe54  1  0.75348832  0.74856236  0.24556538  1
  Fe  Fe55  1  0.87810055  0.37459390  0.62111363  1
  Fe  Fe56  1  0.24749724  -0.00111467  0.75072993  1
  Fe  Fe57  1  0.25242195  -0.00470368  0.24540766  1
  Fe  Fe58  1  0.49941946  0.00152315  0.00161783  1
  Fe  Fe59  1  0.87569143  0.37542016  0.37731974  1
  Fe  Fe60  1  0.62661465  0.62460067  0.37374646  1
  Fe  Fe61  1  0.50109186  0.49856658  0.49850051  1
  Fe  Fe62  1  0.74644756  0.00157107  0.50186556  1
  Fe  Fe63  1  0.49827375  0.24948780  0.74939286  1
  Fe  Fe64  1  0.12518286  0.62335565  0.62362008  1
  Fe  Fe65  1  0.24937497  0.74969371  0.49785929  1
  Fe  Fe66  1  0.87661266  0.87727819  0.62270017  1
  Fe  Fe67  1  0.74897029  0.00088422  0.74705037  1
  Fe  Fe68  1  0.25103728  0.75019839  0.74972278  1
  Fe  Fe69  1  0.12545433  0.37245787  0.87704263  1
  Fe  Fe70  1  0.75174168  0.49838939  0.75001012  1
  Fe  Fe71  1  0.12381515  0.37466356  0.62233384  1
  Fe  Fe72  1  0.24935879  0.75201533  0.00306999  1
  Fe  Fe73  1  0.37371714  0.62345930  0.62389328  1
  Fe  Fe74  1  0.62422444  0.37311446  0.62295600  1
  Fe  Fe75  1  0.88011886  0.12504080  0.62576838  1
  Fe  Fe76  1  0.37395604  0.12125085  0.62132857  1
  Fe  Fe77  1  0.75284228  0.75065609  0.75126692  1
  Fe  Fe78  1  0.00026209  0.49776333  0.75181933  1
  Fe  Fe79  1  0.24772787  0.24654231  0.49964865  1
  Fe  Fe80  1  0.50071028  0.75002301  -0.00100305  1
  Fe  Fe81  1  0.87706317  0.12531433  0.37374153  1
  Fe  Fe82  1  0.62666580  0.87353183  0.12445169  1
  Fe  Fe83  1  0.50008564  0.25229791  0.24965261  1
  Fe  Fe84  1  0.37633814  0.62416497  0.12475897  1
  Fe  Fe85  1  0.49678382  0.25082198  0.00196718  1
  Fe  Fe86  1  0.37422226  0.12093732  0.37611641  1
  Fe  Fe87  1  0.00167618  0.49944219  0.25206871  1
  Fe  Fe88  1  0.12586568  0.87194553  0.36900819  1
  Fe  Fe89  1  0.62303180  0.12707600  0.37653374  1
  Co  Co90  1  -0.00048107  0.25326707  0.25065801  1
  Co  Co91  1  0.00374005  0.24534412  0.49725260  1
  Co  Co92  1  0.24974786  0.49975855  0.49861648  1
  Co  Co93  1  0.50585050  -0.00113557  0.50146113  1
  Co  Co94  1  0.37278803  0.62716903  0.87634790  1
  Co  Co95  1  -0.00147646  0.25477546  0.75146467  1
  Co  Co96  1  0.87494213  0.37625132  0.87967774  1
  Co  Co97  1  0.74843134  0.50115326  0.50174804  1
  Co  Co98  1  0.87868016  0.62099024  0.12583141  1
  Co  Co99  1  0.62674344  0.87105604  0.62578923  1
  Co  Co100  1  0.12363299  0.37649963  0.12355846  1
  Co  Co101  1  0.00055290  0.24808670  0.00079936  1
  Co  Co102  1  0.62678754  0.37321769  0.37724063  1
  Co  Co103  1  0.75400289  0.74809463  0.00324037  1
  Co  Co104  1  -0.00027696  -0.00066568  0.25167539  1
  Co  Co105  1  0.37346927  0.87893646  0.37911681  1
  Co  Co106  1  0.12709977  0.87309812  0.87545616  1
  Co  Co107  1  0.49615286  0.25005887  0.49906517  1
  Co  Co108  1  0.62178719  0.62621714  0.12530229  1
  Co  Co109  1  0.87203255  0.87724718  0.87480641  1
  Co  Co110  1  0.24578924  0.00202027  0.00313336  1
  Co  Co111  1  0.62525112  0.13014118  0.62452345  1
  Co  Co112  1  0.24192543  0.00128635  0.49895820  1
  Co  Co113  1  0.12287972  0.12574640  0.63036704  1
  Co  Co114  1  -0.00569315  0.74884425  0.25134232  1
  Co  Co115  1  0.25513106  0.74961462  0.24919249  1
  Co  Co116  1  0.00150552  -0.00419653  0.75089525  1
  Co  Co117  1  0.12822237  0.12520761  0.36658879  1
  Co  Co118  1  0.37624225  0.87450606  0.12056542  1
  Co  Co119  1  0.37496205  0.12567002  0.12731151  1
  Co  Co120  1  0.62604516  0.37276966  0.12152704  1
  Co  Co121  1  0.87408077  0.87920421  0.12748523  1
  Co  Co122  1  0.37345351  0.37690053  0.12551793  1
  Co  Co123  1  0.12605815  0.62722701  0.37371819  1
  Co  Co124  1  0.00077247  0.50271455  0.49884880  1
  Co  Co125  1  0.37247202  0.37204952  0.87638635  1
  Co  Co126  1  0.87592683  0.62426781  0.87372458  1
  Co  Co127  1  0.12225014  0.87137897  0.12916326  1
