# generated using pymatgen
data_Fe45Co19
_symmetry_space_group_name_H-M   'P 1'
_cell_length_a   11.41468686
_cell_length_b   11.41650199
_cell_length_c   11.41462837
_cell_angle_alpha   89.99550172
_cell_angle_beta   90.01322437
_cell_angle_gamma   90.00992047
_symmetry_Int_Tables_number   1
_chemical_formula_structural   Fe45Co19
_chemical_formula_sum   'Fe90 Co38'
_cell_volume   1487.50630684
_cell_formula_units_Z   2
loop_
 _symmetry_equiv_pos_site_id
 _symmetry_equiv_pos_as_xyz
  1  'x, y, z'
loop_
 _atom_site_type_symbol
 _atom_site_label
 _atom_site_symmetry_multiplicity
 _atom_site_fract_x
 _atom_site_fract_y
 _atom_site_fract_z
 _atom_site_occupancy
  Fe  Fe0  1  0.87745607  0.87429474  0.87235827  1
  Fe  Fe1  1  0.12466906  0.37419295  0.87750846  1
  Fe  Fe2  1  0.00065840  0.25045341  0.24879586  1
  Fe  Fe3  1  0.24971243  0.00233379  0.75195708  1
  Fe  Fe4  1  0.62563102  0.87646536  0.62409914  1
  Fe  Fe5  1  0.37752517  0.12882722  0.87136686  1
  Fe  Fe6  1  0.12432375  0.12400420  0.37518919  1
  Fe  Fe7  1  -0.00164518  0.24928271  0.00088346  1
  Fe  Fe8  1  0.12242522  0.87725189  0.62534561  1
  Fe  Fe9  1  0.00217741  0.24900300  0.75068451  1
  Fe  Fe10  1  0.25348295  0.49536091  0.75108004  1
  Fe  Fe11  1  0.37233761  0.62875219  0.37701602  1
  Fe  Fe12  1  0.49802352  0.50111269  0.50111466  1
  Fe  Fe13  1  0.62418085  0.12043373  0.88065043  1
  Fe  Fe14  1  0.49986423  0.74760539  -0.00167777  1
  Fe  Fe15  1  -0.00153763  0.75275453  0.50097798  1
  Fe  Fe16  1  0.62278236  0.62218135  0.12447827  1
  Fe  Fe17  1  0.12649259  0.87568793  0.12356597  1
  Fe  Fe18  1  0.87170428  0.12610297  0.62535794  1
  Fe  Fe19  1  0.62121073  0.37762815  0.87403633  1
  Fe  Fe20  1  0.25491612  0.49806334  -0.00112369  1
  Fe  Fe21  1  0.12696029  0.62217674  0.62341102  1
  Fe  Fe22  1  0.87511558  0.37619193  0.12778671  1
  Fe  Fe23  1  -0.00128027  0.00037425  0.25030112  1
  Fe  Fe24  1  0.00107785  0.74756507  0.75013717  1
  Fe  Fe25  1  0.37568219  0.12565827  0.12739529  1
  Fe  Fe26  1  0.12783347  0.62350620  0.87551742  1
  Fe  Fe27  1  0.00197340  0.75061800  -0.00174919  1
  Fe  Fe28  1  0.87443743  0.37347451  0.87412536  1
  Fe  Fe29  1  0.87471055  0.62504559  0.12516683  1
  Fe  Fe30  1  0.50378420  0.74900630  0.75073843  1
  Fe  Fe31  1  0.37434458  0.87209837  0.12594350  1
  Fe  Fe32  1  0.87426233  0.87430811  0.12746055  1
  Fe  Fe33  1  0.74788185  0.75168315  -0.00179181  1
  Fe  Fe34  1  0.12670968  0.12509585  0.12340692  1
  Fe  Fe35  1  0.74551459  0.24796348  0.75200486  1
  Fe  Fe36  1  0.50121292  0.00166133  0.24843930  1
  Fe  Fe37  1  0.12792765  0.12728321  0.62285818  1
  Fe  Fe38  1  0.87302335  0.62503050  0.62364635  1
  Fe  Fe39  1  0.62507935  0.37546898  0.62357220  1
  Fe  Fe40  1  0.62382999  0.87942515  0.12170252  1
  Fe  Fe41  1  0.00401231  0.74877844  0.25066161  1
  Fe  Fe42  1  0.00114788  0.00482646  0.75223760  1
  Fe  Fe43  1  0.87348027  0.62394721  0.87601120  1
  Fe  Fe44  1  0.74972727  0.50040628  0.74915017  1
  Fe  Fe45  1  0.38072754  0.37650216  0.12892505  1
  Fe  Fe46  1  0.50135265  0.24490893  0.50323740  1
  Fe  Fe47  1  0.62608517  0.62726265  0.37946875  1
  Fe  Fe48  1  0.12430712  0.37687248  0.37384382  1
  Fe  Fe49  1  0.37851502  0.37215982  0.37437155  1
  Fe  Fe50  1  0.50023213  0.74850041  0.24998006  1
  Fe  Fe51  1  0.49703389  0.50333315  -0.00286325  1
  Fe  Fe52  1  0.74935967  0.49777829  0.00059603  1
  Fe  Fe53  1  0.24983758  0.25059090  0.25033461  1
  Fe  Fe54  1  0.74871279  -0.00063068  0.75390454  1
  Fe  Fe55  1  -0.00344040  0.49819712  0.49886028  1
  Fe  Fe56  1  0.37523019  0.12536862  0.37498796  1
  Fe  Fe57  1  0.24691678  0.75128721  0.75026867  1
  Fe  Fe58  1  -0.00413044  -0.00068646  0.49776923  1
  Fe  Fe59  1  0.50338766  0.24890914  0.00433720  1
  Fe  Fe60  1  0.74694275  0.75127159  0.24853596  1
  Fe  Fe61  1  0.86908140  0.12471603  0.12465906  1
  Fe  Fe62  1  0.25240081  -0.00051563  -0.00262698  1
  Fe  Fe63  1  0.25223653  0.25191506  0.00044597  1
  Fe  Fe64  1  0.12664802  0.37452227  0.62278292  1
  Fe  Fe65  1  -0.00046038  0.49934141  0.74997538  1
  Fe  Fe66  1  -0.00011764  0.49944458  0.00153180  1
  Fe  Fe67  1  0.87344781  0.62599488  0.37499354  1
  Fe  Fe68  1  -0.00205827  0.00129937  -0.00161568  1
  Fe  Fe69  1  0.37380446  0.62678887  0.62544418  1
  Fe  Fe70  1  0.74794988  0.49969708  0.25170991  1
  Fe  Fe71  1  0.62391420  0.87427382  0.37668091  1
  Fe  Fe72  1  0.87230320  0.37297538  0.62486894  1
  Fe  Fe73  1  0.74831492  0.75073644  0.75129816  1
  Fe  Fe74  1  0.37452220  0.87312221  0.37504177  1
  Fe  Fe75  1  0.12859831  0.62478624  0.12303752  1
  Fe  Fe76  1  0.75519091  -0.00305010  0.49663825  1
  Fe  Fe77  1  0.25092739  -0.00094737  0.50018661  1
  Fe  Fe78  1  0.49772402  0.00156825  0.50364457  1
  Fe  Fe79  1  0.62316165  0.37436153  0.37599831  1
  Fe  Fe80  1  0.37726758  0.87338450  0.87315289  1
  Fe  Fe81  1  -0.00263364  0.25066258  0.49781125  1
  Fe  Fe82  1  0.37639560  0.87501088  0.62666047  1
  Fe  Fe83  1  0.25131998  0.50038001  0.24944768  1
  Fe  Fe84  1  0.37575099  0.36827297  0.62684411  1
  Fe  Fe85  1  0.74466228  0.25023854  0.24750295  1
  Fe  Fe86  1  0.12818624  0.62476707  0.37861281  1
  Fe  Fe87  1  0.24971239  -0.00142994  0.25069445  1
  Fe  Fe88  1  0.62665104  0.12324588  0.37623491  1
  Fe  Fe89  1  0.62620553  0.62493608  0.62317776  1
  Co  Co90  1  0.50013122  0.00370713  0.74714398  1
  Co  Co91  1  0.12571603  0.37479683  0.12449490  1
  Co  Co92  1  0.49758048  0.50103471  0.74739583  1
  Co  Co93  1  0.24933077  0.25022595  0.49584292  1
  Co  Co94  1  0.49330886  0.00043736  0.00120807  1
  Co  Co95  1  0.75308878  0.75409794  0.50169872  1
  Co  Co96  1  0.49890628  0.75031894  0.50165868  1
  Co  Co97  1  0.25052470  0.75172402  -0.00144100  1
  Co  Co98  1  0.74621247  0.25462620  0.00097655  1
  Co  Co99  1  0.87577121  0.87691124  0.63006039  1
  Co  Co100  1  0.75069573  0.49855134  0.49901338  1
  Co  Co101  1  0.62072833  0.87827057  0.87686782  1
  Co  Co102  1  0.62594437  0.62180573  0.87428804  1
  Co  Co103  1  0.74804855  -0.00139573  0.25215232  1
  Co  Co104  1  0.87573015  0.87174817  0.37010926  1
  Co  Co105  1  0.37499641  0.62592454  0.12598009  1
  Co  Co106  1  0.24653790  0.25169285  0.75275215  1
  Co  Co107  1  0.61936501  0.38060663  0.12703802  1
  Co  Co108  1  0.62837903  0.11833532  0.12072647  1
  Co  Co109  1  0.87422535  0.37518703  0.37118989  1
  Co  Co110  1  0.50464604  0.24437923  0.24821669  1
  Co  Co111  1  0.24858442  0.75406396  0.50272034  1
  Co  Co112  1  0.12401819  0.87670852  0.87448668  1
  Co  Co113  1  0.25414838  0.49696225  0.50113735  1
  Co  Co114  1  0.87308683  0.12786274  0.87482659  1
  Co  Co115  1  0.37366988  0.62761650  0.87145039  1
  Co  Co116  1  0.12599198  0.12681689  0.87863430  1
  Co  Co117  1  0.49935374  0.50506307  0.25556145  1
  Co  Co118  1  0.87388515  0.12726582  0.37158526  1
  Co  Co119  1  0.12458037  0.87637780  0.37567427  1
  Co  Co120  1  0.37012498  0.12862052  0.62686119  1
  Co  Co121  1  0.24835423  0.75080219  0.25038896  1
  Co  Co122  1  0.38145962  0.36991323  0.87306599  1
  Co  Co123  1  0.75094270  0.25029442  0.49843858  1
  Co  Co124  1  0.75499497  -0.00399718  -0.00270552  1
  Co  Co125  1  0.50715748  0.24431132  0.74609034  1
  Co  Co126  1  0.63084593  0.11985395  0.62165054  1
  Co  Co127  1  0.00191629  0.50296799  0.24956982  1
