# generated using pymatgen
data_Fe45Co19
_symmetry_space_group_name_H-M   'P 1'
_cell_length_a   11.41501316
_cell_length_b   11.41540306
_cell_length_c   11.41493584
_cell_angle_alpha   89.99901040
_cell_angle_beta   90.00182822
_cell_angle_gamma   90.00666634
_symmetry_Int_Tables_number   1
_chemical_formula_structural   Fe45Co19
_chemical_formula_sum   'Fe90 Co38'
_cell_volume   1487.44576148
_cell_formula_units_Z   2
loop_
 _symmetry_equiv_pos_site_id
 _symmetry_equiv_pos_as_xyz
  1  'x, y, z'
loop_
 _atom_site_type_symbol
 _atom_site_label
 _atom_site_symmetry_multiplicity
 _atom_site_fract_x
 _atom_site_fract_y
 _atom_site_fract_z
 _atom_site_occupancy
  Fe  Fe0  1  0.37435999  0.12389844  0.37719793  1
  Fe  Fe1  1  0.25292361  0.50016969  0.75191331  1
  Fe  Fe2  1  0.12238754  0.87407024  0.37602343  1
  Fe  Fe3  1  0.87651249  0.37378610  0.87145729  1
  Fe  Fe4  1  0.12581023  0.62667880  0.62402129  1
  Fe  Fe5  1  0.87470837  0.87487084  0.87121831  1
  Fe  Fe6  1  0.87454185  0.12242511  0.63085599  1
  Fe  Fe7  1  0.00197173  0.24685590  0.24804223  1
  Fe  Fe8  1  0.74334567  0.74766574  0.74877732  1
  Fe  Fe9  1  0.37566623  0.87469385  0.37647854  1
  Fe  Fe10  1  0.74841118  0.25187948  0.24778535  1
  Fe  Fe11  1  0.12712396  0.87441158  0.12548234  1
  Fe  Fe12  1  0.62449478  0.12118585  0.62335575  1
  Fe  Fe13  1  0.62678611  0.62376206  0.37841538  1
  Fe  Fe14  1  0.74853553  0.50067895  0.74864877  1
  Fe  Fe15  1  0.49730445  0.49951013  -0.00120019  1
  Fe  Fe16  1  0.37483494  0.12094590  0.62119189  1
  Fe  Fe17  1  0.25079594  0.24982251  0.74712045  1
  Fe  Fe18  1  0.87690969  0.12464672  0.87302773  1
  Fe  Fe19  1  0.62520060  0.62351443  0.12332452  1
  Fe  Fe20  1  0.37540286  0.87329778  0.12558528  1
  Fe  Fe21  1  0.50106134  0.49865088  0.49742396  1
  Fe  Fe22  1  0.49884602  0.00009303  0.00129217  1
  Fe  Fe23  1  0.49937602  0.24908259  0.74703459  1
  Fe  Fe24  1  0.37547241  0.37660061  0.37318944  1
  Fe  Fe25  1  0.61908641  0.87326435  0.87483699  1
  Fe  Fe26  1  -0.00568022  0.75405001  0.50264485  1
  Fe  Fe27  1  0.12660426  0.12367640  0.62191068  1
  Fe  Fe28  1  0.12816718  0.62344125  0.12345297  1
  Fe  Fe29  1  0.37522963  0.37680388  0.62488299  1
  Fe  Fe30  1  0.00043476  0.00000942  0.00041446  1
  Fe  Fe31  1  0.50368310  0.75203711  0.50086362  1
  Fe  Fe32  1  0.74871028  0.75180264  0.24957445  1
  Fe  Fe33  1  0.75187193  0.25266487  0.00184900  1
  Fe  Fe34  1  0.12520420  0.37459781  0.87325790  1
  Fe  Fe35  1  0.12603282  0.62651506  0.87411071  1
  Fe  Fe36  1  -0.00025907  0.50064265  -0.00059998  1
  Fe  Fe37  1  0.37336104  0.62331546  0.12682496  1
  Fe  Fe38  1  0.12600414  0.12509260  0.87467480  1
  Fe  Fe39  1  0.87066199  0.62655892  0.62348572  1
  Fe  Fe40  1  0.50256233  0.25026539  0.25105737  1
  Fe  Fe41  1  0.62494703  0.88010690  0.62479905  1
  Fe  Fe42  1  0.74820680  0.75167608  0.00069514  1
  Fe  Fe43  1  0.62230217  0.37491187  0.87444336  1
  Fe  Fe44  1  0.37813347  0.62943843  0.87499213  1
  Fe  Fe45  1  0.50222673  0.74904878  0.25018297  1
  Fe  Fe46  1  0.49745737  0.25012424  0.00177145  1
  Fe  Fe47  1  0.50000090  0.24874900  0.49893141  1
  Fe  Fe48  1  0.62889637  0.87946593  0.37509124  1
  Fe  Fe49  1  0.25137039  0.25232871  0.00054071  1
  Fe  Fe50  1  0.50144142  0.00115705  0.25152309  1
  Fe  Fe51  1  0.00255484  0.50190795  0.25257763  1
  Fe  Fe52  1  0.25173201  -0.00218935  -0.00002442  1
  Fe  Fe53  1  0.25115958  0.75131198  0.49966606  1
  Fe  Fe54  1  0.25258595  -0.00375603  0.74826503  1
  Fe  Fe55  1  -0.00225370  0.49971782  0.50057892  1
  Fe  Fe56  1  -0.00227106  0.25030929  0.50261260  1
  Fe  Fe57  1  0.24979114  0.74638831  0.25307161  1
  Fe  Fe58  1  0.12726583  0.37768819  0.12683444  1
  Fe  Fe59  1  0.74703415  0.49656433  0.25071430  1
  Fe  Fe60  1  0.00002096  0.74967011  0.00084884  1
  Fe  Fe61  1  0.37835460  0.62512275  0.62276297  1
  Fe  Fe62  1  0.75081044  0.24875827  0.50027316  1
  Fe  Fe63  1  0.74860203  -0.00128033  -0.00079322  1
  Fe  Fe64  1  -0.00062817  0.75062435  0.74828594  1
  Fe  Fe65  1  0.12613611  0.37490907  0.62293466  1
  Fe  Fe66  1  0.74874188  0.24966651  0.74954368  1
  Fe  Fe67  1  0.00140848  0.00284154  0.24777370  1
  Fe  Fe68  1  0.37334380  0.12489692  0.12708457  1
  Fe  Fe69  1  0.87505690  0.37422700  0.37423472  1
  Fe  Fe70  1  0.37466337  0.12520447  0.87425345  1
  Fe  Fe71  1  0.87333129  0.62376911  0.12544893  1
  Fe  Fe72  1  0.24641360  0.24821051  0.25436260  1
  Fe  Fe73  1  -0.00059760  0.74900017  0.24825584  1
  Fe  Fe74  1  0.62630493  0.12469178  0.12524381  1
  Fe  Fe75  1  0.25465931  0.75314111  0.74793590  1
  Fe  Fe76  1  -0.00040261  0.24980714  0.00210293  1
  Fe  Fe77  1  0.87369807  0.12274209  0.37227039  1
  Fe  Fe78  1  0.12616545  0.87320633  0.87387927  1
  Fe  Fe79  1  0.87372745  0.87692650  0.12623526  1
  Fe  Fe80  1  0.75116841  0.49717221  0.00027068  1
  Fe  Fe81  1  0.24874691  0.50156406  0.49486649  1
  Fe  Fe82  1  0.24751970  0.00148324  0.25322892  1
  Fe  Fe83  1  -0.00133135  0.50025954  0.74740478  1
  Fe  Fe84  1  0.62278537  0.12629445  0.87537061  1
  Fe  Fe85  1  0.37296200  0.37878155  0.12920849  1
  Fe  Fe86  1  0.87299081  0.62615262  0.87470394  1
  Fe  Fe87  1  -0.00392409  -0.00441474  0.50342344  1
  Fe  Fe88  1  0.87300533  0.62702548  0.37587889  1
  Fe  Fe89  1  0.62514032  0.37708011  0.62327421  1
  Co  Co90  1  0.12252849  0.12370685  0.38100161  1
  Co  Co91  1  0.74870479  0.00021774  0.24828477  1
  Co  Co92  1  0.50316106  0.50184111  0.25139410  1
  Co  Co93  1  0.49767967  0.00085500  0.75134938  1
  Co  Co94  1  0.87838238  0.37618177  0.12750589  1
  Co  Co95  1  0.50160200  0.00117869  0.49559789  1
  Co  Co96  1  0.75488117  0.00044491  0.50031765  1
  Co  Co97  1  0.37954242  0.62634854  0.37734289  1
  Co  Co98  1  0.37952151  0.87686900  0.62165377  1
  Co  Co99  1  0.00269741  0.24980241  0.74806723  1
  Co  Co100  1  0.74627441  0.00148393  0.75410540  1
  Co  Co101  1  0.50013980  0.50158261  0.75115045  1
  Co  Co102  1  0.87333242  0.37405732  0.62647537  1
  Co  Co103  1  0.37915130  0.87220465  0.87658417  1
  Co  Co104  1  0.25243115  0.49988672  -0.00427978  1
  Co  Co105  1  0.24995007  0.74991009  0.00040506  1
  Co  Co106  1  0.74994368  0.75470295  0.50043893  1
  Co  Co107  1  0.62412070  0.62403421  0.87783568  1
  Co  Co108  1  0.24885996  -0.00361320  0.49895973  1
  Co  Co109  1  0.62337270  0.87645079  0.12596662  1
  Co  Co110  1  0.62151044  0.37526667  0.12294243  1
  Co  Co111  1  0.25242969  0.25100643  0.49815485  1
  Co  Co112  1  0.87201392  0.12399532  0.12382993  1
  Co  Co113  1  0.12803699  0.12528466  0.12222660  1
  Co  Co114  1  0.62477096  0.37359825  0.37788528  1
  Co  Co115  1  0.00374391  -0.00124916  0.74893396  1
  Co  Co116  1  0.50203525  0.74860266  0.74517905  1
  Co  Co117  1  0.12215287  0.37225846  0.37696837  1
  Co  Co118  1  0.12055418  0.63034030  0.37981602  1
  Co  Co119  1  0.50075089  0.74875811  0.00412044  1
  Co  Co120  1  0.24712789  0.50427711  0.25765453  1
  Co  Co121  1  0.87493851  0.87617159  0.37007962  1
  Co  Co122  1  0.12610435  0.87225082  0.62456945  1
  Co  Co123  1  0.75265903  0.49783369  0.49864522  1
  Co  Co124  1  0.86914216  0.87556066  0.63264244  1
  Co  Co125  1  0.62464009  0.62082048  0.62026239  1
  Co  Co126  1  0.37746980  0.37141098  0.87250190  1
  Co  Co127  1  0.62772856  0.12524848  0.37469157  1
