# generated using pymatgen
data_Fe45Co19
_symmetry_space_group_name_H-M   'P 1'
_cell_length_a   11.41567765
_cell_length_b   11.41568624
_cell_length_c   11.41584225
_cell_angle_alpha   89.99597050
_cell_angle_beta   89.99313215
_cell_angle_gamma   90.00255669
_symmetry_Int_Tables_number   1
_chemical_formula_structural   Fe45Co19
_chemical_formula_sum   'Fe90 Co38'
_cell_volume   1487.68736627
_cell_formula_units_Z   2
loop_
 _symmetry_equiv_pos_site_id
 _symmetry_equiv_pos_as_xyz
  1  'x, y, z'
loop_
 _atom_site_type_symbol
 _atom_site_label
 _atom_site_symmetry_multiplicity
 _atom_site_fract_x
 _atom_site_fract_y
 _atom_site_fract_z
 _atom_site_occupancy
  Fe  Fe0  1  0.50077749  0.00133057  0.75013031  1
  Fe  Fe1  1  0.87253830  0.37497626  0.62442056  1
  Fe  Fe2  1  0.00031303  0.00022510  0.74749455  1
  Fe  Fe3  1  0.62026172  0.37487299  0.87312831  1
  Fe  Fe4  1  0.12243058  0.87542653  0.37781015  1
  Fe  Fe5  1  0.25292984  0.75234210  0.24921057  1
  Fe  Fe6  1  0.25406591  0.25125728  0.75430535  1
  Fe  Fe7  1  -0.00127047  0.74876853  0.74978922  1
  Fe  Fe8  1  0.25161095  0.75009015  0.74921911  1
  Fe  Fe9  1  0.87142390  0.12692443  0.62679737  1
  Fe  Fe10  1  0.12608019  0.37266742  0.62540919  1
  Fe  Fe11  1  -0.00104908  0.74711362  0.00102350  1
  Fe  Fe12  1  0.12642724  0.62580655  0.37353698  1
  Fe  Fe13  1  0.62283349  0.87043257  0.12298890  1
  Fe  Fe14  1  0.50024476  0.50197072  0.49947874  1
  Fe  Fe15  1  0.37495468  0.37263109  0.37300058  1
  Fe  Fe16  1  0.00015714  0.24993590  -0.00077200  1
  Fe  Fe17  1  0.00120333  0.50045486  0.74863873  1
  Fe  Fe18  1  0.62216853  0.37156329  0.37370654  1
  Fe  Fe19  1  0.25134327  0.00098625  0.24859881  1
  Fe  Fe20  1  0.87365243  0.37572231  0.12492893  1
  Fe  Fe21  1  0.50275139  0.00184625  0.50254879  1
  Fe  Fe22  1  0.12452548  0.87381123  0.12534659  1
  Fe  Fe23  1  0.37687846  0.87847227  0.37767184  1
  Fe  Fe24  1  -0.00017148  0.24830904  0.50067879  1
  Fe  Fe25  1  0.49882225  0.74902423  0.75071224  1
  Fe  Fe26  1  -0.00275337  0.25045816  0.75271490  1
  Fe  Fe27  1  0.49932993  0.50120017  0.24841403  1
  Fe  Fe28  1  0.00060398  0.50328150  0.00358675  1
  Fe  Fe29  1  0.37556765  0.62605241  0.37488418  1
  Fe  Fe30  1  0.37787493  0.87675326  0.12048092  1
  Fe  Fe31  1  0.12678425  0.62598904  0.62477915  1
  Fe  Fe32  1  0.37290826  0.12546337  0.62407601  1
  Fe  Fe33  1  0.25002932  -0.00080093  0.75035294  1
  Fe  Fe34  1  0.12927465  0.12572988  0.12189289  1
  Fe  Fe35  1  0.62440593  0.12767652  0.87359868  1
  Fe  Fe36  1  0.12529767  0.12449542  0.87514858  1
  Fe  Fe37  1  0.12750649  0.12585275  0.37729307  1
  Fe  Fe38  1  0.74948286  0.25077247  -0.00335005  1
  Fe  Fe39  1  0.37563523  0.37494687  0.62564290  1
  Fe  Fe40  1  0.49877029  0.50109306  0.00430779  1
  Fe  Fe41  1  -0.00028667  0.50028043  0.24881091  1
  Fe  Fe42  1  0.62442411  0.37382214  0.12687881  1
  Fe  Fe43  1  0.37746684  0.87409138  0.62424541  1
  Fe  Fe44  1  0.87574824  0.37932784  0.87662468  1
  Fe  Fe45  1  0.62814380  0.12832120  0.62748357  1
  Fe  Fe46  1  0.25144803  0.74902114  0.00073100  1
  Fe  Fe47  1  0.25219942  0.50174238  0.24607297  1
  Fe  Fe48  1  0.12423099  0.87363540  0.87309236  1
  Fe  Fe49  1  0.87460444  0.87526448  0.12253598  1
  Fe  Fe50  1  0.74827251  -0.00233445  0.24936406  1
  Fe  Fe51  1  0.87446652  0.87295514  0.62372709  1
  Fe  Fe52  1  0.49964749  0.00343723  0.24641095  1
  Fe  Fe53  1  0.12667966  0.62321196  0.87581012  1
  Fe  Fe54  1  0.25128610  0.75075004  0.50076711  1
  Fe  Fe55  1  0.74741422  0.00053995  -0.00250673  1
  Fe  Fe56  1  0.74746967  -0.00146845  0.50187666  1
  Fe  Fe57  1  0.25143782  0.49928967  0.50141779  1
  Fe  Fe58  1  0.37722548  0.87670197  0.87717113  1
  Fe  Fe59  1  0.87253880  0.62540888  0.62529775  1
  Fe  Fe60  1  0.37426132  0.62101688  0.87453300  1
  Fe  Fe61  1  0.74888885  0.74435992  -0.00265322  1
  Fe  Fe62  1  0.49920580  0.24769201  0.50017390  1
  Fe  Fe63  1  0.62474113  0.62849754  0.62531918  1
  Fe  Fe64  1  0.74993904  0.24994895  0.25187944  1
  Fe  Fe65  1  0.87216862  0.12466936  0.12309524  1
  Fe  Fe66  1  0.87338988  0.12338811  0.37585955  1
  Fe  Fe67  1  0.87441577  0.87524777  0.87452698  1
  Fe  Fe68  1  0.87770010  0.87617996  0.37855476  1
  Fe  Fe69  1  0.87151907  0.62571684  0.37200013  1
  Fe  Fe70  1  0.62588349  0.62872575  0.37007441  1
  Fe  Fe71  1  0.00072817  0.24855445  0.24903362  1
  Fe  Fe72  1  0.62220657  0.87462576  0.37594034  1
  Fe  Fe73  1  0.12851378  0.37441397  0.12576907  1
  Fe  Fe74  1  0.49596963  0.24246019  0.24657509  1
  Fe  Fe75  1  0.74745536  0.49941389  0.49718687  1
  Fe  Fe76  1  0.12752020  0.37357690  0.37404174  1
  Fe  Fe77  1  0.24629789  -0.00063282  0.50403777  1
  Fe  Fe78  1  0.00027161  0.50151469  0.49920543  1
  Fe  Fe79  1  -0.00175507  0.75005041  0.24954721  1
  Fe  Fe80  1  0.37721720  0.12397328  0.88218369  1
  Fe  Fe81  1  0.87536499  0.37470603  0.37513161  1
  Fe  Fe82  1  0.00076772  0.00156061  0.24910531  1
  Fe  Fe83  1  0.62551354  0.37213894  0.62605929  1
  Fe  Fe84  1  0.74883234  0.50053131  0.75171645  1
  Fe  Fe85  1  0.00179481  -0.00025714  -0.00010767  1
  Fe  Fe86  1  0.49824816  0.50030535  0.74648301  1
  Fe  Fe87  1  0.74691078  0.50386489  0.00076129  1
  Fe  Fe88  1  0.12738424  0.37883236  0.87584202  1
  Fe  Fe89  1  0.62474417  0.87337731  0.87197483  1
  Co  Co90  1  -0.00065506  0.74629906  0.49924652  1
  Co  Co91  1  0.49653053  0.24854732  0.74987310  1
  Co  Co92  1  0.37210809  0.12150676  0.11672247  1
  Co  Co93  1  0.87165501  0.62393006  0.12806288  1
  Co  Co94  1  0.12391196  0.87208226  0.62500814  1
  Co  Co95  1  0.49684679  0.75368178  0.25159790  1
  Co  Co96  1  0.25185865  0.25467088  -0.00298480  1
  Co  Co97  1  0.37822324  0.62868876  0.12611381  1
  Co  Co98  1  0.74920564  -0.00092982  0.74989365  1
  Co  Co99  1  0.62875234  0.12620029  0.12423004  1
  Co  Co100  1  0.75131392  0.75564660  0.24992288  1
  Co  Co101  1  0.12543018  0.62677015  0.12619183  1
  Co  Co102  1  0.87557350  0.12194094  0.87605805  1
  Co  Co103  1  0.25313785  0.24547132  0.24915872  1
  Co  Co104  1  0.74820067  0.49617396  0.25120668  1
  Co  Co105  1  0.87697356  0.62256910  0.87415980  1
  Co  Co106  1  0.50040871  0.25126132  0.00279344  1
  Co  Co107  1  0.24638430  -0.00466684  -0.00222480  1
  Co  Co108  1  0.37444691  0.37270209  0.12739637  1
  Co  Co109  1  0.25059991  0.49873122  0.74746378  1
  Co  Co110  1  0.37847920  0.37917810  0.87462028  1
  Co  Co111  1  0.74820291  0.75112187  0.49885326  1
  Co  Co112  1  0.62430555  0.62780222  0.12949659  1
  Co  Co113  1  0.25178168  0.25235438  0.49990053  1
  Co  Co114  1  0.62102022  0.62255653  0.87236283  1
  Co  Co115  1  0.25326572  0.50057404  0.00402579  1
  Co  Co116  1  0.12744914  0.12939305  0.62824313  1
  Co  Co117  1  0.74901646  0.25163363  0.49754014  1
  Co  Co118  1  0.37384035  0.12218809  0.37802748  1
  Co  Co119  1  0.50041974  0.74714076  -0.00367516  1
  Co  Co120  1  0.50625272  0.00025564  -0.00008306  1
  Co  Co121  1  0.75219914  0.25277299  0.75527699  1
  Co  Co122  1  0.00153164  0.00375929  0.50428794  1
  Co  Co123  1  0.37569525  0.62594456  0.62468031  1
  Co  Co124  1  0.62507752  0.12432509  0.37441616  1
  Co  Co125  1  0.50019919  0.74878406  0.49876219  1
  Co  Co126  1  0.75034068  0.74853815  0.75217303  1
  Co  Co127  1  0.62287813  0.87202301  0.62791370  1
