# generated using pymatgen
data_Fe45Co19
_symmetry_space_group_name_H-M   'P 1'
_cell_length_a   11.41486473
_cell_length_b   11.41496751
_cell_length_c   11.41543119
_cell_angle_alpha   89.99933631
_cell_angle_beta   90.01181423
_cell_angle_gamma   90.00265881
_symmetry_Int_Tables_number   1
_chemical_formula_structural   Fe45Co19
_chemical_formula_sum   'Fe90 Co38'
_cell_volume   1487.43419003
_cell_formula_units_Z   2
loop_
 _symmetry_equiv_pos_site_id
 _symmetry_equiv_pos_as_xyz
  1  'x, y, z'
loop_
 _atom_site_type_symbol
 _atom_site_label
 _atom_site_symmetry_multiplicity
 _atom_site_fract_x
 _atom_site_fract_y
 _atom_site_fract_z
 _atom_site_occupancy
  Fe  Fe0  1  -0.00390512  0.00493517  0.00250610  1
  Fe  Fe1  1  0.49993467  0.49580332  -0.00335475  1
  Fe  Fe2  1  0.62542413  0.62452886  0.37514494  1
  Fe  Fe3  1  0.12666719  0.62393716  0.37342653  1
  Fe  Fe4  1  0.87450850  0.87835982  0.37328521  1
  Fe  Fe5  1  0.37601138  0.62638583  0.12204139  1
  Fe  Fe6  1  0.25041930  0.24783899  0.75038860  1
  Fe  Fe7  1  0.62553311  0.87621293  0.12316608  1
  Fe  Fe8  1  0.24994401  0.75131835  0.25078937  1
  Fe  Fe9  1  0.74835068  0.24939730  0.74846358  1
  Fe  Fe10  1  0.00253758  0.49702545  0.00324557  1
  Fe  Fe11  1  0.37578789  0.37380832  0.62579784  1
  Fe  Fe12  1  0.75352521  0.00259507  0.00429559  1
  Fe  Fe13  1  0.74735174  0.50380685  0.74354086  1
  Fe  Fe14  1  0.00105552  -0.00036349  0.50204767  1
  Fe  Fe15  1  0.62717987  0.12429857  0.37552890  1
  Fe  Fe16  1  0.24676365  -0.00211938  0.50397076  1
  Fe  Fe17  1  0.87419282  0.37377214  0.62443613  1
  Fe  Fe18  1  0.37355651  0.87748628  0.87526790  1
  Fe  Fe19  1  0.62519220  0.12184488  0.87596350  1
  Fe  Fe20  1  0.24932525  0.49920401  0.24542269  1
  Fe  Fe21  1  0.24945828  0.50185727  0.75042182  1
  Fe  Fe22  1  0.00202941  0.49798445  0.24828896  1
  Fe  Fe23  1  0.62549384  0.87582062  0.37501072  1
  Fe  Fe24  1  0.49974752  0.75031174  0.25009042  1
  Fe  Fe25  1  -0.00043061  0.25084108  0.75188679  1
  Fe  Fe26  1  0.37909306  0.12916094  0.12382562  1
  Fe  Fe27  1  0.50077797  0.25213599  0.75461687  1
  Fe  Fe28  1  0.74889605  0.50301698  0.50496215  1
  Fe  Fe29  1  0.62263830  0.12763905  0.12511777  1
  Fe  Fe30  1  0.87377514  0.87094632  0.62540668  1
  Fe  Fe31  1  0.50260563  0.49890066  0.75124581  1
  Fe  Fe32  1  0.37513403  0.12414178  0.62331427  1
  Fe  Fe33  1  0.50115094  -0.00315716  0.74830934  1
  Fe  Fe34  1  0.12206303  0.13262216  0.12348098  1
  Fe  Fe35  1  0.87585908  0.12573264  0.62483986  1
  Fe  Fe36  1  0.24838026  0.49993167  0.00144732  1
  Fe  Fe37  1  0.87729746  0.62001815  0.87276474  1
  Fe  Fe38  1  0.12263273  0.87414002  0.12322520  1
  Fe  Fe39  1  0.37585256  0.37111255  0.12355124  1
  Fe  Fe40  1  0.37360123  0.87903464  0.37591170  1
  Fe  Fe41  1  0.25035837  0.00291684  0.00200147  1
  Fe  Fe42  1  0.37448980  0.62292395  0.37369577  1
  Fe  Fe43  1  0.37529683  0.63040147  0.63012036  1
  Fe  Fe44  1  0.00041061  0.75028444  0.25090045  1
  Fe  Fe45  1  0.12681826  0.37490476  0.87561329  1
  Fe  Fe46  1  0.62526125  0.37470149  0.37746314  1
  Fe  Fe47  1  0.12704518  0.37138167  0.62419412  1
  Fe  Fe48  1  0.50014924  0.00088517  0.24952962  1
  Fe  Fe49  1  0.25269589  0.24992251  0.25394455  1
  Fe  Fe50  1  0.75220812  0.24831243  -0.00175642  1
  Fe  Fe51  1  0.37536565  0.87373459  0.12283089  1
  Fe  Fe52  1  0.62338113  0.37066311  0.12473547  1
  Fe  Fe53  1  0.24694774  -0.00072046  0.74820450  1
  Fe  Fe54  1  0.62231326  0.12771243  0.62314741  1
  Fe  Fe55  1  0.12477217  0.62910643  0.62680867  1
  Fe  Fe56  1  0.87870285  0.36871064  0.12727137  1
  Fe  Fe57  1  0.75055296  0.74956324  -0.00322954  1
  Fe  Fe58  1  0.74939076  -0.00022243  0.74715154  1
  Fe  Fe59  1  0.12860125  0.37608528  0.37690345  1
  Fe  Fe60  1  0.50221048  0.75189512  -0.00541052  1
  Fe  Fe61  1  -0.00002659  0.50072990  0.50315071  1
  Fe  Fe62  1  0.37212936  0.87162431  0.62653833  1
  Fe  Fe63  1  -0.00075213  0.24886012  0.49839939  1
  Fe  Fe64  1  0.62427959  0.62509013  0.12306715  1
  Fe  Fe65  1  0.74980380  0.75132805  0.24981085  1
  Fe  Fe66  1  -0.00196031  0.00307345  0.24807451  1
  Fe  Fe67  1  0.49516003  0.24968640  0.49555507  1
  Fe  Fe68  1  0.24656494  0.74820274  -0.00489725  1
  Fe  Fe69  1  0.12736291  0.12343079  0.37744204  1
  Fe  Fe70  1  0.87599168  0.62611455  0.12629768  1
  Fe  Fe71  1  0.24921717  0.00057021  0.24611882  1
  Fe  Fe72  1  0.25097471  0.50207561  0.50376710  1
  Fe  Fe73  1  0.49791670  0.75077707  0.49882859  1
  Fe  Fe74  1  0.00206982  0.75138573  0.75417682  1
  Fe  Fe75  1  0.74975180  0.49793704  0.24810520  1
  Fe  Fe76  1  0.87444620  0.87856345  0.87521892  1
  Fe  Fe77  1  0.00086168  0.75070143  0.49713048  1
  Fe  Fe78  1  0.87276725  0.37442150  0.37628438  1
  Fe  Fe79  1  0.62691674  0.86811096  0.62626331  1
  Fe  Fe80  1  0.50043417  0.49847004  0.24853724  1
  Fe  Fe81  1  0.00205640  -0.00068851  0.74719333  1
  Fe  Fe82  1  0.87391687  0.62290364  0.37444832  1
  Fe  Fe83  1  0.75119019  0.49939892  0.00280032  1
  Fe  Fe84  1  0.74934121  -0.00052849  0.50198167  1
  Fe  Fe85  1  0.50011673  0.50193439  0.50258114  1
  Fe  Fe86  1  0.00084456  0.74856047  -0.00193317  1
  Fe  Fe87  1  0.37651557  0.12361827  0.87546936  1
  Fe  Fe88  1  0.87239300  0.37726080  0.87182946  1
  Fe  Fe89  1  0.12370598  0.12386624  0.87463613  1
  Co  Co90  1  0.12410279  0.36795034  0.12460064  1
  Co  Co91  1  0.74870802  0.25080740  0.25105300  1
  Co  Co92  1  0.00148730  0.24972464  0.25766579  1
  Co  Co93  1  0.12329854  0.88171400  0.87858736  1
  Co  Co94  1  0.12441232  0.12814758  0.62446812  1
  Co  Co95  1  0.75136634  0.74732081  0.75610937  1
  Co  Co96  1  -0.00355246  0.25042332  -0.00729318  1
  Co  Co97  1  0.00153631  0.49669481  0.74543326  1
  Co  Co98  1  0.87655652  0.13230206  0.12917295  1
  Co  Co99  1  0.75218043  0.74902800  0.49679300  1
  Co  Co100  1  0.25155916  0.24795525  -0.00231584  1
  Co  Co101  1  0.37339853  0.38079925  0.37555231  1
  Co  Co102  1  0.12588063  0.87017853  0.62527606  1
  Co  Co103  1  0.25365400  0.25006547  0.49890964  1
  Co  Co104  1  0.12476203  0.62768786  0.12623944  1
  Co  Co105  1  0.87170137  0.12293311  0.37593078  1
  Co  Co106  1  0.24635413  0.75063681  0.75724923  1
  Co  Co107  1  0.49781777  0.24984099  0.25589838  1
  Co  Co108  1  0.25010741  0.74955089  0.49654555  1
  Co  Co109  1  0.62490215  0.62099484  0.87562453  1
  Co  Co110  1  0.62276885  0.63172941  0.62568162  1
  Co  Co111  1  0.62862901  0.88050245  0.87597004  1
  Co  Co112  1  0.37266962  0.11724079  0.37780274  1
  Co  Co113  1  0.12481366  0.87820101  0.37296830  1
  Co  Co114  1  0.87780217  0.62932251  0.62617467  1
  Co  Co115  1  0.87627672  0.87272299  0.12473337  1
  Co  Co116  1  0.50082384  0.25206193  -0.00605574  1
  Co  Co117  1  0.37120129  0.37583487  0.87406330  1
  Co  Co118  1  0.63079765  0.37687633  0.87414691  1
  Co  Co119  1  0.50251531  -0.00250986  0.50296848  1
  Co  Co120  1  0.12157632  0.61941364  0.87362636  1
  Co  Co121  1  0.75038262  0.00020391  0.24647550  1
  Co  Co122  1  0.75102608  0.24924542  0.50147075  1
  Co  Co123  1  0.62196306  0.37187826  0.62298731  1
  Co  Co124  1  0.87355912  0.12280021  0.87030079  1
  Co  Co125  1  0.37658654  0.62361103  0.87483081  1
  Co  Co126  1  0.49866077  -0.00021548  0.00057469  1
  Co  Co127  1  0.50134027  0.75341475  0.75569154  1
