# generated using pymatgen
data_Fe45Co19
_symmetry_space_group_name_H-M   'P 1'
_cell_length_a   11.41562109
_cell_length_b   11.41583154
_cell_length_c   11.41584875
_cell_angle_alpha   89.99672504
_cell_angle_beta   89.99823725
_cell_angle_gamma   89.99820229
_symmetry_Int_Tables_number   1
_chemical_formula_structural   Fe45Co19
_chemical_formula_sum   'Fe90 Co38'
_cell_volume   1487.69978962
_cell_formula_units_Z   2
loop_
 _symmetry_equiv_pos_site_id
 _symmetry_equiv_pos_as_xyz
  1  'x, y, z'
loop_
 _atom_site_type_symbol
 _atom_site_label
 _atom_site_symmetry_multiplicity
 _atom_site_fract_x
 _atom_site_fract_y
 _atom_site_fract_z
 _atom_site_occupancy
  Fe  Fe0  1  0.00027003  0.75128439  0.24869097  1
  Fe  Fe1  1  0.87633407  0.37645093  0.87419483  1
  Fe  Fe2  1  -0.00039609  -0.00140302  -0.00226312  1
  Fe  Fe3  1  -0.00117529  0.75056432  0.50059279  1
  Fe  Fe4  1  0.75217203  0.50068820  0.50018093  1
  Fe  Fe5  1  0.24759823  0.50136280  0.24726668  1
  Fe  Fe6  1  0.74887524  0.25255151  -0.00061430  1
  Fe  Fe7  1  0.12436221  0.87398004  0.62550700  1
  Fe  Fe8  1  0.62597154  0.12484860  0.37471275  1
  Fe  Fe9  1  0.12379969  0.62540097  0.62397195  1
  Fe  Fe10  1  0.12478433  0.12493967  0.87309523  1
  Fe  Fe11  1  0.25171980  0.74715481  0.75076527  1
  Fe  Fe12  1  0.87578726  0.12566319  0.62550845  1
  Fe  Fe13  1  0.87370726  0.87218006  0.87120851  1
  Fe  Fe14  1  0.62886723  0.87227622  0.62598320  1
  Fe  Fe15  1  0.87640189  0.12619639  0.12312686  1
  Fe  Fe16  1  0.87451725  0.62316051  0.37195826  1
  Fe  Fe17  1  0.62481812  0.12425122  0.87463952  1
  Fe  Fe18  1  0.25072066  0.25025072  -0.00335216  1
  Fe  Fe19  1  0.62382361  0.62600504  0.62371252  1
  Fe  Fe20  1  0.12695529  0.12367709  0.37882861  1
  Fe  Fe21  1  0.50197483  0.49868977  0.00294906  1
  Fe  Fe22  1  0.00025585  0.25315783  0.50052050  1
  Fe  Fe23  1  0.12277937  0.62429851  0.37436213  1
  Fe  Fe24  1  -0.00133580  -0.00017667  0.75014636  1
  Fe  Fe25  1  0.37536241  0.12446930  0.62446706  1
  Fe  Fe26  1  0.49766422  0.74897913  0.00223495  1
  Fe  Fe27  1  0.75067682  -0.00045853  0.50181682  1
  Fe  Fe28  1  0.50006041  -0.00114515  0.49879013  1
  Fe  Fe29  1  0.87575622  0.87639497  0.12513939  1
  Fe  Fe30  1  0.49889660  -0.00168570  0.75160289  1
  Fe  Fe31  1  0.49880707  0.74743733  0.75180204  1
  Fe  Fe32  1  0.87461437  0.12607107  0.37461845  1
  Fe  Fe33  1  0.62788096  0.37731847  0.37203146  1
  Fe  Fe34  1  0.37558710  0.37830072  0.62536755  1
  Fe  Fe35  1  0.87371250  0.87455914  0.37549901  1
  Fe  Fe36  1  0.62769581  0.87289688  0.37263289  1
  Fe  Fe37  1  0.25206044  0.00186322  -0.00003848  1
  Fe  Fe38  1  0.00168921  0.25180593  -0.00311454  1
  Fe  Fe39  1  0.12566658  0.87410021  0.12554695  1
  Fe  Fe40  1  0.12039354  0.37804301  0.62690915  1
  Fe  Fe41  1  0.12377138  0.12610942  0.12292679  1
  Fe  Fe42  1  0.75173175  0.24951215  0.75129397  1
  Fe  Fe43  1  0.49705808  0.24841279  0.25271279  1
  Fe  Fe44  1  0.24911235  0.25147967  0.75013530  1
  Fe  Fe45  1  0.87751456  0.62408737  0.12395257  1
  Fe  Fe46  1  0.24764453  0.50125757  0.00109524  1
  Fe  Fe47  1  0.50002164  0.74903233  0.49665600  1
  Fe  Fe48  1  0.37454499  0.62424885  0.37268134  1
  Fe  Fe49  1  0.00150694  0.00113917  0.24983373  1
  Fe  Fe50  1  0.37535252  0.87207340  0.62522165  1
  Fe  Fe51  1  0.75239052  0.50305203  0.75105448  1
  Fe  Fe52  1  -0.00074692  -0.00126190  0.50170007  1
  Fe  Fe53  1  0.37248918  0.37624424  0.37515620  1
  Fe  Fe54  1  0.74964592  0.00077703  0.24826137  1
  Fe  Fe55  1  0.25048893  0.74978016  0.49866066  1
  Fe  Fe56  1  0.25119809  -0.00022758  0.74964961  1
  Fe  Fe57  1  0.75086466  0.00007582  -0.00166247  1
  Fe  Fe58  1  0.12734396  0.87631848  0.37374924  1
  Fe  Fe59  1  0.87637311  0.62719761  0.62522216  1
  Fe  Fe60  1  0.25079189  0.74681834  0.00339334  1
  Fe  Fe61  1  0.24861255  0.50077640  0.50078952  1
  Fe  Fe62  1  0.37410895  0.37489998  0.12425547  1
  Fe  Fe63  1  0.12193143  0.62715582  0.87703736  1
  Fe  Fe64  1  0.62588412  0.87365770  0.87394162  1
  Fe  Fe65  1  0.62658749  0.37721040  0.62671787  1
  Fe  Fe66  1  0.62509175  0.87313003  0.12673644  1
  Fe  Fe67  1  0.37315734  0.87603863  0.12867534  1
  Fe  Fe68  1  0.74997133  0.25200067  0.50158449  1
  Fe  Fe69  1  0.24936502  0.25059462  0.50292572  1
  Fe  Fe70  1  0.74687210  0.49740749  0.00510813  1
  Fe  Fe71  1  0.49922970  0.25233959  -0.00390293  1
  Fe  Fe72  1  0.25024732  0.24701087  0.25038472  1
  Fe  Fe73  1  0.12611639  0.87220972  0.87555891  1
  Fe  Fe74  1  0.37182179  0.87821268  0.37063491  1
  Fe  Fe75  1  0.75227674  0.25289142  0.24776387  1
  Fe  Fe76  1  0.50016714  0.25200512  0.49919857  1
  Fe  Fe77  1  0.75177112  0.74913758  0.00113928  1
  Fe  Fe78  1  0.49726281  -0.00025174  -0.00025329  1
  Fe  Fe79  1  0.00136395  0.25233281  0.25170098  1
  Fe  Fe80  1  0.00089941  0.49459848  0.24999666  1
  Fe  Fe81  1  0.49880664  0.50132575  0.75114350  1
  Fe  Fe82  1  0.00351665  0.49769881  -0.00007496  1
  Fe  Fe83  1  0.62452633  0.12444065  0.62608403  1
  Fe  Fe84  1  0.62523695  0.62472747  0.87795553  1
  Fe  Fe85  1  0.49907372  0.25253873  0.75130904  1
  Fe  Fe86  1  0.24950392  0.50234889  0.75148967  1
  Fe  Fe87  1  0.50086162  0.50009777  0.49796137  1
  Fe  Fe88  1  0.62372540  0.12652798  0.12415364  1
  Fe  Fe89  1  0.62812494  0.62463769  0.36793634  1
  Co  Co90  1  0.87564355  0.62315473  0.88051156  1
  Co  Co91  1  0.24817745  0.00536310  0.24732653  1
  Co  Co92  1  0.49946091  0.49898648  0.24895237  1
  Co  Co93  1  0.62616919  0.37684497  0.87186679  1
  Co  Co94  1  0.37512433  0.12493260  0.87283310  1
  Co  Co95  1  0.11996755  0.62558695  0.12509327  1
  Co  Co96  1  0.24835412  0.74653036  0.24899238  1
  Co  Co97  1  0.50144634  0.00138151  0.24991251  1
  Co  Co98  1  0.75174247  0.49650592  0.24383498  1
  Co  Co99  1  0.12406520  0.37597352  0.87308644  1
  Co  Co100  1  0.12683328  0.37551863  0.37626374  1
  Co  Co101  1  0.87549293  0.12621086  0.87731625  1
  Co  Co102  1  0.37344049  0.87274561  0.87590181  1
  Co  Co103  1  0.87194339  0.87258868  0.62702527  1
  Co  Co104  1  0.37686912  0.62320407  0.12604076  1
  Co  Co105  1  -0.00148181  0.75289038  0.00012389  1
  Co  Co106  1  0.37727334  0.12634208  0.12321736  1
  Co  Co107  1  -0.00030330  0.24929006  0.75076510  1
  Co  Co108  1  0.75066200  0.74726163  0.49883519  1
  Co  Co109  1  0.62526293  0.62767381  0.12789181  1
  Co  Co110  1  0.37297963  0.12259823  0.37900163  1
  Co  Co111  1  0.49819625  0.75056311  0.25056050  1
  Co  Co112  1  -0.00179740  0.49998772  0.49966137  1
  Co  Co113  1  -0.00102481  0.50366910  0.75100778  1
  Co  Co114  1  0.75369408  0.75043647  0.24733898  1
  Co  Co115  1  0.37594667  0.62348394  0.87767478  1
  Co  Co116  1  0.12688056  0.37253889  0.12497904  1
  Co  Co117  1  0.87928557  0.37342371  0.12192632  1
  Co  Co118  1  0.74939956  0.74522837  0.75186778  1
  Co  Co119  1  0.87313284  0.37554415  0.37622022  1
  Co  Co120  1  0.62075473  0.37128847  0.12858742  1
  Co  Co121  1  0.87577090  0.37574954  0.62650723  1
  Co  Co122  1  0.25052757  -0.00175163  0.50326321  1
  Co  Co123  1  0.37588650  0.62494118  0.62304617  1
  Co  Co124  1  0.75068037  0.00207195  0.75074564  1
  Co  Co125  1  0.37410840  0.37865664  0.87530126  1
  Co  Co126  1  0.12422935  0.12403516  0.62508136  1
  Co  Co127  1  -0.00011988  0.74831700  0.75079384  1
