# generated using pymatgen
data_Fe45Co19
_symmetry_space_group_name_H-M   'P 1'
_cell_length_a   11.41574256
_cell_length_b   11.41578666
_cell_length_c   11.41409252
_cell_angle_alpha   89.99588067
_cell_angle_beta   89.99952497
_cell_angle_gamma   89.99735408
_symmetry_Int_Tables_number   1
_chemical_formula_structural   Fe45Co19
_chemical_formula_sum   'Fe90 Co38'
_cell_volume   1487.48089786
_cell_formula_units_Z   2
loop_
 _symmetry_equiv_pos_site_id
 _symmetry_equiv_pos_as_xyz
  1  'x, y, z'
loop_
 _atom_site_type_symbol
 _atom_site_label
 _atom_site_symmetry_multiplicity
 _atom_site_fract_x
 _atom_site_fract_y
 _atom_site_fract_z
 _atom_site_occupancy
  Fe  Fe0  1  0.25154806  0.75183697  0.75124431  1
  Fe  Fe1  1  0.62912420  0.62349326  0.62247850  1
  Fe  Fe2  1  0.87431077  0.87448811  0.62311684  1
  Fe  Fe3  1  0.12558981  0.62309493  0.87111910  1
  Fe  Fe4  1  0.50113399  0.74849435  0.24986522  1
  Fe  Fe5  1  0.00318261  0.74470888  0.50163485  1
  Fe  Fe6  1  0.12670819  0.12238369  0.87131732  1
  Fe  Fe7  1  0.74876932  0.50007153  0.25325708  1
  Fe  Fe8  1  0.62285536  0.62103343  0.12433851  1
  Fe  Fe9  1  0.87464977  0.37467587  0.12729770  1
  Fe  Fe10  1  -0.00046656  0.24907655  0.25263853  1
  Fe  Fe11  1  -0.00283780  0.50559343  0.25022461  1
  Fe  Fe12  1  0.75130576  0.00131813  0.25332422  1
  Fe  Fe13  1  0.37250722  0.12754949  0.12625891  1
  Fe  Fe14  1  0.49910280  0.25084826  0.25263260  1
  Fe  Fe15  1  0.24954880  0.49851146  -0.00183618  1
  Fe  Fe16  1  0.37599817  0.37313822  0.87294740  1
  Fe  Fe17  1  0.37570382  0.62445135  0.37544564  1
  Fe  Fe18  1  0.87148387  0.62490233  0.87381048  1
  Fe  Fe19  1  0.25178307  -0.00230751  -0.00034776  1
  Fe  Fe20  1  0.12219949  0.87610068  0.87403902  1
  Fe  Fe21  1  0.87312562  0.12412730  0.87330274  1
  Fe  Fe22  1  0.37376837  0.37431255  0.37757311  1
  Fe  Fe23  1  0.87241041  0.87796319  0.87413872  1
  Fe  Fe24  1  0.87629449  0.87462017  0.37694543  1
  Fe  Fe25  1  0.74998908  0.74844120  0.25110012  1
  Fe  Fe26  1  0.38261571  0.87678860  0.87520018  1
  Fe  Fe27  1  0.62791049  0.12702147  0.61838913  1
  Fe  Fe28  1  0.37581505  0.87372411  0.37494108  1
  Fe  Fe29  1  0.74700131  0.75275478  0.75065448  1
  Fe  Fe30  1  0.36711129  0.12429279  0.62315298  1
  Fe  Fe31  1  0.25106855  0.49945895  0.24938147  1
  Fe  Fe32  1  0.75015784  0.25000435  -0.00046461  1
  Fe  Fe33  1  0.25140476  0.74872729  0.25026519  1
  Fe  Fe34  1  0.12616233  0.12532038  0.12494093  1
  Fe  Fe35  1  0.37409659  0.12433223  0.87262878  1
  Fe  Fe36  1  0.74990971  0.49737816  -0.00061551  1
  Fe  Fe37  1  0.12383030  0.87144755  0.37350934  1
  Fe  Fe38  1  0.00341047  0.24677398  0.74878771  1
  Fe  Fe39  1  0.12161591  0.37984799  0.62948078  1
  Fe  Fe40  1  0.87479858  0.12620563  0.12669093  1
  Fe  Fe41  1  0.50219073  0.24935852  -0.00108284  1
  Fe  Fe42  1  0.49833112  0.00184812  0.25001478  1
  Fe  Fe43  1  0.24734986  0.25214477  -0.00247631  1
  Fe  Fe44  1  0.62398054  0.87744910  0.12327515  1
  Fe  Fe45  1  -0.00192059  0.74863614  0.74863742  1
  Fe  Fe46  1  0.62488867  0.37416935  0.12610754  1
  Fe  Fe47  1  0.62458592  0.37513637  0.87143022  1
  Fe  Fe48  1  0.50045623  0.50141981  0.74928266  1
  Fe  Fe49  1  0.62633500  0.12567164  0.12636850  1
  Fe  Fe50  1  0.25181888  0.75100502  -0.00068442  1
  Fe  Fe51  1  0.74540610  0.75041536  -0.00227512  1
  Fe  Fe52  1  0.24815011  0.74893252  0.50011375  1
  Fe  Fe53  1  0.24994400  -0.00085474  0.25149235  1
  Fe  Fe54  1  0.37785255  0.62540566  0.87603032  1
  Fe  Fe55  1  0.37427105  0.62653498  0.62519333  1
  Fe  Fe56  1  0.87478368  0.12735518  0.62074038  1
  Fe  Fe57  1  0.12361212  0.87261373  0.12644735  1
  Fe  Fe58  1  0.12177847  0.37823709  0.37527808  1
  Fe  Fe59  1  0.62404016  0.87642756  0.37565534  1
  Fe  Fe60  1  0.75323466  0.49664531  0.74420162  1
  Fe  Fe61  1  0.12734009  0.12714900  0.37805396  1
  Fe  Fe62  1  0.75223308  0.24915810  0.25667649  1
  Fe  Fe63  1  0.50021717  0.24609683  0.74661746  1
  Fe  Fe64  1  0.12644297  0.87620305  0.62704834  1
  Fe  Fe65  1  0.24730660  0.50148313  0.50218387  1
  Fe  Fe66  1  0.87085669  0.62396029  0.38082132  1
  Fe  Fe67  1  0.62375284  0.37298849  0.37937601  1
  Fe  Fe68  1  0.37697186  0.37543582  0.62534991  1
  Fe  Fe69  1  -0.00226699  0.00087035  -0.00021692  1
  Fe  Fe70  1  0.12290208  0.37474465  0.12565529  1
  Fe  Fe71  1  0.87687466  0.37328087  0.87251793  1
  Fe  Fe72  1  -0.00128898  0.50027937  -0.00110121  1
  Fe  Fe73  1  -0.00230909  0.74782437  -0.00034599  1
  Fe  Fe74  1  0.74932645  0.25038949  0.74664687  1
  Fe  Fe75  1  0.37555947  0.87452544  0.62452726  1
  Fe  Fe76  1  0.49820855  0.00166299  0.49982297  1
  Fe  Fe77  1  0.00243482  0.00122537  0.50173001  1
  Fe  Fe78  1  0.87569578  0.87321049  0.12523480  1
  Fe  Fe79  1  0.37928627  0.62331494  0.12358833  1
  Fe  Fe80  1  0.50524266  0.74972338  0.75145379  1
  Fe  Fe81  1  0.50254349  0.74874946  0.49961401  1
  Fe  Fe82  1  0.12398692  0.62690894  0.12592737  1
  Fe  Fe83  1  0.50220298  0.50092698  0.49940606  1
  Fe  Fe84  1  0.37152877  0.12816767  0.37779473  1
  Fe  Fe85  1  0.37663290  0.37435143  0.12447828  1
  Fe  Fe86  1  0.00034481  0.00048791  0.25096464  1
  Fe  Fe87  1  0.00024233  0.24992308  -0.00115619  1
  Fe  Fe88  1  0.62516052  0.87797721  0.62393407  1
  Fe  Fe89  1  0.62627694  0.11919660  0.87503618  1
  Co  Co90  1  0.12227093  0.37776553  0.87126626  1
  Co  Co91  1  0.75105930  0.00095557  0.74481205  1
  Co  Co92  1  0.50481428  0.74975799  -0.00142158  1
  Co  Co93  1  0.00408518  0.24952575  0.50042330  1
  Co  Co94  1  0.87171299  0.62441202  0.12292423  1
  Co  Co95  1  -0.00600976  0.50445005  0.74854049  1
  Co  Co96  1  0.62349186  0.88388932  0.87508861  1
  Co  Co97  1  0.25424901  0.49929652  0.75083100  1
  Co  Co98  1  0.88070859  0.37073080  0.62396524  1
  Co  Co99  1  -0.00282694  0.00054254  0.74796185  1
  Co  Co100  1  -0.00461188  0.74631039  0.25169268  1
  Co  Co101  1  0.24920624  -0.00430491  0.49716610  1
  Co  Co102  1  0.50055543  0.49662826  -0.00246009  1
  Co  Co103  1  0.50043499  0.49774224  0.25369782  1
  Co  Co104  1  0.24534530  0.25599088  0.50411906  1
  Co  Co105  1  0.87673486  0.12377795  0.37870717  1
  Co  Co106  1  0.12821721  0.62441556  0.63100326  1
  Co  Co107  1  0.00030801  0.50484004  0.50402391  1
  Co  Co108  1  0.37474838  0.87332582  0.12560049  1
  Co  Co109  1  0.12613041  0.62455988  0.37334071  1
  Co  Co110  1  0.24842520  0.25295754  0.74803398  1
  Co  Co111  1  0.75053354  -0.00023393  0.49802943  1
  Co  Co112  1  0.62666001  0.62483276  0.37763905  1
  Co  Co113  1  0.87996531  0.37770503  0.37565808  1
  Co  Co114  1  0.50038104  0.00406544  0.74373250  1
  Co  Co115  1  0.25211470  -0.00494690  0.75208600  1
  Co  Co116  1  0.87000632  0.62865894  0.62235763  1
  Co  Co117  1  0.75307377  0.00104192  0.00257394  1
  Co  Co118  1  0.75347026  0.25488792  0.49709200  1
  Co  Co119  1  0.62137810  0.37316303  0.62419753  1
  Co  Co120  1  0.49772029  0.00300688  0.00425400  1
  Co  Co121  1  0.74729933  0.75371088  0.49979515  1
  Co  Co122  1  0.62368573  0.12567315  0.37770446  1
  Co  Co123  1  0.24862528  0.25284079  0.25119672  1
  Co  Co124  1  0.75118088  0.49292649  0.50322649  1
  Co  Co125  1  0.62687017  0.62012218  0.87344908  1
  Co  Co126  1  0.49674584  0.24849021  0.50139699  1
  Co  Co127  1  0.12974644  0.12071217  0.62609479  1
