# generated using pymatgen
data_Fe45Co19
_symmetry_space_group_name_H-M   'P 1'
_cell_length_a   11.41503777
_cell_length_b   11.41472005
_cell_length_c   11.41410613
_cell_angle_alpha   90.00292048
_cell_angle_beta   89.99946635
_cell_angle_gamma   89.99500040
_symmetry_Int_Tables_number   1
_chemical_formula_structural   Fe45Co19
_chemical_formula_sum   'Fe90 Co38'
_cell_volume   1487.25186342
_cell_formula_units_Z   2
loop_
 _symmetry_equiv_pos_site_id
 _symmetry_equiv_pos_as_xyz
  1  'x, y, z'
loop_
 _atom_site_type_symbol
 _atom_site_label
 _atom_site_symmetry_multiplicity
 _atom_site_fract_x
 _atom_site_fract_y
 _atom_site_fract_z
 _atom_site_occupancy
  Fe  Fe0  1  0.74941927  0.75287535  0.74886958  1
  Fe  Fe1  1  -0.00087797  -0.00097705  0.24998339  1
  Fe  Fe2  1  0.37707831  0.37963600  0.62348995  1
  Fe  Fe3  1  0.62361977  0.38121676  0.62482849  1
  Fe  Fe4  1  0.00049177  0.00063978  -0.00013829  1
  Fe  Fe5  1  0.62525891  0.87663201  0.37589854  1
  Fe  Fe6  1  0.87615947  0.37687844  0.62168505  1
  Fe  Fe7  1  0.12343287  0.87434402  0.37454006  1
  Fe  Fe8  1  0.50047780  0.24891418  0.25094644  1
  Fe  Fe9  1  0.24877526  -0.00002066  0.00048755  1
  Fe  Fe10  1  0.00095885  0.74828670  -0.00051715  1
  Fe  Fe11  1  0.87449135  0.62626169  0.87356580  1
  Fe  Fe12  1  0.74927007  0.24933150  0.00023399  1
  Fe  Fe13  1  0.87453658  0.12492040  0.87191811  1
  Fe  Fe14  1  0.50152802  0.00127603  0.50139050  1
  Fe  Fe15  1  0.75052586  0.00047479  0.25033672  1
  Fe  Fe16  1  -0.00035701  0.74834466  0.74893585  1
  Fe  Fe17  1  0.62416869  0.12359302  0.12602984  1
  Fe  Fe18  1  0.50013895  0.00106370  -0.00135989  1
  Fe  Fe19  1  0.49837243  0.25107233  0.75139909  1
  Fe  Fe20  1  0.24941487  0.24993035  0.50073738  1
  Fe  Fe21  1  0.50187384  0.24929090  0.49963918  1
  Fe  Fe22  1  0.62400315  0.37495377  0.37592822  1
  Fe  Fe23  1  0.12686550  0.62427988  0.62550516  1
  Fe  Fe24  1  0.75186582  0.50059284  -0.00012909  1
  Fe  Fe25  1  0.37065522  0.62395064  0.87609501  1
  Fe  Fe26  1  0.24870110  0.24924324  -0.00125661  1
  Fe  Fe27  1  0.74840789  0.75273363  0.24900498  1
  Fe  Fe28  1  0.25024609  0.49857622  0.24933478  1
  Fe  Fe29  1  0.25136040  -0.00111589  0.74992581  1
  Fe  Fe30  1  0.75134672  -0.00123640  -0.00284142  1
  Fe  Fe31  1  0.75210566  0.49780248  0.25131541  1
  Fe  Fe32  1  0.37562762  0.87269941  0.87553086  1
  Fe  Fe33  1  0.37513378  0.37662230  0.87669757  1
  Fe  Fe34  1  0.37538476  0.62517506  0.12452375  1
  Fe  Fe35  1  0.00012193  0.24921676  0.25204990  1
  Fe  Fe36  1  0.87528597  0.62610326  0.37392938  1
  Fe  Fe37  1  0.62830316  0.62370448  0.87342008  1
  Fe  Fe38  1  0.62625000  0.87343651  0.87439089  1
  Fe  Fe39  1  0.87512464  0.12504249  0.38142857  1
  Fe  Fe40  1  0.37568022  0.12603393  0.12450049  1
  Fe  Fe41  1  0.87025242  0.62262626  0.62360825  1
  Fe  Fe42  1  0.62510725  0.37550342  0.87471353  1
  Fe  Fe43  1  0.25007565  -0.00098275  0.24859850  1
  Fe  Fe44  1  -0.00001136  0.24929861  0.74670617  1
  Fe  Fe45  1  0.12590411  0.87396389  0.62498493  1
  Fe  Fe46  1  0.62735844  0.62417328  0.37520539  1
  Fe  Fe47  1  0.24954883  -0.00144960  0.50073166  1
  Fe  Fe48  1  0.87816590  0.37396701  0.37872505  1
  Fe  Fe49  1  0.24904732  0.75204499  0.24879870  1
  Fe  Fe50  1  0.50378093  0.74824814  0.00184628  1
  Fe  Fe51  1  0.12312604  0.62564692  0.37342412  1
  Fe  Fe52  1  0.12429063  0.62540038  0.12491174  1
  Fe  Fe53  1  0.75140047  0.25082710  0.74605211  1
  Fe  Fe54  1  -0.00236601  0.75149574  0.49905228  1
  Fe  Fe55  1  0.87781584  0.37506514  0.87623121  1
  Fe  Fe56  1  0.62474882  0.37631389  0.12540519  1
  Fe  Fe57  1  0.12364277  0.12367552  0.37705759  1
  Fe  Fe58  1  0.12163945  0.38025716  0.87581368  1
  Fe  Fe59  1  0.87714808  0.12694234  0.12383374  1
  Fe  Fe60  1  0.25021490  0.25194205  0.75029793  1
  Fe  Fe61  1  0.37580383  0.12531687  0.37485444  1
  Fe  Fe62  1  0.50084433  0.74503042  0.74676627  1
  Fe  Fe63  1  0.62552473  0.12605976  0.87208870  1
  Fe  Fe64  1  0.37547466  0.87186627  0.62386230  1
  Fe  Fe65  1  0.50118151  0.50097912  -0.00086824  1
  Fe  Fe66  1  0.50017400  -0.00068833  0.74960548  1
  Fe  Fe67  1  0.37656192  0.37390056  0.12444056  1
  Fe  Fe68  1  0.12089880  0.37400132  0.12277656  1
  Fe  Fe69  1  0.87752331  0.37401857  0.12341578  1
  Fe  Fe70  1  0.12342257  0.37658909  0.37664426  1
  Fe  Fe71  1  0.12368705  0.87310913  0.87516290  1
  Fe  Fe72  1  0.37377619  0.62722463  0.37581081  1
  Fe  Fe73  1  0.50363736  0.75175325  0.24799977  1
  Fe  Fe74  1  0.12347937  0.37755417  0.62423638  1
  Fe  Fe75  1  0.87395179  0.62586944  0.12721100  1
  Fe  Fe76  1  0.87255154  0.87750728  0.62426505  1
  Fe  Fe77  1  0.37597026  0.87420118  0.12382510  1
  Fe  Fe78  1  0.37443712  0.12552867  0.62675934  1
  Fe  Fe79  1  0.49846544  0.50021814  0.25270679  1
  Fe  Fe80  1  0.12547986  0.12517332  0.87280604  1
  Fe  Fe81  1  0.25125744  0.50144299  0.49862314  1
  Fe  Fe82  1  0.24875685  0.25046311  0.25078892  1
  Fe  Fe83  1  0.25041463  0.74907833  0.75070302  1
  Fe  Fe84  1  0.75063667  0.24920117  0.25198205  1
  Fe  Fe85  1  0.74597726  0.00232227  0.50359581  1
  Fe  Fe86  1  0.50382762  0.74560998  0.50403723  1
  Fe  Fe87  1  0.37618926  0.87274981  0.37694770  1
  Fe  Fe88  1  0.87475402  0.87297132  0.12367134  1
  Fe  Fe89  1  -0.00050118  0.00091277  0.74732320  1
  Co  Co90  1  0.24874374  0.75100289  0.00032037  1
  Co  Co91  1  0.62346101  0.12688788  0.62910238  1
  Co  Co92  1  0.75099071  0.49825422  0.49629299  1
  Co  Co93  1  0.37482306  0.37406626  0.37628427  1
  Co  Co94  1  0.12715025  0.62311733  0.87427894  1
  Co  Co95  1  0.25015548  0.49867016  0.74913352  1
  Co  Co96  1  0.74884525  0.74934180  0.00074862  1
  Co  Co97  1  0.62498545  0.12454552  0.37374301  1
  Co  Co98  1  0.12731627  0.12463261  0.62557739  1
  Co  Co99  1  0.74929956  -0.00086119  0.74989029  1
  Co  Co100  1  0.62642365  0.62095436  0.12685856  1
  Co  Co101  1  0.24763254  0.75014171  0.49966272  1
  Co  Co102  1  0.49817351  0.50343929  0.75180403  1
  Co  Co103  1  0.87241501  0.87725935  0.37659993  1
  Co  Co104  1  -0.00082213  0.75238926  0.25128724  1
  Co  Co105  1  0.12315551  0.87435870  0.12461491  1
  Co  Co106  1  -0.00021438  0.49870503  0.24939403  1
  Co  Co107  1  0.74968147  0.75045927  0.50017227  1
  Co  Co108  1  0.87455710  0.12358506  0.62273801  1
  Co  Co109  1  0.74672482  0.25092938  0.50207250  1
  Co  Co110  1  0.00213781  0.24865838  0.50235156  1
  Co  Co111  1  0.37411218  0.12512947  0.87427932  1
  Co  Co112  1  0.00010651  0.24752404  -0.00293636  1
  Co  Co113  1  0.50160299  0.24894818  -0.00063610  1
  Co  Co114  1  0.37189453  0.62397155  0.62440751  1
  Co  Co115  1  0.49925910  0.50433360  0.49809092  1
  Co  Co116  1  0.00210072  -0.00248468  0.50210903  1
  Co  Co117  1  0.87668902  0.87363912  0.87434552  1
  Co  Co118  1  0.24954860  0.49874808  0.00253893  1
  Co  Co119  1  -0.00239585  0.50392314  0.00025097  1
  Co  Co120  1  0.62466638  0.87390229  0.62578574  1
  Co  Co121  1  0.62649734  0.87813098  0.12382520  1
  Co  Co122  1  -0.00153702  0.50209299  0.74894049  1
  Co  Co123  1  0.75292787  0.49687154  0.75255951  1
  Co  Co124  1  0.12364357  0.12636802  0.12557665  1
  Co  Co125  1  0.63075848  0.61938431  0.62651514  1
  Co  Co126  1  -0.00041642  0.50390065  0.50034524  1
  Co  Co127  1  0.49863002  -0.00164414  0.25078110  1
