# generated using pymatgen
data_Fe45Co19
_symmetry_space_group_name_H-M   'P 1'
_cell_length_a   11.41369518
_cell_length_b   11.41495654
_cell_length_c   11.41544008
_cell_angle_alpha   89.99391096
_cell_angle_beta   90.00422489
_cell_angle_gamma   90.00386752
_symmetry_Int_Tables_number   1
_chemical_formula_structural   Fe45Co19
_chemical_formula_sum   'Fe90 Co38'
_cell_volume   1487.28153536
_cell_formula_units_Z   2
loop_
 _symmetry_equiv_pos_site_id
 _symmetry_equiv_pos_as_xyz
  1  'x, y, z'
loop_
 _atom_site_type_symbol
 _atom_site_label
 _atom_site_symmetry_multiplicity
 _atom_site_fract_x
 _atom_site_fract_y
 _atom_site_fract_z
 _atom_site_occupancy
  Fe  Fe0  1  0.24795407  0.74775776  0.50040646  1
  Fe  Fe1  1  0.50192397  0.75023840  -0.00071617  1
  Fe  Fe2  1  0.37623853  0.12375800  0.37391771  1
  Fe  Fe3  1  0.62821974  0.12653122  0.62363597  1
  Fe  Fe4  1  0.87149076  0.37062818  0.62071263  1
  Fe  Fe5  1  0.87236112  0.37116449  0.12379958  1
  Fe  Fe6  1  0.12318872  0.37679932  0.37725701  1
  Fe  Fe7  1  0.37523631  0.62424638  0.87316479  1
  Fe  Fe8  1  -0.00637757  -0.00400317  0.24721815  1
  Fe  Fe9  1  0.12028360  0.87639453  0.37822014  1
  Fe  Fe10  1  0.00034505  0.24953225  -0.00088166  1
  Fe  Fe11  1  0.50125391  0.75129909  0.74960851  1
  Fe  Fe12  1  0.49963001  0.75130997  0.49865176  1
  Fe  Fe13  1  0.12418798  0.12418179  0.87295508  1
  Fe  Fe14  1  -0.00385351  0.00192904  0.00105136  1
  Fe  Fe15  1  0.12425577  0.37692657  0.87280240  1
  Fe  Fe16  1  0.87375040  0.87060030  0.87682681  1
  Fe  Fe17  1  0.50063865  0.00150329  0.00162379  1
  Fe  Fe18  1  0.12178761  0.87517857  0.62336310  1
  Fe  Fe19  1  0.24856133  0.24806518  -0.00067448  1
  Fe  Fe20  1  0.24782627  0.75017547  0.74917659  1
  Fe  Fe21  1  0.12246238  0.87440309  0.12314728  1
  Fe  Fe22  1  0.11986651  0.62327713  0.37218297  1
  Fe  Fe23  1  0.12216119  0.62633239  0.12798864  1
  Fe  Fe24  1  0.75046931  0.24926562  0.25815741  1
  Fe  Fe25  1  0.62646977  0.87480916  0.62373445  1
  Fe  Fe26  1  0.75543178  0.75504549  0.25320135  1
  Fe  Fe27  1  0.62746968  0.87579643  0.12653801  1
  Fe  Fe28  1  0.24940205  0.49792153  0.25213893  1
  Fe  Fe29  1  0.25100106  -0.00119891  0.25070680  1
  Fe  Fe30  1  -0.00009116  0.50124863  0.00012026  1
  Fe  Fe31  1  0.50189513  0.24910324  0.49713025  1
  Fe  Fe32  1  0.24819852  0.75231040  0.25282931  1
  Fe  Fe33  1  0.24761690  0.74895348  -0.00252844  1
  Fe  Fe34  1  -0.00169780  0.25153602  0.25240302  1
  Fe  Fe35  1  0.37409105  0.37288603  0.12732323  1
  Fe  Fe36  1  0.25198148  0.24867304  0.74923628  1
  Fe  Fe37  1  0.25054959  0.00206514  -0.00016670  1
  Fe  Fe38  1  0.75218476  -0.00201442  0.74597616  1
  Fe  Fe39  1  0.62672101  0.12454496  0.87340792  1
  Fe  Fe40  1  0.37538818  0.62670685  0.12665830  1
  Fe  Fe41  1  0.62573699  0.62581161  0.12883987  1
  Fe  Fe42  1  0.37355167  0.37465681  0.62001286  1
  Fe  Fe43  1  0.37623419  0.37331211  0.87543385  1
  Fe  Fe44  1  0.62746869  0.62359283  0.37494306  1
  Fe  Fe45  1  0.37391831  0.62532434  0.37619602  1
  Fe  Fe46  1  0.50193121  0.49875379  0.00286349  1
  Fe  Fe47  1  0.75395621  0.49827506  0.25280458  1
  Fe  Fe48  1  0.49977627  0.24765288  0.74796393  1
  Fe  Fe49  1  -0.00296309  0.50126932  0.50148062  1
  Fe  Fe50  1  0.12408733  0.87746753  0.87494798  1
  Fe  Fe51  1  0.50322497  0.24947207  0.00131290  1
  Fe  Fe52  1  0.37419459  0.87686980  0.62540724  1
  Fe  Fe53  1  0.87616937  0.62943342  0.62784911  1
  Fe  Fe54  1  0.24977202  0.50065876  0.00052946  1
  Fe  Fe55  1  0.25103465  0.49801424  0.74656425  1
  Fe  Fe56  1  0.75275464  0.00262171  0.00363456  1
  Fe  Fe57  1  0.87771328  0.62929795  0.12723681  1
  Fe  Fe58  1  0.87343644  0.12705321  0.87308451  1
  Fe  Fe59  1  0.62821071  0.88127959  0.37418119  1
  Fe  Fe60  1  0.24837703  0.00160063  0.50022220  1
  Fe  Fe61  1  0.50062546  0.49753986  0.25217115  1
  Fe  Fe62  1  0.49998558  0.75347115  0.25317191  1
  Fe  Fe63  1  0.62857809  0.12439042  0.13057297  1
  Fe  Fe64  1  0.75041075  0.49949775  0.74724588  1
  Fe  Fe65  1  0.87252194  0.37400236  0.87620458  1
  Fe  Fe66  1  0.62580484  0.62491169  0.87362809  1
  Fe  Fe67  1  0.49913742  0.50082330  0.49912311  1
  Fe  Fe68  1  0.37428693  0.12706620  0.12746668  1
  Fe  Fe69  1  0.62662591  0.37497629  0.87495878  1
  Fe  Fe70  1  0.12494177  0.12672821  0.62725358  1
  Fe  Fe71  1  0.24887088  0.24855939  0.49752093  1
  Fe  Fe72  1  0.12179289  0.12229212  0.37241569  1
  Fe  Fe73  1  0.50332667  0.25284344  0.25414615  1
  Fe  Fe74  1  0.12459114  0.37397774  0.12569355  1
  Fe  Fe75  1  0.50020795  0.00005127  0.50046171  1
  Fe  Fe76  1  0.37547156  0.87956893  0.87190413  1
  Fe  Fe77  1  0.37458665  0.87335766  0.12515607  1
  Fe  Fe78  1  0.62481449  0.62584040  0.62378486  1
  Fe  Fe79  1  0.12284141  0.12457496  0.12684561  1
  Fe  Fe80  1  0.87553282  0.62747207  0.87285691  1
  Fe  Fe81  1  0.50057322  0.49876499  0.74688897  1
  Fe  Fe82  1  0.12237060  0.62237537  0.62829471  1
  Fe  Fe83  1  0.62726026  0.87579596  0.87528784  1
  Fe  Fe84  1  -0.00278565  -0.00114235  0.74686723  1
  Fe  Fe85  1  0.74962673  0.50167831  0.00192985  1
  Fe  Fe86  1  -0.00176499  0.24642790  0.49908516  1
  Fe  Fe87  1  -0.00168633  0.25241892  0.74888967  1
  Fe  Fe88  1  0.75276675  0.74931014  0.49858708  1
  Fe  Fe89  1  0.62928656  0.37418885  0.61958898  1
  Co  Co90  1  0.87730339  0.11888852  0.37539587  1
  Co  Co91  1  0.74724234  0.24832073  -0.00085542  1
  Co  Co92  1  0.74692182  0.74667485  0.00108563  1
  Co  Co93  1  0.49638440  -0.00233053  0.24871031  1
  Co  Co94  1  0.12440958  0.37410423  0.62290275  1
  Co  Co95  1  0.00055478  0.00542150  0.50573948  1
  Co  Co96  1  0.37346247  0.87580482  0.37837568  1
  Co  Co97  1  0.62878015  0.37983702  0.37982076  1
  Co  Co98  1  0.87797792  0.87962350  0.38425936  1
  Co  Co99  1  0.62940003  0.37478776  0.12772946  1
  Co  Co100  1  0.75080994  0.00256488  0.50307523  1
  Co  Co101  1  -0.00478296  0.49616105  0.74796332  1
  Co  Co102  1  0.74964406  0.24416985  0.49272953  1
  Co  Co103  1  0.75845767  -0.00277752  0.24750543  1
  Co  Co104  1  0.74865008  0.25144275  0.74988057  1
  Co  Co105  1  0.87790947  0.62542215  0.37186611  1
  Co  Co106  1  0.62395570  0.11774889  0.37230008  1
  Co  Co107  1  0.37619579  0.62569669  0.62483547  1
  Co  Co108  1  0.24780440  0.00165037  0.74788079  1
  Co  Co109  1  0.87744060  0.87271303  0.62044833  1
  Co  Co110  1  0.37598690  0.12353489  0.87463025  1
  Co  Co111  1  0.75453674  0.50558481  0.50143290  1
  Co  Co112  1  0.50363368  0.00230304  0.74761663  1
  Co  Co113  1  0.00450044  0.74669328  -0.00309748  1
  Co  Co114  1  0.00197937  0.75243009  0.75148892  1
  Co  Co115  1  -0.00210699  0.75620992  0.25253269  1
  Co  Co116  1  0.37399523  0.37560196  0.37675187  1
  Co  Co117  1  0.87481845  0.37565524  0.37968567  1
  Co  Co118  1  0.00003652  0.74534101  0.49943184  1
  Co  Co119  1  0.74892625  0.75118397  0.74763963  1
  Co  Co120  1  0.12471091  0.62013197  0.87054517  1
  Co  Co121  1  -0.00261850  0.49515636  0.24836567  1
  Co  Co122  1  0.24725240  0.25003524  0.25294767  1
  Co  Co123  1  0.87589358  0.86952680  0.11795892  1
  Co  Co124  1  0.87497221  0.13095419  0.12628591  1
  Co  Co125  1  0.37454392  0.12323326  0.62265224  1
  Co  Co126  1  0.24778756  0.50254679  0.49942556  1
  Co  Co127  1  0.87296782  0.12788972  0.62624189  1
