# generated using pymatgen
data_Fe45Co19
_symmetry_space_group_name_H-M   'P 1'
_cell_length_a   11.41548889
_cell_length_b   11.41565136
_cell_length_c   11.41456185
_cell_angle_alpha   90.00714762
_cell_angle_beta   89.98834318
_cell_angle_gamma   89.99657357
_symmetry_Int_Tables_number   1
_chemical_formula_structural   Fe45Co19
_chemical_formula_sum   'Fe90 Co38'
_cell_volume   1487.49133670
_cell_formula_units_Z   2
loop_
 _symmetry_equiv_pos_site_id
 _symmetry_equiv_pos_as_xyz
  1  'x, y, z'
loop_
 _atom_site_type_symbol
 _atom_site_label
 _atom_site_symmetry_multiplicity
 _atom_site_fract_x
 _atom_site_fract_y
 _atom_site_fract_z
 _atom_site_occupancy
  Fe  Fe0  1  0.50341931  0.24845888  0.24506554  1
  Fe  Fe1  1  0.12567029  0.62664325  0.37473481  1
  Fe  Fe2  1  0.62610370  0.87053274  0.87465202  1
  Fe  Fe3  1  0.87728633  0.37163931  0.37446899  1
  Fe  Fe4  1  0.37520649  0.37433342  0.12263033  1
  Fe  Fe5  1  0.62808852  0.62612885  0.87083639  1
  Fe  Fe6  1  0.12713751  0.12382529  0.12510673  1
  Fe  Fe7  1  0.37909836  0.87628080  0.12081711  1
  Fe  Fe8  1  0.87793387  0.87178602  0.12065019  1
  Fe  Fe9  1  0.49942411  0.24982860  0.75178510  1
  Fe  Fe10  1  0.49797316  0.49956026  0.75051961  1
  Fe  Fe11  1  0.87392133  0.62731435  0.37617250  1
  Fe  Fe12  1  0.12421667  0.87535922  0.37542306  1
  Fe  Fe13  1  -0.00242360  0.00015983  0.24987516  1
  Fe  Fe14  1  0.87479240  0.37569070  0.62435366  1
  Fe  Fe15  1  0.62491214  0.12535593  0.37115967  1
  Fe  Fe16  1  0.25125264  0.25016622  0.75096609  1
  Fe  Fe17  1  0.50047034  0.50368665  -0.00037941  1
  Fe  Fe18  1  0.74908793  0.25060804  0.74847469  1
  Fe  Fe19  1  0.12161507  0.37114587  0.37272545  1
  Fe  Fe20  1  0.24704330  0.75037305  0.50279177  1
  Fe  Fe21  1  0.62381977  0.37560688  0.37494975  1
  Fe  Fe22  1  0.49906587  -0.00061698  0.75338919  1
  Fe  Fe23  1  0.37373353  0.37564642  0.87931609  1
  Fe  Fe24  1  0.37647778  0.12298642  0.12139268  1
  Fe  Fe25  1  0.25064807  0.00072146  0.50028136  1
  Fe  Fe26  1  0.25022060  0.49864636  0.25074928  1
  Fe  Fe27  1  0.50164794  0.00153903  0.49862934  1
  Fe  Fe28  1  0.62572394  0.87753032  0.62696490  1
  Fe  Fe29  1  0.12659371  0.62382478  0.87121150  1
  Fe  Fe30  1  0.62683408  0.12645101  0.87579216  1
  Fe  Fe31  1  -0.00074717  -0.00029830  -0.00336843  1
  Fe  Fe32  1  0.24882217  0.24925985  0.49941396  1
  Fe  Fe33  1  0.00027988  0.50182712  0.49977243  1
  Fe  Fe34  1  0.37524734  0.62322699  0.62341658  1
  Fe  Fe35  1  0.37348374  0.12396078  0.87919134  1
  Fe  Fe36  1  0.62671753  0.62490295  0.12760030  1
  Fe  Fe37  1  0.12615538  0.12266088  0.87343827  1
  Fe  Fe38  1  0.62289401  0.87581558  0.12369670  1
  Fe  Fe39  1  0.87305287  0.12183635  0.62779920  1
  Fe  Fe40  1  0.12462667  0.12180730  0.62797347  1
  Fe  Fe41  1  0.74834836  0.24805419  0.50122927  1
  Fe  Fe42  1  0.62201298  0.37611219  0.62398631  1
  Fe  Fe43  1  0.12739400  0.37696803  0.87497316  1
  Fe  Fe44  1  0.49806768  0.75000401  0.75082786  1
  Fe  Fe45  1  -0.00204027  0.75410854  0.74345502  1
  Fe  Fe46  1  0.00050082  -0.00030243  0.50150389  1
  Fe  Fe47  1  0.37767218  0.37461327  0.62176515  1
  Fe  Fe48  1  0.00032128  0.50205482  -0.00072110  1
  Fe  Fe49  1  0.12363958  0.12638992  0.37336275  1
  Fe  Fe50  1  0.87197806  0.12584366  0.12383677  1
  Fe  Fe51  1  0.75121622  0.50215422  -0.00151401  1
  Fe  Fe52  1  0.37680525  0.12600210  0.37417110  1
  Fe  Fe53  1  0.75261170  0.49921085  0.25124825  1
  Fe  Fe54  1  0.87331960  0.62922562  0.87209928  1
  Fe  Fe55  1  -0.00214790  0.49916964  0.75054186  1
  Fe  Fe56  1  0.37736987  0.37328179  0.37577224  1
  Fe  Fe57  1  0.87590144  0.37476118  0.12590880  1
  Fe  Fe58  1  0.12508026  0.37604210  0.62632019  1
  Fe  Fe59  1  0.87452140  0.87306789  0.37915033  1
  Fe  Fe60  1  0.62572883  0.87271432  0.37468182  1
  Fe  Fe61  1  0.37337982  0.62654095  0.12461442  1
  Fe  Fe62  1  0.37169789  0.62558447  0.87613481  1
  Fe  Fe63  1  0.74901303  0.74698606  0.50555782  1
  Fe  Fe64  1  0.75127214  -0.00297616  -0.00377046  1
  Fe  Fe65  1  0.00217621  0.24989262  0.00054306  1
  Fe  Fe66  1  0.37591100  0.87401159  0.37687625  1
  Fe  Fe67  1  0.50027175  0.74942199  0.25142955  1
  Fe  Fe68  1  0.37752358  0.12569634  0.62420706  1
  Fe  Fe69  1  0.87604246  0.62770109  0.12423934  1
  Fe  Fe70  1  0.87531948  0.12778094  0.37403802  1
  Fe  Fe71  1  0.87384458  0.37264600  0.87628889  1
  Fe  Fe72  1  0.49845757  0.50349789  0.25304123  1
  Fe  Fe73  1  0.50273302  0.74541555  0.49929759  1
  Fe  Fe74  1  0.25057101  0.75408759  0.24850831  1
  Fe  Fe75  1  0.12433476  0.62591510  0.12684231  1
  Fe  Fe76  1  0.12490563  0.37469577  0.12637034  1
  Fe  Fe77  1  0.74690144  0.00240306  0.49966133  1
  Fe  Fe78  1  0.25190599  -0.00139771  0.24884251  1
  Fe  Fe79  1  -0.00147022  0.75054408  0.25190496  1
  Fe  Fe80  1  0.12609019  0.87746392  0.87114996  1
  Fe  Fe81  1  0.37589895  0.87597611  0.62398140  1
  Fe  Fe82  1  0.62478498  0.37641510  0.87631009  1
  Fe  Fe83  1  0.74539490  0.25212926  0.00485664  1
  Fe  Fe84  1  0.25033096  0.75113425  0.74672897  1
  Fe  Fe85  1  0.74783856  0.50237197  0.50202771  1
  Fe  Fe86  1  -0.00064619  0.24894585  0.74993278  1
  Fe  Fe87  1  0.75115171  -0.00303593  0.24989430  1
  Fe  Fe88  1  0.24714943  0.75310887  0.00085141  1
  Fe  Fe89  1  0.24985491  0.49957505  0.49958852  1
  Co  Co90  1  0.87525937  0.86872657  0.87769071  1
  Co  Co91  1  0.00497222  0.74844496  -0.00284419  1
  Co  Co92  1  -0.00649809  -0.00163182  0.75297481  1
  Co  Co93  1  0.25146749  0.24900171  0.24940938  1
  Co  Co94  1  0.24849187  -0.00430954  0.00119664  1
  Co  Co95  1  0.75194286  -0.00160452  0.75587508  1
  Co  Co96  1  -0.00089774  0.24759850  0.24684960  1
  Co  Co97  1  0.12444480  0.62227117  0.62630425  1
  Co  Co98  1  0.87119630  0.88037142  0.62144634  1
  Co  Co99  1  0.24845597  0.25010372  -0.00047308  1
  Co  Co100  1  0.87581537  0.62259437  0.62716697  1
  Co  Co101  1  0.74758444  0.74892072  0.00150726  1
  Co  Co102  1  0.50141970  0.50533044  0.49758251  1
  Co  Co103  1  0.50299505  0.24703758  0.49899895  1
  Co  Co104  1  0.50348971  0.24992190  0.00242364  1
  Co  Co105  1  0.74759342  0.25109871  0.24862909  1
  Co  Co106  1  0.62613384  0.11836331  0.12434896  1
  Co  Co107  1  0.00021531  0.75029199  0.50362139  1
  Co  Co108  1  -0.00094313  0.50159979  0.25047546  1
  Co  Co109  1  0.87305523  0.13039661  0.87703163  1
  Co  Co110  1  0.75262136  0.75286824  0.74499767  1
  Co  Co111  1  0.12573471  0.87982760  0.62636390  1
  Co  Co112  1  -0.00023572  0.24806856  0.50397824  1
  Co  Co113  1  0.75159210  0.75346081  0.24760974  1
  Co  Co114  1  0.62424687  0.12290083  0.62909096  1
  Co  Co115  1  0.62882937  0.62639278  0.37150734  1
  Co  Co116  1  0.12046318  0.87604974  0.12661552  1
  Co  Co117  1  0.62380522  0.62327708  0.63050667  1
  Co  Co118  1  0.24833598  0.50112397  0.00181268  1
  Co  Co119  1  0.49958571  -0.00119693  0.25224150  1
  Co  Co120  1  0.50137835  0.74681233  -0.00085063  1
  Co  Co121  1  0.62396349  0.38171216  0.12586963  1
  Co  Co122  1  0.25338292  0.49851684  0.74790700  1
  Co  Co123  1  0.50197917  -0.00094306  -0.00586320  1
  Co  Co124  1  0.37071651  0.62719535  0.37566234  1
  Co  Co125  1  0.75062793  0.49741992  0.74985785  1
  Co  Co126  1  0.25526496  0.00034070  0.74907296  1
  Co  Co127  1  0.37304542  0.87342544  0.87641686  1
