# generated using pymatgen
data_Fe45Co19
_symmetry_space_group_name_H-M   'P 1'
_cell_length_a   11.41636102
_cell_length_b   11.41630704
_cell_length_c   11.41399669
_cell_angle_alpha   90.00553074
_cell_angle_beta   90.00046012
_cell_angle_gamma   90.00234587
_symmetry_Int_Tables_number   1
_chemical_formula_structural   Fe45Co19
_chemical_formula_sum   'Fe90 Co38'
_cell_volume   1487.61680083
_cell_formula_units_Z   2
loop_
 _symmetry_equiv_pos_site_id
 _symmetry_equiv_pos_as_xyz
  1  'x, y, z'
loop_
 _atom_site_type_symbol
 _atom_site_label
 _atom_site_symmetry_multiplicity
 _atom_site_fract_x
 _atom_site_fract_y
 _atom_site_fract_z
 _atom_site_occupancy
  Fe  Fe0  1  0.50107790  0.74715260  0.74519955  1
  Fe  Fe1  1  0.62373909  0.87532905  0.37604979  1
  Fe  Fe2  1  0.62572000  0.62487333  0.87354573  1
  Fe  Fe3  1  0.25031283  0.75019250  0.75210368  1
  Fe  Fe4  1  0.62377241  0.37344173  0.37509786  1
  Fe  Fe5  1  0.50062821  0.24938471  0.50364457  1
  Fe  Fe6  1  0.87225268  0.87970680  0.62763505  1
  Fe  Fe7  1  0.87536365  0.87617320  0.37270622  1
  Fe  Fe8  1  0.37619705  0.87230520  0.12291358  1
  Fe  Fe9  1  0.62345741  0.37931235  0.62587329  1
  Fe  Fe10  1  0.87512545  0.87492894  0.87551120  1
  Fe  Fe11  1  0.74760935  0.24817414  0.74836143  1
  Fe  Fe12  1  0.62485023  0.12527106  0.37825927  1
  Fe  Fe13  1  0.00104494  0.24792065  0.74805138  1
  Fe  Fe14  1  0.50110043  0.49941639  0.24888149  1
  Fe  Fe15  1  0.25157768  0.75122290  0.49790470  1
  Fe  Fe16  1  -0.00296303  -0.00072139  0.00274770  1
  Fe  Fe17  1  0.12571055  0.37680045  0.62529472  1
  Fe  Fe18  1  0.12648497  0.12150636  0.62368638  1
  Fe  Fe19  1  0.37516760  0.37202218  0.36982123  1
  Fe  Fe20  1  0.12440860  0.62621220  0.37643002  1
  Fe  Fe21  1  0.12743528  0.62490317  0.62469404  1
  Fe  Fe22  1  0.12635330  0.12322946  0.12373475  1
  Fe  Fe23  1  0.49838843  -0.00165334  0.00048366  1
  Fe  Fe24  1  0.75030956  0.50015052  0.49859103  1
  Fe  Fe25  1  0.12807100  0.62758599  0.12466935  1
  Fe  Fe26  1  0.00017698  0.74978832  0.24939648  1
  Fe  Fe27  1  0.62477874  0.12449750  0.12384154  1
  Fe  Fe28  1  0.49951954  0.00210362  0.24850427  1
  Fe  Fe29  1  0.74854898  0.24949888  -0.00182298  1
  Fe  Fe30  1  0.49792548  0.25231707  0.00453963  1
  Fe  Fe31  1  0.87594546  0.37395682  0.87363073  1
  Fe  Fe32  1  -0.00124431  0.24770820  0.50167372  1
  Fe  Fe33  1  0.87288569  0.62716546  0.12477967  1
  Fe  Fe34  1  0.12485432  0.87350778  0.12432685  1
  Fe  Fe35  1  0.74838660  0.49834252  -0.00084506  1
  Fe  Fe36  1  0.37270866  0.87548554  0.62611902  1
  Fe  Fe37  1  0.12339627  0.87488646  0.87645567  1
  Fe  Fe38  1  0.50007502  0.49866013  0.00243077  1
  Fe  Fe39  1  0.75100911  0.00095280  0.24773812  1
  Fe  Fe40  1  0.74616518  0.75207158  0.00119042  1
  Fe  Fe41  1  0.25368881  0.25223564  -0.00040384  1
  Fe  Fe42  1  0.25214113  0.49933381  0.75303537  1
  Fe  Fe43  1  0.25117192  0.24995968  0.50032780  1
  Fe  Fe44  1  0.50171837  0.75028945  0.24769796  1
  Fe  Fe45  1  0.87415038  0.12451360  0.37704177  1
  Fe  Fe46  1  0.87239785  0.37340154  0.12569273  1
  Fe  Fe47  1  0.74818053  0.24859299  0.25025787  1
  Fe  Fe48  1  0.74784731  0.50101326  0.25081717  1
  Fe  Fe49  1  -0.00113867  0.75134996  0.75025210  1
  Fe  Fe50  1  0.25141038  -0.00079807  0.24981155  1
  Fe  Fe51  1  0.12524502  0.12150242  0.37664412  1
  Fe  Fe52  1  0.87011062  0.62574432  0.62647960  1
  Fe  Fe53  1  0.12565400  0.87670156  0.62333398  1
  Fe  Fe54  1  0.25034318  0.25133978  0.75148651  1
  Fe  Fe55  1  0.62091505  0.37532839  0.87278040  1
  Fe  Fe56  1  0.12905415  0.37472903  0.12713050  1
  Fe  Fe57  1  0.62884869  0.87562088  0.62414718  1
  Fe  Fe58  1  0.25085394  -0.00099028  0.75250044  1
  Fe  Fe59  1  0.00112238  0.24763875  0.24964835  1
  Fe  Fe60  1  0.37422126  0.62723519  0.12482047  1
  Fe  Fe61  1  0.00095216  0.50111957  0.24898764  1
  Fe  Fe62  1  0.12365407  0.87696408  0.37595770  1
  Fe  Fe63  1  0.00034031  0.49928115  0.00054637  1
  Fe  Fe64  1  0.37810597  0.12552272  0.87176477  1
  Fe  Fe65  1  0.87358680  0.62603685  0.87531521  1
  Fe  Fe66  1  0.37761301  0.62730474  0.37648874  1
  Fe  Fe67  1  0.37681723  0.62805276  0.87639852  1
  Fe  Fe68  1  0.25250644  0.49924060  0.49674288  1
  Fe  Fe69  1  -0.00114199  0.50012120  0.75043950  1
  Fe  Fe70  1  0.37754337  0.87477504  0.37567647  1
  Fe  Fe71  1  0.12550454  0.37478954  0.37420298  1
  Fe  Fe72  1  0.25417500  -0.00250242  -0.00209909  1
  Fe  Fe73  1  0.75007233  -0.00062108  0.00032612  1
  Fe  Fe74  1  0.62318580  0.62745896  0.38018723  1
  Fe  Fe75  1  0.62109445  0.87542374  0.87317076  1
  Fe  Fe76  1  0.12478383  0.12520594  0.87628025  1
  Fe  Fe77  1  0.74705336  0.74981680  0.25035124  1
  Fe  Fe78  1  0.12397638  0.62474529  0.87490421  1
  Fe  Fe79  1  0.62036715  0.12455081  0.87306167  1
  Fe  Fe80  1  0.49902520  0.00061391  0.50394213  1
  Fe  Fe81  1  0.87557437  0.37497553  0.37490683  1
  Fe  Fe82  1  -0.00387783  0.75056409  0.50118326  1
  Fe  Fe83  1  0.37652340  0.37679008  0.62759122  1
  Fe  Fe84  1  0.37545840  0.12595448  0.37541104  1
  Fe  Fe85  1  -0.00129187  0.50195621  0.50056985  1
  Fe  Fe86  1  0.25168627  0.49792344  -0.00139024  1
  Fe  Fe87  1  0.87423505  0.37463964  0.62533651  1
  Fe  Fe88  1  0.87632090  0.12424414  0.87356520  1
  Fe  Fe89  1  0.00046276  0.25121457  0.00093999  1
  Co  Co90  1  0.62858876  0.62418567  0.62162559  1
  Co  Co91  1  0.87476504  0.62443739  0.37337519  1
  Co  Co92  1  0.38010109  0.87252806  0.87340311  1
  Co  Co93  1  0.37268846  0.37540519  0.13008791  1
  Co  Co94  1  0.00040331  0.74904611  -0.00090581  1
  Co  Co95  1  0.25106455  0.75190867  0.25224510  1
  Co  Co96  1  0.87365311  0.87187298  0.12524088  1
  Co  Co97  1  0.37503629  0.12396856  0.12443183  1
  Co  Co98  1  0.74875053  0.75165131  0.75144995  1
  Co  Co99  1  0.37212717  0.62423025  0.62309675  1
  Co  Co100  1  0.50007560  -0.00067819  0.74529501  1
  Co  Co101  1  0.49972471  0.50580396  0.74923827  1
  Co  Co102  1  0.75049531  -0.00125299  0.49759981  1
  Co  Co103  1  -0.00118834  0.00119697  0.24757517  1
  Co  Co104  1  0.87220899  0.12165627  0.62593986  1
  Co  Co105  1  0.00182340  0.00024887  0.75084010  1
  Co  Co106  1  0.74942978  0.49828325  0.75127098  1
  Co  Co107  1  0.50195964  0.24784670  0.24767866  1
  Co  Co108  1  0.50384924  0.74953485  0.00108661  1
  Co  Co109  1  0.38002148  0.37390405  0.87264587  1
  Co  Co110  1  0.25321710  -0.00042515  0.49858224  1
  Co  Co111  1  0.50243297  0.24835427  0.74478111  1
  Co  Co112  1  0.25041269  0.50375159  0.25279062  1
  Co  Co113  1  0.24828644  0.24495573  0.25011172  1
  Co  Co114  1  0.62389330  0.87771076  0.12608939  1
  Co  Co115  1  0.12367865  0.37468421  0.87444428  1
  Co  Co116  1  0.49990412  0.75232204  0.50481276  1
  Co  Co117  1  0.87331371  0.12755231  0.12395351  1
  Co  Co118  1  0.24989379  0.75107607  -0.00247123  1
  Co  Co119  1  0.74785352  0.00162199  0.75454019  1
  Co  Co120  1  0.37240342  0.12483316  0.62693608  1
  Co  Co121  1  0.49808947  0.49829760  0.49913410  1
  Co  Co122  1  0.62556025  0.62411460  0.12482819  1
  Co  Co123  1  -0.00268704  -0.00018657  0.50055207  1
  Co  Co124  1  0.74940313  0.25172710  0.50247148  1
  Co  Co125  1  0.75286397  0.75172257  0.49811826  1
  Co  Co126  1  0.62685627  0.37376653  0.12557948  1
  Co  Co127  1  0.62847564  0.12165520  0.62341342  1
