# generated using pymatgen
data_Fe45Co19
_symmetry_space_group_name_H-M   'P 1'
_cell_length_a   11.41652452
_cell_length_b   11.41536606
_cell_length_c   11.41502771
_cell_angle_alpha   89.99149172
_cell_angle_beta   90.00653850
_cell_angle_gamma   89.99937179
_symmetry_Int_Tables_number   1
_chemical_formula_structural   Fe45Co19
_chemical_formula_sum   'Fe90 Co38'
_cell_volume   1487.64983569
_cell_formula_units_Z   2
loop_
 _symmetry_equiv_pos_site_id
 _symmetry_equiv_pos_as_xyz
  1  'x, y, z'
loop_
 _atom_site_type_symbol
 _atom_site_label
 _atom_site_symmetry_multiplicity
 _atom_site_fract_x
 _atom_site_fract_y
 _atom_site_fract_z
 _atom_site_occupancy
  Fe  Fe0  1  0.24956063  0.74806448  0.49871785  1
  Fe  Fe1  1  0.12588508  0.37213210  0.37597192  1
  Fe  Fe2  1  0.75545096  0.49899270  0.75304646  1
  Fe  Fe3  1  0.62553666  0.37506949  0.62728914  1
  Fe  Fe4  1  0.62284254  0.12622000  0.62745821  1
  Fe  Fe5  1  0.25526222  0.25138162  0.74535168  1
  Fe  Fe6  1  0.62447767  0.87524136  0.87692220  1
  Fe  Fe7  1  -0.00160943  0.49816105  0.49963273  1
  Fe  Fe8  1  0.37576234  0.62366067  0.62406187  1
  Fe  Fe9  1  0.49754718  0.25241130  0.24866941  1
  Fe  Fe10  1  0.50028198  0.49947422  0.24879976  1
  Fe  Fe11  1  0.75054619  0.74898166  0.49889431  1
  Fe  Fe12  1  0.00133820  0.24743924  0.00139178  1
  Fe  Fe13  1  0.37581969  0.12287423  0.12401073  1
  Fe  Fe14  1  0.00038358  0.25005258  0.50132429  1
  Fe  Fe15  1  0.37453990  0.12531412  0.87439932  1
  Fe  Fe16  1  0.87761913  0.12364420  0.87450221  1
  Fe  Fe17  1  0.24856060  0.00220672  0.49843278  1
  Fe  Fe18  1  0.24818904  0.24989834  0.00078714  1
  Fe  Fe19  1  0.24755803  0.50012445  0.50058351  1
  Fe  Fe20  1  0.00373898  -0.00591955  0.74660195  1
  Fe  Fe21  1  0.49791151  0.25128356  0.50261993  1
  Fe  Fe22  1  0.75220455  0.75097860  0.75201800  1
  Fe  Fe23  1  0.00177793  0.24602259  0.24795891  1
  Fe  Fe24  1  0.75231836  0.50006689  0.25238675  1
  Fe  Fe25  1  0.75162309  0.49927535  -0.00273722  1
  Fe  Fe26  1  0.62416849  0.62490687  0.62633120  1
  Fe  Fe27  1  0.37232925  0.37594732  0.37692240  1
  Fe  Fe28  1  0.62523284  0.62489745  0.87513480  1
  Fe  Fe29  1  0.37463688  0.87387991  0.37406338  1
  Fe  Fe30  1  0.87491034  0.87701978  0.12423427  1
  Fe  Fe31  1  0.62282525  0.12673880  0.87427871  1
  Fe  Fe32  1  0.12257297  0.87947875  0.37409788  1
  Fe  Fe33  1  0.24756923  0.74675554  0.00367171  1
  Fe  Fe34  1  0.00114063  0.50006523  -0.00228153  1
  Fe  Fe35  1  0.87690263  0.87856672  0.37785831  1
  Fe  Fe36  1  0.00113958  0.75184234  -0.00019081  1
  Fe  Fe37  1  0.37089343  0.87509191  0.87538379  1
  Fe  Fe38  1  0.12754670  0.12596010  0.62428222  1
  Fe  Fe39  1  0.62516446  0.87274968  0.62502378  1
  Fe  Fe40  1  0.12086899  0.62775095  0.87141947  1
  Fe  Fe41  1  0.74786582  0.00077552  0.24831974  1
  Fe  Fe42  1  0.75069962  0.75199873  0.25078090  1
  Fe  Fe43  1  0.24901723  0.50217042  0.24770959  1
  Fe  Fe44  1  0.49888361  -0.00042610  0.75137280  1
  Fe  Fe45  1  0.62632429  0.37319462  0.37468125  1
  Fe  Fe46  1  0.12175092  0.62772543  0.62769812  1
  Fe  Fe47  1  0.24968598  0.24734855  0.25044996  1
  Fe  Fe48  1  0.87670778  0.62493408  0.12502527  1
  Fe  Fe49  1  0.74929774  -0.00129350  0.74990119  1
  Fe  Fe50  1  0.62207085  0.12496069  0.37418546  1
  Fe  Fe51  1  0.87512188  0.37238706  0.12322012  1
  Fe  Fe52  1  0.12539179  0.12514787  0.87281667  1
  Fe  Fe53  1  0.24918448  0.50017382  0.75031525  1
  Fe  Fe54  1  0.50121099  -0.00346742  0.24785164  1
  Fe  Fe55  1  0.37562785  0.12518982  0.37570727  1
  Fe  Fe56  1  0.50069171  0.75249658  0.24751590  1
  Fe  Fe57  1  0.75066930  0.24656848  0.24850202  1
  Fe  Fe58  1  0.75085630  0.24888916  0.49992063  1
  Fe  Fe59  1  0.50086070  -0.00310967  0.50047037  1
  Fe  Fe60  1  0.87869326  0.12300832  0.37540476  1
  Fe  Fe61  1  0.74925365  0.00142357  0.50068095  1
  Fe  Fe62  1  0.62400151  0.62814182  0.37488611  1
  Fe  Fe63  1  -0.00236036  0.49842982  0.25180601  1
  Fe  Fe64  1  0.00351699  0.00033670  0.00189197  1
  Fe  Fe65  1  0.12215443  0.62485331  0.37381450  1
  Fe  Fe66  1  0.37213720  0.37967277  0.12061305  1
  Fe  Fe67  1  0.74778785  0.00425015  0.00165440  1
  Fe  Fe68  1  0.49896174  0.75076606  0.00115722  1
  Fe  Fe69  1  -0.00089622  0.25198945  0.74812023  1
  Fe  Fe70  1  0.24869518  0.00019406  0.00015046  1
  Fe  Fe71  1  0.75298351  0.49991179  0.49763362  1
  Fe  Fe72  1  0.12590603  0.37398637  0.87211599  1
  Fe  Fe73  1  0.37086043  0.87578499  0.62696619  1
  Fe  Fe74  1  0.87839385  0.62774699  0.62653138  1
  Fe  Fe75  1  0.49714877  0.75005460  0.75071893  1
  Fe  Fe76  1  0.87568744  0.87713326  0.87596970  1
  Fe  Fe77  1  0.62731683  0.37328891  0.12370632  1
  Fe  Fe78  1  -0.00100321  0.75210549  0.25090222  1
  Fe  Fe79  1  0.62526344  0.62555648  0.12435254  1
  Fe  Fe80  1  0.50031340  0.25308034  -0.00210696  1
  Fe  Fe81  1  0.50142390  0.50035161  0.49790612  1
  Fe  Fe82  1  0.37445430  0.62137271  0.87977341  1
  Fe  Fe83  1  0.37643214  0.62554260  0.37351143  1
  Fe  Fe84  1  0.87455432  0.12408540  0.62679992  1
  Fe  Fe85  1  0.75145129  0.74926024  -0.00124071  1
  Fe  Fe86  1  0.75206102  0.25141412  0.75283306  1
  Fe  Fe87  1  0.49887885  0.49689738  0.75378073  1
  Fe  Fe88  1  0.12506656  0.37577707  0.12536186  1
  Fe  Fe89  1  0.24885741  0.74927936  0.24723020  1
  Co  Co90  1  0.87691175  0.62712150  0.37565111  1
  Co  Co91  1  -0.00016072  0.00268143  0.24618972  1
  Co  Co92  1  0.62648973  0.37351039  0.87311592  1
  Co  Co93  1  0.37601208  0.37936060  0.62306337  1
  Co  Co94  1  0.12920491  0.12233796  0.12535101  1
  Co  Co95  1  -0.00232721  0.49739080  0.75024307  1
  Co  Co96  1  0.13277112  0.87121010  0.62561848  1
  Co  Co97  1  0.25188624  0.24900764  0.50165755  1
  Co  Co98  1  -0.00128209  0.75824058  0.74961151  1
  Co  Co99  1  0.37242185  0.87635889  0.12408222  1
  Co  Co100  1  0.49792573  0.75096682  0.50242785  1
  Co  Co101  1  0.87797351  0.37165996  0.87762620  1
  Co  Co102  1  0.25095590  0.00205458  0.25128929  1
  Co  Co103  1  0.62049347  0.12590274  0.12459428  1
  Co  Co104  1  0.87149580  0.87349557  0.62300799  1
  Co  Co105  1  0.12605252  0.87640976  0.12658483  1
  Co  Co106  1  0.12870902  0.87358265  0.87548602  1
  Co  Co107  1  0.87572804  0.37026966  0.37435278  1
  Co  Co108  1  0.87871837  0.62774594  0.87383883  1
  Co  Co109  1  0.87386367  0.37423422  0.62418739  1
  Co  Co110  1  0.62582953  0.87518333  0.12131337  1
  Co  Co111  1  0.62601858  0.87364864  0.37717161  1
  Co  Co112  1  0.12518314  0.37547792  0.62523659  1
  Co  Co113  1  0.25246652  0.74590262  0.75134303  1
  Co  Co114  1  0.37054241  0.37696074  0.87797690  1
  Co  Co115  1  0.24292955  0.50364646  -0.00006074  1
  Co  Co116  1  0.50395854  0.49792417  -0.00013848  1
  Co  Co117  1  0.37650184  0.62324671  0.12418858  1
  Co  Co118  1  0.37615743  0.12084325  0.62396178  1
  Co  Co119  1  0.11999970  0.62522775  0.12804859  1
  Co  Co120  1  0.49530944  0.25130467  0.74980530  1
  Co  Co121  1  0.24776183  0.00279164  0.75120430  1
  Co  Co122  1  0.00188940  -0.00081961  0.50713980  1
  Co  Co123  1  0.12294537  0.12424442  0.37640213  1
  Co  Co124  1  0.49879729  -0.00042182  -0.00196754  1
  Co  Co125  1  0.87473698  0.12510589  0.12326849  1
  Co  Co126  1  0.74996272  0.24715674  -0.00177387  1
  Co  Co127  1  0.00222337  0.75297159  0.50020580  1
