# generated using pymatgen
data_Fe45Co19
_symmetry_space_group_name_H-M   'P 1'
_cell_length_a   11.41353666
_cell_length_b   11.41429749
_cell_length_c   11.41442365
_cell_angle_alpha   89.99183816
_cell_angle_beta   89.99975607
_cell_angle_gamma   89.98733082
_symmetry_Int_Tables_number   1
_chemical_formula_structural   Fe45Co19
_chemical_formula_sum   'Fe90 Co38'
_cell_volume   1487.04255841
_cell_formula_units_Z   2
loop_
 _symmetry_equiv_pos_site_id
 _symmetry_equiv_pos_as_xyz
  1  'x, y, z'
loop_
 _atom_site_type_symbol
 _atom_site_label
 _atom_site_symmetry_multiplicity
 _atom_site_fract_x
 _atom_site_fract_y
 _atom_site_fract_z
 _atom_site_occupancy
  Fe  Fe0  1  0.49880952  0.49812797  0.49960388  1
  Fe  Fe1  1  0.24825381  0.75181969  0.50014377  1
  Fe  Fe2  1  -0.00016144  0.75060242  0.24908533  1
  Fe  Fe3  1  0.12613032  0.87728642  0.12749984  1
  Fe  Fe4  1  0.11841829  0.37792379  0.37619892  1
  Fe  Fe5  1  0.12393157  0.87675834  0.87520991  1
  Fe  Fe6  1  0.75731243  0.25228522  0.50143008  1
  Fe  Fe7  1  0.62644528  0.62429218  0.37759991  1
  Fe  Fe8  1  0.12523392  0.12689534  0.62064554  1
  Fe  Fe9  1  0.87713573  0.37356811  0.12822309  1
  Fe  Fe10  1  0.62698993  0.12503927  0.62016453  1
  Fe  Fe11  1  0.49702816  0.24953652  0.50226194  1
  Fe  Fe12  1  0.87486079  0.62800883  0.87542541  1
  Fe  Fe13  1  0.13122830  0.12300069  0.12956345  1
  Fe  Fe14  1  0.74633424  0.75347073  0.75252444  1
  Fe  Fe15  1  0.49605749  0.24937340  -0.00074751  1
  Fe  Fe16  1  0.12543738  0.62194482  0.37798769  1
  Fe  Fe17  1  0.37483145  0.62201004  0.87674186  1
  Fe  Fe18  1  0.24790570  0.50014628  0.74951731  1
  Fe  Fe19  1  0.25067884  0.75298644  0.00024885  1
  Fe  Fe20  1  0.75524698  0.49659342  0.49953112  1
  Fe  Fe21  1  0.49829158  0.00455662  0.74523037  1
  Fe  Fe22  1  0.38007057  0.87656960  0.37290075  1
  Fe  Fe23  1  0.12632601  0.12216092  0.87723163  1
  Fe  Fe24  1  0.25149971  0.25020932  -0.00119727  1
  Fe  Fe25  1  0.87869921  0.37272304  0.87224168  1
  Fe  Fe26  1  0.87324045  0.87464335  0.37366116  1
  Fe  Fe27  1  0.75221444  0.25064057  -0.00061385  1
  Fe  Fe28  1  0.24927653  0.25368138  0.49569988  1
  Fe  Fe29  1  0.75264884  -0.00283106  -0.00235820  1
  Fe  Fe30  1  0.62566776  0.37117887  0.37530230  1
  Fe  Fe31  1  0.74935103  0.00008916  0.75059196  1
  Fe  Fe32  1  0.62380590  0.87700980  0.12547688  1
  Fe  Fe33  1  0.25016586  0.00119760  0.74886943  1
  Fe  Fe34  1  0.74305284  0.00375177  0.25383658  1
  Fe  Fe35  1  -0.00221220  0.75455301  0.00328471  1
  Fe  Fe36  1  0.87563793  0.62468260  0.37314554  1
  Fe  Fe37  1  0.37433641  0.62392822  0.12404845  1
  Fe  Fe38  1  0.37602814  0.87767041  0.87505765  1
  Fe  Fe39  1  0.50161566  0.50035350  0.24967509  1
  Fe  Fe40  1  0.50167481  0.75000197  0.75029348  1
  Fe  Fe41  1  0.12628328  0.62463615  0.12523313  1
  Fe  Fe42  1  0.74725024  0.75041743  0.25153855  1
  Fe  Fe43  1  0.00180515  0.00242712  0.74805917  1
  Fe  Fe44  1  0.62602869  0.87719162  0.61926742  1
  Fe  Fe45  1  0.87422885  0.87677204  0.62458090  1
  Fe  Fe46  1  0.24806595  0.75034473  0.74842134  1
  Fe  Fe47  1  0.62596464  0.37290624  0.12465782  1
  Fe  Fe48  1  0.37358661  0.37423533  0.12664651  1
  Fe  Fe49  1  0.12409346  0.37515498  0.87623766  1
  Fe  Fe50  1  0.00315160  0.24739637  0.25007360  1
  Fe  Fe51  1  0.74869458  0.75522532  -0.00402811  1
  Fe  Fe52  1  0.50335910  0.24478030  0.24696389  1
  Fe  Fe53  1  0.37391672  0.12651360  0.37188447  1
  Fe  Fe54  1  0.37278121  0.62231426  0.37631990  1
  Fe  Fe55  1  0.49353269  0.00343484  0.00581239  1
  Fe  Fe56  1  0.74950043  0.24814323  0.74984141  1
  Fe  Fe57  1  0.00072429  0.50017519  0.00106989  1
  Fe  Fe58  1  0.50031408  0.49972222  0.75067695  1
  Fe  Fe59  1  0.12294721  0.87816818  0.37451882  1
  Fe  Fe60  1  0.37243443  0.62425085  0.62295202  1
  Fe  Fe61  1  0.87257458  0.12388395  0.12707628  1
  Fe  Fe62  1  0.00375472  0.74982147  0.74687930  1
  Fe  Fe63  1  0.11900110  0.37599572  0.62425497  1
  Fe  Fe64  1  0.25035485  0.75185549  0.25160388  1
  Fe  Fe65  1  0.62233529  0.37328508  0.87437698  1
  Fe  Fe66  1  0.24946523  0.24910051  0.75160063  1
  Fe  Fe67  1  0.74990160  0.49787256  0.25076388  1
  Fe  Fe68  1  0.12545741  0.62594535  0.87697749  1
  Fe  Fe69  1  0.37512726  0.37291722  0.62741819  1
  Fe  Fe70  1  0.62284160  0.12390044  0.87730939  1
  Fe  Fe71  1  -0.00096030  -0.00117046  0.00358781  1
  Fe  Fe72  1  0.87536602  0.12789845  0.37289464  1
  Fe  Fe73  1  0.87511506  0.62389687  0.62732121  1
  Fe  Fe74  1  0.50184607  0.74897339  0.25100009  1
  Fe  Fe75  1  0.62639684  0.62380274  0.12195384  1
  Fe  Fe76  1  0.37430477  0.87537859  0.62388243  1
  Fe  Fe77  1  0.62626849  0.62398275  0.62401581  1
  Fe  Fe78  1  0.50172848  0.74886370  -0.00206913  1
  Fe  Fe79  1  0.75039459  0.49861384  0.75133633  1
  Fe  Fe80  1  0.24840078  0.49655860  0.25064749  1
  Fe  Fe81  1  0.62505804  0.37340320  0.62446208  1
  Fe  Fe82  1  0.25203531  -0.00004071  0.49802797  1
  Fe  Fe83  1  0.87645194  0.12412649  0.87359920  1
  Fe  Fe84  1  0.00065234  0.74939369  0.50156323  1
  Fe  Fe85  1  0.87308124  0.62585448  0.12428147  1
  Fe  Fe86  1  0.50030526  0.74918343  0.50024356  1
  Fe  Fe87  1  -0.00233016  0.00305641  0.49923795  1
  Fe  Fe88  1  0.00093958  0.24686674  0.00151211  1
  Fe  Fe89  1  0.75015350  0.49762590  -0.00138213  1
  Co  Co90  1  0.12510679  0.87846983  0.62332069  1
  Co  Co91  1  0.75157491  0.74823276  0.50068181  1
  Co  Co92  1  0.62549560  0.62236852  0.87523647  1
  Co  Co93  1  0.62879576  0.12475786  0.11819595  1
  Co  Co94  1  0.87727171  0.37294349  0.36867605  1
  Co  Co95  1  0.62396990  0.87404557  0.37842474  1
  Co  Co96  1  0.75316049  0.00276804  0.49615183  1
  Co  Co97  1  0.50057748  0.49757251  0.00062253  1
  Co  Co98  1  0.87972932  0.87521799  0.87083521  1
  Co  Co99  1  -0.00618274  0.50017741  0.50048432  1
  Co  Co100  1  0.38041085  0.37333375  0.37158408  1
  Co  Co101  1  0.62376883  0.13032546  0.38160059  1
  Co  Co102  1  0.49766201  0.00249887  0.49914050  1
  Co  Co103  1  0.88002019  0.37416558  0.63130524  1
  Co  Co104  1  0.00324306  0.24620793  0.75172829  1
  Co  Co105  1  -0.00295195  0.24841282  0.49843422  1
  Co  Co106  1  0.37450747  0.12397848  0.87389518  1
  Co  Co107  1  0.87577099  0.12532826  0.62788612  1
  Co  Co108  1  0.00198243  0.50278418  0.75342730  1
  Co  Co109  1  0.36755396  0.12900290  0.13042564  1
  Co  Co110  1  0.87053357  0.87681333  0.13024521  1
  Co  Co111  1  0.12700810  0.12258096  0.37426945  1
  Co  Co112  1  0.12674538  0.62095176  0.62038537  1
  Co  Co113  1  0.24583064  0.25587518  0.25568007  1
  Co  Co114  1  0.25183287  -0.00128684  0.00205874  1
  Co  Co115  1  0.25390178  -0.00458073  0.25058912  1
  Co  Co116  1  0.50345232  0.00473285  0.24917083  1
  Co  Co117  1  0.61872811  0.88141740  0.87571687  1
  Co  Co118  1  -0.00137616  0.00114219  0.24990546  1
  Co  Co119  1  0.37487647  0.37595861  0.87308268  1
  Co  Co120  1  0.12395732  0.37298396  0.12393232  1
  Co  Co121  1  0.00104169  0.50231962  0.24758346  1
  Co  Co122  1  0.37041150  0.12804353  0.62275891  1
  Co  Co123  1  0.24892421  0.49810508  0.00165570  1
  Co  Co124  1  0.37761716  0.87156513  0.12652997  1
  Co  Co125  1  0.74800219  0.24742488  0.24925726  1
  Co  Co126  1  0.50070575  0.24619971  0.74947857  1
  Co  Co127  1  0.25215517  0.49366468  0.49930099  1
