# generated using pymatgen
data_Fe45Co19
_symmetry_space_group_name_H-M   'P 1'
_cell_length_a   11.41413269
_cell_length_b   11.41349280
_cell_length_c   11.41425309
_cell_angle_alpha   90.00485537
_cell_angle_beta   90.00049990
_cell_angle_gamma   90.00700030
_symmetry_Int_Tables_number   1
_chemical_formula_structural   Fe45Co19
_chemical_formula_sum   'Fe90 Co38'
_cell_volume   1486.99318883
_cell_formula_units_Z   2
loop_
 _symmetry_equiv_pos_site_id
 _symmetry_equiv_pos_as_xyz
  1  'x, y, z'
loop_
 _atom_site_type_symbol
 _atom_site_label
 _atom_site_symmetry_multiplicity
 _atom_site_fract_x
 _atom_site_fract_y
 _atom_site_fract_z
 _atom_site_occupancy
  Fe  Fe0  1  0.50013450  0.74942059  0.25069727  1
  Fe  Fe1  1  0.87803043  0.62303091  0.37636361  1
  Fe  Fe2  1  0.49846063  0.50111986  0.00158045  1
  Fe  Fe3  1  0.37609207  0.12680911  0.87480916  1
  Fe  Fe4  1  0.24911632  0.50070633  0.49853789  1
  Fe  Fe5  1  0.24842250  0.24866050  0.25273333  1
  Fe  Fe6  1  0.24647300  0.50360480  -0.00238911  1
  Fe  Fe7  1  0.50175375  0.25119557  0.50155287  1
  Fe  Fe8  1  0.37375792  0.37428953  0.62469902  1
  Fe  Fe9  1  0.50013406  0.00038013  0.74752125  1
  Fe  Fe10  1  0.62460349  0.37527372  0.87346701  1
  Fe  Fe11  1  0.25281572  0.50179818  0.74991084  1
  Fe  Fe12  1  0.00479808  0.74813937  -0.00369580  1
  Fe  Fe13  1  0.37641190  0.12337309  0.37805486  1
  Fe  Fe14  1  0.37540196  0.37454434  0.87500131  1
  Fe  Fe15  1  -0.00115547  0.75239940  0.50193478  1
  Fe  Fe16  1  0.12392097  0.87559787  0.37675510  1
  Fe  Fe17  1  0.74926827  0.74848990  0.49873569  1
  Fe  Fe18  1  0.87423021  0.12726558  0.12542976  1
  Fe  Fe19  1  0.49982777  0.49921041  0.50088290  1
  Fe  Fe20  1  0.37414850  0.12460235  0.12399633  1
  Fe  Fe21  1  0.00203028  0.25251881  0.25039295  1
  Fe  Fe22  1  0.37606793  0.62649788  0.62454878  1
  Fe  Fe23  1  0.12342569  0.12383580  0.38122907  1
  Fe  Fe24  1  0.37432683  0.87366256  0.62528589  1
  Fe  Fe25  1  0.74889762  0.74926919  0.00066235  1
  Fe  Fe26  1  0.50144298  -0.00107611  0.00153295  1
  Fe  Fe27  1  -0.00214999  0.00158533  0.74674554  1
  Fe  Fe28  1  0.87657940  0.37251745  0.87530884  1
  Fe  Fe29  1  -0.00663153  0.50040799  0.74803270  1
  Fe  Fe30  1  0.62780780  0.87684901  0.62587868  1
  Fe  Fe31  1  0.49903930  0.25138196  0.24984434  1
  Fe  Fe32  1  0.24638006  0.25138336  -0.00073016  1
  Fe  Fe33  1  0.87754939  0.37441578  0.12395970  1
  Fe  Fe34  1  0.24906891  -0.00197831  -0.00208630  1
  Fe  Fe35  1  0.50275443  0.75061069  0.50092269  1
  Fe  Fe36  1  0.87202668  0.87493239  0.62579835  1
  Fe  Fe37  1  0.87309354  0.87527706  0.37378578  1
  Fe  Fe38  1  -0.00057422  0.00000066  0.00122323  1
  Fe  Fe39  1  0.75360265  0.49916985  0.25143872  1
  Fe  Fe40  1  0.50009777  0.25175269  0.00082162  1
  Fe  Fe41  1  0.24509095  0.50489790  0.25393810  1
  Fe  Fe42  1  0.62539725  0.87376763  0.87250228  1
  Fe  Fe43  1  0.00009257  0.74841387  0.25139374  1
  Fe  Fe44  1  0.75164086  0.00130794  0.25209422  1
  Fe  Fe45  1  0.25004649  0.74932400  0.49754362  1
  Fe  Fe46  1  0.75044515  -0.00004117  -0.00075534  1
  Fe  Fe47  1  -0.00021921  0.00016574  0.25114587  1
  Fe  Fe48  1  0.62668246  0.62436291  0.12670875  1
  Fe  Fe49  1  0.37143972  0.87156248  0.12397813  1
  Fe  Fe50  1  0.62208910  0.12352180  0.37511869  1
  Fe  Fe51  1  0.37844558  0.87701518  0.37528384  1
  Fe  Fe52  1  -0.00102323  0.74845451  0.74911530  1
  Fe  Fe53  1  0.62288907  0.62510614  0.87380711  1
  Fe  Fe54  1  0.36972964  0.62917229  0.12357729  1
  Fe  Fe55  1  0.87531792  0.87329320  0.12513773  1
  Fe  Fe56  1  0.12618271  0.87684436  0.62594701  1
  Fe  Fe57  1  0.12274873  0.12418415  0.87382531  1
  Fe  Fe58  1  0.75032684  0.00193918  0.49841623  1
  Fe  Fe59  1  0.75051454  0.24916563  0.74970562  1
  Fe  Fe60  1  0.37013520  0.37577100  0.12606848  1
  Fe  Fe61  1  0.12556044  0.12470835  0.12458467  1
  Fe  Fe62  1  0.75142947  0.49846818  0.50009312  1
  Fe  Fe63  1  0.87808452  0.62413195  0.12330253  1
  Fe  Fe64  1  0.87502214  0.87385026  0.87416885  1
  Fe  Fe65  1  0.87667851  0.12711787  0.87637433  1
  Fe  Fe66  1  0.37407480  0.12552051  0.62302952  1
  Fe  Fe67  1  0.87403964  0.12736783  0.62155240  1
  Fe  Fe68  1  0.00001982  0.49600142  0.50118570  1
  Fe  Fe69  1  0.37778474  0.87133226  0.87572116  1
  Fe  Fe70  1  0.75029141  0.74474543  0.74832447  1
  Fe  Fe71  1  0.49967927  0.50052098  0.74843123  1
  Fe  Fe72  1  0.49818098  0.50026007  0.24882255  1
  Fe  Fe73  1  0.62855372  0.37521676  0.62532673  1
  Fe  Fe74  1  0.12396866  0.62403225  0.62477800  1
  Fe  Fe75  1  0.62715130  0.87417297  0.12882096  1
  Fe  Fe76  1  0.62470503  0.62330474  0.37451150  1
  Fe  Fe77  1  0.62581911  0.37523556  0.12592811  1
  Fe  Fe78  1  0.25031196  0.00073227  0.74940097  1
  Fe  Fe79  1  0.12183354  0.37581634  0.87188180  1
  Fe  Fe80  1  0.62405842  0.12566251  0.87358062  1
  Fe  Fe81  1  0.12755648  0.87162598  0.12522697  1
  Fe  Fe82  1  0.62599732  0.12631943  0.12560368  1
  Fe  Fe83  1  0.24909345  0.74806998  0.75371098  1
  Fe  Fe84  1  0.00214019  0.25430226  0.50385728  1
  Fe  Fe85  1  0.37367405  0.37540329  0.37497882  1
  Fe  Fe86  1  0.75161166  0.49934367  -0.00192944  1
  Fe  Fe87  1  0.24985555  -0.00014728  0.25285193  1
  Fe  Fe88  1  0.24681410  0.24947937  0.74664089  1
  Fe  Fe89  1  0.75016827  0.25196239  0.25436071  1
  Co  Co90  1  0.50217858  0.74948182  0.00361676  1
  Co  Co91  1  0.50162146  -0.00131319  0.50402426  1
  Co  Co92  1  0.00158286  0.24875613  0.74526284  1
  Co  Co93  1  0.74741017  0.24966157  0.49677592  1
  Co  Co94  1  0.12624339  0.37454520  0.37545269  1
  Co  Co95  1  0.49902847  -0.00091512  0.24693217  1
  Co  Co96  1  0.11988294  0.62570445  0.37902715  1
  Co  Co97  1  0.24504939  0.74823057  -0.00807148  1
  Co  Co98  1  0.87045683  0.37332223  0.62510346  1
  Co  Co99  1  0.12168451  0.62018505  0.86930913  1
  Co  Co100  1  0.12676392  0.37654169  0.12558434  1
  Co  Co101  1  0.87521015  0.62439395  0.62152644  1
  Co  Co102  1  0.75283226  0.00244837  0.75060516  1
  Co  Co103  1  0.62596284  0.87549961  0.37330675  1
  Co  Co104  1  0.12577595  0.62808959  0.12620144  1
  Co  Co105  1  0.37855511  0.62423331  0.37662408  1
  Co  Co106  1  0.62637562  0.12531889  0.62624037  1
  Co  Co107  1  0.12489516  0.12106233  0.62072119  1
  Co  Co108  1  0.25127113  -0.00255323  0.49971455  1
  Co  Co109  1  0.49950861  0.25128171  0.74797155  1
  Co  Co110  1  0.62349420  0.37780427  0.37470747  1
  Co  Co111  1  0.00258475  0.25031624  0.00182553  1
  Co  Co112  1  0.00158639  0.49996498  -0.00017645  1
  Co  Co113  1  0.75239192  0.50219172  0.75130627  1
  Co  Co114  1  0.87903615  0.12717445  0.37706324  1
  Co  Co115  1  0.00175986  0.49912260  0.25032116  1
  Co  Co116  1  0.12590685  0.37958406  0.62778033  1
  Co  Co117  1  0.62555227  0.62205738  0.62376807  1
  Co  Co118  1  0.12216456  0.87908341  0.87167874  1
  Co  Co119  1  0.50183067  0.74935923  0.74576694  1
  Co  Co120  1  -0.00310526  -0.00388160  0.50129738  1
  Co  Co121  1  0.75269391  0.74655782  0.25124594  1
  Co  Co122  1  0.24896165  0.25222147  0.50190686  1
  Co  Co123  1  0.87466531  0.62728612  0.87730060  1
  Co  Co124  1  0.87630586  0.37463282  0.37612943  1
  Co  Co125  1  0.24946860  0.74892836  0.25711743  1
  Co  Co126  1  0.74915997  0.25098583  -0.00076197  1
  Co  Co127  1  0.37963997  0.62692401  0.87494690  1
