# generated using pymatgen
data_Fe45Co19
_symmetry_space_group_name_H-M   'P 1'
_cell_length_a   11.41489908
_cell_length_b   11.41336432
_cell_length_c   11.41480956
_cell_angle_alpha   90.01443835
_cell_angle_beta   90.00843052
_cell_angle_gamma   90.00219517
_symmetry_Int_Tables_number   1
_chemical_formula_structural   Fe45Co19
_chemical_formula_sum   'Fe90 Co38'
_cell_volume   1487.14874282
_cell_formula_units_Z   2
loop_
 _symmetry_equiv_pos_site_id
 _symmetry_equiv_pos_as_xyz
  1  'x, y, z'
loop_
 _atom_site_type_symbol
 _atom_site_label
 _atom_site_symmetry_multiplicity
 _atom_site_fract_x
 _atom_site_fract_y
 _atom_site_fract_z
 _atom_site_occupancy
  Fe  Fe0  1  0.74800595  0.49836441  0.25168986  1
  Fe  Fe1  1  0.87408234  0.62623792  0.37377793  1
  Fe  Fe2  1  0.62405135  0.37217894  0.37979779  1
  Fe  Fe3  1  0.12490421  0.12329744  0.12612069  1
  Fe  Fe4  1  0.62798880  0.87445363  0.87520143  1
  Fe  Fe5  1  0.24861544  0.00126888  0.75035415  1
  Fe  Fe6  1  0.37486633  0.87565476  0.87457744  1
  Fe  Fe7  1  0.50033103  0.74998964  -0.00055008  1
  Fe  Fe8  1  -0.00106636  -0.00035835  0.75132334  1
  Fe  Fe9  1  0.87645998  0.37524817  0.12677819  1
  Fe  Fe10  1  0.87306491  0.87401605  0.37213290  1
  Fe  Fe11  1  -0.00173520  0.00030249  0.49840263  1
  Fe  Fe12  1  0.12597876  0.37405770  0.37711128  1
  Fe  Fe13  1  0.12742993  0.12378337  0.37480758  1
  Fe  Fe14  1  0.49768809  0.24806876  -0.00216482  1
  Fe  Fe15  1  0.87320005  0.12733945  0.87513327  1
  Fe  Fe16  1  0.62227251  0.62400236  0.37674108  1
  Fe  Fe17  1  0.00025729  0.50072948  0.25038078  1
  Fe  Fe18  1  0.37725837  0.87609427  0.12344181  1
  Fe  Fe19  1  0.00235635  0.24952716  0.25076370  1
  Fe  Fe20  1  0.12458373  0.87687956  0.12469451  1
  Fe  Fe21  1  0.12663437  0.87749684  0.62281594  1
  Fe  Fe22  1  0.12790684  0.87846636  0.37568692  1
  Fe  Fe23  1  -0.00030711  0.74908965  0.74909370  1
  Fe  Fe24  1  0.37535448  0.62411315  0.12512793  1
  Fe  Fe25  1  0.25316469  0.49924163  -0.00068784  1
  Fe  Fe26  1  0.74956979  0.00323234  0.50043806  1
  Fe  Fe27  1  0.37667015  0.62446401  0.62544854  1
  Fe  Fe28  1  -0.00016862  0.49960638  0.75025702  1
  Fe  Fe29  1  0.25293170  0.24951152  0.50187029  1
  Fe  Fe30  1  0.62505847  0.62091068  0.12275899  1
  Fe  Fe31  1  0.37428519  0.87525694  0.37462724  1
  Fe  Fe32  1  -0.00001773  0.74946958  0.24737238  1
  Fe  Fe33  1  0.37786734  0.12945694  0.63171332  1
  Fe  Fe34  1  0.62552420  0.87862936  0.62652095  1
  Fe  Fe35  1  0.75161138  0.25253168  0.00234004  1
  Fe  Fe36  1  0.37679139  0.87819872  0.62716908  1
  Fe  Fe37  1  0.74590940  0.25060703  0.24890619  1
  Fe  Fe38  1  -0.00230275  0.00066574  -0.00038824  1
  Fe  Fe39  1  0.12591332  0.37560907  0.62288476  1
  Fe  Fe40  1  0.74463201  0.24834314  0.74829531  1
  Fe  Fe41  1  0.37386246  0.37087575  0.87097386  1
  Fe  Fe42  1  0.25113050  0.75060446  0.24858763  1
  Fe  Fe43  1  0.62614995  0.37689946  0.87785420  1
  Fe  Fe44  1  0.50227342  0.49847246  0.75083323  1
  Fe  Fe45  1  0.25224479  0.74998282  0.50099257  1
  Fe  Fe46  1  0.49945324  -0.00054382  0.24800862  1
  Fe  Fe47  1  0.50185916  0.74975783  0.24955069  1
  Fe  Fe48  1  0.12467586  0.62415933  0.62352677  1
  Fe  Fe49  1  0.12445669  0.12661382  0.87584032  1
  Fe  Fe50  1  0.87621160  0.12530476  0.12602129  1
  Fe  Fe51  1  -0.00312284  0.50199369  0.00040659  1
  Fe  Fe52  1  0.49785267  0.49669833  0.25048348  1
  Fe  Fe53  1  0.87288172  0.37106174  0.37668430  1
  Fe  Fe54  1  0.00224456  0.25253995  0.75003538  1
  Fe  Fe55  1  0.25049816  0.24948884  0.00089600  1
  Fe  Fe56  1  0.62282660  0.12353033  0.12267738  1
  Fe  Fe57  1  0.87215476  0.87410194  0.62758554  1
  Fe  Fe58  1  0.37572680  0.13147851  0.36821121  1
  Fe  Fe59  1  0.75066838  -0.00186709  0.00081411  1
  Fe  Fe60  1  0.49745040  0.00443825  0.49775194  1
  Fe  Fe61  1  0.49950896  0.75158130  0.50066494  1
  Fe  Fe62  1  0.49571153  0.49549665  0.50021091  1
  Fe  Fe63  1  0.87500092  0.12647172  0.62593577  1
  Fe  Fe64  1  0.87480079  0.37482324  0.87461779  1
  Fe  Fe65  1  0.87268719  0.87182282  0.87376261  1
  Fe  Fe66  1  -0.00047333  0.74661096  0.00381847  1
  Fe  Fe67  1  0.74764686  0.74787800  0.50159451  1
  Fe  Fe68  1  0.62553769  0.87687411  0.37421730  1
  Fe  Fe69  1  0.74954664  -0.00119632  0.24747806  1
  Fe  Fe70  1  0.87368540  0.12684023  0.37336506  1
  Fe  Fe71  1  0.25493585  0.49867022  0.49882834  1
  Fe  Fe72  1  0.25339519  0.49645067  0.25078569  1
  Fe  Fe73  1  -0.00248369  0.49902132  0.49911438  1
  Fe  Fe74  1  0.12346880  0.12449647  0.62360587  1
  Fe  Fe75  1  0.75011227  0.74776998  0.00308387  1
  Fe  Fe76  1  0.25005079  0.75029565  0.74937584  1
  Fe  Fe77  1  0.37561140  0.62641000  0.87430680  1
  Fe  Fe78  1  0.87053469  0.37459985  0.62225629  1
  Fe  Fe79  1  0.12544194  0.62516128  0.87708893  1
  Fe  Fe80  1  0.00049591  0.75091865  0.49982453  1
  Fe  Fe81  1  0.50388535  0.74839567  0.75004667  1
  Fe  Fe82  1  0.25399760  0.00176782  0.00042910  1
  Fe  Fe83  1  0.62242778  0.37762199  0.12060099  1
  Fe  Fe84  1  0.12724250  0.62485037  0.37377223  1
  Fe  Fe85  1  0.24874469  0.49889061  0.75070956  1
  Fe  Fe86  1  0.74817628  0.50586727  0.74996823  1
  Fe  Fe87  1  0.12346689  0.37639478  0.12206506  1
  Fe  Fe88  1  0.12567092  0.87401311  0.87666878  1
  Fe  Fe89  1  0.50396371  0.00402807  0.75663358  1
  Co  Co90  1  0.74546999  0.24506266  0.50077995  1
  Co  Co91  1  0.37623340  0.37206927  0.12532042  1
  Co  Co92  1  0.24327596  0.25134364  0.74990467  1
  Co  Co93  1  0.75158523  0.50251742  0.49752683  1
  Co  Co94  1  0.87126918  0.62269722  0.12796984  1
  Co  Co95  1  0.87586325  0.87480445  0.12570685  1
  Co  Co96  1  0.25168106  0.75077081  0.00067602  1
  Co  Co97  1  0.25249055  -0.00152845  0.24849302  1
  Co  Co98  1  0.50871447  0.25148302  0.75197797  1
  Co  Co99  1  0.49813500  0.00158552  -0.00235290  1
  Co  Co100  1  0.62362653  0.87592478  0.12427580  1
  Co  Co101  1  0.37334034  0.12824110  0.87094202  1
  Co  Co102  1  0.62277803  0.12169728  0.62513776  1
  Co  Co103  1  0.62892897  0.12626107  0.88064739  1
  Co  Co104  1  0.37599075  0.62602592  0.37439671  1
  Co  Co105  1  0.24536799  0.25366683  0.24724490  1
  Co  Co106  1  0.62456508  0.62371239  0.87968231  1
  Co  Co107  1  0.62744853  0.37798525  0.62188230  1
  Co  Co108  1  0.87668712  0.62481738  0.62351655  1
  Co  Co109  1  0.87568180  0.62624159  0.87525377  1
  Co  Co110  1  0.37577355  0.37145914  0.62972501  1
  Co  Co111  1  -0.00072749  -0.00006937  0.25157112  1
  Co  Co112  1  0.50579849  0.25324693  0.24697038  1
  Co  Co113  1  0.12876830  0.62250989  0.12543075  1
  Co  Co114  1  0.12372953  0.37573568  0.87911921  1
  Co  Co115  1  0.37668016  0.12780217  0.12886042  1
  Co  Co116  1  0.62355867  0.12387117  0.37155246  1
  Co  Co117  1  -0.00137255  0.24945044  0.00035332  1
  Co  Co118  1  0.50115217  0.24853830  0.50267082  1
  Co  Co119  1  0.74657539  0.74443074  0.74732499  1
  Co  Co120  1  -0.00017252  0.24978816  0.49954922  1
  Co  Co121  1  0.49498864  0.49847807  -0.00230260  1
  Co  Co122  1  0.75004360  0.00263753  0.75120332  1
  Co  Co123  1  0.62144042  0.62223232  0.62089988  1
  Co  Co124  1  0.25580149  0.00460707  0.50077547  1
  Co  Co125  1  0.74663739  0.74855721  0.24923892  1
  Co  Co126  1  0.37669768  0.36801954  0.37330220  1
  Co  Co127  1  0.75358114  0.49887115  -0.00055836  1
