# generated using pymatgen
data_Fe45Co19
_symmetry_space_group_name_H-M   'P 1'
_cell_length_a   11.41545694
_cell_length_b   11.41560639
_cell_length_c   11.41532016
_cell_angle_alpha   89.99870163
_cell_angle_beta   89.99248062
_cell_angle_gamma   90.00589734
_symmetry_Int_Tables_number   1
_chemical_formula_structural   Fe45Co19
_chemical_formula_sum   'Fe90 Co38'
_cell_volume   1487.58015676
_cell_formula_units_Z   2
loop_
 _symmetry_equiv_pos_site_id
 _symmetry_equiv_pos_as_xyz
  1  'x, y, z'
loop_
 _atom_site_type_symbol
 _atom_site_label
 _atom_site_symmetry_multiplicity
 _atom_site_fract_x
 _atom_site_fract_y
 _atom_site_fract_z
 _atom_site_occupancy
  Fe  Fe0  1  0.62616768  0.87547648  0.87300711  1
  Fe  Fe1  1  0.24431232  0.00519995  0.50149939  1
  Fe  Fe2  1  0.87875687  0.12217371  0.11785862  1
  Fe  Fe3  1  0.62661638  0.12710494  0.12502642  1
  Fe  Fe4  1  0.25133308  0.75266310  0.24848922  1
  Fe  Fe5  1  0.49948640  0.25013361  0.24997283  1
  Fe  Fe6  1  0.75152208  0.74946524  0.24905578  1
  Fe  Fe7  1  0.50140181  0.50031112  0.49915554  1
  Fe  Fe8  1  0.37674925  0.37264401  0.62480339  1
  Fe  Fe9  1  0.62491176  0.37447755  0.87878032  1
  Fe  Fe10  1  0.00126382  0.49928842  0.75167160  1
  Fe  Fe11  1  0.62514002  0.37347364  0.37400437  1
  Fe  Fe12  1  0.24969155  0.49857995  0.74904889  1
  Fe  Fe13  1  0.12267747  0.87606559  0.62627209  1
  Fe  Fe14  1  0.37624295  0.62465139  0.62504896  1
  Fe  Fe15  1  0.12334427  0.36838276  0.12339556  1
  Fe  Fe16  1  -0.00219145  0.74987277  0.75063110  1
  Fe  Fe17  1  0.87717533  0.62306219  0.12428539  1
  Fe  Fe18  1  0.24604442  0.49882270  0.49987494  1
  Fe  Fe19  1  0.00410506  0.00383499  0.24879814  1
  Fe  Fe20  1  0.25049039  0.49664281  -0.00014311  1
  Fe  Fe21  1  0.87530603  0.37656697  0.12402942  1
  Fe  Fe22  1  0.24985495  0.75117224  0.50066113  1
  Fe  Fe23  1  0.00101689  0.75041811  -0.00191714  1
  Fe  Fe24  1  0.87602212  0.87812397  0.37604543  1
  Fe  Fe25  1  0.37284701  0.12442909  0.37428711  1
  Fe  Fe26  1  0.87510316  0.62186829  0.62114688  1
  Fe  Fe27  1  0.49820232  0.74998152  -0.00085790  1
  Fe  Fe28  1  0.75008642  0.75090848  0.49983997  1
  Fe  Fe29  1  0.12575301  0.13065358  0.87737715  1
  Fe  Fe30  1  0.62399041  0.37460833  0.62418946  1
  Fe  Fe31  1  0.37573568  0.37277791  0.37816081  1
  Fe  Fe32  1  0.12407193  0.62648859  0.62365799  1
  Fe  Fe33  1  0.24801964  0.00124453  0.00310948  1
  Fe  Fe34  1  0.37296628  0.62326815  0.37402594  1
  Fe  Fe35  1  0.37341638  0.12606353  0.87408393  1
  Fe  Fe36  1  0.62536667  0.87687506  0.37274614  1
  Fe  Fe37  1  0.75013162  0.74979909  0.74847918  1
  Fe  Fe38  1  0.87741225  0.87770427  0.62176183  1
  Fe  Fe39  1  0.87712088  0.87747761  0.12287054  1
  Fe  Fe40  1  -0.00058497  0.74922757  0.25144954  1
  Fe  Fe41  1  0.87721188  0.12411590  0.37793408  1
  Fe  Fe42  1  0.75112288  0.00113793  0.24875461  1
  Fe  Fe43  1  0.12729384  0.87304310  0.87473887  1
  Fe  Fe44  1  0.87477321  0.37699787  0.62476066  1
  Fe  Fe45  1  0.87290678  0.62441799  0.87661707  1
  Fe  Fe46  1  0.37289032  0.12357574  0.12773575  1
  Fe  Fe47  1  0.25125280  0.75007341  0.74893977  1
  Fe  Fe48  1  0.50180242  0.50277422  0.75183719  1
  Fe  Fe49  1  0.38045354  0.37411935  0.12317290  1
  Fe  Fe50  1  0.50126208  0.00295206  -0.00011678  1
  Fe  Fe51  1  0.37582988  0.87856199  0.62633253  1
  Fe  Fe52  1  0.24950862  0.49563428  0.25058680  1
  Fe  Fe53  1  0.00276591  0.49829231  0.25232593  1
  Fe  Fe54  1  0.87548093  0.12370561  0.62698314  1
  Fe  Fe55  1  -0.00484915  0.25168954  0.75602444  1
  Fe  Fe56  1  0.12367183  0.37108414  0.62848619  1
  Fe  Fe57  1  0.12592021  0.62452437  0.12533489  1
  Fe  Fe58  1  0.75054993  0.24962260  0.50209604  1
  Fe  Fe59  1  0.74826159  0.49889031  0.24904488  1
  Fe  Fe60  1  0.49844179  0.74994303  0.24917757  1
  Fe  Fe61  1  0.37332435  0.62593845  0.87472409  1
  Fe  Fe62  1  -0.00379257  -0.00091084  0.75685566  1
  Fe  Fe63  1  0.12706638  0.62440881  0.87543372  1
  Fe  Fe64  1  0.74976490  0.75037457  0.00289660  1
  Fe  Fe65  1  0.62314307  0.87677712  0.62716915  1
  Fe  Fe66  1  0.50141522  0.00221277  0.49930444  1
  Fe  Fe67  1  0.63035031  0.12415793  0.87313129  1
  Fe  Fe68  1  0.62649245  0.12583652  0.37383431  1
  Fe  Fe69  1  0.37420345  0.62370911  0.12522720  1
  Fe  Fe70  1  0.87671714  0.62208231  0.37745505  1
  Fe  Fe71  1  0.37471643  0.37250543  0.87364160  1
  Fe  Fe72  1  0.62482987  0.62468623  0.37514106  1
  Fe  Fe73  1  0.75235048  0.25250844  -0.00039782  1
  Fe  Fe74  1  0.12453724  0.87429300  0.12357865  1
  Fe  Fe75  1  0.24768181  0.24528758  0.50514639  1
  Fe  Fe76  1  0.62292262  0.62105558  0.12353522  1
  Fe  Fe77  1  0.12278409  0.36738140  0.37477734  1
  Fe  Fe78  1  0.37413982  0.87588088  0.87522396  1
  Fe  Fe79  1  0.25023313  0.00422320  0.74861609  1
  Fe  Fe80  1  0.00075945  0.49633276  -0.00327037  1
  Fe  Fe81  1  0.12357533  0.87451318  0.37619221  1
  Fe  Fe82  1  0.62289810  0.87702574  0.12651330  1
  Fe  Fe83  1  0.62583217  0.12317549  0.62716912  1
  Fe  Fe84  1  0.74636928  0.50174498  0.75051937  1
  Fe  Fe85  1  0.87648184  0.37498780  0.37757059  1
  Fe  Fe86  1  0.75346699  0.25011096  0.24839126  1
  Fe  Fe87  1  0.37479969  0.87927961  0.37314436  1
  Fe  Fe88  1  0.50060433  0.24751711  0.75003169  1
  Fe  Fe89  1  0.49918326  0.75075331  0.50080166  1
  Co  Co90  1  0.25271363  0.24763345  0.74705097  1
  Co  Co91  1  0.49978525  0.24527699  -0.00097673  1
  Co  Co92  1  0.50227990  0.24745130  0.49997426  1
  Co  Co93  1  -0.00071968  0.74932322  0.49944096  1
  Co  Co94  1  0.11850026  0.12565142  0.63220985  1
  Co  Co95  1  0.87015496  0.12326868  0.87754686  1
  Co  Co96  1  0.49797121  0.50111671  -0.00325610  1
  Co  Co97  1  0.25391511  0.25129042  0.00172460  1
  Co  Co98  1  0.74706569  0.49835819  0.49926577  1
  Co  Co99  1  0.74850437  0.00065284  0.50046576  1
  Co  Co100  1  0.87011757  0.37876934  0.87293733  1
  Co  Co101  1  0.12942430  0.37195648  0.87400528  1
  Co  Co102  1  -0.00447571  0.25392147  -0.00536690  1
  Co  Co103  1  -0.00577150  0.24809070  0.24744351  1
  Co  Co104  1  0.50011035  0.49805173  0.25114616  1
  Co  Co105  1  0.24466552  -0.00059605  0.24886792  1
  Co  Co106  1  0.74755946  -0.00203421  0.00088259  1
  Co  Co107  1  0.00524218  0.49833832  0.49947408  1
  Co  Co108  1  0.37813376  0.12478234  0.62430504  1
  Co  Co109  1  0.00438628  0.00349458  0.49924016  1
  Co  Co110  1  0.62402877  0.62594171  0.62358515  1
  Co  Co111  1  0.74979054  0.25124738  0.74896845  1
  Co  Co112  1  0.12673947  0.62696963  0.37356652  1
  Co  Co113  1  0.37685532  0.87805589  0.12448781  1
  Co  Co114  1  0.62339892  0.37400717  0.12288678  1
  Co  Co115  1  0.25073014  0.75052177  0.00120450  1
  Co  Co116  1  0.12478811  0.13106632  0.37026305  1
  Co  Co117  1  0.62710463  0.62677747  0.87733945  1
  Co  Co118  1  0.12374024  0.13114980  0.12302820  1
  Co  Co119  1  0.25388393  0.25254000  0.24820903  1
  Co  Co120  1  0.49884882  0.00226487  0.75220596  1
  Co  Co121  1  0.49930390  0.74945816  0.75099857  1
  Co  Co122  1  0.75041428  0.49931149  0.00119342  1
  Co  Co123  1  0.75373649  -0.00291296  0.74945077  1
  Co  Co124  1  0.87163930  0.87304464  0.87908436  1
  Co  Co125  1  -0.00070281  0.24865486  0.50317768  1
  Co  Co126  1  0.00410206  -0.00069116  -0.00422033  1
  Co  Co127  1  0.50155299  0.00280608  0.24938206  1
