# generated using pymatgen
data_Fe45Co19
_symmetry_space_group_name_H-M   'P 1'
_cell_length_a   11.41495405
_cell_length_b   11.41595381
_cell_length_c   11.41595678
_cell_angle_alpha   89.99312774
_cell_angle_beta   90.00076543
_cell_angle_gamma   89.99992096
_symmetry_Int_Tables_number   1
_chemical_formula_structural   Fe45Co19
_chemical_formula_sum   'Fe90 Co38'
_cell_volume   1487.64286237
_cell_formula_units_Z   2
loop_
 _symmetry_equiv_pos_site_id
 _symmetry_equiv_pos_as_xyz
  1  'x, y, z'
loop_
 _atom_site_type_symbol
 _atom_site_label
 _atom_site_symmetry_multiplicity
 _atom_site_fract_x
 _atom_site_fract_y
 _atom_site_fract_z
 _atom_site_occupancy
  Fe  Fe0  1  0.37583683  0.12153037  0.12487441  1
  Fe  Fe1  1  0.87462973  0.87341287  0.37232855  1
  Fe  Fe2  1  0.75121869  0.49987636  0.00012599  1
  Fe  Fe3  1  0.24987608  0.24969643  0.24959981  1
  Fe  Fe4  1  0.62483597  0.62705785  0.37458417  1
  Fe  Fe5  1  0.49898291  0.25010983  0.00037706  1
  Fe  Fe6  1  -0.00207637  0.25066338  0.49962976  1
  Fe  Fe7  1  0.25221491  0.49696746  0.75124851  1
  Fe  Fe8  1  0.74604539  -0.00103969  0.25218790  1
  Fe  Fe9  1  0.37873048  0.12231260  0.37482412  1
  Fe  Fe10  1  0.87383688  0.12675559  0.12700334  1
  Fe  Fe11  1  0.75308368  0.24799793  0.74765243  1
  Fe  Fe12  1  0.12663648  0.37535497  0.62285370  1
  Fe  Fe13  1  0.37596071  0.12221772  0.62625978  1
  Fe  Fe14  1  0.62412151  0.12556770  0.87458588  1
  Fe  Fe15  1  0.62314521  0.62748975  0.87365670  1
  Fe  Fe16  1  0.49741621  0.49763030  0.74987308  1
  Fe  Fe17  1  0.62673557  0.12272244  0.62462190  1
  Fe  Fe18  1  -0.00002337  0.49885686  0.75070615  1
  Fe  Fe19  1  0.87480847  0.87528390  0.12489134  1
  Fe  Fe20  1  0.25170006  0.74911882  0.25177726  1
  Fe  Fe21  1  0.12370617  0.87345859  0.87613860  1
  Fe  Fe22  1  0.12840615  0.37101608  0.87488296  1
  Fe  Fe23  1  0.49867846  0.75002167  0.00116758  1
  Fe  Fe24  1  0.75065603  0.49820163  0.25022754  1
  Fe  Fe25  1  0.12794399  0.87505738  0.12432131  1
  Fe  Fe26  1  0.12757033  0.62345442  0.12682180  1
  Fe  Fe27  1  0.87376912  0.12810493  0.37292317  1
  Fe  Fe28  1  0.25018959  0.00004326  0.49863105  1
  Fe  Fe29  1  0.49749886  0.25329413  0.74789384  1
  Fe  Fe30  1  0.12566586  0.12284046  0.12555091  1
  Fe  Fe31  1  0.62429766  0.62719609  0.62773749  1
  Fe  Fe32  1  0.12373552  0.87828693  0.62425020  1
  Fe  Fe33  1  0.25104464  0.24769802  0.50175976  1
  Fe  Fe34  1  0.24697963  0.00121373  0.75158233  1
  Fe  Fe35  1  0.74989046  0.25275422  0.49908113  1
  Fe  Fe36  1  0.25135364  0.75014495  0.74952102  1
  Fe  Fe37  1  0.50296884  0.24890383  0.25103452  1
  Fe  Fe38  1  0.12483227  0.87357514  0.37523370  1
  Fe  Fe39  1  0.12782340  0.37677304  0.12650741  1
  Fe  Fe40  1  0.00018470  0.00053489  0.25174080  1
  Fe  Fe41  1  -0.00037385  0.74977077  0.24849911  1
  Fe  Fe42  1  0.37484129  0.87622446  0.87752750  1
  Fe  Fe43  1  0.87563198  0.88199557  0.62780672  1
  Fe  Fe44  1  0.75176951  0.74889242  0.00144498  1
  Fe  Fe45  1  -0.00043956  0.00025708  -0.00162955  1
  Fe  Fe46  1  0.50096851  0.24987220  0.50015192  1
  Fe  Fe47  1  0.50115314  0.75247886  0.24705418  1
  Fe  Fe48  1  0.50065848  0.50208687  0.50111382  1
  Fe  Fe49  1  0.00026654  0.25029711  0.00346589  1
  Fe  Fe50  1  0.62498697  0.37413922  0.87420927  1
  Fe  Fe51  1  0.75013824  0.75357063  0.75115139  1
  Fe  Fe52  1  0.87479970  0.62301995  0.62573580  1
  Fe  Fe53  1  0.00092616  0.49754984  0.25245828  1
  Fe  Fe54  1  0.25048642  0.50363773  0.49509603  1
  Fe  Fe55  1  0.00108616  0.74676402  0.00140446  1
  Fe  Fe56  1  0.37523016  0.37461988  0.37556066  1
  Fe  Fe57  1  0.25139622  0.74851682  0.49932045  1
  Fe  Fe58  1  0.12625616  0.62432265  0.62483769  1
  Fe  Fe59  1  0.50338986  -0.00443046  0.74896160  1
  Fe  Fe60  1  0.49809263  0.75194065  0.50611020  1
  Fe  Fe61  1  0.62461066  0.37526409  0.12523966  1
  Fe  Fe62  1  0.37189330  0.62430697  0.12504526  1
  Fe  Fe63  1  0.00016285  0.75054680  0.74797149  1
  Fe  Fe64  1  0.12653699  0.12851435  0.87653197  1
  Fe  Fe65  1  0.62425404  0.87676759  0.12220073  1
  Fe  Fe66  1  0.62568495  0.37632982  0.62438419  1
  Fe  Fe67  1  0.12151719  0.12175643  0.62319503  1
  Fe  Fe68  1  -0.00129763  0.49879204  0.49839265  1
  Fe  Fe69  1  0.75125855  0.74997358  0.49981393  1
  Fe  Fe70  1  -0.00242063  0.24769978  0.74632280  1
  Fe  Fe71  1  0.12439838  0.12569983  0.37445799  1
  Fe  Fe72  1  0.49918712  0.49901039  -0.00106762  1
  Fe  Fe73  1  0.37425590  0.12683177  0.87402999  1
  Fe  Fe74  1  -0.00135567  0.75156760  0.50151549  1
  Fe  Fe75  1  0.74835209  -0.00167730  0.49713047  1
  Fe  Fe76  1  0.37480510  0.62473976  0.87468621  1
  Fe  Fe77  1  0.75097589  -0.00053730  -0.00484410  1
  Fe  Fe78  1  0.00105463  0.50109438  -0.00145356  1
  Fe  Fe79  1  0.87474452  0.62524356  0.37308549  1
  Fe  Fe80  1  0.37906356  0.87650394  0.37539595  1
  Fe  Fe81  1  0.25154338  -0.00132473  0.25041179  1
  Fe  Fe82  1  0.74957607  0.25136357  0.00155305  1
  Fe  Fe83  1  0.75015077  0.50017395  0.74993972  1
  Fe  Fe84  1  0.49885977  0.50020275  0.25011608  1
  Fe  Fe85  1  0.62498516  0.12386476  0.12457415  1
  Fe  Fe86  1  0.37282925  0.37648524  0.12445035  1
  Fe  Fe87  1  0.87599675  0.62646733  0.87459854  1
  Fe  Fe88  1  0.62660526  0.62440012  0.12543581  1
  Fe  Fe89  1  0.87481966  0.37269748  0.87508382  1
  Co  Co90  1  0.12756866  0.37227387  0.37634663  1
  Co  Co91  1  0.49890572  0.00137656  -0.00088740  1
  Co  Co92  1  0.12555313  0.62583412  0.87139690  1
  Co  Co93  1  0.37298472  0.37135020  0.87729551  1
  Co  Co94  1  0.74943328  0.50162872  0.50008612  1
  Co  Co95  1  0.37321232  0.62355018  0.62654091  1
  Co  Co96  1  0.37059166  0.87802160  0.62512978  1
  Co  Co97  1  0.50290477  -0.00065067  0.24916402  1
  Co  Co98  1  0.62858469  0.87491467  0.62516331  1
  Co  Co99  1  0.74962059  0.00025697  0.75496341  1
  Co  Co100  1  0.62373761  0.12454814  0.37695778  1
  Co  Co101  1  0.62385439  0.87240565  0.87753344  1
  Co  Co102  1  -0.00014441  0.00350259  0.75467232  1
  Co  Co103  1  0.37384192  0.37646011  0.62023693  1
  Co  Co104  1  0.62112294  0.87202914  0.37709967  1
  Co  Co105  1  0.87772828  0.87243135  0.87552893  1
  Co  Co106  1  0.00246996  0.25041042  0.24961518  1
  Co  Co107  1  0.87573234  0.62331360  0.12650672  1
  Co  Co108  1  0.62369909  0.37759733  0.37513463  1
  Co  Co109  1  0.87454301  0.12000887  0.62179977  1
  Co  Co110  1  -0.00081778  -0.00106113  0.49422309  1
  Co  Co111  1  0.24940992  0.74842462  -0.00070496  1
  Co  Co112  1  0.87420563  0.37675108  0.62505011  1
  Co  Co113  1  0.37995125  0.62738183  0.37457342  1
  Co  Co114  1  0.87485117  0.12835003  0.87754287  1
  Co  Co115  1  0.37362952  0.87589813  0.12390369  1
  Co  Co116  1  0.87391273  0.37334579  0.37328565  1
  Co  Co117  1  0.49697823  0.75371904  0.74850551  1
  Co  Co118  1  0.87585081  0.37419616  0.12553475  1
  Co  Co119  1  0.25038035  0.24937385  0.74510057  1
  Co  Co120  1  0.24968578  0.00092884  -0.00112989  1
  Co  Co121  1  0.24894954  0.50084234  -0.00245159  1
  Co  Co122  1  0.74577895  0.25135187  0.25005434  1
  Co  Co123  1  0.25056036  0.50204519  0.25531542  1
  Co  Co124  1  0.12106434  0.62785098  0.37547852  1
  Co  Co125  1  0.50114512  -0.00104061  0.50340263  1
  Co  Co126  1  0.74814930  0.75139004  0.24879766  1
  Co  Co127  1  0.25114617  0.24854689  0.00408697  1
