# generated using pymatgen
data_Fe45Co19
_symmetry_space_group_name_H-M   'P 1'
_cell_length_a   11.41535440
_cell_length_b   11.41557621
_cell_length_c   11.41441829
_cell_angle_alpha   89.99964312
_cell_angle_beta   90.00133802
_cell_angle_gamma   90.00162655
_symmetry_Int_Tables_number   1
_chemical_formula_structural   Fe45Co19
_chemical_formula_sum   'Fe90 Co38'
_cell_volume   1487.44535573
_cell_formula_units_Z   2
loop_
 _symmetry_equiv_pos_site_id
 _symmetry_equiv_pos_as_xyz
  1  'x, y, z'
loop_
 _atom_site_type_symbol
 _atom_site_label
 _atom_site_symmetry_multiplicity
 _atom_site_fract_x
 _atom_site_fract_y
 _atom_site_fract_z
 _atom_site_occupancy
  Fe  Fe0  1  0.49825629  0.75276465  0.25328047  1
  Fe  Fe1  1  0.75190670  0.24914919  -0.00040870  1
  Fe  Fe2  1  0.13061123  0.87065250  0.37563266  1
  Fe  Fe3  1  0.49859443  0.49572205  0.24832550  1
  Fe  Fe4  1  0.24819821  -0.00300683  0.24961408  1
  Fe  Fe5  1  0.74931257  0.25013100  0.75089667  1
  Fe  Fe6  1  0.50057372  0.74960575  0.00052605  1
  Fe  Fe7  1  0.88003600  0.12566175  0.13067518  1
  Fe  Fe8  1  0.75240691  0.24717257  0.49700553  1
  Fe  Fe9  1  0.25074286  0.50147634  0.00049196  1
  Fe  Fe10  1  0.00051346  0.49977270  0.75084985  1
  Fe  Fe11  1  0.74936019  0.00409071  0.49761007  1
  Fe  Fe12  1  0.74528007  0.00532780  0.25178346  1
  Fe  Fe13  1  0.87758177  0.12494377  0.62370664  1
  Fe  Fe14  1  0.25061329  0.49747290  0.24767290  1
  Fe  Fe15  1  0.74752317  0.49893996  -0.00102541  1
  Fe  Fe16  1  0.87545722  0.37472408  0.62420925  1
  Fe  Fe17  1  0.25009746  -0.00004097  0.74850958  1
  Fe  Fe18  1  0.25107473  0.74787083  -0.00011275  1
  Fe  Fe19  1  0.24761850  0.24959787  0.00467215  1
  Fe  Fe20  1  0.62197255  0.87786995  0.87356746  1
  Fe  Fe21  1  0.37388673  0.12473315  0.87481256  1
  Fe  Fe22  1  0.74923450  0.75151702  0.75076186  1
  Fe  Fe23  1  0.12503689  0.87182955  0.62385946  1
  Fe  Fe24  1  -0.00075455  0.50067091  -0.00141978  1
  Fe  Fe25  1  0.37419290  0.62344481  0.37514606  1
  Fe  Fe26  1  0.62337094  0.12444007  0.87513797  1
  Fe  Fe27  1  0.74771069  0.74934320  -0.00101367  1
  Fe  Fe28  1  0.49794098  -0.00060974  0.49356309  1
  Fe  Fe29  1  0.37248951  0.37703774  0.62232930  1
  Fe  Fe30  1  0.62443009  0.37389187  0.37545207  1
  Fe  Fe31  1  0.74932949  0.00267208  0.00236497  1
  Fe  Fe32  1  0.12610994  0.12545192  0.87524774  1
  Fe  Fe33  1  0.87461665  0.62464945  0.12632613  1
  Fe  Fe34  1  0.49380633  0.24971364  0.49520114  1
  Fe  Fe35  1  0.00006619  0.49940448  0.49951424  1
  Fe  Fe36  1  0.37409163  0.87591714  0.62223691  1
  Fe  Fe37  1  0.87577908  0.87393964  0.62307174  1
  Fe  Fe38  1  0.49970709  0.74839637  0.49907436  1
  Fe  Fe39  1  0.25126513  0.25215127  0.74871984  1
  Fe  Fe40  1  0.00071194  0.25220447  0.74942500  1
  Fe  Fe41  1  0.00048129  0.49778957  0.25131113  1
  Fe  Fe42  1  0.87577650  0.87699307  0.87577424  1
  Fe  Fe43  1  0.49917268  0.24954295  0.00098665  1
  Fe  Fe44  1  0.12419276  0.37492455  0.87679780  1
  Fe  Fe45  1  0.37606169  0.12597369  0.13160102  1
  Fe  Fe46  1  0.87715167  0.12513953  0.87420374  1
  Fe  Fe47  1  0.50164091  0.50229449  0.50241016  1
  Fe  Fe48  1  0.87697396  0.37344933  0.12431462  1
  Fe  Fe49  1  0.87306279  0.87669907  0.37451383  1
  Fe  Fe50  1  0.37637049  0.62435754  0.12508113  1
  Fe  Fe51  1  0.24813580  0.50165902  0.50202888  1
  Fe  Fe52  1  0.37779884  0.37782975  0.87803174  1
  Fe  Fe53  1  0.62559116  0.87579801  0.12697622  1
  Fe  Fe54  1  0.00167461  -0.00097202  0.74883276  1
  Fe  Fe55  1  0.49929454  0.00092171  0.00283847  1
  Fe  Fe56  1  0.12544601  0.62648241  0.37459451  1
  Fe  Fe57  1  0.87461203  0.87662753  0.12728472  1
  Fe  Fe58  1  0.62518301  0.37070349  0.12599369  1
  Fe  Fe59  1  0.87457569  0.62506679  0.87452167  1
  Fe  Fe60  1  0.61953176  0.62253529  0.87115640  1
  Fe  Fe61  1  0.75058652  0.49889119  0.25122242  1
  Fe  Fe62  1  0.12307573  0.62739432  0.62554642  1
  Fe  Fe63  1  0.37636356  0.87605397  0.87402529  1
  Fe  Fe64  1  0.24941768  0.00082807  0.00261684  1
  Fe  Fe65  1  0.12586705  0.12830647  0.62329233  1
  Fe  Fe66  1  0.12814838  0.37236685  0.37796402  1
  Fe  Fe67  1  0.62205776  0.12561019  0.62238265  1
  Fe  Fe68  1  0.00041407  0.75144730  0.25064849  1
  Fe  Fe69  1  0.87576568  0.62607470  0.62398749  1
  Fe  Fe70  1  0.12414044  0.62489219  0.12524795  1
  Fe  Fe71  1  0.00263211  0.00024600  0.49639145  1
  Fe  Fe72  1  0.62384257  0.87516570  0.62354562  1
  Fe  Fe73  1  0.00291443  0.00106459  0.00327446  1
  Fe  Fe74  1  0.74830419  0.49657992  0.75093722  1
  Fe  Fe75  1  0.37377767  0.12302265  0.62325857  1
  Fe  Fe76  1  0.12865292  0.12951041  0.37310416  1
  Fe  Fe77  1  0.62478919  0.62529814  0.12884884  1
  Fe  Fe78  1  0.49866125  0.25070128  0.74898855  1
  Fe  Fe79  1  0.62551602  0.37328695  0.62292734  1
  Fe  Fe80  1  0.25281661  0.74729207  0.75107277  1
  Fe  Fe81  1  0.00007069  0.75008463  0.00047237  1
  Fe  Fe82  1  0.74893315  0.74570438  0.49659913  1
  Fe  Fe83  1  0.87531768  0.37186128  0.37465622  1
  Fe  Fe84  1  0.74850971  0.00128337  0.74844901  1
  Fe  Fe85  1  0.12569417  0.87425670  0.87602183  1
  Fe  Fe86  1  0.75009927  0.50255339  0.49740214  1
  Fe  Fe87  1  0.37411456  0.87466230  0.12744703  1
  Fe  Fe88  1  0.74997578  0.74760449  0.25238989  1
  Fe  Fe89  1  0.25131660  0.50119913  0.75112849  1
  Co  Co90  1  0.38049818  0.62209093  0.87607090  1
  Co  Co91  1  0.12530637  0.12558005  0.13023223  1
  Co  Co92  1  0.12488809  0.62536519  0.87526370  1
  Co  Co93  1  0.37578270  0.37509463  0.12081329  1
  Co  Co94  1  0.00373953  0.25402648  0.25023342  1
  Co  Co95  1  -0.00047722  0.75106606  0.49646450  1
  Co  Co96  1  -0.00118177  0.75030065  0.75124381  1
  Co  Co97  1  0.87879587  0.12552008  0.37196351  1
  Co  Co98  1  0.49900572  0.00157364  0.74872192  1
  Co  Co99  1  0.75005114  0.24858314  0.25134635  1
  Co  Co100  1  0.87706242  0.37388842  0.87592060  1
  Co  Co101  1  0.87729605  0.62449564  0.37366329  1
  Co  Co102  1  0.25318991  0.24946580  0.50028167  1
  Co  Co103  1  0.62213041  0.62285738  0.37191864  1
  Co  Co104  1  0.00507795  -0.00371303  0.25403154  1
  Co  Co105  1  0.25092042  0.74680220  0.24820755  1
  Co  Co106  1  0.25274269  0.25759142  0.24830201  1
  Co  Co107  1  0.62178023  0.37403990  0.87555748  1
  Co  Co108  1  0.49508644  0.25435923  0.25410180  1
  Co  Co109  1  0.49942020  0.49638348  0.74548184  1
  Co  Co110  1  0.12610488  0.37514815  0.62430177  1
  Co  Co111  1  0.12607499  0.87256832  0.12392345  1
  Co  Co112  1  0.62110745  0.12852713  0.12662695  1
  Co  Co113  1  0.37427461  0.62354535  0.62425253  1
  Co  Co114  1  0.62778581  0.87423583  0.37577915  1
  Co  Co115  1  0.50182403  -0.00281537  0.25290828  1
  Co  Co116  1  -0.00009044  0.25049222  0.49993050  1
  Co  Co117  1  0.12307136  0.37715197  0.12254502  1
  Co  Co118  1  0.00142810  0.24745766  0.00152115  1
  Co  Co119  1  0.37251949  0.38044414  0.37875855  1
  Co  Co120  1  0.50392221  0.50052943  0.00440358  1
  Co  Co121  1  0.37014124  0.87449714  0.37549680  1
  Co  Co122  1  0.25158975  0.74682277  0.50148260  1
  Co  Co123  1  0.24716933  0.00120626  0.50021146  1
  Co  Co124  1  0.49756557  0.75034830  0.74661566  1
  Co  Co125  1  0.37055969  0.12270023  0.37015968  1
  Co  Co126  1  0.62755399  0.62510870  0.62675256  1
  Co  Co127  1  0.62102548  0.12890447  0.37411429  1
