# generated using pymatgen
data_Fe45Co19
_symmetry_space_group_name_H-M   'P 1'
_cell_length_a   11.41502301
_cell_length_b   11.41448433
_cell_length_c   11.41485123
_cell_angle_alpha   90.00319798
_cell_angle_beta   89.99713852
_cell_angle_gamma   90.00245396
_symmetry_Int_Tables_number   1
_chemical_formula_structural   Fe45Co19
_chemical_formula_sum   'Fe90 Co38'
_cell_volume   1487.31631427
_cell_formula_units_Z   2
loop_
 _symmetry_equiv_pos_site_id
 _symmetry_equiv_pos_as_xyz
  1  'x, y, z'
loop_
 _atom_site_type_symbol
 _atom_site_label
 _atom_site_symmetry_multiplicity
 _atom_site_fract_x
 _atom_site_fract_y
 _atom_site_fract_z
 _atom_site_occupancy
  Fe  Fe0  1  0.12201067  0.37297831  0.37472256  1
  Fe  Fe1  1  0.62626368  0.62447503  0.37313689  1
  Fe  Fe2  1  0.12871100  0.87331813  0.87437563  1
  Fe  Fe3  1  0.87714164  0.37263228  0.87784247  1
  Fe  Fe4  1  0.12349234  0.62184218  0.12684899  1
  Fe  Fe5  1  0.12846675  0.62817567  0.87048761  1
  Fe  Fe6  1  0.11995042  0.37437119  0.12360056  1
  Fe  Fe7  1  0.12370829  0.37614096  0.62599546  1
  Fe  Fe8  1  0.24720471  0.75019620  0.50699818  1
  Fe  Fe9  1  0.25083144  0.74983397  0.24693295  1
  Fe  Fe10  1  0.24907433  0.49791247  0.25236468  1
  Fe  Fe11  1  0.49514112  -0.00000435  0.75162519  1
  Fe  Fe12  1  0.75004033  0.00270253  -0.00110345  1
  Fe  Fe13  1  0.37493720  0.37384537  0.87399108  1
  Fe  Fe14  1  0.62630870  0.12574363  0.37272171  1
  Fe  Fe15  1  0.49743435  0.00354062  0.49978532  1
  Fe  Fe16  1  0.62496369  0.37320831  0.12303576  1
  Fe  Fe17  1  0.49800163  0.50248296  -0.00097245  1
  Fe  Fe18  1  -0.00083462  -0.00043346  0.75173747  1
  Fe  Fe19  1  0.37562326  0.37303647  0.62361046  1
  Fe  Fe20  1  0.12985250  0.12561023  0.12185701  1
  Fe  Fe21  1  0.12593348  0.12529382  0.37457227  1
  Fe  Fe22  1  0.62140110  0.87565578  0.87673204  1
  Fe  Fe23  1  0.62266526  0.87855695  0.12389998  1
  Fe  Fe24  1  0.00096096  0.00221228  0.24785931  1
  Fe  Fe25  1  0.12965320  0.12176980  0.62607917  1
  Fe  Fe26  1  0.25040898  0.50119046  -0.00096294  1
  Fe  Fe27  1  0.62257591  0.62644652  0.87366275  1
  Fe  Fe28  1  0.75040135  0.49934428  0.50019301  1
  Fe  Fe29  1  0.50059747  0.74702271  0.50280669  1
  Fe  Fe30  1  0.00300484  0.24797155  0.75203759  1
  Fe  Fe31  1  0.25264558  0.00026143  0.25019593  1
  Fe  Fe32  1  0.00043430  0.00016928  0.50111072  1
  Fe  Fe33  1  0.74746289  0.75010743  0.00132203  1
  Fe  Fe34  1  0.49882332  0.74969977  0.24689680  1
  Fe  Fe35  1  0.62242140  0.87658055  0.62562117  1
  Fe  Fe36  1  0.37387243  0.37405523  0.12623774  1
  Fe  Fe37  1  0.62396604  0.12386586  0.62806149  1
  Fe  Fe38  1  0.00112627  0.50211180  0.49845474  1
  Fe  Fe39  1  0.74995660  0.75136598  0.24822025  1
  Fe  Fe40  1  0.75005724  0.00048860  0.24853338  1
  Fe  Fe41  1  0.74785986  0.24966222  0.75360665  1
  Fe  Fe42  1  0.13122996  0.12360546  0.87668365  1
  Fe  Fe43  1  0.87667401  0.37390904  0.62574617  1
  Fe  Fe44  1  0.74863732  0.24995393  0.50089311  1
  Fe  Fe45  1  0.25272150  0.50008449  0.74943314  1
  Fe  Fe46  1  0.49865598  0.50315597  0.75021026  1
  Fe  Fe47  1  0.62352574  0.87556991  0.37408697  1
  Fe  Fe48  1  0.87575217  0.12832565  0.12255596  1
  Fe  Fe49  1  0.87336142  0.12403524  0.62871954  1
  Fe  Fe50  1  0.50025278  0.24996170  0.25013867  1
  Fe  Fe51  1  0.62502257  0.62204886  0.12687130  1
  Fe  Fe52  1  0.74972833  0.49867331  -0.00121131  1
  Fe  Fe53  1  0.49316080  0.00360698  0.00066915  1
  Fe  Fe54  1  0.87660497  0.87559627  0.37505114  1
  Fe  Fe55  1  0.50075780  0.50015784  0.49964008  1
  Fe  Fe56  1  0.75561663  0.49459158  0.24922844  1
  Fe  Fe57  1  0.87490876  0.62749572  0.87545192  1
  Fe  Fe58  1  0.12703841  0.87811890  0.12270249  1
  Fe  Fe59  1  0.49901621  0.24823541  0.75086068  1
  Fe  Fe60  1  0.37212378  0.62523598  0.37570416  1
  Fe  Fe61  1  0.87679712  0.87588095  0.12325193  1
  Fe  Fe62  1  0.87652717  0.62660473  0.37463889  1
  Fe  Fe63  1  0.12613576  0.87589737  0.37581240  1
  Fe  Fe64  1  0.62398157  0.37550620  0.62678981  1
  Fe  Fe65  1  0.87414663  0.12624645  0.37412881  1
  Fe  Fe66  1  0.24826653  0.49973741  0.49987080  1
  Fe  Fe67  1  0.00130675  0.75050991  0.24920440  1
  Fe  Fe68  1  0.37430763  0.87326871  0.37693063  1
  Fe  Fe69  1  0.24998391  0.25033487  0.50073326  1
  Fe  Fe70  1  0.49761958  0.24760298  -0.00119580  1
  Fe  Fe71  1  0.87530522  0.87641254  0.87574979  1
  Fe  Fe72  1  -0.00115710  0.50052419  0.75284422  1
  Fe  Fe73  1  0.74752174  0.24814258  -0.00301689  1
  Fe  Fe74  1  0.12537554  0.37481730  0.87491234  1
  Fe  Fe75  1  0.74995612  0.49857443  0.75191440  1
  Fe  Fe76  1  0.00037538  0.24704147  0.50193840  1
  Fe  Fe77  1  0.87629941  0.62620849  0.62685636  1
  Fe  Fe78  1  0.49801225  0.49900342  0.25190624  1
  Fe  Fe79  1  0.37356955  0.12927894  0.37480391  1
  Fe  Fe80  1  0.62547129  0.37391720  0.37535055  1
  Fe  Fe81  1  0.74866513  0.75291432  0.74902343  1
  Fe  Fe82  1  0.00283984  0.75011447  -0.00134123  1
  Fe  Fe83  1  0.74896281  0.75102783  0.50137490  1
  Fe  Fe84  1  0.49630208  0.00114580  0.24810829  1
  Fe  Fe85  1  0.00390912  0.75096604  0.50410939  1
  Fe  Fe86  1  0.37448892  0.86554626  0.87864001  1
  Fe  Fe87  1  0.25566329  -0.00211661  0.75005803  1
  Fe  Fe88  1  0.87771197  0.62274326  0.12350479  1
  Fe  Fe89  1  0.74984570  -0.00086296  0.50137255  1
  Co  Co90  1  0.87906346  0.37328461  0.11810090  1
  Co  Co91  1  0.37635316  0.87743336  0.62203663  1
  Co  Co92  1  0.00386659  0.24572563  -0.00422122  1
  Co  Co93  1  0.37065104  0.12923378  0.87417739  1
  Co  Co94  1  0.62158339  0.37578708  0.87527329  1
  Co  Co95  1  0.37432597  0.87374810  0.12303654  1
  Co  Co96  1  0.24747489  0.25264944  0.25048021  1
  Co  Co97  1  0.37411015  0.62185575  0.62347226  1
  Co  Co98  1  0.00012528  0.75263914  0.74988476  1
  Co  Co99  1  0.12684939  0.62744467  0.37395906  1
  Co  Co100  1  0.87432503  0.12421810  0.87302340  1
  Co  Co101  1  0.37315533  0.12757601  0.62541996  1
  Co  Co102  1  0.24730181  0.74636470  0.00448567  1
  Co  Co103  1  0.62252167  0.12142512  0.87458733  1
  Co  Co104  1  0.74910535  -0.00265360  0.75036079  1
  Co  Co105  1  0.37406864  0.62229034  0.12569648  1
  Co  Co106  1  0.12573084  0.88043119  0.62717906  1
  Co  Co107  1  0.24828855  0.25239779  0.74876407  1
  Co  Co108  1  0.00230564  0.50319635  -0.00441808  1
  Co  Co109  1  0.12359313  0.62189053  0.62968781  1
  Co  Co110  1  0.00123375  0.00064901  -0.00117500  1
  Co  Co111  1  0.75156632  0.25298969  0.24878036  1
  Co  Co112  1  0.25308903  0.75072750  0.74291865  1
  Co  Co113  1  0.50210455  0.74638012  0.00523319  1
  Co  Co114  1  0.87610687  0.87578325  0.62455554  1
  Co  Co115  1  0.37387527  0.62961072  0.87586325  1
  Co  Co116  1  0.37066956  0.12871969  0.12544298  1
  Co  Co117  1  0.49865606  0.74890680  0.74631797  1
  Co  Co118  1  0.25537101  -0.00159447  -0.00124903  1
  Co  Co119  1  0.87762735  0.37177694  0.37872783  1
  Co  Co120  1  -0.00039349  0.24902069  0.24903197  1
  Co  Co121  1  0.25237884  0.00095783  0.49833558  1
  Co  Co122  1  0.37498972  0.37367546  0.37631721  1
  Co  Co123  1  -0.00193452  0.49815332  0.25305857  1
  Co  Co124  1  0.50156629  0.24912827  0.49998590  1
  Co  Co125  1  0.25006493  0.25474242  -0.00057351  1
  Co  Co126  1  0.62694471  0.62357732  0.62681449  1
  Co  Co127  1  0.62375248  0.12506556  0.12418276  1
