# generated using pymatgen
data_Fe45Co19
_symmetry_space_group_name_H-M   'P 1'
_cell_length_a   11.41407921
_cell_length_b   11.41496701
_cell_length_c   11.41426897
_cell_angle_alpha   90.00503181
_cell_angle_beta   89.98932187
_cell_angle_gamma   90.00496384
_symmetry_Int_Tables_number   1
_chemical_formula_structural   Fe45Co19
_chemical_formula_sum   'Fe90 Co38'
_cell_volume   1487.18033533
_cell_formula_units_Z   2
loop_
 _symmetry_equiv_pos_site_id
 _symmetry_equiv_pos_as_xyz
  1  'x, y, z'
loop_
 _atom_site_type_symbol
 _atom_site_label
 _atom_site_symmetry_multiplicity
 _atom_site_fract_x
 _atom_site_fract_y
 _atom_site_fract_z
 _atom_site_occupancy
  Fe  Fe0  1  0.12629857  0.62466591  0.37455124  1
  Fe  Fe1  1  0.75234829  -0.00177558  0.24570930  1
  Fe  Fe2  1  0.74672974  0.74749815  0.00092482  1
  Fe  Fe3  1  0.87318182  0.87468338  0.87788218  1
  Fe  Fe4  1  0.12826825  0.12253254  0.37402936  1
  Fe  Fe5  1  0.74938923  0.74984444  0.74866163  1
  Fe  Fe6  1  0.49911271  0.74965302  0.49882502  1
  Fe  Fe7  1  0.37390345  0.37187532  0.12629437  1
  Fe  Fe8  1  0.74914286  0.25258771  0.25342876  1
  Fe  Fe9  1  0.74837107  0.00100148  0.50209588  1
  Fe  Fe10  1  0.25231795  -0.00058842  0.24446149  1
  Fe  Fe11  1  0.25154000  -0.00001091  0.75010506  1
  Fe  Fe12  1  0.87813741  0.37404113  0.62216026  1
  Fe  Fe13  1  0.25158935  0.25120796  0.49810398  1
  Fe  Fe14  1  0.62476845  0.62225803  0.37366955  1
  Fe  Fe15  1  0.12490720  0.62244076  0.87559907  1
  Fe  Fe16  1  0.12611482  0.37668058  0.37487782  1
  Fe  Fe17  1  0.49947714  0.25001262  0.75175850  1
  Fe  Fe18  1  0.00195923  0.25093076  0.75095793  1
  Fe  Fe19  1  0.62491301  0.87710473  0.87782410  1
  Fe  Fe20  1  0.87443510  0.12739911  0.12391286  1
  Fe  Fe21  1  0.87340379  0.12566121  0.37523781  1
  Fe  Fe22  1  0.37491842  0.87506193  0.37374859  1
  Fe  Fe23  1  0.37529956  0.62762218  0.12385313  1
  Fe  Fe24  1  0.87510065  0.12716506  0.62394105  1
  Fe  Fe25  1  0.37386083  0.12316662  0.88031376  1
  Fe  Fe26  1  0.49444389  0.50017074  0.50084410  1
  Fe  Fe27  1  0.00183633  0.75162773  0.49803143  1
  Fe  Fe28  1  0.12506074  0.12492167  0.62485455  1
  Fe  Fe29  1  0.11896455  0.87280856  0.12691729  1
  Fe  Fe30  1  -0.00145778  0.49874724  -0.00145349  1
  Fe  Fe31  1  -0.00199140  -0.00048477  0.00092403  1
  Fe  Fe32  1  0.50071743  0.24899724  0.25529337  1
  Fe  Fe33  1  0.24793211  0.75115235  -0.00026104  1
  Fe  Fe34  1  0.49855001  0.50047422  0.24813984  1
  Fe  Fe35  1  0.24898417  0.75114361  0.24936181  1
  Fe  Fe36  1  0.87409361  0.62606324  0.37636734  1
  Fe  Fe37  1  0.24980786  0.24976602  0.75149760  1
  Fe  Fe38  1  0.50193623  0.25095637  0.00025726  1
  Fe  Fe39  1  0.12421954  0.37553404  0.12454431  1
  Fe  Fe40  1  0.25055803  0.74988657  0.49904060  1
  Fe  Fe41  1  0.25146717  -0.00277583  0.50127357  1
  Fe  Fe42  1  0.87429866  0.62498811  0.12470705  1
  Fe  Fe43  1  0.24849057  0.25133193  -0.00037941  1
  Fe  Fe44  1  0.49943288  0.00109891  0.75107487  1
  Fe  Fe45  1  0.37558897  0.87753981  0.88098054  1
  Fe  Fe46  1  0.87702399  0.87565721  0.37301602  1
  Fe  Fe47  1  0.62481551  0.37929042  0.87586573  1
  Fe  Fe48  1  0.74949233  0.24989657  0.74842950  1
  Fe  Fe49  1  0.62264880  0.62507877  0.62567976  1
  Fe  Fe50  1  0.49637357  0.00185395  0.24691013  1
  Fe  Fe51  1  0.74885556  0.75182683  0.50048404  1
  Fe  Fe52  1  0.37526145  0.37764997  0.87645175  1
  Fe  Fe53  1  0.37838242  0.62130957  0.87660400  1
  Fe  Fe54  1  0.87525163  0.37280703  0.37745584  1
  Fe  Fe55  1  0.62328770  0.87513929  0.12237022  1
  Fe  Fe56  1  0.25079384  0.75063396  0.75332022  1
  Fe  Fe57  1  0.37852435  0.12738609  0.62224636  1
  Fe  Fe58  1  0.87325239  0.62406107  0.87395381  1
  Fe  Fe59  1  -0.00258174  0.49995690  0.25149403  1
  Fe  Fe60  1  0.75000426  0.25085726  -0.00047933  1
  Fe  Fe61  1  0.12285682  0.62446702  0.12393494  1
  Fe  Fe62  1  0.75122430  0.00102227  0.74937947  1
  Fe  Fe63  1  0.62692603  0.12388561  0.87582234  1
  Fe  Fe64  1  0.00090299  0.00022605  0.49861739  1
  Fe  Fe65  1  0.87427527  0.37474306  0.87446879  1
  Fe  Fe66  1  0.12523180  0.12617834  0.12432087  1
  Fe  Fe67  1  0.62429525  0.87779648  0.37404359  1
  Fe  Fe68  1  0.50131777  0.74938068  0.24896479  1
  Fe  Fe69  1  0.00122431  0.24982200  0.25150659  1
  Fe  Fe70  1  0.25098695  0.50014217  0.24792346  1
  Fe  Fe71  1  0.62894505  0.37812676  0.12712887  1
  Fe  Fe72  1  0.37669373  0.87329780  0.62563402  1
  Fe  Fe73  1  0.25134199  0.49890197  0.74897896  1
  Fe  Fe74  1  0.12385856  0.62482131  0.62608559  1
  Fe  Fe75  1  0.75049570  0.49903112  0.50002388  1
  Fe  Fe76  1  0.75033817  0.75027637  0.24906910  1
  Fe  Fe77  1  -0.00010923  0.25167910  -0.00163787  1
  Fe  Fe78  1  0.12520626  0.12274707  0.87611540  1
  Fe  Fe79  1  -0.00192458  -0.00082805  0.75094782  1
  Fe  Fe80  1  -0.00070748  0.75138060  0.75164072  1
  Fe  Fe81  1  0.62566557  0.12611793  0.12560413  1
  Fe  Fe82  1  0.25384870  0.50162557  0.50110148  1
  Fe  Fe83  1  0.50060667  0.74947112  0.75327286  1
  Fe  Fe84  1  0.12425700  0.87422550  0.62673649  1
  Fe  Fe85  1  0.62347374  0.87656943  0.62561849  1
  Fe  Fe86  1  0.12416705  0.37621597  0.62419136  1
  Fe  Fe87  1  0.74906389  0.49942232  0.74791541  1
  Fe  Fe88  1  0.62102389  0.37185470  0.62151723  1
  Fe  Fe89  1  0.87745277  0.62469998  0.62427256  1
  Co  Co90  1  0.37483991  0.62611272  0.37174318  1
  Co  Co91  1  0.75045538  0.00080309  0.00259042  1
  Co  Co92  1  0.62759203  0.62206074  0.12821951  1
  Co  Co93  1  0.62688113  0.12037694  0.37285318  1
  Co  Co94  1  0.62385750  0.38060266  0.37545410  1
  Co  Co95  1  -0.00140553  0.00357121  0.24913953  1
  Co  Co96  1  0.87759445  0.87199421  0.12435128  1
  Co  Co97  1  0.37760884  0.87105618  0.12203781  1
  Co  Co98  1  0.49991565  0.00091617  0.49902326  1
  Co  Co99  1  0.24738478  0.24966559  0.25057383  1
  Co  Co100  1  0.37375950  0.37553864  0.37257506  1
  Co  Co101  1  0.00074292  0.74860606  -0.00248036  1
  Co  Co102  1  0.62372377  0.62058497  0.87318537  1
  Co  Co103  1  0.12522169  0.87682558  0.37139035  1
  Co  Co104  1  0.00035173  0.49877056  0.75137685  1
  Co  Co105  1  0.37448298  0.13084455  0.12378228  1
  Co  Co106  1  0.12659062  0.37626061  0.87540710  1
  Co  Co107  1  0.25115726  0.49950106  0.00228940  1
  Co  Co108  1  0.87435575  0.37391693  0.12494691  1
  Co  Co109  1  0.62248326  0.12580204  0.62627039  1
  Co  Co110  1  0.49994009  0.49798096  0.74731493  1
  Co  Co111  1  0.24870023  -0.00167451  0.00548609  1
  Co  Co112  1  0.37144481  0.12345937  0.37424803  1
  Co  Co113  1  -0.00121451  0.74653697  0.25267701  1
  Co  Co114  1  0.00022984  0.50061190  0.49773411  1
  Co  Co115  1  0.50082466  0.49977801  0.00484625  1
  Co  Co116  1  0.87458661  0.12613313  0.87541929  1
  Co  Co117  1  0.74605339  0.24897938  0.49869395  1
  Co  Co118  1  0.50063003  0.00350995  0.00342323  1
  Co  Co119  1  0.87588968  0.87519113  0.62366313  1
  Co  Co120  1  0.37567981  0.37075436  0.62472893  1
  Co  Co121  1  0.75057812  0.50068919  -0.00067870  1
  Co  Co122  1  0.75446390  0.49950877  0.25243682  1
  Co  Co123  1  0.50137402  0.24753638  0.49299275  1
  Co  Co124  1  0.12483581  0.87777993  0.87484584  1
  Co  Co125  1  0.37530553  0.62754582  0.62821375  1
  Co  Co126  1  0.50305538  0.74629785  -0.00083542  1
  Co  Co127  1  0.00328152  0.24819828  0.49811660  1
