# generated using pymatgen
data_Fe45Co19
_symmetry_space_group_name_H-M   'P 1'
_cell_length_a   11.41366949
_cell_length_b   11.41371396
_cell_length_c   11.41503807
_cell_angle_alpha   89.99759755
_cell_angle_beta   90.00295802
_cell_angle_gamma   90.00154670
_symmetry_Int_Tables_number   1
_chemical_formula_structural   Fe45Co19
_chemical_formula_sum   'Fe90 Co38'
_cell_volume   1487.06393064
_cell_formula_units_Z   2
loop_
 _symmetry_equiv_pos_site_id
 _symmetry_equiv_pos_as_xyz
  1  'x, y, z'
loop_
 _atom_site_type_symbol
 _atom_site_label
 _atom_site_symmetry_multiplicity
 _atom_site_fract_x
 _atom_site_fract_y
 _atom_site_fract_z
 _atom_site_occupancy
  Fe  Fe0  1  0.49920986  0.49962238  0.24968638  1
  Fe  Fe1  1  0.87476619  0.12384894  0.62210316  1
  Fe  Fe2  1  0.12813361  0.37343023  0.62350624  1
  Fe  Fe3  1  0.37398155  0.87664747  0.12632585  1
  Fe  Fe4  1  -0.00136324  0.00099487  0.74973693  1
  Fe  Fe5  1  -0.00012464  0.24947697  0.00228762  1
  Fe  Fe6  1  0.62618520  0.37341744  0.87330378  1
  Fe  Fe7  1  0.74974689  0.25163544  0.49812565  1
  Fe  Fe8  1  -0.00089846  0.75382016  0.50125361  1
  Fe  Fe9  1  0.24977828  0.75178554  0.00042024  1
  Fe  Fe10  1  0.62384938  0.62875668  0.37544393  1
  Fe  Fe11  1  0.87599996  0.62775013  0.62341504  1
  Fe  Fe12  1  0.37456086  0.87623161  0.87131336  1
  Fe  Fe13  1  0.49818935  -0.00235802  0.50308049  1
  Fe  Fe14  1  0.24920937  0.74984856  0.24992373  1
  Fe  Fe15  1  0.75302729  0.75230670  0.74988656  1
  Fe  Fe16  1  0.37380876  0.12443658  0.12472055  1
  Fe  Fe17  1  0.12617165  0.87919186  0.37496892  1
  Fe  Fe18  1  0.49997913  0.49922879  0.74889240  1
  Fe  Fe19  1  0.00111779  0.24723655  0.74844669  1
  Fe  Fe20  1  0.12610341  0.37645000  0.12686463  1
  Fe  Fe21  1  0.37578274  0.62514377  0.87488850  1
  Fe  Fe22  1  0.37754534  0.37268762  0.37473523  1
  Fe  Fe23  1  0.87697349  0.37468543  0.13011567  1
  Fe  Fe24  1  0.62469753  0.87253596  0.37198752  1
  Fe  Fe25  1  -0.00223675  -0.00068381  0.00184076  1
  Fe  Fe26  1  0.37637692  0.12422629  0.37615536  1
  Fe  Fe27  1  0.37466808  0.12412939  0.87419867  1
  Fe  Fe28  1  0.87324539  0.87315329  0.37155057  1
  Fe  Fe29  1  0.24784181  0.50124418  0.25225342  1
  Fe  Fe30  1  0.87621324  0.62642831  0.87440273  1
  Fe  Fe31  1  0.24993695  0.75261804  0.50102349  1
  Fe  Fe32  1  0.12270717  0.62626818  0.87564883  1
  Fe  Fe33  1  0.62578089  0.62612754  0.87609805  1
  Fe  Fe34  1  0.37210634  0.37275561  0.62353120  1
  Fe  Fe35  1  -0.00233553  0.75241818  0.00052178  1
  Fe  Fe36  1  0.87595446  0.62586613  0.12629204  1
  Fe  Fe37  1  0.12351840  0.62412061  0.37893630  1
  Fe  Fe38  1  0.49888608  0.25182931  0.00293875  1
  Fe  Fe39  1  0.87300533  0.37304200  0.62582055  1
  Fe  Fe40  1  0.75268295  0.25236753  0.00086220  1
  Fe  Fe41  1  0.24897323  0.24880696  -0.00163408  1
  Fe  Fe42  1  0.62684266  0.62585400  0.62377253  1
  Fe  Fe43  1  0.62181092  0.12620097  0.37566990  1
  Fe  Fe44  1  0.62542753  0.37385478  0.12888463  1
  Fe  Fe45  1  0.62661799  0.12552653  0.87743189  1
  Fe  Fe46  1  0.75144181  -0.00379279  0.00530029  1
  Fe  Fe47  1  0.50156785  0.49880875  0.49953374  1
  Fe  Fe48  1  0.12355011  0.87867794  0.62349080  1
  Fe  Fe49  1  0.75332957  0.50164464  0.25481832  1
  Fe  Fe50  1  0.50212637  0.00083134  0.24730491  1
  Fe  Fe51  1  0.37290168  0.12535078  0.62458604  1
  Fe  Fe52  1  0.24828909  0.50198386  0.74906312  1
  Fe  Fe53  1  0.74907937  0.24724504  0.25100052  1
  Fe  Fe54  1  -0.00044002  0.49927177  0.00141708  1
  Fe  Fe55  1  -0.00097642  0.00314291  0.25048458  1
  Fe  Fe56  1  0.50082325  -0.00107037  0.00106463  1
  Fe  Fe57  1  0.12355023  0.37408413  0.87428120  1
  Fe  Fe58  1  0.50007669  0.49779128  0.00137409  1
  Fe  Fe59  1  0.24848244  0.24683981  0.25286881  1
  Fe  Fe60  1  0.75153407  0.49910856  0.75184687  1
  Fe  Fe61  1  0.37540559  0.62656082  0.37698065  1
  Fe  Fe62  1  0.12065829  0.37268528  0.37418974  1
  Fe  Fe63  1  0.50118260  0.24862254  0.74898384  1
  Fe  Fe64  1  0.62643463  0.87576418  0.62380148  1
  Fe  Fe65  1  0.50043209  0.75112077  0.74750947  1
  Fe  Fe66  1  0.00068679  0.50061362  0.74791860  1
  Fe  Fe67  1  0.37353775  0.62483209  0.62204333  1
  Fe  Fe68  1  0.75221127  -0.00196881  0.49608661  1
  Fe  Fe69  1  0.62640338  0.87509038  0.87566814  1
  Fe  Fe70  1  0.75064726  0.00058118  0.75030233  1
  Fe  Fe71  1  0.12375129  0.87674358  0.87528470  1
  Fe  Fe72  1  -0.00250740  0.49717014  0.49900185  1
  Fe  Fe73  1  0.37292778  0.62386955  0.12501255  1
  Fe  Fe74  1  0.12727501  0.12173079  0.12424263  1
  Fe  Fe75  1  0.62594660  0.62716281  0.12524029  1
  Fe  Fe76  1  0.24882656  0.50082709  -0.00018541  1
  Fe  Fe77  1  0.37583233  0.87524576  0.37469670  1
  Fe  Fe78  1  0.50063931  0.75164522  0.00176774  1
  Fe  Fe79  1  0.00207660  0.74781234  0.24973845  1
  Fe  Fe80  1  0.24633046  0.74820968  0.74752475  1
  Fe  Fe81  1  0.75218592  0.49879015  0.49554137  1
  Fe  Fe82  1  0.37329092  0.37498992  0.87410764  1
  Fe  Fe83  1  0.62666825  0.37394852  0.62475155  1
  Fe  Fe84  1  0.87900256  0.12866310  0.37518273  1
  Fe  Fe85  1  0.87453919  0.12558199  0.87679849  1
  Fe  Fe86  1  0.24734995  0.00334809  0.75021287  1
  Fe  Fe87  1  0.12570084  0.87701546  0.12597729  1
  Fe  Fe88  1  0.62612947  0.12474544  0.62337538  1
  Fe  Fe89  1  0.75192639  0.49855027  -0.00114713  1
  Co  Co90  1  0.24871470  0.24827174  0.49601406  1
  Co  Co91  1  0.87364988  0.12507108  0.12509566  1
  Co  Co92  1  0.87805840  0.37367849  0.87329794  1
  Co  Co93  1  0.12555941  0.62552061  0.12366260  1
  Co  Co94  1  0.12250781  0.12362376  0.87756978  1
  Co  Co95  1  0.49882317  0.24834477  0.24754337  1
  Co  Co96  1  0.25198048  0.00022365  0.49960058  1
  Co  Co97  1  0.00030521  0.50315773  0.25110094  1
  Co  Co98  1  0.62356119  0.37311141  0.37298457  1
  Co  Co99  1  0.00387304  0.24587251  0.24634799  1
  Co  Co100  1  0.74976959  0.00389615  0.25166489  1
  Co  Co101  1  0.75116777  0.74720781  0.24937068  1
  Co  Co102  1  0.62580919  0.12581374  0.12332710  1
  Co  Co103  1  0.87491391  0.87681512  0.87437710  1
  Co  Co104  1  0.75109431  0.24792494  0.74989172  1
  Co  Co105  1  0.00095357  0.25139448  0.50308780  1
  Co  Co106  1  0.24970238  0.49752586  0.49736006  1
  Co  Co107  1  0.49956036  0.75214646  0.50258698  1
  Co  Co108  1  0.87534446  0.87497570  0.13100621  1
  Co  Co109  1  -0.00363367  -0.00168788  0.49721090  1
  Co  Co110  1  0.75264335  0.75164430  0.00135643  1
  Co  Co111  1  0.00058226  0.75174913  0.74895497  1
  Co  Co112  1  0.49743580  0.74937798  0.24832212  1
  Co  Co113  1  0.50222985  0.00154522  0.74935159  1
  Co  Co114  1  0.62690160  0.87341186  0.12927356  1
  Co  Co115  1  0.25004332  0.00132305  0.25160570  1
  Co  Co116  1  0.24676701  0.24731838  0.75088231  1
  Co  Co117  1  0.12408527  0.12204151  0.61937291  1
  Co  Co118  1  0.87499070  0.87643128  0.62454835  1
  Co  Co119  1  0.50026207  0.25017681  0.50209400  1
  Co  Co120  1  0.75033740  0.75148478  0.49963216  1
  Co  Co121  1  0.25090033  -0.00094671  -0.00147107  1
  Co  Co122  1  0.12309583  0.62430740  0.61997687  1
  Co  Co123  1  0.37259375  0.87627995  0.62812917  1
  Co  Co124  1  0.12228226  0.12249582  0.37872167  1
  Co  Co125  1  0.87808556  0.62835373  0.37741829  1
  Co  Co126  1  0.37134857  0.37534230  0.12669659  1
  Co  Co127  1  0.87841679  0.36993975  0.37135756  1
