# generated using pymatgen
data_Fe45Co19
_symmetry_space_group_name_H-M   'P 1'
_cell_length_a   11.41541699
_cell_length_b   11.41575872
_cell_length_c   11.41588225
_cell_angle_alpha   89.99787003
_cell_angle_beta   89.99847236
_cell_angle_gamma   89.99682444
_symmetry_Int_Tables_number   1
_chemical_formula_structural   Fe45Co19
_chemical_formula_sum   'Fe90 Co38'
_cell_volume   1487.66806578
_cell_formula_units_Z   2
loop_
 _symmetry_equiv_pos_site_id
 _symmetry_equiv_pos_as_xyz
  1  'x, y, z'
loop_
 _atom_site_type_symbol
 _atom_site_label
 _atom_site_symmetry_multiplicity
 _atom_site_fract_x
 _atom_site_fract_y
 _atom_site_fract_z
 _atom_site_occupancy
  Fe  Fe0  1  0.00342885  -0.00004649  0.75164010  1
  Fe  Fe1  1  0.37474820  0.62421133  0.62537656  1
  Fe  Fe2  1  0.49490460  0.25043394  0.75335560  1
  Fe  Fe3  1  0.62317041  0.12723262  0.87463164  1
  Fe  Fe4  1  0.87520887  0.12316497  0.87537961  1
  Fe  Fe5  1  0.37328950  0.87738009  0.62143274  1
  Fe  Fe6  1  0.12557750  0.37288776  0.87081506  1
  Fe  Fe7  1  0.37490856  0.87712813  0.87643995  1
  Fe  Fe8  1  0.75026747  0.50391339  0.75345047  1
  Fe  Fe9  1  0.62595952  0.87554988  0.37589809  1
  Fe  Fe10  1  0.12621774  0.12513236  0.12443801  1
  Fe  Fe11  1  0.87616378  0.37577628  0.87415550  1
  Fe  Fe12  1  0.37415685  0.62305991  0.12369420  1
  Fe  Fe13  1  0.00472155  0.00051827  0.49704895  1
  Fe  Fe14  1  0.87693445  0.87629624  0.87501203  1
  Fe  Fe15  1  0.49972353  0.24993969  0.24870669  1
  Fe  Fe16  1  0.24617475  0.50000883  0.74852495  1
  Fe  Fe17  1  0.00032298  0.74737993  0.50165862  1
  Fe  Fe18  1  0.37219206  0.87602859  0.12676971  1
  Fe  Fe19  1  0.50063794  -0.00156094  0.00074325  1
  Fe  Fe20  1  -0.00173998  0.49811101  0.24827856  1
  Fe  Fe21  1  0.37369077  0.37732391  0.62469781  1
  Fe  Fe22  1  0.50263856  0.49662700  -0.00171062  1
  Fe  Fe23  1  0.37569857  0.62367402  0.37489440  1
  Fe  Fe24  1  0.62547986  0.12635015  0.12368705  1
  Fe  Fe25  1  0.75166702  -0.00081416  0.25129036  1
  Fe  Fe26  1  0.50223514  0.50002809  0.50012899  1
  Fe  Fe27  1  0.75063218  0.50185507  -0.00172675  1
  Fe  Fe28  1  0.25040159  0.25117383  0.24906123  1
  Fe  Fe29  1  0.37536852  0.12125527  0.62419868  1
  Fe  Fe30  1  0.24762226  0.74658404  0.49725820  1
  Fe  Fe31  1  0.62898232  0.87167727  0.12397641  1
  Fe  Fe32  1  0.25200639  0.75249273  0.75093823  1
  Fe  Fe33  1  -0.00456767  0.75303954  0.24963124  1
  Fe  Fe34  1  0.87581737  0.12253954  0.12310043  1
  Fe  Fe35  1  0.74872170  0.00216668  0.74825030  1
  Fe  Fe36  1  0.87501374  0.87804787  0.62292630  1
  Fe  Fe37  1  0.50193102  0.50126613  0.75200624  1
  Fe  Fe38  1  0.74947524  0.49860044  0.50126987  1
  Fe  Fe39  1  0.87752242  0.37594321  0.62731576  1
  Fe  Fe40  1  0.62608240  0.62527625  0.37416676  1
  Fe  Fe41  1  0.12520901  0.37313301  0.12486761  1
  Fe  Fe42  1  0.12035148  0.62994387  0.87114951  1
  Fe  Fe43  1  0.49937309  0.74992838  0.24882990  1
  Fe  Fe44  1  0.75112318  0.25068105  0.00108191  1
  Fe  Fe45  1  0.50184225  0.49976621  0.24830397  1
  Fe  Fe46  1  0.62466753  0.87471265  0.62499884  1
  Fe  Fe47  1  0.75317731  0.74802079  0.75271655  1
  Fe  Fe48  1  0.13179078  0.12513645  0.87433150  1
  Fe  Fe49  1  0.75116040  0.74990623  0.49914657  1
  Fe  Fe50  1  -0.00237392  0.75237859  0.00234364  1
  Fe  Fe51  1  0.62838491  0.12670517  0.37787091  1
  Fe  Fe52  1  0.12515991  0.12747935  0.62796469  1
  Fe  Fe53  1  0.62787026  0.62916193  0.12170946  1
  Fe  Fe54  1  0.12609702  0.87368717  0.62494645  1
  Fe  Fe55  1  0.00045923  0.50006030  0.00062626  1
  Fe  Fe56  1  0.75321627  0.24585811  0.74671133  1
  Fe  Fe57  1  0.12384559  0.62801578  0.12800524  1
  Fe  Fe58  1  0.62785327  0.37190050  0.37396465  1
  Fe  Fe59  1  0.49978159  0.74986559  0.50032545  1
  Fe  Fe60  1  0.24923296  0.24910260  0.50079446  1
  Fe  Fe61  1  0.00007642  -0.00192431  0.25183990  1
  Fe  Fe62  1  0.62550691  0.62672524  0.62633526  1
  Fe  Fe63  1  0.24641131  0.49989832  -0.00100079  1
  Fe  Fe64  1  0.50046150  0.25010164  0.49977864  1
  Fe  Fe65  1  0.24605858  -0.00015284  0.25201974  1
  Fe  Fe66  1  -0.00316673  0.25027107  0.24901908  1
  Fe  Fe67  1  0.50126281  0.00070125  0.25041315  1
  Fe  Fe68  1  0.24526959  0.50194028  0.50043660  1
  Fe  Fe69  1  0.37465325  0.37631494  0.37483981  1
  Fe  Fe70  1  0.62467264  0.37326184  0.62821540  1
  Fe  Fe71  1  0.12402307  0.37450549  0.37588294  1
  Fe  Fe72  1  0.87352947  0.37379350  0.37589687  1
  Fe  Fe73  1  0.00442288  -0.00187097  -0.00005559  1
  Fe  Fe74  1  0.37701417  0.62513311  0.87508795  1
  Fe  Fe75  1  0.75117682  0.49886403  0.24669577  1
  Fe  Fe76  1  0.24855705  0.50040520  0.25093587  1
  Fe  Fe77  1  0.24943864  0.75147348  0.00053609  1
  Fe  Fe78  1  0.62348011  0.87051664  0.87553689  1
  Fe  Fe79  1  0.37256265  0.87654551  0.37640077  1
  Fe  Fe80  1  0.49955777  -0.00076495  0.75067679  1
  Fe  Fe81  1  0.00141875  0.24904515  -0.00203933  1
  Fe  Fe82  1  0.87535800  0.62462862  0.37509838  1
  Fe  Fe83  1  0.37363613  0.12305895  0.37627073  1
  Fe  Fe84  1  0.49603707  0.25405788  -0.00204171  1
  Fe  Fe85  1  0.74826349  -0.00125439  -0.00181050  1
  Fe  Fe86  1  -0.00064251  0.24962829  0.50113096  1
  Fe  Fe87  1  0.87287898  0.12474080  0.37831295  1
  Fe  Fe88  1  0.37271272  0.12419937  0.12174027  1
  Fe  Fe89  1  0.00336677  0.50237206  0.50410018  1
  Co  Co90  1  0.25208201  0.25332886  -0.00067051  1
  Co  Co91  1  0.88046819  0.12027047  0.62390967  1
  Co  Co92  1  0.49710820  0.75112392  0.74796541  1
  Co  Co93  1  0.88182804  0.62394685  0.87415312  1
  Co  Co94  1  0.12413026  0.12830591  0.37292231  1
  Co  Co95  1  0.37268805  0.12048322  0.87859953  1
  Co  Co96  1  0.49596255  0.75239848  0.00235261  1
  Co  Co97  1  0.62856307  0.37218680  0.87269039  1
  Co  Co98  1  0.12524835  0.87361271  0.12811717  1
  Co  Co99  1  0.12580291  0.87110467  0.37439257  1
  Co  Co100  1  0.24947128  -0.00218589  0.74967124  1
  Co  Co101  1  0.12565296  0.62904412  0.62959285  1
  Co  Co102  1  0.00221942  0.50022561  0.74707653  1
  Co  Co103  1  -0.00156944  0.24756193  0.75302126  1
  Co  Co104  1  0.24468520  0.00270427  0.49885153  1
  Co  Co105  1  -0.00420572  0.75201101  0.74617052  1
  Co  Co106  1  0.62010935  0.12540357  0.62604540  1
  Co  Co107  1  0.24694630  -0.00431298  0.00070362  1
  Co  Co108  1  0.37179686  0.38019109  0.87389506  1
  Co  Co109  1  0.12166768  0.62564570  0.37094465  1
  Co  Co110  1  0.87569220  0.37421747  0.12145911  1
  Co  Co111  1  0.12346554  0.87160444  0.87413778  1
  Co  Co112  1  0.74760950  0.00191609  0.50317719  1
  Co  Co113  1  0.62571288  0.37335587  0.12475385  1
  Co  Co114  1  0.25255504  0.74857507  0.25078488  1
  Co  Co115  1  0.87301729  0.62388595  0.62503569  1
  Co  Co116  1  0.75140932  0.24938837  0.50636443  1
  Co  Co117  1  0.87289099  0.87796610  0.12318052  1
  Co  Co118  1  0.12433726  0.37031275  0.62650505  1
  Co  Co119  1  0.87555263  0.87618375  0.37970478  1
  Co  Co120  1  0.37427224  0.37764491  0.12568574  1
  Co  Co121  1  0.87439308  0.62558337  0.12535690  1
  Co  Co122  1  0.50146530  -0.00041268  0.49840474  1
  Co  Co123  1  0.75264011  0.75143228  0.25206785  1
  Co  Co124  1  0.62110002  0.62966603  0.87709645  1
  Co  Co125  1  0.25503073  0.24893114  0.74956130  1
  Co  Co126  1  0.75555878  0.74880086  -0.00454324  1
  Co  Co127  1  0.75303262  0.24858627  0.24710890  1
