# generated using pymatgen
data_Fe45Co19
_symmetry_space_group_name_H-M   'P 1'
_cell_length_a   11.42294402
_cell_length_b   11.42327403
_cell_length_c   11.42336430
_cell_angle_alpha   89.99439844
_cell_angle_beta   89.99826804
_cell_angle_gamma   89.99634319
_symmetry_Int_Tables_number   1
_chemical_formula_structural   Fe45Co19
_chemical_formula_sum   'Fe90 Co38'
_cell_volume   1490.60532178
_cell_formula_units_Z   2
loop_
 _symmetry_equiv_pos_site_id
 _symmetry_equiv_pos_as_xyz
  1  'x, y, z'
loop_
 _atom_site_type_symbol
 _atom_site_label
 _atom_site_symmetry_multiplicity
 _atom_site_fract_x
 _atom_site_fract_y
 _atom_site_fract_z
 _atom_site_occupancy
  Fe  Fe0  1  0.12434658  0.37669515  0.12436788  1
  Fe  Fe1  1  0.00287877  0.74758529  0.24794861  1
  Fe  Fe2  1  0.37262219  0.62548736  0.37573033  1
  Fe  Fe3  1  0.62468995  0.62510669  0.37416735  1
  Fe  Fe4  1  0.37585243  0.37599936  0.12517931  1
  Fe  Fe5  1  0.37284048  0.62646346  0.62456564  1
  Fe  Fe6  1  0.75023593  0.25138637  0.50116854  1
  Fe  Fe7  1  0.87423538  0.62456051  0.87548854  1
  Fe  Fe8  1  0.49959765  0.00176899  0.24815886  1
  Fe  Fe9  1  0.37453654  0.87321353  0.62390586  1
  Fe  Fe10  1  0.75005749  0.74859914  0.24708837  1
  Fe  Fe11  1  0.87466451  0.62152415  0.12381320  1
  Fe  Fe12  1  0.50160774  0.25062387  0.00071524  1
  Fe  Fe13  1  0.24749501  0.74881380  0.24775787  1
  Fe  Fe14  1  0.87596872  0.87328126  0.37320678  1
  Fe  Fe15  1  -0.00042727  0.00064927  0.50081925  1
  Fe  Fe16  1  0.62584438  0.87198541  0.87700942  1
  Fe  Fe17  1  0.25030907  0.25081191  0.24977309  1
  Fe  Fe18  1  -0.00019549  0.00046221  0.24826497  1
  Fe  Fe19  1  0.12843358  0.62094579  0.87651077  1
  Fe  Fe20  1  0.87714187  0.62465598  0.37512715  1
  Fe  Fe21  1  -0.00310355  0.25338393  0.24806153  1
  Fe  Fe22  1  0.37624250  0.12766861  0.37615838  1
  Fe  Fe23  1  0.37294535  0.37282033  0.62491006  1
  Fe  Fe24  1  0.00105588  0.49948423  0.50155956  1
  Fe  Fe25  1  0.75019888  0.50004326  0.49911664  1
  Fe  Fe26  1  0.62677791  0.62244726  0.12309647  1
  Fe  Fe27  1  0.24901538  0.25270330  -0.00110268  1
  Fe  Fe28  1  0.62497188  0.87443414  0.37341464  1
  Fe  Fe29  1  0.62443259  0.12785914  0.37333477  1
  Fe  Fe30  1  -0.00197017  0.24911635  0.75433161  1
  Fe  Fe31  1  0.00421744  0.74874827  0.75115018  1
  Fe  Fe32  1  0.62939472  0.12508020  0.87534577  1
  Fe  Fe33  1  0.62370108  0.87301607  0.62484845  1
  Fe  Fe34  1  0.87684820  0.12612134  0.12141389  1
  Fe  Fe35  1  0.62400077  0.62712764  0.87609618  1
  Fe  Fe36  1  0.75369909  0.25578837  -0.00118703  1
  Fe  Fe37  1  0.24744460  0.25229848  0.75283565  1
  Fe  Fe38  1  0.87633746  0.37505844  0.62710576  1
  Fe  Fe39  1  0.87674231  0.87457366  0.62759128  1
  Fe  Fe40  1  0.75174449  0.00089066  0.24874692  1
  Fe  Fe41  1  0.75455948  -0.00566899  0.00031478  1
  Fe  Fe42  1  0.87567180  0.12629201  0.37547238  1
  Fe  Fe43  1  0.50011026  -0.00140632  0.75232929  1
  Fe  Fe44  1  0.49535853  0.50217867  0.75235008  1
  Fe  Fe45  1  0.49844428  0.50069594  -0.00215174  1
  Fe  Fe46  1  0.62674377  0.12522551  0.62734567  1
  Fe  Fe47  1  0.00295046  0.75029874  0.50230295  1
  Fe  Fe48  1  0.49916951  -0.00000971  -0.00125792  1
  Fe  Fe49  1  0.74928665  0.74871262  0.74960482  1
  Fe  Fe50  1  0.12491544  0.87803026  0.12142063  1
  Fe  Fe51  1  0.62383421  0.37531850  0.87298278  1
  Fe  Fe52  1  0.50031428  0.74872243  0.24726375  1
  Fe  Fe53  1  0.37328558  0.87067535  0.87779537  1
  Fe  Fe54  1  -0.00188030  0.00137228  0.75373942  1
  Fe  Fe55  1  0.37254160  0.62342894  0.12277751  1
  Fe  Fe56  1  0.37438644  0.12709256  0.62564022  1
  Fe  Fe57  1  0.62713579  0.37687768  0.12779262  1
  Fe  Fe58  1  0.62786176  0.12529325  0.12301350  1
  Fe  Fe59  1  0.00026540  0.25005277  0.50048331  1
  Fe  Fe60  1  0.49954343  0.50030681  0.49899476  1
  Fe  Fe61  1  0.12326354  0.12516360  0.12176376  1
  Fe  Fe62  1  0.75037970  0.74875616  0.50079690  1
  Fe  Fe63  1  -0.00171581  0.49640776  -0.00098396  1
  Fe  Fe64  1  0.12523998  0.37620033  0.37532094  1
  Fe  Fe65  1  0.24649514  0.74971518  0.74958074  1
  Fe  Fe66  1  0.37420735  0.87477424  0.12278478  1
  Fe  Fe67  1  0.25049725  -0.00007498  0.75284302  1
  Fe  Fe68  1  0.37391141  0.12600824  0.12267457  1
  Fe  Fe69  1  0.74992268  0.50078597  0.75179847  1
  Fe  Fe70  1  0.87614313  0.62461783  0.62611834  1
  Fe  Fe71  1  0.50060773  0.00092760  0.50089675  1
  Fe  Fe72  1  0.37557202  0.12821353  0.87538500  1
  Fe  Fe73  1  0.12455231  0.12568689  0.62632487  1
  Fe  Fe74  1  0.37483733  0.87332317  0.37563609  1
  Fe  Fe75  1  -0.00018993  0.75139969  -0.00112132  1
  Fe  Fe76  1  0.24870279  0.00126286  0.50046041  1
  Fe  Fe77  1  0.12545245  0.62006003  0.12284967  1
  Fe  Fe78  1  0.62337930  0.62465989  0.62572911  1
  Fe  Fe79  1  0.12484395  0.87569365  0.37477754  1
  Fe  Fe80  1  0.12393301  0.12586657  0.37316479  1
  Fe  Fe81  1  0.25038927  0.00113995  0.24911685  1
  Fe  Fe82  1  0.37611266  0.37412336  0.37477080  1
  Fe  Fe83  1  0.62449917  0.37722709  0.62699400  1
  Fe  Fe84  1  0.50172625  0.24948510  0.74973438  1
  Fe  Fe85  1  0.75122176  0.00020977  0.50105747  1
  Fe  Fe86  1  0.12355445  0.12437789  0.87986355  1
  Fe  Fe87  1  0.62452256  0.37318575  0.37094491  1
  Fe  Fe88  1  0.00283149  0.50015894  0.74910731  1
  Fe  Fe89  1  0.12601356  0.62307315  0.37633456  1
  Co  Co90  1  0.49908684  0.24858369  0.24659974  1
  Co  Co91  1  0.37683043  0.37226104  0.87476000  1
  Co  Co92  1  0.24814590  0.24931160  0.49845245  1
  Co  Co93  1  0.87782890  0.87260624  0.12863438  1
  Co  Co94  1  0.25006236  0.49838334  0.50132243  1
  Co  Co95  1  0.87511646  0.37591186  0.37625461  1
  Co  Co96  1  0.50020239  0.74799437  0.00257021  1
  Co  Co97  1  -0.00246485  0.25414448  -0.00108339  1
  Co  Co98  1  0.12361298  0.37723465  0.87550201  1
  Co  Co99  1  0.12379345  0.87868433  0.62680079  1
  Co  Co100  1  0.25304356  0.49583133  -0.00265746  1
  Co  Co101  1  0.50071734  0.74827582  0.49930941  1
  Co  Co102  1  0.12619574  0.87656577  0.87700611  1
  Co  Co103  1  0.75410576  0.24931692  0.24860201  1
  Co  Co104  1  0.00039007  0.49932545  0.25093172  1
  Co  Co105  1  0.87480136  0.12581106  0.62657011  1
  Co  Co106  1  0.49903890  0.50183265  0.24969457  1
  Co  Co107  1  0.24560573  0.74874129  0.00168432  1
  Co  Co108  1  -0.00402161  -0.00326697  -0.00236613  1
  Co  Co109  1  0.50243756  0.25092954  0.50223851  1
  Co  Co110  1  0.87587103  0.37816297  0.87167052  1
  Co  Co111  1  0.25150708  0.49794175  0.75041813  1
  Co  Co112  1  0.12407278  0.37259237  0.62619247  1
  Co  Co113  1  0.74910723  -0.00231322  0.74954062  1
  Co  Co114  1  0.25005863  0.49951167  0.25021728  1
  Co  Co115  1  0.87096525  0.12509590  0.87702962  1
  Co  Co116  1  0.75260465  0.75074614  0.00197481  1
  Co  Co117  1  0.87494552  0.87173131  0.87082377  1
  Co  Co118  1  0.74829082  0.49862359  -0.00369321  1
  Co  Co119  1  0.37122380  0.62816457  0.87610185  1
  Co  Co120  1  0.12705082  0.62257258  0.62500524  1
  Co  Co121  1  0.75174785  0.50135676  0.25261436  1
  Co  Co122  1  0.62413256  0.87679202  0.12459659  1
  Co  Co123  1  0.24623448  0.75116514  0.50098908  1
  Co  Co124  1  0.87270673  0.38017772  0.12610338  1
  Co  Co125  1  0.25214171  0.00179328  -0.00173893  1
  Co  Co126  1  0.75077164  0.25237830  0.75009269  1
  Co  Co127  1  0.49920096  0.74982696  0.75070176  1
