# generated using pymatgen
data_Fe45Co19
_symmetry_space_group_name_H-M   'P 1'
_cell_length_a   11.41620151
_cell_length_b   11.41733827
_cell_length_c   11.41532465
_cell_angle_alpha   89.99557537
_cell_angle_beta   90.00719126
_cell_angle_gamma   89.99952796
_symmetry_Int_Tables_number   1
_chemical_formula_structural   Fe45Co19
_chemical_formula_sum   'Fe90 Co38'
_cell_volume   1487.90347146
_cell_formula_units_Z   2
loop_
 _symmetry_equiv_pos_site_id
 _symmetry_equiv_pos_as_xyz
  1  'x, y, z'
loop_
 _atom_site_type_symbol
 _atom_site_label
 _atom_site_symmetry_multiplicity
 _atom_site_fract_x
 _atom_site_fract_y
 _atom_site_fract_z
 _atom_site_occupancy
  Fe  Fe0  1  -0.00001213  0.24993171  -0.00170256  1
  Fe  Fe1  1  0.62061498  0.87497480  0.62535613  1
  Fe  Fe2  1  0.49853945  0.74963686  0.25115410  1
  Fe  Fe3  1  0.75272446  0.74798931  0.00283652  1
  Fe  Fe4  1  -0.00010110  -0.00181747  0.25413891  1
  Fe  Fe5  1  0.87659409  0.87363654  0.12682547  1
  Fe  Fe6  1  0.49870490  0.50032335  -0.00118997  1
  Fe  Fe7  1  0.12613358  0.37519124  0.37645933  1
  Fe  Fe8  1  0.62440850  0.12553321  0.62503628  1
  Fe  Fe9  1  0.37542488  0.87717384  0.12527938  1
  Fe  Fe10  1  0.62685171  0.87494505  0.87602736  1
  Fe  Fe11  1  0.37523490  0.37505584  0.12394261  1
  Fe  Fe12  1  0.87057701  0.62928852  0.37713857  1
  Fe  Fe13  1  0.37604023  0.12329611  0.12268239  1
  Fe  Fe14  1  0.50009546  0.24894565  0.24973759  1
  Fe  Fe15  1  0.24774055  -0.00059601  0.74854866  1
  Fe  Fe16  1  0.50087379  0.24953197  0.75097208  1
  Fe  Fe17  1  0.12565792  0.62489781  0.12384519  1
  Fe  Fe18  1  0.62632620  0.37364107  0.37463133  1
  Fe  Fe19  1  -0.00233139  0.25129153  0.50101492  1
  Fe  Fe20  1  0.12712549  0.87156896  0.87577639  1
  Fe  Fe21  1  0.75139394  0.50099747  0.25153614  1
  Fe  Fe22  1  0.62747898  0.12274791  0.87633601  1
  Fe  Fe23  1  0.75177541  0.25229166  0.50187310  1
  Fe  Fe24  1  0.25020367  0.25077854  0.24910990  1
  Fe  Fe25  1  0.75075557  -0.00318251  0.50190570  1
  Fe  Fe26  1  0.87442370  0.12087070  0.87091947  1
  Fe  Fe27  1  0.49776667  0.75082325  -0.00037001  1
  Fe  Fe28  1  0.62469130  0.62458579  0.12498110  1
  Fe  Fe29  1  0.00061870  0.25050926  0.25136053  1
  Fe  Fe30  1  0.62578030  0.37456710  0.87462362  1
  Fe  Fe31  1  0.25126092  0.50109289  0.25206238  1
  Fe  Fe32  1  0.62629769  0.12538703  0.37504093  1
  Fe  Fe33  1  0.12586232  0.12686189  0.87332873  1
  Fe  Fe34  1  0.00103067  0.75004899  0.25342511  1
  Fe  Fe35  1  0.62577916  0.87415214  0.37432674  1
  Fe  Fe36  1  0.25163534  0.25065123  0.50055228  1
  Fe  Fe37  1  0.50028716  -0.00012016  0.75327455  1
  Fe  Fe38  1  0.37596789  0.62492894  0.62527458  1
  Fe  Fe39  1  0.62504980  0.62716004  0.87543752  1
  Fe  Fe40  1  -0.00039822  -0.00175494  0.49708316  1
  Fe  Fe41  1  0.24839068  0.50064682  0.74941583  1
  Fe  Fe42  1  -0.00186540  0.50030706  0.49881038  1
  Fe  Fe43  1  0.12509763  0.12300798  0.12492678  1
  Fe  Fe44  1  0.49787628  0.00076749  0.49594179  1
  Fe  Fe45  1  0.62347908  0.12284990  0.12233642  1
  Fe  Fe46  1  -0.00094708  0.50395199  -0.00346158  1
  Fe  Fe47  1  0.62625209  0.37635101  0.12408494  1
  Fe  Fe48  1  0.87230041  0.62314593  0.62562576  1
  Fe  Fe49  1  0.37175968  0.87336475  0.87420496  1
  Fe  Fe50  1  0.12608715  0.37431036  0.87399022  1
  Fe  Fe51  1  0.37525691  0.12388796  0.62447087  1
  Fe  Fe52  1  0.00009011  -0.00091801  -0.00149664  1
  Fe  Fe53  1  0.87635648  0.37612623  0.12700131  1
  Fe  Fe54  1  0.12635078  0.62530167  0.62172546  1
  Fe  Fe55  1  0.87788511  0.87501738  0.62627982  1
  Fe  Fe56  1  0.87406669  0.87464176  0.87267520  1
  Fe  Fe57  1  0.00268509  0.74678651  0.74954476  1
  Fe  Fe58  1  0.37451277  0.62408381  0.12502639  1
  Fe  Fe59  1  0.12454072  0.87385270  0.62036125  1
  Fe  Fe60  1  0.62346467  0.87592241  0.12377048  1
  Fe  Fe61  1  0.75145732  0.24953638  -0.00061574  1
  Fe  Fe62  1  0.50109084  0.49919267  0.49891319  1
  Fe  Fe63  1  0.49801533  0.74931403  0.49946182  1
  Fe  Fe64  1  0.87609375  0.12265253  0.62852507  1
  Fe  Fe65  1  0.87335210  0.12556739  0.37418323  1
  Fe  Fe66  1  0.87627506  0.12561586  0.12578025  1
  Fe  Fe67  1  -0.00112387  0.74707391  -0.00096718  1
  Fe  Fe68  1  0.74959186  -0.00094403  0.24870287  1
  Fe  Fe69  1  0.37592287  0.87610061  0.62528294  1
  Fe  Fe70  1  0.37356892  0.37310428  0.87608304  1
  Fe  Fe71  1  0.49941542  0.50055764  0.25248732  1
  Fe  Fe72  1  0.62735869  0.62738565  0.37725123  1
  Fe  Fe73  1  0.49834856  0.25074635  0.49845074  1
  Fe  Fe74  1  0.37272932  0.12649887  0.87743942  1
  Fe  Fe75  1  0.12397631  0.12566545  0.62547191  1
  Fe  Fe76  1  0.37138515  0.62726582  0.87398460  1
  Fe  Fe77  1  -0.00128077  0.50228763  0.25419214  1
  Fe  Fe78  1  0.12684033  0.12505282  0.37659002  1
  Fe  Fe79  1  0.25162685  -0.00225393  0.25453776  1
  Fe  Fe80  1  0.50310792  0.50148822  0.74949206  1
  Fe  Fe81  1  0.87343217  0.37876439  0.62902934  1
  Fe  Fe82  1  0.12965212  0.62836205  0.37833343  1
  Fe  Fe83  1  0.12357431  0.37775448  0.12410075  1
  Fe  Fe84  1  0.37628415  0.37563919  0.62491797  1
  Fe  Fe85  1  0.12570890  0.87502379  0.12631484  1
  Fe  Fe86  1  0.74664446  0.74961647  0.74632914  1
  Fe  Fe87  1  0.87393589  0.37889667  0.87028233  1
  Fe  Fe88  1  0.75255859  0.50344108  -0.00020897  1
  Fe  Fe89  1  0.12411415  0.37467092  0.62543046  1
  Co  Co90  1  0.74868109  0.24944779  0.24783412  1
  Co  Co91  1  0.25068558  0.49914555  0.50077027  1
  Co  Co92  1  0.62360433  0.62585080  0.62159379  1
  Co  Co93  1  0.00443043  0.50343610  0.75013839  1
  Co  Co94  1  0.74727360  -0.00233815  0.74637458  1
  Co  Co95  1  0.50005145  0.00053174  0.25213615  1
  Co  Co96  1  0.25103334  0.75010613  0.00400732  1
  Co  Co97  1  0.25077714  0.49972470  -0.00043719  1
  Co  Co98  1  0.75266565  -0.00109383  0.00254077  1
  Co  Co99  1  0.74914864  0.49749937  0.49953529  1
  Co  Co100  1  0.50033847  0.74989782  0.75093819  1
  Co  Co101  1  0.37555457  0.87357165  0.37583437  1
  Co  Co102  1  0.37425212  0.37480320  0.37465271  1
  Co  Co103  1  0.74290510  0.50246643  0.74855166  1
  Co  Co104  1  0.50124650  0.25031372  0.00026580  1
  Co  Co105  1  0.25081276  0.25022871  0.74789856  1
  Co  Co106  1  0.74982335  0.24895483  0.74974227  1
  Co  Co107  1  0.24833310  0.75017049  0.74555276  1
  Co  Co108  1  0.87475187  0.37343893  0.37314005  1
  Co  Co109  1  0.25205147  0.75009052  0.24910998  1
  Co  Co110  1  0.87300659  0.87314722  0.37397117  1
  Co  Co111  1  0.74934983  0.75426419  0.50442881  1
  Co  Co112  1  0.37374957  0.12630067  0.37496501  1
  Co  Co113  1  -0.00197767  0.25089454  0.75003196  1
  Co  Co114  1  0.25029602  -0.00003748  0.49971526  1
  Co  Co115  1  -0.00217389  0.74894892  0.49935658  1
  Co  Co116  1  0.00449681  -0.00233520  0.75068030  1
  Co  Co117  1  0.12891834  0.62702264  0.87705700  1
  Co  Co118  1  0.24788022  0.25033024  0.00270396  1
  Co  Co119  1  0.24851376  -0.00028988  -0.00075242  1
  Co  Co120  1  0.87752841  0.62496150  0.12773018  1
  Co  Co121  1  0.74837603  0.75047445  0.24716365  1
  Co  Co122  1  0.62407978  0.37302078  0.62512491  1
  Co  Co123  1  0.37424080  0.62456393  0.37670634  1
  Co  Co124  1  0.12682234  0.87226114  0.37789567  1
  Co  Co125  1  0.87310694  0.62566653  0.86940848  1
  Co  Co126  1  0.49884576  -0.00202957  -0.00332497  1
  Co  Co127  1  0.25433884  0.75126889  0.50135567  1
