# generated using pymatgen
data_Fe45Co19
_symmetry_space_group_name_H-M   'P 1'
_cell_length_a   11.41498972
_cell_length_b   11.41542912
_cell_length_c   11.41470437
_cell_angle_alpha   89.99977411
_cell_angle_beta   90.01047002
_cell_angle_gamma   90.00325559
_symmetry_Int_Tables_number   1
_chemical_formula_structural   Fe45Co19
_chemical_formula_sum   'Fe90 Co38'
_cell_volume   1487.41592451
_cell_formula_units_Z   2
loop_
 _symmetry_equiv_pos_site_id
 _symmetry_equiv_pos_as_xyz
  1  'x, y, z'
loop_
 _atom_site_type_symbol
 _atom_site_label
 _atom_site_symmetry_multiplicity
 _atom_site_fract_x
 _atom_site_fract_y
 _atom_site_fract_z
 _atom_site_occupancy
  Fe  Fe0  1  0.37445144  0.37487195  0.12641184  1
  Fe  Fe1  1  0.62465815  0.37527811  0.37414167  1
  Fe  Fe2  1  0.24720995  0.75105172  0.49825831  1
  Fe  Fe3  1  0.24955306  0.00043481  0.00127384  1
  Fe  Fe4  1  0.62419379  0.37580756  0.12490196  1
  Fe  Fe5  1  0.75228255  0.50134720  0.25008082  1
  Fe  Fe6  1  0.87789951  0.37146325  0.37363325  1
  Fe  Fe7  1  0.12664506  0.62469632  0.12634649  1
  Fe  Fe8  1  0.49646415  -0.00166518  0.74702746  1
  Fe  Fe9  1  0.74812531  -0.00337282  0.49612687  1
  Fe  Fe10  1  0.00171020  0.50146836  -0.00082159  1
  Fe  Fe11  1  0.49888379  0.75037886  -0.00011972  1
  Fe  Fe12  1  0.62359132  0.87597361  0.62308102  1
  Fe  Fe13  1  0.12415221  0.37484755  0.87201970  1
  Fe  Fe14  1  0.87271976  0.87292068  0.12620033  1
  Fe  Fe15  1  0.75114180  0.50159816  0.00096337  1
  Fe  Fe16  1  0.62486528  0.37562604  0.62585832  1
  Fe  Fe17  1  0.24782497  0.25099933  0.50005006  1
  Fe  Fe18  1  0.00032161  0.00119495  0.49830242  1
  Fe  Fe19  1  0.75156292  0.49863069  0.49924527  1
  Fe  Fe20  1  0.50269986  0.24866477  -0.00181796  1
  Fe  Fe21  1  0.25021026  0.25076099  0.74878637  1
  Fe  Fe22  1  0.62483915  0.62491738  0.87461475  1
  Fe  Fe23  1  0.37427264  0.37439440  0.37487293  1
  Fe  Fe24  1  0.37715277  0.87629228  0.37572163  1
  Fe  Fe25  1  0.87462277  0.87615522  0.87619852  1
  Fe  Fe26  1  0.74577860  0.24933317  -0.00203140  1
  Fe  Fe27  1  0.24839028  0.24945440  0.24978118  1
  Fe  Fe28  1  0.12704691  0.87603550  0.12750510  1
  Fe  Fe29  1  0.62593361  0.87180519  0.13009458  1
  Fe  Fe30  1  0.87191518  0.12621653  0.12616349  1
  Fe  Fe31  1  0.12544611  0.37531115  0.12697746  1
  Fe  Fe32  1  0.75204464  0.25264391  0.50115371  1
  Fe  Fe33  1  0.25130537  0.00032033  0.49887979  1
  Fe  Fe34  1  0.37106361  0.87333705  0.87372529  1
  Fe  Fe35  1  0.49869602  0.50138493  -0.00027989  1
  Fe  Fe36  1  0.50063156  -0.00000105  0.00095594  1
  Fe  Fe37  1  0.74761052  -0.00011025  0.00140339  1
  Fe  Fe38  1  0.62294993  0.62702703  0.37387155  1
  Fe  Fe39  1  0.37401883  0.37714488  0.87506356  1
  Fe  Fe40  1  0.13098098  0.62445169  0.87464240  1
  Fe  Fe41  1  0.49688679  0.50060369  0.74924875  1
  Fe  Fe42  1  -0.00043477  0.49669862  0.50030562  1
  Fe  Fe43  1  0.62549838  0.87688960  0.87370915  1
  Fe  Fe44  1  0.49913974  0.75052018  0.50029473  1
  Fe  Fe45  1  -0.00034474  0.00308161  0.75232765  1
  Fe  Fe46  1  0.87694746  0.87516776  0.62423218  1
  Fe  Fe47  1  0.00027695  0.75098989  0.25171729  1
  Fe  Fe48  1  0.00208741  0.75051333  0.00020420  1
  Fe  Fe49  1  0.37485666  0.12452496  0.12654917  1
  Fe  Fe50  1  0.37088589  0.62424334  0.12233691  1
  Fe  Fe51  1  0.12558330  0.87691875  0.62554664  1
  Fe  Fe52  1  0.49643406  0.74961910  0.74970113  1
  Fe  Fe53  1  0.87271326  0.12650875  0.37227385  1
  Fe  Fe54  1  0.37460711  0.87700885  0.12789714  1
  Fe  Fe55  1  0.00241822  0.24593777  -0.00050091  1
  Fe  Fe56  1  0.25119082  0.74903028  0.25328057  1
  Fe  Fe57  1  0.50347371  0.00425822  0.25493453  1
  Fe  Fe58  1  0.12517135  0.12463875  0.62644232  1
  Fe  Fe59  1  0.87686211  0.37373347  0.87434492  1
  Fe  Fe60  1  0.87960210  0.62651919  0.37640345  1
  Fe  Fe61  1  0.49992150  0.49907267  0.50056097  1
  Fe  Fe62  1  0.24875747  0.49686711  0.49842477  1
  Fe  Fe63  1  0.00167487  0.74938996  0.74938017  1
  Fe  Fe64  1  0.75022929  0.75253212  0.74994216  1
  Fe  Fe65  1  0.75211634  0.49917372  0.74951841  1
  Fe  Fe66  1  0.11936895  0.37405468  0.62725662  1
  Fe  Fe67  1  0.87467377  0.62757396  0.87662220  1
  Fe  Fe68  1  0.50073860  0.25090654  0.75130908  1
  Fe  Fe69  1  0.12761290  0.87662615  0.87333960  1
  Fe  Fe70  1  0.62499265  0.12330748  0.62508127  1
  Fe  Fe71  1  0.37359631  0.12378719  0.87458704  1
  Fe  Fe72  1  0.62732486  0.62789437  0.12640035  1
  Fe  Fe73  1  0.50063188  0.24816474  0.49806353  1
  Fe  Fe74  1  0.62611186  0.62537925  0.62446189  1
  Fe  Fe75  1  0.24910993  0.24957262  0.00101663  1
  Fe  Fe76  1  0.74985414  0.24946440  0.75176518  1
  Fe  Fe77  1  0.87414528  0.12478131  0.62551402  1
  Fe  Fe78  1  0.37293515  0.62489502  0.62320746  1
  Fe  Fe79  1  0.12552513  0.12509496  0.37268084  1
  Fe  Fe80  1  0.87633640  0.37381064  0.12419181  1
  Fe  Fe81  1  0.00168977  0.00219985  0.00066940  1
  Fe  Fe82  1  0.49735856  0.50251819  0.24989341  1
  Fe  Fe83  1  0.75178500  0.75199447  0.49662231  1
  Fe  Fe84  1  0.50249942  0.24771303  0.25158045  1
  Fe  Fe85  1  0.87534524  0.62579809  0.62390919  1
  Fe  Fe86  1  -0.00003386  0.00147281  0.24907451  1
  Fe  Fe87  1  0.00120618  0.49891617  0.25027128  1
  Fe  Fe88  1  0.37519021  0.12539175  0.62313817  1
  Fe  Fe89  1  0.12393556  0.62369219  0.62381628  1
  Co  Co90  1  0.24972248  0.74942452  0.74682021  1
  Co  Co91  1  0.00169717  0.24820972  0.24847014  1
  Co  Co92  1  0.12860347  0.12371715  0.87475244  1
  Co  Co93  1  0.87208198  0.12357526  0.87741101  1
  Co  Co94  1  0.12257226  0.62467467  0.37620716  1
  Co  Co95  1  0.37144021  0.62505632  0.87649442  1
  Co  Co96  1  0.37495590  0.62390319  0.37892189  1
  Co  Co97  1  0.25014472  0.50069200  0.25263823  1
  Co  Co98  1  0.12747165  0.12324127  0.12634247  1
  Co  Co99  1  -0.00017347  0.24752994  0.49965198  1
  Co  Co100  1  0.25238479  0.00009538  0.74794504  1
  Co  Co101  1  0.24969581  0.75308350  0.00246073  1
  Co  Co102  1  0.37391321  0.87435919  0.62108854  1
  Co  Co103  1  -0.00133497  0.24465784  0.75135726  1
  Co  Co104  1  0.62567213  0.12554349  0.12490943  1
  Co  Co105  1  0.74848361  0.25329429  0.24837537  1
  Co  Co106  1  0.50077664  0.00254956  0.49725159  1
  Co  Co107  1  0.12380994  0.87644374  0.37467218  1
  Co  Co108  1  0.37671538  0.37332189  0.62259242  1
  Co  Co109  1  0.37195350  0.12663679  0.37494926  1
  Co  Co110  1  0.25159935  0.49840295  0.74710320  1
  Co  Co111  1  0.87740587  0.62678370  0.12445136  1
  Co  Co112  1  0.25055824  -0.00049861  0.25187756  1
  Co  Co113  1  0.62393738  0.12049251  0.87291741  1
  Co  Co114  1  0.75130845  -0.00133772  0.74806378  1
  Co  Co115  1  0.00148229  0.75257556  0.50179778  1
  Co  Co116  1  0.63060460  0.12809868  0.37685835  1
  Co  Co117  1  0.12393523  0.37287854  0.37462373  1
  Co  Co118  1  0.62096273  0.87006536  0.37273286  1
  Co  Co119  1  -0.00126992  0.50366490  0.75167689  1
  Co  Co120  1  0.87845796  0.37438438  0.62755864  1
  Co  Co121  1  0.74745178  -0.00172390  0.25239188  1
  Co  Co122  1  0.75389574  0.74866959  0.25409818  1
  Co  Co123  1  0.87878930  0.87606276  0.37432693  1
  Co  Co124  1  0.49449990  0.74696338  0.24819696  1
  Co  Co125  1  0.24862889  0.49688757  0.00101901  1
  Co  Co126  1  0.62421818  0.37836527  0.87460513  1
  Co  Co127  1  0.74859198  0.75071313  -0.00042383  1
