# generated using pymatgen
data_Fe45Co19
_symmetry_space_group_name_H-M   'P 1'
_cell_length_a   11.41386229
_cell_length_b   11.41458499
_cell_length_c   11.41440265
_cell_angle_alpha   89.99339891
_cell_angle_beta   90.00334722
_cell_angle_gamma   90.00601617
_symmetry_Int_Tables_number   1
_chemical_formula_structural   Fe45Co19
_chemical_formula_sum   'Fe90 Co38'
_cell_volume   1487.11973413
_cell_formula_units_Z   2
loop_
 _symmetry_equiv_pos_site_id
 _symmetry_equiv_pos_as_xyz
  1  'x, y, z'
loop_
 _atom_site_type_symbol
 _atom_site_label
 _atom_site_symmetry_multiplicity
 _atom_site_fract_x
 _atom_site_fract_y
 _atom_site_fract_z
 _atom_site_occupancy
  Fe  Fe0  1  0.12354118  0.62661668  0.37233838  1
  Fe  Fe1  1  0.37442010  0.12643284  0.87553716  1
  Fe  Fe2  1  -0.00099914  0.75195024  0.24798888  1
  Fe  Fe3  1  0.24812157  -0.00293686  0.00122021  1
  Fe  Fe4  1  0.37614353  0.37823693  0.37789011  1
  Fe  Fe5  1  0.37150822  0.62676277  0.87738655  1
  Fe  Fe6  1  0.24603011  0.75021625  0.50011236  1
  Fe  Fe7  1  -0.00112677  0.24762923  0.00414528  1
  Fe  Fe8  1  0.12708104  0.12498512  0.62740565  1
  Fe  Fe9  1  0.75041331  0.74892571  0.24885911  1
  Fe  Fe10  1  0.37444386  0.87724910  0.62060553  1
  Fe  Fe11  1  0.49977817  0.50175187  0.00032052  1
  Fe  Fe12  1  0.75521291  0.25362179  0.24799256  1
  Fe  Fe13  1  0.62572986  0.62519192  0.87185025  1
  Fe  Fe14  1  0.00265851  0.50354716  -0.00215055  1
  Fe  Fe15  1  0.12827903  0.62905968  0.87305420  1
  Fe  Fe16  1  0.74814941  -0.00216084  0.25309497  1
  Fe  Fe17  1  0.62372208  0.12522330  0.87370068  1
  Fe  Fe18  1  0.75219699  -0.00210740  0.74985106  1
  Fe  Fe19  1  -0.00530935  0.49779733  0.25349413  1
  Fe  Fe20  1  0.50071605  0.75026962  0.24749635  1
  Fe  Fe21  1  0.24938817  0.75065882  0.24843502  1
  Fe  Fe22  1  0.00115555  0.24716526  0.50016766  1
  Fe  Fe23  1  0.87255668  0.87831547  0.12199605  1
  Fe  Fe24  1  0.37425855  0.62784442  0.12195597  1
  Fe  Fe25  1  -0.00127042  -0.00247755  0.74897558  1
  Fe  Fe26  1  0.87646722  0.87474418  0.87791886  1
  Fe  Fe27  1  -0.00053234  0.75193027  0.74887033  1
  Fe  Fe28  1  0.62610800  0.38026074  0.12733959  1
  Fe  Fe29  1  -0.00008490  -0.00028111  0.24998889  1
  Fe  Fe30  1  0.37465512  0.12296637  0.12547259  1
  Fe  Fe31  1  0.87621870  0.37471792  0.62312843  1
  Fe  Fe32  1  0.00298334  0.75123245  0.50252593  1
  Fe  Fe33  1  0.62344976  0.87465960  0.87534884  1
  Fe  Fe34  1  0.24821847  0.25089936  -0.00059725  1
  Fe  Fe35  1  0.74761867  0.74866975  -0.00042244  1
  Fe  Fe36  1  0.62646761  0.12335528  0.12663779  1
  Fe  Fe37  1  0.62713566  0.62433376  0.62826719  1
  Fe  Fe38  1  0.62344526  0.12315115  0.62557723  1
  Fe  Fe39  1  0.87561712  0.87284842  0.37736225  1
  Fe  Fe40  1  0.12424968  0.37746029  0.12584878  1
  Fe  Fe41  1  0.37360880  0.37553799  0.12335315  1
  Fe  Fe42  1  0.12515327  0.12473160  0.87430223  1
  Fe  Fe43  1  0.37274425  0.87053497  0.87934652  1
  Fe  Fe44  1  0.62518342  0.37479366  0.87403635  1
  Fe  Fe45  1  0.12391875  0.37463859  0.37511124  1
  Fe  Fe46  1  0.12585980  0.87664205  0.12678896  1
  Fe  Fe47  1  0.37309009  0.87587389  0.37552145  1
  Fe  Fe48  1  0.00048199  0.25092320  0.74946464  1
  Fe  Fe49  1  0.12536539  0.12363800  0.37246640  1
  Fe  Fe50  1  0.75218132  0.24987911  0.74931674  1
  Fe  Fe51  1  0.12513226  0.12472548  0.12670409  1
  Fe  Fe52  1  0.62306794  0.62287873  0.37090881  1
  Fe  Fe53  1  0.62616026  0.37704528  0.62538707  1
  Fe  Fe54  1  0.50083186  -0.00164959  0.00141205  1
  Fe  Fe55  1  0.50056938  0.74806575  0.49988071  1
  Fe  Fe56  1  0.87556921  0.12633661  0.37327403  1
  Fe  Fe57  1  0.75113833  0.50203926  -0.00251367  1
  Fe  Fe58  1  0.50057469  0.24886138  0.50040744  1
  Fe  Fe59  1  0.49939394  0.50027117  0.74887871  1
  Fe  Fe60  1  0.87687528  0.37507645  0.87671484  1
  Fe  Fe61  1  0.37161981  0.62219398  0.62186537  1
  Fe  Fe62  1  0.75158625  0.50201621  0.49747725  1
  Fe  Fe63  1  0.37263942  0.37617582  0.62277264  1
  Fe  Fe64  1  0.62546100  0.87467962  0.62380238  1
  Fe  Fe65  1  0.00221486  -0.00187809  0.50097857  1
  Fe  Fe66  1  0.87527042  0.62330772  0.12478332  1
  Fe  Fe67  1  0.50115618  0.25059155  0.00123349  1
  Fe  Fe68  1  0.74969181  0.74794858  0.49958933  1
  Fe  Fe69  1  0.49722349  -0.00111077  0.74924340  1
  Fe  Fe70  1  0.75116629  0.24855407  0.00220054  1
  Fe  Fe71  1  0.62403846  0.37776909  0.37269105  1
  Fe  Fe72  1  0.25270195  0.50181559  0.25144067  1
  Fe  Fe73  1  0.24590439  0.49693933  0.74949812  1
  Fe  Fe74  1  0.00073715  0.49960099  0.75031413  1
  Fe  Fe75  1  0.37509442  0.12135103  0.37672509  1
  Fe  Fe76  1  0.49740161  0.74919282  0.74911558  1
  Fe  Fe77  1  0.25177919  -0.00091066  0.74939996  1
  Fe  Fe78  1  0.74964471  0.24807622  0.50029857  1
  Fe  Fe79  1  0.49876055  0.25107780  0.24953723  1
  Fe  Fe80  1  0.24961969  0.24862067  0.50044727  1
  Fe  Fe81  1  0.87599069  0.12305291  0.87665016  1
  Fe  Fe82  1  0.87362849  0.62657002  0.62839351  1
  Fe  Fe83  1  0.00374979  0.75029250  0.00132202  1
  Fe  Fe84  1  0.74859572  0.00083751  0.49817421  1
  Fe  Fe85  1  0.49732484  0.25017708  0.74836482  1
  Fe  Fe86  1  0.37312223  0.37557556  0.87599909  1
  Fe  Fe87  1  0.50230890  -0.00241285  0.25245208  1
  Fe  Fe88  1  0.00103052  0.50293167  0.50020284  1
  Fe  Fe89  1  0.25056097  0.24953480  0.25129460  1
  Co  Co90  1  0.24961599  -0.00033373  0.24914036  1
  Co  Co91  1  0.12487817  0.87380563  0.37296383  1
  Co  Co92  1  0.87598282  0.62773447  0.87380838  1
  Co  Co93  1  0.87341775  0.11993932  0.12654697  1
  Co  Co94  1  0.87795343  0.63010267  0.37524811  1
  Co  Co95  1  0.24567652  -0.00071396  0.50021243  1
  Co  Co96  1  0.50388178  0.74839232  -0.00005663  1
  Co  Co97  1  0.37464040  0.12367935  0.62296405  1
  Co  Co98  1  0.87543281  0.12405163  0.62406398  1
  Co  Co99  1  0.37442638  0.62744558  0.37678547  1
  Co  Co100  1  0.12628669  0.87515443  0.62837255  1
  Co  Co101  1  0.87630706  0.37105465  0.38030061  1
  Co  Co102  1  -0.00152041  0.25084953  0.24724719  1
  Co  Co103  1  0.49446159  0.50148888  0.24876587  1
  Co  Co104  1  0.12298826  0.37381919  0.87798666  1
  Co  Co105  1  0.75691059  0.49971174  0.25420195  1
  Co  Co106  1  0.75295307  0.49787623  0.75118961  1
  Co  Co107  1  0.75018705  0.75379143  0.75196588  1
  Co  Co108  1  0.25400691  0.75088814  0.74648513  1
  Co  Co109  1  0.87351576  0.87338066  0.62211691  1
  Co  Co110  1  0.62575875  0.12967834  0.37253250  1
  Co  Co111  1  0.12535484  0.62610525  0.62718853  1
  Co  Co112  1  0.24407012  0.75117208  0.00481146  1
  Co  Co113  1  0.24784273  0.50120016  0.00049121  1
  Co  Co114  1  0.62617609  0.87588256  0.12400472  1
  Co  Co115  1  0.62661755  0.62135586  0.12803377  1
  Co  Co116  1  0.50221632  0.50185738  0.50036324  1
  Co  Co117  1  0.62542359  0.86982787  0.37612851  1
  Co  Co118  1  0.12325147  0.62173014  0.12988201  1
  Co  Co119  1  0.37642953  0.87421766  0.12507203  1
  Co  Co120  1  0.12668874  0.87293297  0.87227394  1
  Co  Co121  1  0.24574947  0.50187740  0.49767104  1
  Co  Co122  1  0.00334348  -0.00086743  0.00070962  1
  Co  Co123  1  0.74844481  0.00095388  -0.00300475  1
  Co  Co124  1  0.24995556  0.25214375  0.75024556  1
  Co  Co125  1  0.12376542  0.37374598  0.62220925  1
  Co  Co126  1  0.87722253  0.37966527  0.12068396  1
  Co  Co127  1  0.50394579  0.00027110  0.49637440  1
