# generated using pymatgen
data_Fe45Co19
_symmetry_space_group_name_H-M   'P 1'
_cell_length_a   11.41460404
_cell_length_b   11.41457773
_cell_length_c   11.41499632
_cell_angle_alpha   90.00017063
_cell_angle_beta   90.00206278
_cell_angle_gamma   90.00693581
_symmetry_Int_Tables_number   1
_chemical_formula_structural   Fe45Co19
_chemical_formula_sum   'Fe90 Co38'
_cell_volume   1487.29279260
_cell_formula_units_Z   2
loop_
 _symmetry_equiv_pos_site_id
 _symmetry_equiv_pos_as_xyz
  1  'x, y, z'
loop_
 _atom_site_type_symbol
 _atom_site_label
 _atom_site_symmetry_multiplicity
 _atom_site_fract_x
 _atom_site_fract_y
 _atom_site_fract_z
 _atom_site_occupancy
  Fe  Fe0  1  0.00287663  0.75115044  -0.00002763  1
  Fe  Fe1  1  -0.00121359  0.00117845  0.25123552  1
  Fe  Fe2  1  0.12397071  0.62536094  0.87441475  1
  Fe  Fe3  1  0.87832800  0.12484391  0.12365167  1
  Fe  Fe4  1  0.74525475  0.49580659  0.50132934  1
  Fe  Fe5  1  -0.00039410  0.24865692  0.50174370  1
  Fe  Fe6  1  0.00035237  0.50181679  0.50104979  1
  Fe  Fe7  1  0.74880807  0.74993904  0.25106583  1
  Fe  Fe8  1  0.37334007  0.62998444  0.87823303  1
  Fe  Fe9  1  0.25019073  0.74938555  0.25113349  1
  Fe  Fe10  1  0.50119274  0.75170409  0.75322414  1
  Fe  Fe11  1  0.62445484  0.12366802  0.62657634  1
  Fe  Fe12  1  0.87731059  0.87582238  0.62227474  1
  Fe  Fe13  1  0.37447687  0.37623333  0.12541032  1
  Fe  Fe14  1  0.87307555  0.37377703  0.37695431  1
  Fe  Fe15  1  0.50046931  0.25041059  0.00022130  1
  Fe  Fe16  1  0.75300520  0.50144580  0.74952404  1
  Fe  Fe17  1  0.00295678  0.25199723  -0.00010352  1
  Fe  Fe18  1  0.74740708  -0.00086593  0.50060696  1
  Fe  Fe19  1  0.50217336  0.74853135  0.25050604  1
  Fe  Fe20  1  0.49813979  0.00034495  0.24790657  1
  Fe  Fe21  1  0.75338738  0.00136350  0.75087552  1
  Fe  Fe22  1  0.37730635  0.87386687  0.37571645  1
  Fe  Fe23  1  0.37549668  0.62806839  0.62150996  1
  Fe  Fe24  1  0.49379447  0.24834121  0.74689507  1
  Fe  Fe25  1  0.49852523  0.24894687  0.24965923  1
  Fe  Fe26  1  0.49528686  -0.00101292  0.75373600  1
  Fe  Fe27  1  0.24979643  -0.00190434  -0.00133469  1
  Fe  Fe28  1  0.50029812  0.50085443  0.25195315  1
  Fe  Fe29  1  0.50257436  -0.00407473  0.50200664  1
  Fe  Fe30  1  0.75197664  0.00238643  -0.00150915  1
  Fe  Fe31  1  -0.00089205  0.50249475  0.74539562  1
  Fe  Fe32  1  0.12606773  0.62916917  0.62119811  1
  Fe  Fe33  1  0.12502041  0.12395228  0.12724998  1
  Fe  Fe34  1  0.62548895  0.37632843  0.12729881  1
  Fe  Fe35  1  0.12747070  0.12461441  0.62421407  1
  Fe  Fe36  1  0.25054132  0.25081059  0.25120005  1
  Fe  Fe37  1  0.12436490  0.87635257  0.12754134  1
  Fe  Fe38  1  0.37568382  0.87165107  0.12097735  1
  Fe  Fe39  1  0.37606793  0.37416719  0.37724112  1
  Fe  Fe40  1  0.25330299  0.00080193  0.75087832  1
  Fe  Fe41  1  0.37198172  0.37373396  0.87339479  1
  Fe  Fe42  1  0.24824196  -0.00362799  0.50012999  1
  Fe  Fe43  1  0.25120543  0.50016084  0.25133757  1
  Fe  Fe44  1  0.62509216  0.62678127  0.62645229  1
  Fe  Fe45  1  0.50384924  0.49809780  0.50079250  1
  Fe  Fe46  1  0.87526077  0.37422135  0.12607739  1
  Fe  Fe47  1  0.37632374  0.62724293  0.37779991  1
  Fe  Fe48  1  0.74497961  0.75398836  0.49976921  1
  Fe  Fe49  1  0.12690831  0.12476055  0.37443609  1
  Fe  Fe50  1  -0.00063446  0.24978189  0.74687298  1
  Fe  Fe51  1  0.12511804  0.62328274  0.12822635  1
  Fe  Fe52  1  0.24944109  0.50083763  0.74806048  1
  Fe  Fe53  1  0.50176162  0.25194095  0.50279648  1
  Fe  Fe54  1  0.87791202  0.37562410  0.87286088  1
  Fe  Fe55  1  0.49886356  0.50121292  -0.00106076  1
  Fe  Fe56  1  0.24725411  0.25310750  -0.00026720  1
  Fe  Fe57  1  0.37469743  0.12343408  0.37800036  1
  Fe  Fe58  1  0.49685769  0.50051654  0.74921887  1
  Fe  Fe59  1  0.87158764  0.62514689  0.37835084  1
  Fe  Fe60  1  0.12575486  0.12649040  0.87389254  1
  Fe  Fe61  1  0.87378369  0.12404753  0.37767201  1
  Fe  Fe62  1  0.87530990  0.87524676  0.12391874  1
  Fe  Fe63  1  0.37407203  0.87272665  0.62520614  1
  Fe  Fe64  1  0.62348458  0.37535343  0.87119195  1
  Fe  Fe65  1  -0.00245422  0.50004899  0.25185403  1
  Fe  Fe66  1  -0.00107880  0.74804204  0.25299773  1
  Fe  Fe67  1  0.62470641  0.12362513  0.12496976  1
  Fe  Fe68  1  -0.00108766  0.00151238  0.74919998  1
  Fe  Fe69  1  0.24888765  0.49922995  0.49997517  1
  Fe  Fe70  1  0.87513411  0.87658350  0.37635537  1
  Fe  Fe71  1  -0.00138696  0.74804129  0.74670975  1
  Fe  Fe72  1  0.75084359  0.49993723  -0.00259303  1
  Fe  Fe73  1  0.75323380  0.24868048  0.74782118  1
  Fe  Fe74  1  0.75096943  0.24882694  0.25071398  1
  Fe  Fe75  1  0.00149588  0.49833548  0.00045535  1
  Fe  Fe76  1  0.12680507  0.87354024  0.87163235  1
  Fe  Fe77  1  0.24876434  0.50037538  0.00074865  1
  Fe  Fe78  1  0.74728683  0.74803707  -0.00352902  1
  Fe  Fe79  1  0.12299789  0.87407098  0.37568809  1
  Fe  Fe80  1  0.62561526  0.87756929  0.12436842  1
  Fe  Fe81  1  0.62453823  0.12412244  0.37448661  1
  Fe  Fe82  1  0.87657804  0.87514034  0.87633020  1
  Fe  Fe83  1  0.12373250  0.37413678  0.37497196  1
  Fe  Fe84  1  0.75088759  0.74949352  0.75254836  1
  Fe  Fe85  1  0.62541949  0.62251014  0.12565318  1
  Fe  Fe86  1  0.74956465  0.25034486  -0.00204454  1
  Fe  Fe87  1  0.87495198  0.62554732  0.12375079  1
  Fe  Fe88  1  0.62318014  0.12398058  0.87406766  1
  Fe  Fe89  1  0.37253497  0.12453328  0.12304900  1
  Co  Co90  1  0.00089049  0.74917870  0.49945277  1
  Co  Co91  1  0.62567344  0.87601532  0.63051438  1
  Co  Co92  1  0.12404454  0.87474980  0.62678698  1
  Co  Co93  1  0.37295948  0.87000188  0.87864695  1
  Co  Co94  1  0.50558749  0.74857244  -0.00180055  1
  Co  Co95  1  0.75150773  0.50010791  0.25079532  1
  Co  Co96  1  0.87849479  0.62523893  0.87676828  1
  Co  Co97  1  0.12503623  0.37584364  0.87012801  1
  Co  Co98  1  0.75235689  0.00156181  0.24941166  1
  Co  Co99  1  0.37406924  0.12224829  0.62004153  1
  Co  Co100  1  0.87516147  0.37528670  0.62369172  1
  Co  Co101  1  0.00195418  -0.00126010  -0.00138154  1
  Co  Co102  1  0.62453241  0.62149646  0.87240058  1
  Co  Co103  1  0.12521589  0.37399253  0.62482725  1
  Co  Co104  1  0.62570765  0.62500819  0.37618741  1
  Co  Co105  1  0.87465952  0.12306854  0.62204282  1
  Co  Co106  1  0.00297007  0.00087644  0.49951685  1
  Co  Co107  1  0.62520133  0.37236770  0.37148210  1
  Co  Co108  1  0.87795009  0.12649975  0.87658327  1
  Co  Co109  1  0.37286177  0.37655730  0.62364731  1
  Co  Co110  1  0.49816963  0.00014694  -0.00135468  1
  Co  Co111  1  0.24490655  0.74899441  0.00224472  1
  Co  Co112  1  0.12624180  0.62463530  0.37484712  1
  Co  Co113  1  0.62641315  0.87960545  0.87546482  1
  Co  Co114  1  0.25042843  0.74830907  0.74790515  1
  Co  Co115  1  0.62449277  0.37419028  0.63077217  1
  Co  Co116  1  0.62404101  0.87776775  0.37059601  1
  Co  Co117  1  0.37387380  0.12775562  0.87854799  1
  Co  Co118  1  0.87094731  0.62684807  0.62050070  1
  Co  Co119  1  0.25278760  0.24877581  0.74705079  1
  Co  Co120  1  0.25032823  0.25084704  0.50057188  1
  Co  Co121  1  0.50412934  0.75258777  0.50092909  1
  Co  Co122  1  0.25184685  -0.00180391  0.25108581  1
  Co  Co123  1  -0.00095687  0.24900142  0.25134219  1
  Co  Co124  1  0.37519204  0.62683731  0.12477078  1
  Co  Co125  1  0.74736758  0.25024981  0.50206279  1
  Co  Co126  1  0.24890141  0.75293779  0.49905739  1
  Co  Co127  1  0.12509276  0.37615710  0.12891717  1
