# generated using pymatgen
data_Fe45Co19
_symmetry_space_group_name_H-M   'P 1'
_cell_length_a   11.41438281
_cell_length_b   11.41597223
_cell_length_c   11.41499120
_cell_angle_alpha   90.00684803
_cell_angle_beta   89.99268858
_cell_angle_gamma   90.00219915
_symmetry_Int_Tables_number   1
_chemical_formula_structural   Fe45Co19
_chemical_formula_sum   'Fe90 Co38'
_cell_volume   1487.44498367
_cell_formula_units_Z   2
loop_
 _symmetry_equiv_pos_site_id
 _symmetry_equiv_pos_as_xyz
  1  'x, y, z'
loop_
 _atom_site_type_symbol
 _atom_site_label
 _atom_site_symmetry_multiplicity
 _atom_site_fract_x
 _atom_site_fract_y
 _atom_site_fract_z
 _atom_site_occupancy
  Fe  Fe0  1  0.24953458  0.75038515  0.75178487  1
  Fe  Fe1  1  0.12504617  0.87552083  0.37521852  1
  Fe  Fe2  1  0.62733529  0.87348438  0.62351926  1
  Fe  Fe3  1  0.62471180  0.37647665  0.37473604  1
  Fe  Fe4  1  0.00203864  0.75200547  0.50151508  1
  Fe  Fe5  1  0.37971626  0.12111343  0.87307330  1
  Fe  Fe6  1  -0.00175600  0.50033117  0.74770728  1
  Fe  Fe7  1  0.75573125  0.00111490  0.74882702  1
  Fe  Fe8  1  0.24605616  0.25121091  0.50215970  1
  Fe  Fe9  1  0.74926012  0.00006744  0.25477341  1
  Fe  Fe10  1  0.50056018  -0.00062005  0.50082584  1
  Fe  Fe11  1  0.25073258  -0.00304211  0.50093084  1
  Fe  Fe12  1  -0.00199290  0.00058441  0.25171804  1
  Fe  Fe13  1  0.62518578  0.37843814  0.62536795  1
  Fe  Fe14  1  0.37444211  0.87189024  0.62625281  1
  Fe  Fe15  1  0.00036570  0.75114291  0.24928186  1
  Fe  Fe16  1  0.25425766  0.00106441  0.24876165  1
  Fe  Fe17  1  0.12338617  0.62509107  0.87591545  1
  Fe  Fe18  1  0.25006642  0.24754743  -0.00306845  1
  Fe  Fe19  1  0.75114824  0.24983098  0.25262757  1
  Fe  Fe20  1  0.62542789  0.12512323  0.37699316  1
  Fe  Fe21  1  -0.00018621  0.24877506  0.25332028  1
  Fe  Fe22  1  -0.00109141  0.75399956  0.74939138  1
  Fe  Fe23  1  0.62285210  0.87840001  0.12758164  1
  Fe  Fe24  1  -0.00271638  0.00136739  -0.00065985  1
  Fe  Fe25  1  0.25195576  0.50166255  0.50027444  1
  Fe  Fe26  1  0.24856018  0.25070565  0.25222910  1
  Fe  Fe27  1  0.87386527  0.62799724  0.12386400  1
  Fe  Fe28  1  0.12260175  0.12168245  0.87165847  1
  Fe  Fe29  1  -0.00100167  0.24628596  0.00166494  1
  Fe  Fe30  1  0.62560051  0.37495372  0.12323665  1
  Fe  Fe31  1  0.12541772  0.12456973  0.12591684  1
  Fe  Fe32  1  0.62583180  0.62267657  0.12227304  1
  Fe  Fe33  1  0.24948803  0.24789370  0.74857000  1
  Fe  Fe34  1  0.49941151  0.24888052  0.25179819  1
  Fe  Fe35  1  0.87274760  0.87593538  0.12443710  1
  Fe  Fe36  1  0.62342553  0.88111623  0.87495133  1
  Fe  Fe37  1  0.50151512  0.25117563  0.50165960  1
  Fe  Fe38  1  0.24756290  0.49840082  0.24758330  1
  Fe  Fe39  1  0.74737865  0.75112150  0.25091123  1
  Fe  Fe40  1  0.25234530  0.00088366  0.74712171  1
  Fe  Fe41  1  0.49836641  0.74603015  0.50044550  1
  Fe  Fe42  1  0.37457401  0.12753614  0.37810202  1
  Fe  Fe43  1  0.12361447  0.62396017  0.37521624  1
  Fe  Fe44  1  0.87536653  0.37203367  0.12632803  1
  Fe  Fe45  1  0.37476709  0.37170491  0.12431014  1
  Fe  Fe46  1  0.37570277  0.62545175  0.87522408  1
  Fe  Fe47  1  0.12684880  0.62608611  0.62449506  1
  Fe  Fe48  1  0.12051487  0.37960655  0.37615032  1
  Fe  Fe49  1  0.37417147  0.62640556  0.12486064  1
  Fe  Fe50  1  0.37958656  0.87267633  0.37148432  1
  Fe  Fe51  1  0.24922358  0.50017907  0.75158036  1
  Fe  Fe52  1  0.12445208  0.12200809  0.37753778  1
  Fe  Fe53  1  0.50041246  0.75289472  -0.00086467  1
  Fe  Fe54  1  0.37419555  0.37500731  0.62549544  1
  Fe  Fe55  1  0.24895516  0.75022667  0.25081831  1
  Fe  Fe56  1  0.50235842  0.74889300  0.75001384  1
  Fe  Fe57  1  0.12394579  0.87873470  0.87271049  1
  Fe  Fe58  1  0.87173644  0.62772386  0.62549426  1
  Fe  Fe59  1  0.00194072  0.24784289  0.74398533  1
  Fe  Fe60  1  0.50071279  0.24852668  0.74893847  1
  Fe  Fe61  1  0.62482506  0.12415860  0.12466431  1
  Fe  Fe62  1  0.00085504  0.50013272  0.00353160  1
  Fe  Fe63  1  0.62471223  0.62370175  0.37585993  1
  Fe  Fe64  1  0.75262957  0.00427236  -0.00215684  1
  Fe  Fe65  1  0.87519439  0.37269289  0.87596651  1
  Fe  Fe66  1  0.74854644  0.75072783  0.49682110  1
  Fe  Fe67  1  0.87432613  0.87530941  0.37778860  1
  Fe  Fe68  1  0.49777739  0.49997577  0.24978430  1
  Fe  Fe69  1  0.74969762  0.24913890  0.74938178  1
  Fe  Fe70  1  0.00086112  0.75253995  0.00013934  1
  Fe  Fe71  1  0.75205508  0.49928241  0.25001971  1
  Fe  Fe72  1  0.37616448  0.37544787  0.87402957  1
  Fe  Fe73  1  0.75159744  0.49917618  0.49985038  1
  Fe  Fe74  1  0.62693959  0.12358058  0.62521941  1
  Fe  Fe75  1  0.12517011  0.87675791  0.12540829  1
  Fe  Fe76  1  0.74934703  0.75121051  0.75293536  1
  Fe  Fe77  1  0.87296331  0.62638980  0.87725589  1
  Fe  Fe78  1  0.87515320  0.37242138  0.62110999  1
  Fe  Fe79  1  0.87754149  0.62303172  0.37368950  1
  Fe  Fe80  1  0.49702166  0.50210454  0.50047006  1
  Fe  Fe81  1  0.12279070  0.37391269  0.87455352  1
  Fe  Fe82  1  0.50236017  0.24810419  -0.00245816  1
  Fe  Fe83  1  0.24795810  0.49856769  0.00086627  1
  Fe  Fe84  1  0.62815138  0.62138991  0.87693470  1
  Fe  Fe85  1  0.62771178  0.37654876  0.87611202  1
  Fe  Fe86  1  0.87473826  0.12617808  0.38315489  1
  Fe  Fe87  1  0.25155214  0.75399772  -0.00121723  1
  Fe  Fe88  1  0.50079272  0.50241032  0.74923061  1
  Fe  Fe89  1  0.25543298  -0.00096475  0.00181346  1
  Co  Co90  1  -0.00668192  -0.00223261  0.74670980  1
  Co  Co91  1  0.00145749  -0.00410602  0.50292334  1
  Co  Co92  1  0.62358678  0.12128328  0.87272525  1
  Co  Co93  1  0.49834504  0.49925573  -0.00029547  1
  Co  Co94  1  0.00082540  0.50089584  0.24477730  1
  Co  Co95  1  0.50401738  0.74512076  0.24879679  1
  Co  Co96  1  0.62015705  0.87357067  0.37414109  1
  Co  Co97  1  0.62859124  0.62446097  0.62419399  1
  Co  Co98  1  0.75353093  0.49768444  0.00087899  1
  Co  Co99  1  0.75268859  0.49862239  0.74992733  1
  Co  Co100  1  0.37477051  0.12996160  0.12536876  1
  Co  Co101  1  0.37498220  0.12659640  0.62214566  1
  Co  Co102  1  0.87687729  0.12862488  0.87200992  1
  Co  Co103  1  0.12634543  0.62903362  0.12421200  1
  Co  Co104  1  0.49812331  0.00556518  0.25134172  1
  Co  Co105  1  0.49971015  -0.00055484  0.74387239  1
  Co  Co106  1  0.37287163  0.62566000  0.62782014  1
  Co  Co107  1  0.87134736  0.87353343  0.62160375  1
  Co  Co108  1  0.12710945  0.37842976  0.62602256  1
  Co  Co109  1  0.87413646  0.12449837  0.12812565  1
  Co  Co110  1  0.12404194  0.12026593  0.62527651  1
  Co  Co111  1  0.74695782  -0.00219222  0.49828469  1
  Co  Co112  1  0.12736829  0.87479024  0.62737701  1
  Co  Co113  1  0.37692233  0.87685059  0.87032457  1
  Co  Co114  1  0.37841416  0.87197657  0.13058847  1
  Co  Co115  1  -0.00205870  0.50245866  0.50469121  1
  Co  Co116  1  0.87436944  0.87347141  0.87746651  1
  Co  Co117  1  0.74916077  0.24712956  -0.00049495  1
  Co  Co118  1  0.25093979  0.75146450  0.49789210  1
  Co  Co119  1  0.37484435  0.37385737  0.37595494  1
  Co  Co120  1  0.74535563  0.75274567  0.00014750  1
  Co  Co121  1  0.87448688  0.12649094  0.61883620  1
  Co  Co122  1  0.37353370  0.62491986  0.37162486  1
  Co  Co123  1  0.49586072  -0.00053598  0.00309635  1
  Co  Co124  1  0.74617688  0.25263503  0.50020999  1
  Co  Co125  1  0.12438527  0.36918844  0.12405671  1
  Co  Co126  1  0.87748721  0.37521057  0.37650991  1
  Co  Co127  1  0.00583100  0.25039864  0.50106701  1
