# generated using pymatgen
data_Fe45Co19
_symmetry_space_group_name_H-M   'P 1'
_cell_length_a   11.41535571
_cell_length_b   11.41606904
_cell_length_c   11.41441842
_cell_angle_alpha   89.99654341
_cell_angle_beta   89.99836007
_cell_angle_gamma   89.99879060
_symmetry_Int_Tables_number   1
_chemical_formula_structural   Fe45Co19
_chemical_formula_sum   'Fe90 Co38'
_cell_volume   1487.50975722
_cell_formula_units_Z   2
loop_
 _symmetry_equiv_pos_site_id
 _symmetry_equiv_pos_as_xyz
  1  'x, y, z'
loop_
 _atom_site_type_symbol
 _atom_site_label
 _atom_site_symmetry_multiplicity
 _atom_site_fract_x
 _atom_site_fract_y
 _atom_site_fract_z
 _atom_site_occupancy
  Fe  Fe0  1  0.12521220  0.62714646  0.37410135  1
  Fe  Fe1  1  0.00052376  0.75029961  0.50008687  1
  Fe  Fe2  1  0.62473165  0.12277093  0.12809121  1
  Fe  Fe3  1  0.62535122  0.87615134  0.87558617  1
  Fe  Fe4  1  0.00169377  0.24933382  0.49986106  1
  Fe  Fe5  1  0.75128748  -0.00176639  0.50012214  1
  Fe  Fe6  1  0.24915878  0.24811024  0.24648166  1
  Fe  Fe7  1  0.37308521  0.12501940  0.87795918  1
  Fe  Fe8  1  0.49875413  0.75038696  0.75071907  1
  Fe  Fe9  1  0.74997450  0.74933003  0.75035440  1
  Fe  Fe10  1  0.12544726  0.37526933  0.37491682  1
  Fe  Fe11  1  0.74845408  0.75326538  0.25075699  1
  Fe  Fe12  1  0.49960978  0.49802263  0.00163088  1
  Fe  Fe13  1  0.62391417  0.37447214  0.37454739  1
  Fe  Fe14  1  0.37292881  0.87385493  0.87637963  1
  Fe  Fe15  1  0.75051131  0.25344740  0.00328508  1
  Fe  Fe16  1  0.49920339  0.25254711  0.00236871  1
  Fe  Fe17  1  0.00163891  0.75110606  0.75037603  1
  Fe  Fe18  1  0.49785249  0.00036170  0.75001076  1
  Fe  Fe19  1  0.87568519  0.12327454  0.37459322  1
  Fe  Fe20  1  0.12441148  0.37406929  0.12381678  1
  Fe  Fe21  1  0.25079603  0.50010515  0.00157893  1
  Fe  Fe22  1  0.87569059  0.62492302  0.12533762  1
  Fe  Fe23  1  0.24911146  0.50386435  0.24622370  1
  Fe  Fe24  1  0.87639083  0.87626810  0.12745851  1
  Fe  Fe25  1  0.50305780  0.75351431  0.24748522  1
  Fe  Fe26  1  0.12613487  0.12421192  0.88117552  1
  Fe  Fe27  1  0.87559946  0.12698238  0.87518530  1
  Fe  Fe28  1  0.62441600  0.62615892  0.37582915  1
  Fe  Fe29  1  0.12561511  0.37613802  0.62369588  1
  Fe  Fe30  1  0.49541229  -0.00050499  0.50066320  1
  Fe  Fe31  1  0.87566424  0.12402028  0.12722426  1
  Fe  Fe32  1  0.49809405  -0.00092831  0.00232657  1
  Fe  Fe33  1  0.49634788  0.25073438  0.50158271  1
  Fe  Fe34  1  0.49716710  0.74923428  0.50080282  1
  Fe  Fe35  1  0.12361635  0.87709448  0.12559180  1
  Fe  Fe36  1  0.87601156  0.12416807  0.62407272  1
  Fe  Fe37  1  0.75159793  0.49648091  -0.00168214  1
  Fe  Fe38  1  0.12602354  0.87451540  0.37402706  1
  Fe  Fe39  1  0.62377160  0.12393555  0.62433055  1
  Fe  Fe40  1  0.25052615  0.25080418  0.75002998  1
  Fe  Fe41  1  -0.00203492  0.49915199  0.75133095  1
  Fe  Fe42  1  0.37434722  0.62696414  0.37120979  1
  Fe  Fe43  1  0.87643280  0.62527729  0.37413165  1
  Fe  Fe44  1  0.62449887  0.12237231  0.37336448  1
  Fe  Fe45  1  0.25049799  0.50072001  0.49938316  1
  Fe  Fe46  1  0.12486743  0.62595090  0.87552302  1
  Fe  Fe47  1  0.62392470  0.87492198  0.62430206  1
  Fe  Fe48  1  0.00112029  0.24898966  0.74959255  1
  Fe  Fe49  1  0.49818177  0.24926544  0.74873168  1
  Fe  Fe50  1  0.49953264  0.24995219  0.24815487  1
  Fe  Fe51  1  0.37467079  0.37509751  0.87460649  1
  Fe  Fe52  1  0.74950441  0.00006084  0.75013745  1
  Fe  Fe53  1  0.25050852  0.00208748  0.24674317  1
  Fe  Fe54  1  0.62681835  0.62245603  0.87446383  1
  Fe  Fe55  1  0.49951333  0.49957276  0.75022689  1
  Fe  Fe56  1  0.75064080  0.25032994  0.49874865  1
  Fe  Fe57  1  0.00167432  0.24748568  0.24823719  1
  Fe  Fe58  1  0.87647525  0.87478501  0.87288293  1
  Fe  Fe59  1  0.37222932  0.62419983  0.62664713  1
  Fe  Fe60  1  0.75167235  -0.00010186  0.00012071  1
  Fe  Fe61  1  0.62353015  0.37683716  0.62413533  1
  Fe  Fe62  1  0.75119200  0.75208500  0.49954902  1
  Fe  Fe63  1  0.75007811  0.75033858  -0.00050315  1
  Fe  Fe64  1  0.75092378  0.49904870  0.49982228  1
  Fe  Fe65  1  0.24886898  0.74978005  0.00293431  1
  Fe  Fe66  1  0.62533459  0.62369469  0.62460772  1
  Fe  Fe67  1  0.62546624  0.62462653  0.12477145  1
  Fe  Fe68  1  0.12400578  0.37324273  0.87661829  1
  Fe  Fe69  1  0.74964291  0.49842307  0.25008602  1
  Fe  Fe70  1  0.87540965  0.62376004  0.62527386  1
  Fe  Fe71  1  -0.00255244  0.49834787  -0.00095350  1
  Fe  Fe72  1  0.37371112  0.12595034  0.37497130  1
  Fe  Fe73  1  0.50105623  0.75041325  0.00075774  1
  Fe  Fe74  1  0.00181055  -0.00021452  0.75034102  1
  Fe  Fe75  1  0.74943755  0.25272566  0.74863059  1
  Fe  Fe76  1  0.12944138  0.12356773  0.62191099  1
  Fe  Fe77  1  0.37250587  0.87239150  0.37225829  1
  Fe  Fe78  1  0.12830607  0.87482595  0.62320618  1
  Fe  Fe79  1  0.87751191  0.37492962  0.37446989  1
  Fe  Fe80  1  0.62497591  0.12656961  0.87640705  1
  Fe  Fe81  1  0.00135664  0.50190730  0.24962596  1
  Fe  Fe82  1  0.37348616  0.37563856  0.37403206  1
  Fe  Fe83  1  0.50022680  0.49984332  0.24919584  1
  Fe  Fe84  1  0.12680699  0.12356878  0.37752041  1
  Fe  Fe85  1  0.37264937  0.62560317  0.87526722  1
  Fe  Fe86  1  0.25075031  -0.00165950  0.75165491  1
  Fe  Fe87  1  0.87866764  0.87697187  0.37391407  1
  Fe  Fe88  1  -0.00024693  0.75125700  0.00016155  1
  Fe  Fe89  1  0.12657108  0.62456837  0.62596303  1
  Co  Co90  1  0.49776620  0.50135574  0.49865317  1
  Co  Co91  1  0.25064723  0.25255361  0.50018119  1
  Co  Co92  1  0.00169101  0.50152283  0.49890401  1
  Co  Co93  1  -0.00208819  -0.00018394  -0.00077356  1
  Co  Co94  1  0.12597919  0.12527909  0.11916209  1
  Co  Co95  1  0.37368974  0.37580164  0.12741453  1
  Co  Co96  1  0.00140569  -0.00043009  0.50078698  1
  Co  Co97  1  0.00094900  0.74876172  0.24966485  1
  Co  Co98  1  0.24947425  0.75049472  0.75148152  1
  Co  Co99  1  0.87769047  0.37438660  0.62322253  1
  Co  Co100  1  0.37306190  0.87446862  0.62581362  1
  Co  Co101  1  0.25155077  0.25226398  0.00067199  1
  Co  Co102  1  0.62489027  0.37571183  0.12730552  1
  Co  Co103  1  0.87714617  0.37594672  0.12810433  1
  Co  Co104  1  0.74912154  -0.00257355  0.25153594  1
  Co  Co105  1  0.62477866  0.37441248  0.87423108  1
  Co  Co106  1  0.62555657  0.87735835  0.12293060  1
  Co  Co107  1  0.12160779  0.62419398  0.12224383  1
  Co  Co108  1  0.87607409  0.87547507  0.62663135  1
  Co  Co109  1  0.37351669  0.37670650  0.62502112  1
  Co  Co110  1  0.12528017  0.87519690  0.87672313  1
  Co  Co111  1  -0.00205386  0.24967764  0.00169931  1
  Co  Co112  1  0.37538757  0.12583658  0.12347559  1
  Co  Co113  1  0.37170980  0.12472927  0.62479806  1
  Co  Co114  1  0.25224407  -0.00135995  0.49768466  1
  Co  Co115  1  0.75229113  0.49828436  0.75053393  1
  Co  Co116  1  0.75056507  0.25005124  0.25064861  1
  Co  Co117  1  0.37434999  0.87300130  0.12595821  1
  Co  Co118  1  0.62300646  0.87676519  0.37840280  1
  Co  Co119  1  0.87561407  0.37136723  0.87362269  1
  Co  Co120  1  0.24865916  0.49927827  0.75209847  1
  Co  Co121  1  0.37760617  0.62616894  0.12526087  1
  Co  Co122  1  0.24658809  0.74769102  0.24544519  1
  Co  Co123  1  0.87583244  0.62639441  0.87497302  1
  Co  Co124  1  0.49763614  -0.00168270  0.24967626  1
  Co  Co125  1  0.00291441  0.00318727  0.24971853  1
  Co  Co126  1  0.25080832  -0.00242752  0.00216697  1
  Co  Co127  1  0.25057674  0.74755980  0.49977393  1
