# generated using pymatgen
data_Fe45Co19
_symmetry_space_group_name_H-M   'P 1'
_cell_length_a   11.41476649
_cell_length_b   11.41473490
_cell_length_c   11.41547190
_cell_angle_alpha   89.99359624
_cell_angle_beta   89.99641457
_cell_angle_gamma   90.00045248
_symmetry_Int_Tables_number   1
_chemical_formula_structural   Fe45Co19
_chemical_formula_sum   'Fe90 Co38'
_cell_volume   1487.39640267
_cell_formula_units_Z   2
loop_
 _symmetry_equiv_pos_site_id
 _symmetry_equiv_pos_as_xyz
  1  'x, y, z'
loop_
 _atom_site_type_symbol
 _atom_site_label
 _atom_site_symmetry_multiplicity
 _atom_site_fract_x
 _atom_site_fract_y
 _atom_site_fract_z
 _atom_site_occupancy
  Fe  Fe0  1  0.00124219  0.74898261  0.75204477  1
  Fe  Fe1  1  0.62607794  0.37408559  0.12571114  1
  Fe  Fe2  1  0.62564156  0.87626359  0.37644125  1
  Fe  Fe3  1  0.49885252  0.00096656  0.75116488  1
  Fe  Fe4  1  0.74985116  -0.00130937  0.74861667  1
  Fe  Fe5  1  -0.00190704  0.24651301  0.25068132  1
  Fe  Fe6  1  0.87421328  0.12407231  0.37517212  1
  Fe  Fe7  1  0.24682552  0.75176531  0.49961274  1
  Fe  Fe8  1  0.00158275  0.24318613  -0.00408186  1
  Fe  Fe9  1  0.24754093  0.49829308  0.74978168  1
  Fe  Fe10  1  0.00029802  0.74894608  -0.00041700  1
  Fe  Fe11  1  0.24915089  0.49883689  0.50006022  1
  Fe  Fe12  1  0.12389297  0.37220070  0.12373809  1
  Fe  Fe13  1  0.49864526  0.49921608  0.00155489  1
  Fe  Fe14  1  0.62415028  0.87627297  0.12439698  1
  Fe  Fe15  1  0.00102815  0.24786140  0.49958451  1
  Fe  Fe16  1  0.74953904  0.24806159  -0.00443714  1
  Fe  Fe17  1  0.37456036  0.87481144  0.12567488  1
  Fe  Fe18  1  0.62456587  0.87643202  0.87716935  1
  Fe  Fe19  1  0.50009965  0.50090596  0.49894105  1
  Fe  Fe20  1  0.24643000  0.75038348  0.24891384  1
  Fe  Fe21  1  0.00409476  0.24951216  0.75331867  1
  Fe  Fe22  1  -0.00165877  0.49948003  0.24794727  1
  Fe  Fe23  1  0.87612278  0.87598128  0.87489890  1
  Fe  Fe24  1  0.75356791  0.00094462  -0.00000150  1
  Fe  Fe25  1  0.75244783  -0.00004264  0.24974202  1
  Fe  Fe26  1  0.87866966  0.87395319  0.62343861  1
  Fe  Fe27  1  0.87983062  0.87490360  0.12676468  1
  Fe  Fe28  1  0.12232840  0.62586079  0.62422590  1
  Fe  Fe29  1  0.37429162  0.87495739  0.62255804  1
  Fe  Fe30  1  0.37334807  0.87759526  0.37527284  1
  Fe  Fe31  1  0.75044655  0.74892059  0.50213955  1
  Fe  Fe32  1  0.87398359  0.62584359  0.37319584  1
  Fe  Fe33  1  0.50133645  0.25063593  0.25113955  1
  Fe  Fe34  1  0.24899148  0.24888847  0.24970035  1
  Fe  Fe35  1  0.87327347  0.37491457  0.37520072  1
  Fe  Fe36  1  0.87567868  0.12672511  0.62701760  1
  Fe  Fe37  1  0.74797051  0.25098410  0.75351522  1
  Fe  Fe38  1  0.49890956  0.00089258  0.24981610  1
  Fe  Fe39  1  0.12518435  0.87605149  0.87751253  1
  Fe  Fe40  1  0.12384897  0.37460749  0.37440246  1
  Fe  Fe41  1  0.12236190  0.37486321  0.62344225  1
  Fe  Fe42  1  -0.00144343  0.49959708  0.75210116  1
  Fe  Fe43  1  0.37405369  0.37248975  0.87409603  1
  Fe  Fe44  1  0.24905964  0.74977472  0.00132875  1
  Fe  Fe45  1  0.24855372  0.75147139  0.74980865  1
  Fe  Fe46  1  0.62720238  0.62353495  0.87421347  1
  Fe  Fe47  1  0.75335069  0.50023356  0.00104222  1
  Fe  Fe48  1  0.62517962  0.12492569  0.62527692  1
  Fe  Fe49  1  0.62700481  0.62477802  0.12773462  1
  Fe  Fe50  1  0.62563536  0.37615373  0.62522380  1
  Fe  Fe51  1  0.12388678  0.62466173  0.12431285  1
  Fe  Fe52  1  0.87674482  0.87498541  0.37523707  1
  Fe  Fe53  1  0.62837983  0.37701966  0.37487866  1
  Fe  Fe54  1  -0.00395048  0.49950479  0.50113035  1
  Fe  Fe55  1  0.12436461  0.88024749  0.37087838  1
  Fe  Fe56  1  0.12370961  0.62252187  0.37523828  1
  Fe  Fe57  1  0.37042075  0.12604324  0.62683880  1
  Fe  Fe58  1  0.62879074  0.62339946  0.37449261  1
  Fe  Fe59  1  0.87502109  0.37055879  0.12344461  1
  Fe  Fe60  1  0.75128737  0.75063966  0.00156493  1
  Fe  Fe61  1  0.37323102  0.62331089  0.37325097  1
  Fe  Fe62  1  0.24837815  0.24877490  0.49839416  1
  Fe  Fe63  1  0.37566773  0.62666671  0.62350417  1
  Fe  Fe64  1  0.49876432  0.00245167  -0.00091038  1
  Fe  Fe65  1  0.37439461  0.87511390  0.87673779  1
  Fe  Fe66  1  0.24743256  0.00137246  0.00313783  1
  Fe  Fe67  1  0.49938941  0.24994145  0.50007118  1
  Fe  Fe68  1  0.75462346  0.49953583  0.74783997  1
  Fe  Fe69  1  0.00264489  0.00205528  0.50129049  1
  Fe  Fe70  1  0.25055535  0.49713084  0.00123449  1
  Fe  Fe71  1  0.49844752  0.00183227  0.50007608  1
  Fe  Fe72  1  0.75082718  0.25004424  0.50031735  1
  Fe  Fe73  1  0.49999512  0.74807257  0.00032449  1
  Fe  Fe74  1  0.37317298  0.62500340  0.87458608  1
  Fe  Fe75  1  0.37421505  0.37642588  0.37170491  1
  Fe  Fe76  1  0.50064418  0.75043479  0.75074577  1
  Fe  Fe77  1  0.74953411  0.75020931  0.74814504  1
  Fe  Fe78  1  -0.00230542  0.50173107  -0.00134832  1
  Fe  Fe79  1  0.62592227  0.12399785  0.37535429  1
  Fe  Fe80  1  0.37019362  0.12738123  0.87178712  1
  Fe  Fe81  1  0.00410833  0.00174499  0.75079396  1
  Fe  Fe82  1  0.49935500  0.49907293  0.75017365  1
  Fe  Fe83  1  0.62727841  0.12510698  0.12527266  1
  Fe  Fe84  1  0.37443562  0.37318379  0.62540872  1
  Fe  Fe85  1  0.62251201  0.87500404  0.62249385  1
  Fe  Fe86  1  0.50077213  0.75019653  0.25120853  1
  Fe  Fe87  1  0.37431321  0.62259497  0.12871928  1
  Fe  Fe88  1  0.37462477  0.12773290  0.12561603  1
  Fe  Fe89  1  0.50066742  0.25053657  -0.00290994  1
  Co  Co90  1  0.87392758  0.12365207  0.87171718  1
  Co  Co91  1  0.12203739  0.87728381  0.12594663  1
  Co  Co92  1  0.87625837  0.62810818  0.12637681  1
  Co  Co93  1  0.25224319  0.00235673  0.24707754  1
  Co  Co94  1  0.87884203  0.62840365  0.62483272  1
  Co  Co95  1  0.50023332  0.74856000  0.49731594  1
  Co  Co96  1  0.87659758  0.37334385  0.87632791  1
  Co  Co97  1  0.24682813  0.00083447  0.50073894  1
  Co  Co98  1  0.75040080  0.75289907  0.24936096  1
  Co  Co99  1  -0.00304640  0.00391102  0.24877916  1
  Co  Co100  1  0.12607462  0.62451407  0.87558819  1
  Co  Co101  1  0.12427703  0.12453381  0.12714299  1
  Co  Co102  1  0.24973540  0.25118932  0.00166853  1
  Co  Co103  1  0.24801267  -0.00435379  0.74900423  1
  Co  Co104  1  0.75391836  0.50027731  0.50325517  1
  Co  Co105  1  0.12516262  0.12350387  0.37255450  1
  Co  Co106  1  0.62581161  0.12145340  0.87516505  1
  Co  Co107  1  -0.00004140  0.00401728  -0.00093131  1
  Co  Co108  1  0.75220578  0.00026970  0.50155458  1
  Co  Co109  1  0.00205118  0.75086862  0.49634345  1
  Co  Co110  1  0.13084012  0.12364454  0.87441535  1
  Co  Co111  1  0.62350858  0.62322017  0.62561306  1
  Co  Co112  1  0.50259630  0.49942434  0.25060887  1
  Co  Co113  1  0.12294302  0.87357731  0.62450928  1
  Co  Co114  1  0.75367605  0.49772441  0.24662832  1
  Co  Co115  1  0.12752474  0.12629512  0.62587956  1
  Co  Co116  1  0.87641845  0.37041512  0.62658562  1
  Co  Co117  1  0.62522723  0.37857397  0.87484223  1
  Co  Co118  1  0.75084661  0.24952042  0.25183094  1
  Co  Co119  1  0.00284675  0.74842379  0.25096753  1
  Co  Co120  1  0.12387031  0.37593643  0.87813692  1
  Co  Co121  1  0.37542479  0.37461447  0.12836265  1
  Co  Co122  1  0.37478729  0.12464082  0.37539594  1
  Co  Co123  1  0.87329058  0.12681712  0.12488067  1
  Co  Co124  1  0.87362271  0.62649669  0.87498478  1
  Co  Co125  1  0.50196839  0.24933227  0.75069622  1
  Co  Co126  1  0.24553034  0.49820752  0.24869067  1
  Co  Co127  1  0.24519156  0.25508762  0.74971794  1
