# generated using pymatgen
data_Fe45Co19
_symmetry_space_group_name_H-M   'P 1'
_cell_length_a   11.41577592
_cell_length_b   11.41525534
_cell_length_c   11.41482312
_cell_angle_alpha   90.00135544
_cell_angle_beta   89.99176552
_cell_angle_gamma   89.99457457
_symmetry_Int_Tables_number   1
_chemical_formula_structural   Fe45Co19
_chemical_formula_sum   'Fe90 Co38'
_cell_volume   1487.51120411
_cell_formula_units_Z   2
loop_
 _symmetry_equiv_pos_site_id
 _symmetry_equiv_pos_as_xyz
  1  'x, y, z'
loop_
 _atom_site_type_symbol
 _atom_site_label
 _atom_site_symmetry_multiplicity
 _atom_site_fract_x
 _atom_site_fract_y
 _atom_site_fract_z
 _atom_site_occupancy
  Fe  Fe0  1  0.87557903  0.37119080  0.87759643  1
  Fe  Fe1  1  0.50337017  0.74887643  0.00122665  1
  Fe  Fe2  1  0.75277660  -0.00027414  -0.00377293  1
  Fe  Fe3  1  0.87332392  0.62374647  0.61852078  1
  Fe  Fe4  1  0.75215304  -0.00217873  0.25011339  1
  Fe  Fe5  1  0.00224210  0.24880660  0.75120315  1
  Fe  Fe6  1  0.12378159  0.37700570  0.62508718  1
  Fe  Fe7  1  0.00036010  0.25005912  0.24870754  1
  Fe  Fe8  1  0.24887668  0.24930777  0.50031602  1
  Fe  Fe9  1  0.12676199  0.12196486  0.62934770  1
  Fe  Fe10  1  0.37143187  0.12545861  0.62889477  1
  Fe  Fe11  1  0.75609002  -0.00205513  0.75322677  1
  Fe  Fe12  1  0.49747020  0.50267496  0.00071437  1
  Fe  Fe13  1  0.37447941  0.37554556  0.62376933  1
  Fe  Fe14  1  0.87596949  0.62718690  0.12547679  1
  Fe  Fe15  1  -0.00183793  0.75185996  0.74734864  1
  Fe  Fe16  1  0.75049094  0.50106820  -0.00156881  1
  Fe  Fe17  1  -0.00038814  -0.00372553  0.24959029  1
  Fe  Fe18  1  0.12778854  0.12114692  0.87398916  1
  Fe  Fe19  1  0.74899350  0.24951357  0.75109459  1
  Fe  Fe20  1  0.25345101  0.49917625  0.74928820  1
  Fe  Fe21  1  0.12445756  0.37824107  0.87502045  1
  Fe  Fe22  1  0.12375403  0.62452225  0.12656507  1
  Fe  Fe23  1  0.50007424  -0.00069151  0.25030850  1
  Fe  Fe24  1  0.25370169  0.49989389  0.24745650  1
  Fe  Fe25  1  0.12097058  0.62599240  0.37421542  1
  Fe  Fe26  1  0.00137793  0.24875116  0.50057150  1
  Fe  Fe27  1  0.37467962  0.37256557  0.87648994  1
  Fe  Fe28  1  0.12520047  0.12456247  0.37318364  1
  Fe  Fe29  1  0.87735984  0.87147538  0.12039704  1
  Fe  Fe30  1  0.25090539  0.75354434  0.74864988  1
  Fe  Fe31  1  0.62697342  0.37975040  0.62754906  1
  Fe  Fe32  1  0.24600275  0.75337754  0.24921654  1
  Fe  Fe33  1  0.24949324  0.25088709  0.24803917  1
  Fe  Fe34  1  0.62565643  0.37912125  0.87254936  1
  Fe  Fe35  1  0.37536275  0.87227646  0.12311988  1
  Fe  Fe36  1  0.49913206  0.00140398  0.49937486  1
  Fe  Fe37  1  -0.00356467  0.50065101  0.25226143  1
  Fe  Fe38  1  0.37491163  0.12597752  0.12417628  1
  Fe  Fe39  1  0.87760370  0.87018079  0.37888806  1
  Fe  Fe40  1  0.49739477  0.00037026  -0.00295133  1
  Fe  Fe41  1  0.62498431  0.62341241  0.86942830  1
  Fe  Fe42  1  0.37538551  0.62789636  0.87344424  1
  Fe  Fe43  1  0.87559191  0.12420411  0.62640222  1
  Fe  Fe44  1  0.62601643  0.37211855  0.37516093  1
  Fe  Fe45  1  0.87396887  0.37487029  0.62268781  1
  Fe  Fe46  1  0.50351334  0.24760100  -0.00243983  1
  Fe  Fe47  1  0.24727054  0.74989291  0.00017323  1
  Fe  Fe48  1  0.75061889  0.75124794  0.24982154  1
  Fe  Fe49  1  0.12496689  0.37513920  0.37362006  1
  Fe  Fe50  1  0.12484531  0.62405707  0.87132586  1
  Fe  Fe51  1  0.62411935  0.87522691  0.37667930  1
  Fe  Fe52  1  0.62393832  0.37688183  0.12577020  1
  Fe  Fe53  1  0.50243617  0.24792773  0.25083907  1
  Fe  Fe54  1  0.12132162  0.87739789  0.87800677  1
  Fe  Fe55  1  0.24729832  0.50194951  0.50073476  1
  Fe  Fe56  1  0.25014047  0.00139326  0.49969448  1
  Fe  Fe57  1  0.74682502  0.74915766  -0.00031069  1
  Fe  Fe58  1  0.62763200  0.12184444  0.12517873  1
  Fe  Fe59  1  0.62599155  0.12056422  0.62835001  1
  Fe  Fe60  1  0.37422357  0.12520952  0.37387204  1
  Fe  Fe61  1  0.12379463  0.87792586  0.62487829  1
  Fe  Fe62  1  0.25267430  0.50079322  0.00297645  1
  Fe  Fe63  1  0.37639592  0.62714934  0.37567731  1
  Fe  Fe64  1  0.62675779  0.62774968  0.37611360  1
  Fe  Fe65  1  0.87446958  0.62853938  0.87521057  1
  Fe  Fe66  1  0.87251671  0.12741714  0.37501800  1
  Fe  Fe67  1  0.50267770  0.24697982  0.50194202  1
  Fe  Fe68  1  0.75045686  0.75177721  0.74444316  1
  Fe  Fe69  1  0.24650353  0.25174103  0.00230522  1
  Fe  Fe70  1  0.37497325  0.87324466  0.37823855  1
  Fe  Fe71  1  0.87531131  0.37209990  0.12174544  1
  Fe  Fe72  1  -0.00063191  0.50210355  -0.00060938  1
  Fe  Fe73  1  0.24879545  -0.00380957  0.24915720  1
  Fe  Fe74  1  0.87334709  0.37226552  0.37792693  1
  Fe  Fe75  1  0.37605982  0.37498626  0.37477453  1
  Fe  Fe76  1  0.50143602  0.75080815  0.24910522  1
  Fe  Fe77  1  0.49263975  -0.00183500  0.75278642  1
  Fe  Fe78  1  0.62489544  0.87504098  0.87271928  1
  Fe  Fe79  1  0.24726160  0.74837738  0.50212080  1
  Fe  Fe80  1  0.75000135  -0.00049435  0.49929972  1
  Fe  Fe81  1  0.87421872  0.12861807  0.12170287  1
  Fe  Fe82  1  0.62517684  0.62323310  0.12719192  1
  Fe  Fe83  1  -0.00359586  0.50099881  0.74900053  1
  Fe  Fe84  1  0.49956819  0.75026662  0.74285556  1
  Fe  Fe85  1  0.75184159  0.49997807  0.25265030  1
  Fe  Fe86  1  0.50186842  0.50288056  0.50054047  1
  Fe  Fe87  1  0.12414489  0.12009140  0.12329242  1
  Fe  Fe88  1  0.00063645  0.00115003  0.49923190  1
  Fe  Fe89  1  0.50012820  0.24996618  0.75080831  1
  Co  Co90  1  0.25376942  -0.00605773  0.75323316  1
  Co  Co91  1  0.24756629  0.25345630  0.74988744  1
  Co  Co92  1  0.12445249  0.87549885  0.37905574  1
  Co  Co93  1  0.00651774  0.24917609  -0.00062471  1
  Co  Co94  1  0.62792907  0.12362871  0.37432033  1
  Co  Co95  1  0.49995573  0.50193190  0.25147728  1
  Co  Co96  1  0.74751793  0.24791124  0.50391362  1
  Co  Co97  1  0.37801504  0.86882598  0.87807286  1
  Co  Co98  1  0.87505768  0.86930118  0.87739894  1
  Co  Co99  1  0.37844006  0.37258347  0.12518622  1
  Co  Co100  1  0.37051254  0.12987578  0.87375393  1
  Co  Co101  1  0.00190458  0.75316154  0.24921337  1
  Co  Co102  1  0.87520771  0.13086213  0.87617073  1
  Co  Co103  1  0.87519421  0.63033535  0.37844121  1
  Co  Co104  1  0.74560068  0.75290159  0.50447861  1
  Co  Co105  1  0.75606108  0.50045887  0.75214910  1
  Co  Co106  1  0.74424814  0.25015824  -0.00206622  1
  Co  Co107  1  0.49463288  0.50018604  0.75031836  1
  Co  Co108  1  0.12464316  0.62404220  0.62949040  1
  Co  Co109  1  0.62590976  0.87775101  0.12335897  1
  Co  Co110  1  0.74894681  0.25064126  0.24852310  1
  Co  Co111  1  0.62406126  0.88133566  0.62662079  1
  Co  Co112  1  0.50377374  0.74820119  0.50509162  1
  Co  Co113  1  0.12273200  0.37902175  0.12659262  1
  Co  Co114  1  0.62569580  0.12045667  0.87163724  1
  Co  Co115  1  0.37409394  0.87500592  0.61990538  1
  Co  Co116  1  0.00282839  0.74916135  0.50360636  1
  Co  Co117  1  0.00124205  0.50003588  0.49919399  1
  Co  Co118  1  0.37320850  0.62455618  0.62459673  1
  Co  Co119  1  0.25500414  -0.00199565  -0.00154022  1
  Co  Co120  1  0.00272628  0.74632329  -0.00093676  1
  Co  Co121  1  0.74827568  0.49951461  0.49633152  1
  Co  Co122  1  0.12256437  0.87762228  0.11948506  1
  Co  Co123  1  0.37512326  0.62942655  0.12608655  1
  Co  Co124  1  -0.00321004  -0.00086807  0.75407233  1
  Co  Co125  1  -0.00539840  0.00168377  -0.00278588  1
  Co  Co126  1  0.87699671  0.87767291  0.62183251  1
  Co  Co127  1  0.62817570  0.61897144  0.62766382  1
