# generated using pymatgen
data_Fe45Co19
_symmetry_space_group_name_H-M   'P 1'
_cell_length_a   11.41581493
_cell_length_b   11.41638621
_cell_length_c   11.41457692
_cell_angle_alpha   89.99792301
_cell_angle_beta   89.99197946
_cell_angle_gamma   89.99378869
_symmetry_Int_Tables_number   1
_chemical_formula_structural   Fe45Co19
_chemical_formula_sum   'Fe90 Co38'
_cell_volume   1487.63156167
_cell_formula_units_Z   2
loop_
 _symmetry_equiv_pos_site_id
 _symmetry_equiv_pos_as_xyz
  1  'x, y, z'
loop_
 _atom_site_type_symbol
 _atom_site_label
 _atom_site_symmetry_multiplicity
 _atom_site_fract_x
 _atom_site_fract_y
 _atom_site_fract_z
 _atom_site_occupancy
  Fe  Fe0  1  0.24880522  0.25148733  0.25194468  1
  Fe  Fe1  1  0.12557619  0.37539583  0.12380949  1
  Fe  Fe2  1  0.62664393  0.87434465  0.87375827  1
  Fe  Fe3  1  0.12340432  0.37721394  0.37883235  1
  Fe  Fe4  1  0.12291008  0.12375645  0.87283639  1
  Fe  Fe5  1  0.37610669  0.62372512  0.37530394  1
  Fe  Fe6  1  0.75107688  0.00325388  0.49862167  1
  Fe  Fe7  1  0.00341657  0.75234201  0.25231439  1
  Fe  Fe8  1  -0.00103417  -0.00249915  0.25124672  1
  Fe  Fe9  1  0.24882673  -0.00086997  -0.00074473  1
  Fe  Fe10  1  0.87640022  0.62513206  0.12456311  1
  Fe  Fe11  1  0.50267118  0.00140556  0.00212445  1
  Fe  Fe12  1  0.50158154  0.25519769  0.74793395  1
  Fe  Fe13  1  0.87300128  0.87438811  0.12188259  1
  Fe  Fe14  1  0.37496565  0.87467744  0.37781644  1
  Fe  Fe15  1  0.37851077  0.62284424  0.87245056  1
  Fe  Fe16  1  0.00321938  0.74936586  0.50007726  1
  Fe  Fe17  1  0.37792658  0.12578521  0.87341906  1
  Fe  Fe18  1  0.75233975  0.49926734  0.25045394  1
  Fe  Fe19  1  0.37460552  0.87289350  0.12530591  1
  Fe  Fe20  1  0.12852291  0.87567082  0.62156781  1
  Fe  Fe21  1  0.86974351  0.87239591  0.62473539  1
  Fe  Fe22  1  -0.00159126  0.25124669  0.25065030  1
  Fe  Fe23  1  0.62500609  0.62281833  0.62769383  1
  Fe  Fe24  1  0.74914466  0.75074573  0.24879600  1
  Fe  Fe25  1  0.87781318  0.62524717  0.37567962  1
  Fe  Fe26  1  0.49978238  -0.00306243  0.74936380  1
  Fe  Fe27  1  0.24827995  0.50200147  0.50503200  1
  Fe  Fe28  1  0.62286715  0.62402648  0.37193313  1
  Fe  Fe29  1  0.25149511  0.00121543  0.74956836  1
  Fe  Fe30  1  0.62502441  0.37464924  0.12466240  1
  Fe  Fe31  1  0.87545341  0.37700555  0.87507030  1
  Fe  Fe32  1  0.12491647  0.37808244  0.87127934  1
  Fe  Fe33  1  0.62126544  0.62253786  0.87124088  1
  Fe  Fe34  1  -0.00113404  0.49801435  0.24928929  1
  Fe  Fe35  1  0.62810210  0.87554325  0.62605458  1
  Fe  Fe36  1  0.50190848  0.00257714  0.49988079  1
  Fe  Fe37  1  0.00070488  0.25040941  -0.00043594  1
  Fe  Fe38  1  0.62519885  0.37659390  0.87559835  1
  Fe  Fe39  1  0.37429774  0.37647953  0.87300027  1
  Fe  Fe40  1  0.00262092  0.75135822  -0.00169574  1
  Fe  Fe41  1  0.24723413  0.74970347  -0.00154574  1
  Fe  Fe42  1  0.37571992  0.87422708  0.87593280  1
  Fe  Fe43  1  0.62860828  0.12756813  0.36850832  1
  Fe  Fe44  1  0.25218987  0.74937917  0.74968708  1
  Fe  Fe45  1  0.24952470  0.49899016  0.24951377  1
  Fe  Fe46  1  0.62436281  0.87366908  0.37558754  1
  Fe  Fe47  1  -0.00361425  -0.00402009  0.74951305  1
  Fe  Fe48  1  0.37841754  0.62351650  0.62652922  1
  Fe  Fe49  1  0.00024419  -0.00248422  -0.00198036  1
  Fe  Fe50  1  0.12346838  0.62438217  0.12592461  1
  Fe  Fe51  1  0.62717659  0.37576841  0.37641785  1
  Fe  Fe52  1  0.74918785  0.50296159  -0.00063706  1
  Fe  Fe53  1  0.50038892  0.74837726  0.50058520  1
  Fe  Fe54  1  0.12308766  0.62234496  0.86939428  1
  Fe  Fe55  1  0.87264199  0.12448829  0.12644915  1
  Fe  Fe56  1  0.12473419  0.12483569  0.12514691  1
  Fe  Fe57  1  0.37641631  0.62548024  0.12516165  1
  Fe  Fe58  1  0.50321288  0.25062436  0.50007045  1
  Fe  Fe59  1  0.37702620  0.12815120  0.62645423  1
  Fe  Fe60  1  0.37508030  0.12697377  0.12657814  1
  Fe  Fe61  1  0.49967410  0.25000225  0.00200917  1
  Fe  Fe62  1  0.49842268  0.49739825  0.24826981  1
  Fe  Fe63  1  0.24840202  -0.00136428  0.25111691  1
  Fe  Fe64  1  0.37422258  0.87458360  0.62181841  1
  Fe  Fe65  1  -0.00268179  0.24864350  0.50182118  1
  Fe  Fe66  1  0.12450514  0.12490090  0.62578311  1
  Fe  Fe67  1  0.87086262  0.12757392  0.62873181  1
  Fe  Fe68  1  0.74818252  0.00464020  -0.00442024  1
  Fe  Fe69  1  0.37709520  0.12587058  0.37398597  1
  Fe  Fe70  1  0.24988394  0.50082172  -0.00072721  1
  Fe  Fe71  1  0.50243501  0.74885701  0.00151818  1
  Fe  Fe72  1  0.12187874  0.12163114  0.37780570  1
  Fe  Fe73  1  0.24946892  0.24749306  0.50038250  1
  Fe  Fe74  1  0.87804013  0.62385798  0.87208087  1
  Fe  Fe75  1  0.24947012  0.25000054  -0.00211434  1
  Fe  Fe76  1  0.24619436  0.75071038  0.25451168  1
  Fe  Fe77  1  0.62757339  0.12450404  0.62980607  1
  Fe  Fe78  1  0.74955052  0.24653710  -0.00306745  1
  Fe  Fe79  1  -0.00169574  0.75332366  0.74984544  1
  Fe  Fe80  1  0.37519278  0.37564084  0.37879702  1
  Fe  Fe81  1  0.74799705  0.74578408  0.49939073  1
  Fe  Fe82  1  -0.00209686  0.25411008  0.74868435  1
  Fe  Fe83  1  0.87362584  0.37491181  0.38080639  1
  Fe  Fe84  1  0.87483428  0.87473749  0.37793892  1
  Fe  Fe85  1  0.87491268  0.37623028  0.12123310  1
  Fe  Fe86  1  -0.00120453  0.50017585  0.50827187  1
  Fe  Fe87  1  0.50269128  -0.00177858  0.24792781  1
  Fe  Fe88  1  0.63233323  0.37753841  0.62237283  1
  Fe  Fe89  1  0.74775598  0.74617420  -0.00087334  1
  Co  Co90  1  0.87099553  0.87283786  0.87720900  1
  Co  Co91  1  0.74936799  0.25126129  0.75496170  1
  Co  Co92  1  0.87382573  0.12510026  0.37206733  1
  Co  Co93  1  0.37341234  0.37418910  0.12396428  1
  Co  Co94  1  0.75102199  0.50649295  0.49864187  1
  Co  Co95  1  0.25114084  0.50113111  0.74654432  1
  Co  Co96  1  0.37236389  0.37311179  0.62314515  1
  Co  Co97  1  0.12298656  0.62766609  0.62875771  1
  Co  Co98  1  0.50058177  0.75278119  0.74859489  1
  Co  Co99  1  0.87927379  0.12667249  0.87279414  1
  Co  Co100  1  0.12511007  0.87450043  0.12463044  1
  Co  Co101  1  0.75057743  -0.00456341  0.25148847  1
  Co  Co102  1  0.75486255  0.25552839  0.24942789  1
  Co  Co103  1  0.75187764  0.00097438  0.75442576  1
  Co  Co104  1  0.12569651  0.87980534  0.38165603  1
  Co  Co105  1  0.87453947  0.62875470  0.62580486  1
  Co  Co106  1  0.50015628  0.75159942  0.24942561  1
  Co  Co107  1  0.62727772  0.12758113  0.12883952  1
  Co  Co108  1  0.25363456  0.00438281  0.50162359  1
  Co  Co109  1  0.50121097  0.49966449  0.50144526  1
  Co  Co110  1  0.62406132  0.62295038  0.12821555  1
  Co  Co111  1  0.49949054  0.49956332  0.00102379  1
  Co  Co112  1  0.12686529  0.87570105  0.87229851  1
  Co  Co113  1  0.75256299  0.50110632  0.75087718  1
  Co  Co114  1  0.86683921  0.37215521  0.62219482  1
  Co  Co115  1  0.00163040  0.50071602  -0.00018293  1
  Co  Co116  1  0.62766522  0.87516912  0.12231676  1
  Co  Co117  1  0.61957662  0.12607372  0.87117976  1
  Co  Co118  1  0.12305006  0.62016209  0.37632800  1
  Co  Co119  1  0.50096802  0.49504247  0.74712405  1
  Co  Co120  1  -0.00361512  0.49638516  0.74246236  1
  Co  Co121  1  0.74863258  0.24455047  0.49841308  1
  Co  Co122  1  -0.00609566  0.00122012  0.50396728  1
  Co  Co123  1  0.12783781  0.37209034  0.62603365  1
  Co  Co124  1  0.24998252  0.74554184  0.49854863  1
  Co  Co125  1  0.74902837  0.74719206  0.75168395  1
  Co  Co126  1  0.49846018  0.25341975  0.25038941  1
  Co  Co127  1  0.25013474  0.24837796  0.75176476  1
