# generated using pymatgen
data_Fe45Co19
_symmetry_space_group_name_H-M   'P 1'
_cell_length_a   11.41437608
_cell_length_b   11.41433214
_cell_length_c   11.41560675
_cell_angle_alpha   90.00070770
_cell_angle_beta   90.00963120
_cell_angle_gamma   89.99281073
_symmetry_Int_Tables_number   1
_chemical_formula_structural   Fe45Co19
_chemical_formula_sum   'Fe90 Co38'
_cell_volume   1487.31059906
_cell_formula_units_Z   2
loop_
 _symmetry_equiv_pos_site_id
 _symmetry_equiv_pos_as_xyz
  1  'x, y, z'
loop_
 _atom_site_type_symbol
 _atom_site_label
 _atom_site_symmetry_multiplicity
 _atom_site_fract_x
 _atom_site_fract_y
 _atom_site_fract_z
 _atom_site_occupancy
  Fe  Fe0  1  0.74800564  0.74504797  -0.00275366  1
  Fe  Fe1  1  -0.00161401  0.49926772  0.25193357  1
  Fe  Fe2  1  0.74853058  0.74600269  0.49999667  1
  Fe  Fe3  1  -0.00040057  0.25073896  0.25155594  1
  Fe  Fe4  1  0.74752317  0.74896572  0.75152206  1
  Fe  Fe5  1  0.37652178  0.37020690  0.12068822  1
  Fe  Fe6  1  0.37445670  0.87499273  0.37683117  1
  Fe  Fe7  1  0.74895143  0.24749522  0.50044602  1
  Fe  Fe8  1  0.12341714  0.12489721  0.12579334  1
  Fe  Fe9  1  0.62802790  0.12232906  0.87169514  1
  Fe  Fe10  1  -0.00407449  0.50233985  -0.00238914  1
  Fe  Fe11  1  0.12412612  0.12612132  0.87310156  1
  Fe  Fe12  1  0.00121449  0.75140562  0.24918768  1
  Fe  Fe13  1  0.49870736  0.49828989  0.24750963  1
  Fe  Fe14  1  0.00068629  0.74894685  0.50056628  1
  Fe  Fe15  1  0.25103032  0.24709202  0.50220315  1
  Fe  Fe16  1  0.12505799  0.87610977  0.12339946  1
  Fe  Fe17  1  0.75050184  -0.00390833  0.74745370  1
  Fe  Fe18  1  0.37427160  0.37076412  0.87699199  1
  Fe  Fe19  1  0.87479690  0.37553496  0.37832326  1
  Fe  Fe20  1  0.12522662  0.37429814  0.37695916  1
  Fe  Fe21  1  0.25222259  0.24914267  0.24691215  1
  Fe  Fe22  1  0.24825316  0.75227114  0.75179386  1
  Fe  Fe23  1  0.62789083  0.37877911  0.87795617  1
  Fe  Fe24  1  -0.00306794  0.25448309  0.74942092  1
  Fe  Fe25  1  0.62143812  0.12247552  0.12891729  1
  Fe  Fe26  1  0.75206320  0.25407140  0.74851374  1
  Fe  Fe27  1  0.25297293  0.49853487  0.24799485  1
  Fe  Fe28  1  0.24925752  0.75159425  0.25003013  1
  Fe  Fe29  1  0.24901033  0.75025966  0.49991868  1
  Fe  Fe30  1  0.37617653  0.87607330  0.62648824  1
  Fe  Fe31  1  0.12316462  0.37548570  0.62200180  1
  Fe  Fe32  1  0.12540164  0.62532269  0.37368942  1
  Fe  Fe33  1  0.50082080  -0.00214812  -0.00252157  1
  Fe  Fe34  1  0.87311142  0.37414262  0.12332418  1
  Fe  Fe35  1  0.62734085  0.87720973  0.37599678  1
  Fe  Fe36  1  0.62669034  0.37731001  0.12168698  1
  Fe  Fe37  1  0.12395567  0.37529248  0.12322017  1
  Fe  Fe38  1  0.25272916  -0.00037844  0.24968933  1
  Fe  Fe39  1  0.74984856  0.24568090  0.00072925  1
  Fe  Fe40  1  -0.00126089  -0.00395747  0.75114759  1
  Fe  Fe41  1  0.24953775  0.49933461  0.75192201  1
  Fe  Fe42  1  -0.00220002  -0.00164662  0.24964354  1
  Fe  Fe43  1  0.62141774  0.62274489  0.12304598  1
  Fe  Fe44  1  0.25163627  0.50221829  0.50090509  1
  Fe  Fe45  1  0.12652288  0.12363598  0.37443753  1
  Fe  Fe46  1  0.50400564  0.75598329  0.75531768  1
  Fe  Fe47  1  0.87418843  0.87232866  0.87617638  1
  Fe  Fe48  1  0.87824584  0.62105059  0.62967936  1
  Fe  Fe49  1  0.37768805  0.37388781  0.37802623  1
  Fe  Fe50  1  0.62436967  0.12303215  0.62749596  1
  Fe  Fe51  1  0.62332696  0.12292872  0.37208333  1
  Fe  Fe52  1  0.87484454  0.12528923  0.62619751  1
  Fe  Fe53  1  0.74632958  0.74800847  0.25119385  1
  Fe  Fe54  1  0.37547086  0.87417734  0.12216078  1
  Fe  Fe55  1  0.24923114  0.74944932  -0.00081285  1
  Fe  Fe56  1  0.50176624  0.74968253  0.49955205  1
  Fe  Fe57  1  0.12309153  0.62323399  0.62813474  1
  Fe  Fe58  1  0.62316455  0.37774615  0.37703396  1
  Fe  Fe59  1  0.11937173  0.62855717  0.87355467  1
  Fe  Fe60  1  0.74966463  0.50465308  0.49871094  1
  Fe  Fe61  1  0.12529968  0.12452420  0.62607363  1
  Fe  Fe62  1  0.74840211  0.25037350  0.24980032  1
  Fe  Fe63  1  0.87388259  0.62445980  0.12819687  1
  Fe  Fe64  1  0.75231712  0.00306405  0.00302760  1
  Fe  Fe65  1  0.87183538  0.87464302  0.62201167  1
  Fe  Fe66  1  0.12732356  0.87723494  0.62339322  1
  Fe  Fe67  1  0.87145012  0.87361394  0.12539463  1
  Fe  Fe68  1  0.37504372  0.12777597  0.87479649  1
  Fe  Fe69  1  0.50114333  0.00080091  0.50257680  1
  Fe  Fe70  1  0.12586896  0.62378923  0.12533478  1
  Fe  Fe71  1  0.37588123  0.37311846  0.62416124  1
  Fe  Fe72  1  0.37650324  0.62736445  0.62792911  1
  Fe  Fe73  1  0.87277654  0.87434536  0.37577442  1
  Fe  Fe74  1  0.24986268  0.00226476  -0.00087279  1
  Fe  Fe75  1  0.37779469  0.12562900  0.37471812  1
  Fe  Fe76  1  0.50127462  0.25002750  0.74999746  1
  Fe  Fe77  1  0.62576389  0.37720995  0.62311562  1
  Fe  Fe78  1  -0.00304383  0.00040967  -0.00077764  1
  Fe  Fe79  1  0.49924427  0.49782345  0.75111027  1
  Fe  Fe80  1  0.37858456  0.62759847  0.87601783  1
  Fe  Fe81  1  -0.00004303  0.00077982  0.49909937  1
  Fe  Fe82  1  0.87342994  0.12433027  0.37381260  1
  Fe  Fe83  1  0.50182903  0.75300078  0.24811242  1
  Fe  Fe84  1  0.25244015  0.50183669  -0.00058372  1
  Fe  Fe85  1  -0.00272019  0.24778918  -0.00194396  1
  Fe  Fe86  1  0.37713408  0.62491422  0.37355405  1
  Fe  Fe87  1  0.62241485  0.62430687  0.62753618  1
  Fe  Fe88  1  0.12670219  0.37304772  0.87724039  1
  Fe  Fe89  1  0.25150904  -0.00034508  0.75169506  1
  Co  Co90  1  0.74857392  0.00248628  0.50077900  1
  Co  Co91  1  0.12393097  0.87565733  0.37542314  1
  Co  Co92  1  0.12362878  0.87396631  0.87750702  1
  Co  Co93  1  0.87497021  0.37784470  0.61944120  1
  Co  Co94  1  0.87569356  0.62680057  0.37239936  1
  Co  Co95  1  0.00028548  0.75595055  0.74619290  1
  Co  Co96  1  0.87326268  0.12484313  0.87030639  1
  Co  Co97  1  0.63077988  0.87831856  0.87696167  1
  Co  Co98  1  0.62074990  0.62287080  0.37328077  1
  Co  Co99  1  0.62085166  0.62070846  0.87546511  1
  Co  Co100  1  0.74959785  0.49936511  0.25100583  1
  Co  Co101  1  0.50240124  0.24758234  0.50184886  1
  Co  Co102  1  0.49804674  -0.00480261  0.24982896  1
  Co  Co103  1  0.62803016  0.87644713  0.12384381  1
  Co  Co104  1  0.49569563  0.49891122  0.00023714  1
  Co  Co105  1  0.00036703  0.50374857  0.49748563  1
  Co  Co106  1  0.87953134  0.62826733  0.86909845  1
  Co  Co107  1  0.50552603  0.24756477  -0.00207705  1
  Co  Co108  1  0.49851544  0.50212809  0.50256308  1
  Co  Co109  1  0.37640706  0.12429129  0.62684791  1
  Co  Co110  1  0.75420332  0.50615997  -0.00242791  1
  Co  Co111  1  0.87646691  0.12791092  0.12779704  1
  Co  Co112  1  0.75068306  0.50014760  0.75087647  1
  Co  Co113  1  -0.00212700  0.74972706  0.00360364  1
  Co  Co114  1  0.50352629  0.75411107  -0.00167432  1
  Co  Co115  1  -0.00030491  0.24599768  0.50008204  1
  Co  Co116  1  0.37929422  0.12518427  0.12364825  1
  Co  Co117  1  0.00009580  0.49311037  0.75377456  1
  Co  Co118  1  0.62461718  0.87479630  0.62367022  1
  Co  Co119  1  0.75166185  0.00108443  0.24870135  1
  Co  Co120  1  0.25168507  0.00065861  0.49953461  1
  Co  Co121  1  0.50080648  0.25320233  0.24928528  1
  Co  Co122  1  0.24848310  0.24733923  0.00314744  1
  Co  Co123  1  0.49993475  -0.00153982  0.75198275  1
  Co  Co124  1  0.37296277  0.87481819  0.87571881  1
  Co  Co125  1  0.24977316  0.25098382  0.74782309  1
  Co  Co126  1  0.87014728  0.37378468  0.87850554  1
  Co  Co127  1  0.37668227  0.62896309  0.12482600  1
