# generated using pymatgen
data_Fe45Co19
_symmetry_space_group_name_H-M   'P 1'
_cell_length_a   11.41331646
_cell_length_b   11.41366731
_cell_length_c   11.41398721
_cell_angle_alpha   90.00165742
_cell_angle_beta   90.00082521
_cell_angle_gamma   89.98820144
_symmetry_Int_Tables_number   1
_chemical_formula_structural   Fe45Co19
_chemical_formula_sum   'Fe90 Co38'
_cell_volume   1486.87493654
_cell_formula_units_Z   2
loop_
 _symmetry_equiv_pos_site_id
 _symmetry_equiv_pos_as_xyz
  1  'x, y, z'
loop_
 _atom_site_type_symbol
 _atom_site_label
 _atom_site_symmetry_multiplicity
 _atom_site_fract_x
 _atom_site_fract_y
 _atom_site_fract_z
 _atom_site_occupancy
  Fe  Fe0  1  0.62645923  0.37375226  0.12531109  1
  Fe  Fe1  1  -0.00094813  0.74947428  0.49862727  1
  Fe  Fe2  1  0.24928514  0.75041885  0.75037121  1
  Fe  Fe3  1  0.37522415  0.12283396  0.87540557  1
  Fe  Fe4  1  0.37420947  0.37738421  0.37382646  1
  Fe  Fe5  1  0.49977179  0.75047831  0.49881441  1
  Fe  Fe6  1  0.12271691  0.87642893  0.87689996  1
  Fe  Fe7  1  0.49791509  0.24928905  0.24935163  1
  Fe  Fe8  1  0.62688097  0.37634112  0.37476696  1
  Fe  Fe9  1  0.37491686  0.37709612  0.87636820  1
  Fe  Fe10  1  0.24740215  0.49874729  0.00263872  1
  Fe  Fe11  1  0.24857105  0.50083273  0.24853144  1
  Fe  Fe12  1  -0.00078896  0.74919796  0.25124635  1
  Fe  Fe13  1  0.50060595  0.49965214  0.24694238  1
  Fe  Fe14  1  0.12556972  0.12331047  0.87537465  1
  Fe  Fe15  1  0.62453429  0.62373075  0.87568032  1
  Fe  Fe16  1  0.25034462  0.75495687  0.00230940  1
  Fe  Fe17  1  0.74876501  0.00228534  0.25497193  1
  Fe  Fe18  1  0.75164568  0.74951204  0.49852164  1
  Fe  Fe19  1  0.87682218  0.12227013  0.87448403  1
  Fe  Fe20  1  0.50182881  0.49998660  0.50072443  1
  Fe  Fe21  1  0.75423820  0.24867608  0.25259338  1
  Fe  Fe22  1  0.00068069  0.24870786  0.74997094  1
  Fe  Fe23  1  -0.00052618  0.00351450  0.24885258  1
  Fe  Fe24  1  0.12674229  0.12459368  0.62504731  1
  Fe  Fe25  1  0.87669905  0.37210075  0.12281641  1
  Fe  Fe26  1  0.49911008  0.50080849  0.74968916  1
  Fe  Fe27  1  0.49889261  0.25133278  0.50034267  1
  Fe  Fe28  1  0.24915776  0.75215945  0.49705824  1
  Fe  Fe29  1  0.49952031  0.74983934  0.25040903  1
  Fe  Fe30  1  0.12215630  0.62975319  0.12261170  1
  Fe  Fe31  1  0.12188022  0.37689289  0.87553860  1
  Fe  Fe32  1  0.24868273  0.25080603  0.49765514  1
  Fe  Fe33  1  0.24622807  0.50310056  0.74974111  1
  Fe  Fe34  1  0.24999467  0.24934857  0.00015158  1
  Fe  Fe35  1  0.62773668  0.62573274  0.62569162  1
  Fe  Fe36  1  0.49885213  0.74979742  0.74894254  1
  Fe  Fe37  1  0.75027586  -0.00133590  -0.00124739  1
  Fe  Fe38  1  0.87917417  0.37707023  0.87392393  1
  Fe  Fe39  1  0.12388201  0.37567656  0.62470510  1
  Fe  Fe40  1  0.12442194  0.62458321  0.37598440  1
  Fe  Fe41  1  0.49851562  0.25121065  0.00169725  1
  Fe  Fe42  1  0.87488858  0.87315077  0.62766471  1
  Fe  Fe43  1  0.00259483  0.74729179  0.75212316  1
  Fe  Fe44  1  0.12184918  0.37518282  0.37309599  1
  Fe  Fe45  1  0.75201709  0.24851864  -0.00237675  1
  Fe  Fe46  1  0.12281326  0.36848411  0.12728458  1
  Fe  Fe47  1  0.87573289  0.87543297  0.12486897  1
  Fe  Fe48  1  0.75291756  0.49866420  0.74562416  1
  Fe  Fe49  1  0.37321259  0.87535037  0.37225421  1
  Fe  Fe50  1  0.75050817  0.24992734  0.74939199  1
  Fe  Fe51  1  0.75029474  -0.00066417  0.74905735  1
  Fe  Fe52  1  0.62282205  0.87623319  0.87316974  1
  Fe  Fe53  1  0.37447131  0.12141922  0.62333695  1
  Fe  Fe54  1  0.62594979  0.87366238  0.62575118  1
  Fe  Fe55  1  0.62671585  0.62555537  0.12457053  1
  Fe  Fe56  1  0.37149186  0.62535282  0.62277612  1
  Fe  Fe57  1  -0.00273592  0.50386356  0.50511733  1
  Fe  Fe58  1  0.37340333  0.37677032  0.62494347  1
  Fe  Fe59  1  0.12605479  0.87396994  0.62390693  1
  Fe  Fe60  1  0.87619520  0.37696290  0.37771819  1
  Fe  Fe61  1  0.37290357  0.62369176  0.37494382  1
  Fe  Fe62  1  0.75039773  0.25165643  0.50110802  1
  Fe  Fe63  1  0.37199819  0.12232498  0.12621924  1
  Fe  Fe64  1  0.49944086  0.24992802  0.74893682  1
  Fe  Fe65  1  0.00176134  0.00245678  0.00329442  1
  Fe  Fe66  1  0.87584363  0.12508040  0.62291426  1
  Fe  Fe67  1  0.75277153  0.74856215  0.25082297  1
  Fe  Fe68  1  0.00152968  0.00000224  0.50065968  1
  Fe  Fe69  1  0.62435795  0.12394323  0.62326373  1
  Fe  Fe70  1  0.62644799  0.12547425  0.12662575  1
  Fe  Fe71  1  0.87767023  0.62272416  0.87516980  1
  Fe  Fe72  1  0.37707096  0.87559122  0.87511270  1
  Fe  Fe73  1  0.25039767  0.25000557  0.74990786  1
  Fe  Fe74  1  0.62447246  0.37556415  0.87432002  1
  Fe  Fe75  1  -0.00336950  0.50212260  0.24652193  1
  Fe  Fe76  1  0.49914135  -0.00216226  0.00298126  1
  Fe  Fe77  1  0.50307155  -0.00298005  0.49643307  1
  Fe  Fe78  1  0.37460840  0.62511502  0.87850123  1
  Fe  Fe79  1  0.75200161  0.75237989  -0.00346473  1
  Fe  Fe80  1  0.62467487  0.87460422  0.12756125  1
  Fe  Fe81  1  0.25072553  -0.00176462  0.74949770  1
  Fe  Fe82  1  0.37434743  0.12249622  0.37416969  1
  Fe  Fe83  1  0.62301277  0.12407445  0.87472553  1
  Fe  Fe84  1  0.62922530  0.62244855  0.37404358  1
  Fe  Fe85  1  0.75145915  0.50043941  0.00206934  1
  Fe  Fe86  1  0.37592717  0.62624572  0.12303895  1
  Fe  Fe87  1  0.87563259  0.87684550  0.37511304  1
  Fe  Fe88  1  0.12366645  0.12645413  0.37277691  1
  Fe  Fe89  1  0.24530491  -0.00330198  0.24769801  1
  Co  Co90  1  0.50325644  0.00024024  0.25251531  1
  Co  Co91  1  0.25229151  0.25103847  0.25318191  1
  Co  Co92  1  0.75015926  0.75145216  0.75570311  1
  Co  Co93  1  0.74906360  -0.00276551  0.49977315  1
  Co  Co94  1  0.00308329  0.24813646  0.49955474  1
  Co  Co95  1  0.50167857  0.49921781  0.00162053  1
  Co  Co96  1  0.62555116  0.12897334  0.37620436  1
  Co  Co97  1  0.87890212  0.87875139  0.87370606  1
  Co  Co98  1  0.37409562  0.87614545  0.62217515  1
  Co  Co99  1  0.00255799  0.50444332  0.74681963  1
  Co  Co100  1  0.87876871  0.37235113  0.62498206  1
  Co  Co101  1  0.49975363  -0.00093815  0.74863868  1
  Co  Co102  1  0.12074821  0.87235105  0.12478535  1
  Co  Co103  1  0.50204038  0.75186827  0.00029467  1
  Co  Co104  1  0.12304327  0.87444116  0.37419320  1
  Co  Co105  1  0.00133208  0.00050300  0.74686275  1
  Co  Co106  1  -0.00605984  0.24638509  0.25115313  1
  Co  Co107  1  0.87313734  0.63028240  0.62791955  1
  Co  Co108  1  0.12689835  0.12938313  0.12675713  1
  Co  Co109  1  0.00085766  0.49957739  0.00378417  1
  Co  Co110  1  0.75229907  0.50020389  0.50391364  1
  Co  Co111  1  -0.00067144  0.24645963  -0.00126406  1
  Co  Co112  1  0.24683438  -0.00021521  0.49767736  1
  Co  Co113  1  0.12765412  0.62788671  0.62113579  1
  Co  Co114  1  0.12582617  0.62551635  0.88007284  1
  Co  Co115  1  0.87484292  0.62855898  0.12320584  1
  Co  Co116  1  0.75362058  0.49886740  0.24728308  1
  Co  Co117  1  0.87209401  0.12378405  0.12349252  1
  Co  Co118  1  0.87464980  0.12343560  0.38008096  1
  Co  Co119  1  0.24805820  0.49767486  0.49849044  1
  Co  Co120  1  0.62489158  0.37534225  0.62596269  1
  Co  Co121  1  0.24873530  -0.00283162  0.00111610  1
  Co  Co122  1  0.87352237  0.62343205  0.37508276  1
  Co  Co123  1  0.37352523  0.37538186  0.12461992  1
  Co  Co124  1  0.62672874  0.87108656  0.37362831  1
  Co  Co125  1  0.37613948  0.87598068  0.12931713  1
  Co  Co126  1  0.24837776  0.74894314  0.24999589  1
  Co  Co127  1  -0.00402531  0.75115602  -0.00302390  1
