# generated using pymatgen
data_Fe45Co19
_symmetry_space_group_name_H-M   'P 1'
_cell_length_a   11.41608356
_cell_length_b   11.41698903
_cell_length_c   11.41576670
_cell_angle_alpha   89.99932543
_cell_angle_beta   90.00039342
_cell_angle_gamma   90.00083204
_symmetry_Int_Tables_number   1
_chemical_formula_structural   Fe45Co19
_chemical_formula_sum   'Fe90 Co38'
_cell_volume   1487.90021795
_cell_formula_units_Z   2
loop_
 _symmetry_equiv_pos_site_id
 _symmetry_equiv_pos_as_xyz
  1  'x, y, z'
loop_
 _atom_site_type_symbol
 _atom_site_label
 _atom_site_symmetry_multiplicity
 _atom_site_fract_x
 _atom_site_fract_y
 _atom_site_fract_z
 _atom_site_occupancy
  Fe  Fe0  1  0.62427722  0.12431124  0.37437955  1
  Fe  Fe1  1  0.87840311  0.62458383  0.87946501  1
  Fe  Fe2  1  0.62391253  0.62399689  0.87495801  1
  Fe  Fe3  1  0.49993389  0.49922839  0.24918204  1
  Fe  Fe4  1  0.24748779  0.74865539  0.50000946  1
  Fe  Fe5  1  0.25290705  0.00406692  0.00042087  1
  Fe  Fe6  1  0.12116718  0.62232558  0.12258521  1
  Fe  Fe7  1  0.25022960  0.74674586  0.24844119  1
  Fe  Fe8  1  0.62436801  0.62569893  0.12558453  1
  Fe  Fe9  1  0.12513282  0.12824694  0.12525108  1
  Fe  Fe10  1  0.87485058  0.62354787  0.37560493  1
  Fe  Fe11  1  0.37230909  0.37684326  0.37485855  1
  Fe  Fe12  1  0.25113648  0.24853461  0.50031745  1
  Fe  Fe13  1  0.12580274  0.87624207  0.12571492  1
  Fe  Fe14  1  -0.00117980  0.25154085  0.25169238  1
  Fe  Fe15  1  0.75181147  0.74887326  0.24872925  1
  Fe  Fe16  1  0.87302982  0.37479339  0.62392903  1
  Fe  Fe17  1  -0.00011597  0.25066583  0.74887334  1
  Fe  Fe18  1  0.12258443  0.62349151  0.37288635  1
  Fe  Fe19  1  0.49897737  -0.00186062  0.24976732  1
  Fe  Fe20  1  0.87920234  0.12331823  0.37730167  1
  Fe  Fe21  1  0.49650868  0.25206976  -0.00079022  1
  Fe  Fe22  1  0.75075452  -0.00024460  0.50176621  1
  Fe  Fe23  1  0.12696361  0.87668013  0.87407468  1
  Fe  Fe24  1  0.75062082  0.00043278  0.74890108  1
  Fe  Fe25  1  0.12166647  0.62260303  0.87789308  1
  Fe  Fe26  1  0.12304764  0.62506042  0.62601577  1
  Fe  Fe27  1  0.50004566  0.25164671  0.49956716  1
  Fe  Fe28  1  -0.00168786  0.75042072  0.24732988  1
  Fe  Fe29  1  0.25132690  0.49992465  0.75019648  1
  Fe  Fe30  1  0.37295187  0.87460624  0.37426904  1
  Fe  Fe31  1  0.74714187  0.50406048  0.50167737  1
  Fe  Fe32  1  0.12186991  0.87651717  0.37478377  1
  Fe  Fe33  1  0.49872067  0.75142884  0.75109422  1
  Fe  Fe34  1  0.24778351  0.00037493  0.50265940  1
  Fe  Fe35  1  0.50186591  0.74813312  0.50036562  1
  Fe  Fe36  1  0.74799036  0.25074282  0.75303384  1
  Fe  Fe37  1  0.25000737  0.74783118  0.75048762  1
  Fe  Fe38  1  0.00011667  0.00120892  0.74523055  1
  Fe  Fe39  1  0.74965040  0.49910702  0.00023925  1
  Fe  Fe40  1  0.24944487  0.50280201  0.49974594  1
  Fe  Fe41  1  0.25004238  0.00306163  0.25029878  1
  Fe  Fe42  1  0.49967248  -0.00337843  0.75024295  1
  Fe  Fe43  1  0.75198041  0.74791994  0.75041942  1
  Fe  Fe44  1  -0.00300921  0.49771744  0.24727020  1
  Fe  Fe45  1  0.87476743  0.37258992  0.87799678  1
  Fe  Fe46  1  0.49884751  0.75407842  -0.00017065  1
  Fe  Fe47  1  0.87513613  0.12663814  0.12368718  1
  Fe  Fe48  1  0.49650220  0.25472455  0.74917807  1
  Fe  Fe49  1  0.87810147  0.87594241  0.37593085  1
  Fe  Fe50  1  0.12938468  0.37277610  0.87765198  1
  Fe  Fe51  1  0.25051639  0.74740144  0.00060910  1
  Fe  Fe52  1  0.62450364  0.12730106  0.62541176  1
  Fe  Fe53  1  0.37623792  0.62400691  0.37405046  1
  Fe  Fe54  1  0.12898619  0.37388533  0.12389808  1
  Fe  Fe55  1  0.50243188  0.50132985  0.50211858  1
  Fe  Fe56  1  0.12711136  0.37291518  0.62500382  1
  Fe  Fe57  1  0.37582622  0.12442000  0.37519781  1
  Fe  Fe58  1  0.37662164  0.62276021  0.87583093  1
  Fe  Fe59  1  0.00119145  0.00018863  0.00071082  1
  Fe  Fe60  1  0.00001752  0.49914900  0.50109665  1
  Fe  Fe61  1  0.74994335  0.75217720  0.00103593  1
  Fe  Fe62  1  0.12578222  0.12768650  0.87314903  1
  Fe  Fe63  1  0.87183507  0.37143097  0.12451998  1
  Fe  Fe64  1  0.74985583  0.50015020  0.75103405  1
  Fe  Fe65  1  0.50060700  -0.00129621  0.50080616  1
  Fe  Fe66  1  0.49827426  -0.00450448  -0.00064158  1
  Fe  Fe67  1  0.62346395  0.12577282  0.12514096  1
  Fe  Fe68  1  0.12580058  0.37535356  0.37404543  1
  Fe  Fe69  1  0.25081337  0.00322645  0.74688932  1
  Fe  Fe70  1  0.75109602  0.00117980  0.24949713  1
  Fe  Fe71  1  0.12114934  0.12500666  0.37815782  1
  Fe  Fe72  1  -0.00090841  0.49807494  0.75119655  1
  Fe  Fe73  1  0.37286673  0.87379671  0.62482752  1
  Fe  Fe74  1  0.00047597  0.74936998  0.75113601  1
  Fe  Fe75  1  0.49891507  0.49785119  0.00179595  1
  Fe  Fe76  1  0.49916443  0.25122159  0.25138129  1
  Fe  Fe77  1  0.87614621  0.87598782  0.87680647  1
  Fe  Fe78  1  0.49994602  0.49702425  0.74664061  1
  Fe  Fe79  1  0.62861151  0.37731533  0.37284673  1
  Fe  Fe80  1  0.49895751  0.75150696  0.24900347  1
  Fe  Fe81  1  0.87614765  0.12559194  0.87496958  1
  Fe  Fe82  1  0.62661603  0.87406661  0.37418587  1
  Fe  Fe83  1  0.75092549  0.24975724  0.49690902  1
  Fe  Fe84  1  0.62895154  0.37195922  0.12606791  1
  Fe  Fe85  1  0.87680425  0.87110546  0.62256375  1
  Fe  Fe86  1  0.62687092  0.87210624  0.62554814  1
  Fe  Fe87  1  0.36937640  0.37501695  0.12661589  1
  Fe  Fe88  1  0.62118113  0.12545829  0.87496213  1
  Fe  Fe89  1  0.74824785  0.00009110  -0.00045291  1
  Co  Co90  1  -0.00163858  0.25300519  0.50010569  1
  Co  Co91  1  0.37729776  0.62484797  0.12478521  1
  Co  Co92  1  0.25393798  0.24661467  -0.00116731  1
  Co  Co93  1  0.00271775  0.75446985  -0.00004424  1
  Co  Co94  1  0.37784697  0.12464768  0.12690173  1
  Co  Co95  1  0.75132531  0.50267179  0.24641811  1
  Co  Co96  1  0.00061636  0.00175262  0.24738694  1
  Co  Co97  1  0.87548661  0.87697961  0.12430340  1
  Co  Co98  1  0.25386084  0.24940866  0.75021003  1
  Co  Co99  1  0.62502036  0.62663225  0.62874846  1
  Co  Co100  1  0.37818788  0.12393055  0.87304389  1
  Co  Co101  1  0.24987014  0.24725902  0.25252275  1
  Co  Co102  1  0.37241151  0.37590935  0.62174058  1
  Co  Co103  1  0.62442497  0.62436662  0.37140925  1
  Co  Co104  1  0.37021951  0.87518859  0.87507668  1
  Co  Co105  1  0.87686508  0.62571488  0.12044531  1
  Co  Co106  1  0.00109060  0.25016360  -0.00004945  1
  Co  Co107  1  0.74899575  0.74792513  0.49848871  1
  Co  Co108  1  0.62383761  0.37622894  0.87627333  1
  Co  Co109  1  0.12507407  0.87214889  0.62646596  1
  Co  Co110  1  0.37198285  0.87566057  0.12596791  1
  Co  Co111  1  -0.00063544  0.49407584  0.00063109  1
  Co  Co112  1  0.87672930  0.62448521  0.62447765  1
  Co  Co113  1  0.12465862  0.12979217  0.62477204  1
  Co  Co114  1  0.62773884  0.37355390  0.62386355  1
  Co  Co115  1  0.00097391  -0.00052762  0.50629385  1
  Co  Co116  1  0.24989810  0.50301380  0.24952250  1
  Co  Co117  1  0.62792604  0.87412890  0.87379942  1
  Co  Co118  1  0.37205678  0.37778741  0.87617007  1
  Co  Co119  1  0.25017372  0.50292503  0.00028451  1
  Co  Co120  1  0.62569877  0.87586297  0.12668804  1
  Co  Co121  1  0.37471815  0.62483981  0.62474139  1
  Co  Co122  1  0.00224996  0.74854778  0.49924217  1
  Co  Co123  1  0.87233260  0.37883935  0.37575308  1
  Co  Co124  1  0.37784198  0.12522258  0.62436545  1
  Co  Co125  1  0.87338315  0.12918206  0.62483595  1
  Co  Co126  1  0.74793298  0.24776466  -0.00345108  1
  Co  Co127  1  0.75108662  0.24681011  0.25341283  1
