# generated using pymatgen
data_Fe45Co19
_symmetry_space_group_name_H-M   'P 1'
_cell_length_a   11.41474630
_cell_length_b   11.41519232
_cell_length_c   11.41539258
_cell_angle_alpha   90.00177580
_cell_angle_beta   89.99232904
_cell_angle_gamma   89.99656246
_symmetry_Int_Tables_number   1
_chemical_formula_structural   Fe45Co19
_chemical_formula_sum   'Fe90 Co38'
_cell_volume   1487.44303650
_cell_formula_units_Z   2
loop_
 _symmetry_equiv_pos_site_id
 _symmetry_equiv_pos_as_xyz
  1  'x, y, z'
loop_
 _atom_site_type_symbol
 _atom_site_label
 _atom_site_symmetry_multiplicity
 _atom_site_fract_x
 _atom_site_fract_y
 _atom_site_fract_z
 _atom_site_occupancy
  Fe  Fe0  1  0.37448990  0.62455065  0.12418252  1
  Fe  Fe1  1  0.62504809  0.87612961  0.62582247  1
  Fe  Fe2  1  0.00024545  0.00375567  -0.00226300  1
  Fe  Fe3  1  0.12755633  0.62808239  0.37692195  1
  Fe  Fe4  1  0.74773034  -0.00055586  0.24939651  1
  Fe  Fe5  1  0.74802659  0.49687794  0.75186902  1
  Fe  Fe6  1  -0.00307410  0.24691037  0.49871751  1
  Fe  Fe7  1  0.75326010  0.25351758  0.25391627  1
  Fe  Fe8  1  0.50081054  0.49824470  0.75187813  1
  Fe  Fe9  1  0.37828367  0.87825239  0.12212374  1
  Fe  Fe10  1  0.25047937  -0.00041301  0.50283297  1
  Fe  Fe11  1  0.50109522  0.00242501  0.50045059  1
  Fe  Fe12  1  0.75088724  0.75239947  0.75169627  1
  Fe  Fe13  1  0.24957189  0.49838084  0.24968120  1
  Fe  Fe14  1  0.87529698  0.62098595  0.12264984  1
  Fe  Fe15  1  0.49817644  0.49618203  -0.00185501  1
  Fe  Fe16  1  0.62389683  0.62352617  0.12414757  1
  Fe  Fe17  1  0.12807817  0.12659999  0.12650724  1
  Fe  Fe18  1  0.12385427  0.37461531  0.37844524  1
  Fe  Fe19  1  0.87369475  0.62437307  0.62705327  1
  Fe  Fe20  1  0.24954386  0.00099597  -0.00024519  1
  Fe  Fe21  1  0.62604509  0.87376244  0.37424432  1
  Fe  Fe22  1  0.00156179  0.75213524  0.25042708  1
  Fe  Fe23  1  0.25468610  0.74822579  0.74910825  1
  Fe  Fe24  1  0.50185656  0.49776179  0.50002973  1
  Fe  Fe25  1  -0.00413085  0.75059447  0.75239797  1
  Fe  Fe26  1  0.87527720  0.37738091  0.87800093  1
  Fe  Fe27  1  0.12381917  0.87340291  0.62570623  1
  Fe  Fe28  1  0.49634920  0.25017459  -0.00302889  1
  Fe  Fe29  1  -0.00215796  0.24893977  0.75232277  1
  Fe  Fe30  1  0.24792710  0.50248294  0.50488400  1
  Fe  Fe31  1  0.24971839  0.24703055  0.74956134  1
  Fe  Fe32  1  0.25127830  0.24801839  0.49895537  1
  Fe  Fe33  1  0.37204465  0.12394424  0.87345452  1
  Fe  Fe34  1  0.37718571  0.87394952  0.62753928  1
  Fe  Fe35  1  0.00194903  -0.00332269  0.25048264  1
  Fe  Fe36  1  0.87521161  0.37853013  0.12377120  1
  Fe  Fe37  1  0.37348751  0.62642218  0.37655370  1
  Fe  Fe38  1  0.75089084  0.25204548  -0.00059288  1
  Fe  Fe39  1  0.12747625  0.37317922  0.87396014  1
  Fe  Fe40  1  0.62528925  0.62490426  0.37427217  1
  Fe  Fe41  1  0.62517960  0.12892486  0.37793005  1
  Fe  Fe42  1  0.24887209  0.75482687  0.24844736  1
  Fe  Fe43  1  0.37415655  0.87647807  0.37561231  1
  Fe  Fe44  1  0.00272727  0.49922139  0.74875320  1
  Fe  Fe45  1  0.37810019  0.12630442  0.62464301  1
  Fe  Fe46  1  0.12306972  0.12515269  0.62660772  1
  Fe  Fe47  1  0.12731625  0.12188494  0.37364852  1
  Fe  Fe48  1  0.37166633  0.12580423  0.12725018  1
  Fe  Fe49  1  0.49948381  0.50062163  0.25027589  1
  Fe  Fe50  1  -0.00273142  -0.00066518  0.49939283  1
  Fe  Fe51  1  0.75059570  0.00065004  0.49948780  1
  Fe  Fe52  1  0.62496867  0.12798809  0.12500399  1
  Fe  Fe53  1  0.12706227  0.87720776  0.87356772  1
  Fe  Fe54  1  0.37558958  0.37437381  0.62686025  1
  Fe  Fe55  1  -0.00089401  0.74766182  -0.00270600  1
  Fe  Fe56  1  0.62876954  0.12807072  0.87109964  1
  Fe  Fe57  1  0.87479395  0.87581855  0.12312213  1
  Fe  Fe58  1  0.12739551  0.37237389  0.12402186  1
  Fe  Fe59  1  -0.00310176  0.00035739  0.75212748  1
  Fe  Fe60  1  0.12671398  0.62606468  0.12331969  1
  Fe  Fe61  1  0.50152648  0.00190836  0.75057237  1
  Fe  Fe62  1  0.49634340  0.24884925  0.25223469  1
  Fe  Fe63  1  0.75079266  0.75060629  0.50129935  1
  Fe  Fe64  1  0.87620796  0.37502230  0.62305216  1
  Fe  Fe65  1  0.49792958  0.75045635  -0.00192483  1
  Fe  Fe66  1  0.25201577  0.75127149  -0.00201073  1
  Fe  Fe67  1  0.00001638  0.25063778  0.25148975  1
  Fe  Fe68  1  0.62279309  0.87642171  0.87760164  1
  Fe  Fe69  1  0.50006535  0.75127761  0.24869363  1
  Fe  Fe70  1  0.74977862  0.74948399  0.24744873  1
  Fe  Fe71  1  0.62361185  0.62441251  0.62625030  1
  Fe  Fe72  1  -0.00240183  0.75138630  0.49922639  1
  Fe  Fe73  1  0.86948205  0.12479873  0.62783879  1
  Fe  Fe74  1  0.24836269  0.50252361  0.74616317  1
  Fe  Fe75  1  0.87486077  0.12488261  0.12612728  1
  Fe  Fe76  1  0.74866171  0.00155985  0.00006182  1
  Fe  Fe77  1  0.75138953  0.74812978  -0.00094648  1
  Fe  Fe78  1  0.87419605  0.62268476  0.37453591  1
  Fe  Fe79  1  0.00132805  0.24835985  -0.00168054  1
  Fe  Fe80  1  0.12566113  0.62368917  0.87459158  1
  Fe  Fe81  1  0.50016248  0.74980073  0.50101547  1
  Fe  Fe82  1  0.25195628  0.49696685  0.00010452  1
  Fe  Fe83  1  0.62371310  0.37472093  0.12597150  1
  Fe  Fe84  1  0.62400256  0.62501352  0.87498607  1
  Fe  Fe85  1  0.00328771  0.50242321  0.50342211  1
  Fe  Fe86  1  0.74677420  0.49512538  0.49820948  1
  Fe  Fe87  1  0.00227209  0.50019481  0.24906827  1
  Fe  Fe88  1  0.50206705  0.00062662  0.24908515  1
  Fe  Fe89  1  0.37491658  0.37505864  0.37562784  1
  Co  Co90  1  0.37410039  0.12198168  0.37360147  1
  Co  Co91  1  0.37550299  0.62258680  0.87502684  1
  Co  Co92  1  0.62438381  0.87508454  0.12174856  1
  Co  Co93  1  0.38075404  0.62332559  0.62513867  1
  Co  Co94  1  0.62894368  0.12749753  0.62628637  1
  Co  Co95  1  0.37185769  0.37500234  0.87035977  1
  Co  Co96  1  0.62399777  0.37153032  0.87544206  1
  Co  Co97  1  0.24936634  0.25204641  0.25387956  1
  Co  Co98  1  0.75146956  0.25276067  0.49858508  1
  Co  Co99  1  0.87447139  0.12300998  0.37272848  1
  Co  Co100  1  0.87282428  0.87513688  0.37328353  1
  Co  Co101  1  0.75231172  0.25557777  0.74914989  1
  Co  Co102  1  0.00408669  0.49961185  0.00012475  1
  Co  Co103  1  0.37591520  0.37291303  0.12669387  1
  Co  Co104  1  0.50060158  0.00586516  -0.00093485  1
  Co  Co105  1  0.12676517  0.12446110  0.87341813  1
  Co  Co106  1  0.87470268  0.87721085  0.87893844  1
  Co  Co107  1  0.74979319  -0.00397482  0.75188752  1
  Co  Co108  1  0.49833761  0.24782257  0.75145762  1
  Co  Co109  1  0.62208255  0.37076487  0.62658821  1
  Co  Co110  1  0.37503936  0.87840528  0.87460225  1
  Co  Co111  1  0.49930428  0.25024237  0.50060418  1
  Co  Co112  1  0.12276515  0.87478848  0.11918593  1
  Co  Co113  1  0.62218550  0.37213745  0.37189947  1
  Co  Co114  1  0.87472512  0.87572428  0.62446035  1
  Co  Co115  1  0.24847623  -0.00471001  0.24765474  1
  Co  Co116  1  0.74943556  0.49905316  0.25048626  1
  Co  Co117  1  0.87958144  0.37827871  0.37689206  1
  Co  Co118  1  0.25131682  0.24957737  -0.00165028  1
  Co  Co119  1  0.87099492  0.12588033  0.87422708  1
  Co  Co120  1  0.12221819  0.63121054  0.62597318  1
  Co  Co121  1  0.74634510  0.49975950  -0.00097006  1
  Co  Co122  1  0.12655558  0.87525208  0.37975056  1
  Co  Co123  1  0.25086946  0.00120740  0.74648593  1
  Co  Co124  1  0.50021809  0.75116874  0.75129250  1
  Co  Co125  1  0.25319726  0.74997850  0.50466742  1
  Co  Co126  1  0.87531661  0.61988119  0.87370781  1
  Co  Co127  1  0.12496296  0.36913750  0.62476667  1
