# generated using pymatgen
data_Fe45Co19
_symmetry_space_group_name_H-M   'P 1'
_cell_length_a   11.41547438
_cell_length_b   11.41534792
_cell_length_c   11.41529942
_cell_angle_alpha   90.00279904
_cell_angle_beta   89.99418067
_cell_angle_gamma   90.00199201
_symmetry_Int_Tables_number   1
_chemical_formula_structural   Fe45Co19
_chemical_formula_sum   'Fe90 Co38'
_cell_volume   1487.54605545
_cell_formula_units_Z   2
loop_
 _symmetry_equiv_pos_site_id
 _symmetry_equiv_pos_as_xyz
  1  'x, y, z'
loop_
 _atom_site_type_symbol
 _atom_site_label
 _atom_site_symmetry_multiplicity
 _atom_site_fract_x
 _atom_site_fract_y
 _atom_site_fract_z
 _atom_site_occupancy
  Fe  Fe0  1  0.87750621  0.37471737  0.12163952  1
  Fe  Fe1  1  0.00337973  0.25021171  0.49815972  1
  Fe  Fe2  1  0.75344991  0.50242488  0.00028324  1
  Fe  Fe3  1  0.62347157  0.12379035  0.62575935  1
  Fe  Fe4  1  0.75031143  0.25174906  0.74862293  1
  Fe  Fe5  1  0.24831841  0.00080699  0.50165931  1
  Fe  Fe6  1  0.87312894  0.12401132  0.37685375  1
  Fe  Fe7  1  0.62880174  0.62696276  0.87544253  1
  Fe  Fe8  1  0.24610026  0.25077869  0.24911963  1
  Fe  Fe9  1  0.12507243  0.87807823  0.62940021  1
  Fe  Fe10  1  0.37458903  0.12702556  0.12229432  1
  Fe  Fe11  1  0.62124641  0.87321272  0.12419688  1
  Fe  Fe12  1  0.12321645  0.37600550  0.62679000  1
  Fe  Fe13  1  0.87623425  0.12533212  0.62358737  1
  Fe  Fe14  1  0.37385350  0.12830102  0.87982227  1
  Fe  Fe15  1  0.49832634  0.74896065  0.75307967  1
  Fe  Fe16  1  0.49956417  0.00003383  0.25180072  1
  Fe  Fe17  1  0.12524467  0.12177065  0.87346212  1
  Fe  Fe18  1  0.62371304  0.12305735  0.12480269  1
  Fe  Fe19  1  0.49708938  -0.00028454  0.75260219  1
  Fe  Fe20  1  0.75073010  0.75247246  0.74682050  1
  Fe  Fe21  1  0.49697840  0.50152415  0.75432191  1
  Fe  Fe22  1  0.12745649  0.62490767  0.37192077  1
  Fe  Fe23  1  0.50059298  0.74937366  0.49760633  1
  Fe  Fe24  1  0.75341916  0.49676202  0.74883434  1
  Fe  Fe25  1  0.50393341  0.49878958  0.49695703  1
  Fe  Fe26  1  0.37517283  0.37292610  0.12105071  1
  Fe  Fe27  1  0.00220942  0.25155560  0.25210296  1
  Fe  Fe28  1  0.37778760  0.37408327  0.62508951  1
  Fe  Fe29  1  0.37324537  0.12568292  0.37501822  1
  Fe  Fe30  1  0.37596133  0.62565366  0.62520496  1
  Fe  Fe31  1  0.37266236  0.87451479  0.37317979  1
  Fe  Fe32  1  0.75095886  0.25020340  0.24741541  1
  Fe  Fe33  1  0.50087990  0.25081417  0.24943773  1
  Fe  Fe34  1  0.25007726  0.49986035  0.24725685  1
  Fe  Fe35  1  0.37385876  0.62642430  0.37351643  1
  Fe  Fe36  1  0.24633302  0.24996574  0.49946492  1
  Fe  Fe37  1  0.62724227  0.12589862  0.37537401  1
  Fe  Fe38  1  0.37459064  0.37335515  0.37563507  1
  Fe  Fe39  1  0.87889548  0.12614622  0.12298651  1
  Fe  Fe40  1  0.74927591  0.75147815  0.50357461  1
  Fe  Fe41  1  0.62664360  0.87415305  0.37465074  1
  Fe  Fe42  1  0.87374100  0.87648670  0.37692925  1
  Fe  Fe43  1  0.62644393  0.37495306  0.87499606  1
  Fe  Fe44  1  0.00496380  0.25160107  -0.00253376  1
  Fe  Fe45  1  0.49817982  0.50123288  -0.00419458  1
  Fe  Fe46  1  0.75104513  0.74880431  0.24743687  1
  Fe  Fe47  1  -0.00396998  0.49861960  0.75612163  1
  Fe  Fe48  1  0.74626100  0.24810055  0.00076887  1
  Fe  Fe49  1  0.12375833  0.62242576  0.62739654  1
  Fe  Fe50  1  0.87109697  0.37804614  0.37515567  1
  Fe  Fe51  1  0.50170264  0.50037320  0.25266588  1
  Fe  Fe52  1  0.00029062  0.00068289  0.24945699  1
  Fe  Fe53  1  0.25204992  0.74966077  0.24116274  1
  Fe  Fe54  1  0.50005213  0.24882198  0.75415818  1
  Fe  Fe55  1  0.74747479  0.25472813  0.50267861  1
  Fe  Fe56  1  0.37459425  0.87352584  0.62661948  1
  Fe  Fe57  1  0.12901491  0.62497569  0.87675681  1
  Fe  Fe58  1  0.12769664  0.87562951  0.87514079  1
  Fe  Fe59  1  0.24669312  -0.00089718  0.00345071  1
  Fe  Fe60  1  0.25004293  0.50039457  0.00117484  1
  Fe  Fe61  1  0.75168468  -0.00034848  0.24773909  1
  Fe  Fe62  1  0.62118340  0.62737161  0.12468284  1
  Fe  Fe63  1  0.87600806  0.62458550  0.62583474  1
  Fe  Fe64  1  0.62646736  0.87423201  0.87553705  1
  Fe  Fe65  1  0.37065370  0.87047527  0.87754236  1
  Fe  Fe66  1  0.00106298  0.75043989  0.75200475  1
  Fe  Fe67  1  0.49994347  -0.00005291  0.49925967  1
  Fe  Fe68  1  0.62509867  0.37696792  0.12430720  1
  Fe  Fe69  1  0.75234475  -0.00211173  0.74616199  1
  Fe  Fe70  1  0.86960103  0.62278675  0.37706104  1
  Fe  Fe71  1  0.87447559  0.87361830  0.87602131  1
  Fe  Fe72  1  0.88083921  0.62820095  0.12123361  1
  Fe  Fe73  1  0.62423791  0.62439619  0.62609753  1
  Fe  Fe74  1  0.37457421  0.12630947  0.62391163  1
  Fe  Fe75  1  0.75116751  -0.00104159  0.00183831  1
  Fe  Fe76  1  0.00248222  0.00097287  0.50091253  1
  Fe  Fe77  1  0.00014161  0.25021785  0.75214842  1
  Fe  Fe78  1  0.24805274  0.74952888  0.50268055  1
  Fe  Fe79  1  0.50115850  0.00091792  -0.00234752  1
  Fe  Fe80  1  0.00207708  0.74926919  0.49867540  1
  Fe  Fe81  1  0.87309997  0.12498232  0.87647269  1
  Fe  Fe82  1  0.88014847  0.87215592  0.12328381  1
  Fe  Fe83  1  0.00018910  0.50036989  0.49851014  1
  Fe  Fe84  1  -0.00134129  0.50035202  0.25033436  1
  Fe  Fe85  1  0.25006643  0.49963138  0.50080181  1
  Fe  Fe86  1  0.25338801  0.49920251  0.75034122  1
  Fe  Fe87  1  0.24818813  -0.00054355  0.24480982  1
  Fe  Fe88  1  0.12636074  0.87428326  0.37159727  1
  Fe  Fe89  1  0.24991383  0.25048730  0.75154556  1
  Co  Co90  1  0.87183263  0.37099709  0.87875730  1
  Co  Co91  1  0.50529044  0.24949358  -0.00041725  1
  Co  Co92  1  0.37943925  0.62172209  0.12501567  1
  Co  Co93  1  0.12263249  0.12590737  0.12556015  1
  Co  Co94  1  0.00026124  -0.00013757  -0.00126734  1
  Co  Co95  1  0.12544444  0.37842809  0.37443878  1
  Co  Co96  1  0.75185984  0.50323229  0.24313078  1
  Co  Co97  1  0.87974881  0.87398824  0.62330942  1
  Co  Co98  1  0.37979075  0.87783721  0.12286524  1
  Co  Co99  1  -0.00241416  0.74799476  0.25544262  1
  Co  Co100  1  0.62863359  0.12238548  0.87309369  1
  Co  Co101  1  0.49783505  0.74791904  -0.00252282  1
  Co  Co102  1  0.74695249  0.49636359  0.50578808  1
  Co  Co103  1  0.74824278  -0.00139819  0.50368765  1
  Co  Co104  1  0.75041383  0.75023648  0.00297855  1
  Co  Co105  1  -0.00378930  0.00012376  0.75121183  1
  Co  Co106  1  0.24964015  0.74920725  0.00806284  1
  Co  Co107  1  0.87170135  0.62898778  0.87390024  1
  Co  Co108  1  0.12688118  0.37823431  0.87370073  1
  Co  Co109  1  0.24860500  0.74831609  0.74703794  1
  Co  Co110  1  0.37516272  0.37205183  0.87791631  1
  Co  Co111  1  0.24436326  0.25056907  -0.00055747  1
  Co  Co112  1  0.11842778  0.87209202  0.12528849  1
  Co  Co113  1  0.88039350  0.37492023  0.62423058  1
  Co  Co114  1  0.25412416  0.00210253  0.75169376  1
  Co  Co115  1  0.62955797  0.37563315  0.37056883  1
  Co  Co116  1  0.36932906  0.62846202  0.87615561  1
  Co  Co117  1  0.12300676  0.37793207  0.12454688  1
  Co  Co118  1  -0.00229682  0.50026216  -0.00526784  1
  Co  Co119  1  0.62013254  0.87534591  0.62648296  1
  Co  Co120  1  0.11958413  0.62380710  0.12483920  1
  Co  Co121  1  0.50221008  0.25099509  0.49806692  1
  Co  Co122  1  0.12482190  0.12446215  0.62869901  1
  Co  Co123  1  0.49856588  0.74995364  0.25168835  1
  Co  Co124  1  0.61921200  0.37561753  0.62985576  1
  Co  Co125  1  0.00278448  0.74908010  -0.00642832  1
  Co  Co126  1  0.12584536  0.12231336  0.37281387  1
  Co  Co127  1  0.62985028  0.62524771  0.37449456  1
