# generated using pymatgen
data_Fe45Co19
_symmetry_space_group_name_H-M   'P 1'
_cell_length_a   11.41530027
_cell_length_b   11.41464198
_cell_length_c   11.41580915
_cell_angle_alpha   89.99544550
_cell_angle_beta   89.99527821
_cell_angle_gamma   89.99278359
_symmetry_Int_Tables_number   1
_chemical_formula_structural   Fe45Co19
_chemical_formula_sum   'Fe90 Co38'
_cell_volume   1487.49778360
_cell_formula_units_Z   2
loop_
 _symmetry_equiv_pos_site_id
 _symmetry_equiv_pos_as_xyz
  1  'x, y, z'
loop_
 _atom_site_type_symbol
 _atom_site_label
 _atom_site_symmetry_multiplicity
 _atom_site_fract_x
 _atom_site_fract_y
 _atom_site_fract_z
 _atom_site_occupancy
  Fe  Fe0  1  0.50258635  0.74837639  -0.00116296  1
  Fe  Fe1  1  0.12720640  0.87802721  0.87583159  1
  Fe  Fe2  1  0.75010345  0.00086921  0.75059140  1
  Fe  Fe3  1  0.74760904  0.74696092  0.00034003  1
  Fe  Fe4  1  0.12493402  0.62346206  0.62583373  1
  Fe  Fe5  1  0.50235755  0.74934397  0.49953595  1
  Fe  Fe6  1  0.37507247  0.12699649  0.62466034  1
  Fe  Fe7  1  0.37755736  0.37043267  0.12706956  1
  Fe  Fe8  1  0.37338817  0.87551000  0.87361021  1
  Fe  Fe9  1  0.50245356  0.49658494  0.74959507  1
  Fe  Fe10  1  0.12588384  0.12399733  0.37054266  1
  Fe  Fe11  1  0.12545817  0.12523789  0.62419720  1
  Fe  Fe12  1  0.87512068  0.12713870  0.37342005  1
  Fe  Fe13  1  0.12510729  0.62299417  0.37355505  1
  Fe  Fe14  1  0.25505902  0.00234724  0.00387015  1
  Fe  Fe15  1  0.87348029  0.87391428  0.37284193  1
  Fe  Fe16  1  0.37179018  0.87442303  0.62527800  1
  Fe  Fe17  1  0.49939335  -0.00137077  0.49738537  1
  Fe  Fe18  1  0.37387938  0.37311346  0.62434740  1
  Fe  Fe19  1  0.87800449  0.62256837  0.37319878  1
  Fe  Fe20  1  0.62656833  0.87653317  0.62346042  1
  Fe  Fe21  1  0.87446054  0.12535474  0.87700115  1
  Fe  Fe22  1  0.37681431  0.37339638  0.37365313  1
  Fe  Fe23  1  0.74999565  0.00116200  0.00144265  1
  Fe  Fe24  1  0.62182218  0.12852541  0.87447123  1
  Fe  Fe25  1  0.24878875  0.24849596  0.75090025  1
  Fe  Fe26  1  0.50263849  0.25118925  0.49793821  1
  Fe  Fe27  1  0.37107073  0.12914523  0.37131355  1
  Fe  Fe28  1  0.37556716  0.62663271  0.12450707  1
  Fe  Fe29  1  0.74802041  0.74802001  0.49707886  1
  Fe  Fe30  1  0.74782037  0.25030989  0.00188562  1
  Fe  Fe31  1  0.12543739  0.87750569  0.37186892  1
  Fe  Fe32  1  0.25041797  0.75291983  0.24820215  1
  Fe  Fe33  1  0.25103748  0.49836349  0.24895653  1
  Fe  Fe34  1  0.12313958  0.37572654  0.37664158  1
  Fe  Fe35  1  0.74971460  0.74777203  0.75181245  1
  Fe  Fe36  1  0.87416284  0.87249181  0.62439764  1
  Fe  Fe37  1  0.37355495  0.62515231  0.62625443  1
  Fe  Fe38  1  0.75359412  -0.00081134  0.24834912  1
  Fe  Fe39  1  -0.00053405  -0.00030809  0.74895754  1
  Fe  Fe40  1  0.12551401  0.12339927  0.87668300  1
  Fe  Fe41  1  0.74919543  0.25607112  0.25310135  1
  Fe  Fe42  1  0.74747898  0.74646425  0.24972629  1
  Fe  Fe43  1  0.49744312  0.00463965  0.00108902  1
  Fe  Fe44  1  0.24970894  0.74986529  -0.00053218  1
  Fe  Fe45  1  0.62297349  0.61677023  0.37435876  1
  Fe  Fe46  1  0.12568996  0.62088757  0.87736603  1
  Fe  Fe47  1  0.24926980  0.00034061  0.49897475  1
  Fe  Fe48  1  0.12602322  0.62129705  0.12311505  1
  Fe  Fe49  1  0.50068299  0.74970181  0.25206232  1
  Fe  Fe50  1  0.74791297  0.25092518  0.75043815  1
  Fe  Fe51  1  0.50075802  0.75078785  0.74898919  1
  Fe  Fe52  1  0.12423481  0.37464920  0.62622541  1
  Fe  Fe53  1  -0.00054484  0.25389110  0.24663202  1
  Fe  Fe54  1  0.62379633  0.87449021  0.12612562  1
  Fe  Fe55  1  0.62707119  0.12437777  0.62194327  1
  Fe  Fe56  1  0.63050496  0.37793596  0.62097430  1
  Fe  Fe57  1  0.12401328  0.37916600  0.12045127  1
  Fe  Fe58  1  0.00030638  0.75020357  0.00156514  1
  Fe  Fe59  1  0.25052425  0.49823993  0.75307478  1
  Fe  Fe60  1  0.87233668  0.12745340  0.62382938  1
  Fe  Fe61  1  -0.00085666  0.25006582  0.50065721  1
  Fe  Fe62  1  0.87588399  0.62164313  0.12502088  1
  Fe  Fe63  1  -0.00031995  0.25054801  0.00090052  1
  Fe  Fe64  1  0.00145865  0.75072954  0.24678783  1
  Fe  Fe65  1  0.12525531  0.12199869  0.12850396  1
  Fe  Fe66  1  0.24979180  0.24944083  0.00121065  1
  Fe  Fe67  1  0.87419878  0.87427046  0.87677124  1
  Fe  Fe68  1  0.00028770  0.25004614  0.75249844  1
  Fe  Fe69  1  0.62410058  0.37830237  0.12798764  1
  Fe  Fe70  1  0.49877112  0.00169135  0.75054517  1
  Fe  Fe71  1  0.37460784  0.62540121  0.37606531  1
  Fe  Fe72  1  0.62497156  0.12505543  0.12780467  1
  Fe  Fe73  1  0.00259643  0.74985025  0.75101128  1
  Fe  Fe74  1  0.62481691  0.87545409  0.87580373  1
  Fe  Fe75  1  0.24744430  0.74987931  0.50143621  1
  Fe  Fe76  1  -0.00425094  -0.00084469  0.00540977  1
  Fe  Fe77  1  0.74715526  0.50273070  -0.00210969  1
  Fe  Fe78  1  0.62761481  0.62101613  0.62481596  1
  Fe  Fe79  1  0.62754301  0.12225984  0.37591590  1
  Fe  Fe80  1  -0.00181302  -0.00049374  0.49950996  1
  Fe  Fe81  1  0.50032620  0.49977911  0.00058068  1
  Fe  Fe82  1  0.00177133  0.75086451  0.49996700  1
  Fe  Fe83  1  -0.00392665  0.49947704  0.75117540  1
  Fe  Fe84  1  0.37877272  0.36931959  0.87554519  1
  Fe  Fe85  1  0.37702299  0.62458192  0.87356583  1
  Fe  Fe86  1  -0.00308652  0.49995649  0.50234579  1
  Fe  Fe87  1  0.87306136  0.37512323  0.87659874  1
  Fe  Fe88  1  0.25080854  0.49839433  0.49937689  1
  Fe  Fe89  1  0.49562982  -0.00118021  0.25078056  1
  Co  Co90  1  0.87928566  0.37556786  0.37553380  1
  Co  Co91  1  0.37737096  0.13045427  0.87409200  1
  Co  Co92  1  0.87353717  0.37773883  0.12185593  1
  Co  Co93  1  0.12629189  0.87574233  0.62567620  1
  Co  Co94  1  -0.00188085  0.50030468  -0.00243334  1
  Co  Co95  1  0.50281735  0.24844782  0.00423329  1
  Co  Co96  1  0.25088872  0.00361409  0.74952948  1
  Co  Co97  1  0.74885615  0.25284658  0.49459945  1
  Co  Co98  1  0.12492643  0.37545679  0.87610001  1
  Co  Co99  1  0.50588874  0.24970855  0.25400678  1
  Co  Co100  1  0.24442986  0.25538548  0.24829680  1
  Co  Co101  1  0.62316489  0.62296529  0.12771257  1
  Co  Co102  1  0.62237519  0.62395519  0.87209004  1
  Co  Co103  1  0.75322381  0.49767006  0.25187066  1
  Co  Co104  1  0.49591322  0.49976229  0.50241781  1
  Co  Co105  1  0.87569590  0.62611803  0.87601717  1
  Co  Co106  1  0.37423713  0.87135892  0.37825915  1
  Co  Co107  1  0.50376011  0.25162486  0.74424777  1
  Co  Co108  1  0.25592479  0.49797890  -0.00019374  1
  Co  Co109  1  0.25527358  -0.00400996  0.24801822  1
  Co  Co110  1  0.37874616  0.87192525  0.12259273  1
  Co  Co111  1  0.75326599  -0.00140238  0.49976483  1
  Co  Co112  1  0.75199832  0.50114015  0.75230468  1
  Co  Co113  1  0.87339784  0.37228103  0.62639340  1
  Co  Co114  1  0.37464037  0.13087455  0.13037997  1
  Co  Co115  1  -0.00469625  -0.00096153  0.24792616  1
  Co  Co116  1  0.12565743  0.87721144  0.12514304  1
  Co  Co117  1  0.87132306  0.87111521  0.12522088  1
  Co  Co118  1  0.62395518  0.37372160  0.87601865  1
  Co  Co119  1  0.00147730  0.49790392  0.24854715  1
  Co  Co120  1  0.49482183  0.50083164  0.24825728  1
  Co  Co121  1  0.24752514  0.74797444  0.75184963  1
  Co  Co122  1  0.62602028  0.87714461  0.37299998  1
  Co  Co123  1  0.62121483  0.38322181  0.37623976  1
  Co  Co124  1  0.87361208  0.12963374  0.12613963  1
  Co  Co125  1  0.24868389  0.25125492  0.49969471  1
  Co  Co126  1  0.87463744  0.62803015  0.62476658  1
  Co  Co127  1  0.75667031  0.49998619  0.49752126  1
