# generated using pymatgen
data_Fe45Co19
_symmetry_space_group_name_H-M   'P 1'
_cell_length_a   11.41471798
_cell_length_b   11.41604918
_cell_length_c   11.41513831
_cell_angle_alpha   89.99657203
_cell_angle_beta   89.99470590
_cell_angle_gamma   89.99525473
_symmetry_Int_Tables_number   1
_chemical_formula_structural   Fe45Co19
_chemical_formula_sum   'Fe90 Co38'
_cell_volume   1487.51786833
_cell_formula_units_Z   2
loop_
 _symmetry_equiv_pos_site_id
 _symmetry_equiv_pos_as_xyz
  1  'x, y, z'
loop_
 _atom_site_type_symbol
 _atom_site_label
 _atom_site_symmetry_multiplicity
 _atom_site_fract_x
 _atom_site_fract_y
 _atom_site_fract_z
 _atom_site_occupancy
  Fe  Fe0  1  0.37604275  0.62688717  0.12271101  1
  Fe  Fe1  1  0.25368925  0.25117760  0.75079332  1
  Fe  Fe2  1  0.12468891  0.87373249  0.12241109  1
  Fe  Fe3  1  0.74800749  0.74914384  0.25174370  1
  Fe  Fe4  1  0.49571832  0.74906724  0.75145282  1
  Fe  Fe5  1  0.37634658  0.12275812  0.87605739  1
  Fe  Fe6  1  -0.00053413  0.00218964  -0.00058556  1
  Fe  Fe7  1  0.25053664  0.50015660  0.24950663  1
  Fe  Fe8  1  0.00009934  0.75010771  0.24905093  1
  Fe  Fe9  1  0.25015459  -0.00157825  0.24944308  1
  Fe  Fe10  1  0.87555805  0.12370991  0.37599079  1
  Fe  Fe11  1  0.12398086  0.37359067  0.37400555  1
  Fe  Fe12  1  0.12691505  0.87273784  0.37618691  1
  Fe  Fe13  1  0.87494971  0.87419867  0.12316851  1
  Fe  Fe14  1  0.49948801  0.24830386  0.25016107  1
  Fe  Fe15  1  0.37702190  0.37467558  0.12400187  1
  Fe  Fe16  1  0.75498125  0.75156367  0.75195777  1
  Fe  Fe17  1  0.24814654  -0.00118257  0.75041119  1
  Fe  Fe18  1  0.37334720  0.12183826  0.62431020  1
  Fe  Fe19  1  0.12961859  0.62675877  0.62883406  1
  Fe  Fe20  1  0.25209633  0.75027135  -0.00365624  1
  Fe  Fe21  1  0.74979911  0.49909109  0.50207903  1
  Fe  Fe22  1  0.00020133  0.50074456  -0.00149575  1
  Fe  Fe23  1  -0.00005732  0.50057866  0.24915505  1
  Fe  Fe24  1  0.50182507  0.50379641  0.25040072  1
  Fe  Fe25  1  0.50255677  0.50067788  0.00100240  1
  Fe  Fe26  1  0.50043642  0.74824188  0.25173219  1
  Fe  Fe27  1  0.12378027  0.62829850  0.87184146  1
  Fe  Fe28  1  0.75094761  0.25306411  0.25028025  1
  Fe  Fe29  1  0.74802568  -0.00160344  0.24890729  1
  Fe  Fe30  1  -0.00349506  0.24915031  -0.00185595  1
  Fe  Fe31  1  0.49320067  0.75008480  0.49922903  1
  Fe  Fe32  1  0.87697035  0.87540916  0.37746552  1
  Fe  Fe33  1  0.12588135  0.62679103  0.12446065  1
  Fe  Fe34  1  0.12066124  0.87407581  0.87447676  1
  Fe  Fe35  1  0.13019186  0.62769154  0.37483294  1
  Fe  Fe36  1  0.74740372  0.50040800  0.24879305  1
  Fe  Fe37  1  0.74695117  0.25561809  0.74903315  1
  Fe  Fe38  1  0.49706574  0.50252743  0.50076516  1
  Fe  Fe39  1  0.12532642  0.12491875  0.37603807  1
  Fe  Fe40  1  0.62300186  0.37693217  0.37679019  1
  Fe  Fe41  1  0.87532135  0.62158241  0.62901483  1
  Fe  Fe42  1  -0.00200982  0.24813522  0.50387250  1
  Fe  Fe43  1  0.75211240  0.75006893  0.50011613  1
  Fe  Fe44  1  0.87781318  0.37601188  0.37525623  1
  Fe  Fe45  1  0.37508454  0.12423363  0.12284035  1
  Fe  Fe46  1  0.87092283  0.12086848  0.86883583  1
  Fe  Fe47  1  0.00198090  0.00264772  0.50546372  1
  Fe  Fe48  1  0.25068272  0.24901343  0.25040417  1
  Fe  Fe49  1  0.12741500  0.37449747  0.62640876  1
  Fe  Fe50  1  0.37688354  0.87424104  0.12394917  1
  Fe  Fe51  1  0.87463886  0.62483112  0.37482835  1
  Fe  Fe52  1  0.74758581  0.25238508  -0.00195903  1
  Fe  Fe53  1  0.49960156  0.24837808  0.50107475  1
  Fe  Fe54  1  0.62517978  0.62713827  0.62403403  1
  Fe  Fe55  1  0.50050489  0.25084023  0.75018837  1
  Fe  Fe56  1  0.62157433  0.87495813  0.37550764  1
  Fe  Fe57  1  0.62442597  0.12314956  0.37396701  1
  Fe  Fe58  1  0.25189396  0.25050776  0.49966046  1
  Fe  Fe59  1  0.25197480  0.24980688  -0.00072925  1
  Fe  Fe60  1  0.36885900  0.62290472  0.62789441  1
  Fe  Fe61  1  0.62730147  0.12593485  0.62667271  1
  Fe  Fe62  1  0.12595602  0.87117121  0.62752787  1
  Fe  Fe63  1  0.74661506  0.00029017  0.00031598  1
  Fe  Fe64  1  0.74744891  -0.00142485  0.50256644  1
  Fe  Fe65  1  0.12512725  0.37257929  0.87455113  1
  Fe  Fe66  1  0.75147360  0.74983691  -0.00288376  1
  Fe  Fe67  1  0.75112307  0.25217303  0.50110408  1
  Fe  Fe68  1  0.12292646  0.37282778  0.12474063  1
  Fe  Fe69  1  0.74775444  0.49902583  0.00068980  1
  Fe  Fe70  1  0.37694979  0.87778378  0.87541578  1
  Fe  Fe71  1  -0.00006096  0.00012069  0.24952350  1
  Fe  Fe72  1  0.37530472  0.37702050  0.37574601  1
  Fe  Fe73  1  -0.00166995  0.24872251  0.74822501  1
  Fe  Fe74  1  0.62304146  0.87086783  0.62476358  1
  Fe  Fe75  1  0.12551529  0.12503115  0.87358458  1
  Fe  Fe76  1  0.12522458  0.12650094  0.12411544  1
  Fe  Fe77  1  0.62435170  0.62519278  0.87468145  1
  Fe  Fe78  1  0.50373196  0.00064606  0.74804556  1
  Fe  Fe79  1  0.24927945  0.50026122  -0.00245195  1
  Fe  Fe80  1  0.50138667  0.49935378  0.74812878  1
  Fe  Fe81  1  -0.00007228  0.74752348  0.50253557  1
  Fe  Fe82  1  0.87356287  0.12675216  0.12567305  1
  Fe  Fe83  1  0.87431352  0.37988300  0.87129162  1
  Fe  Fe84  1  0.50452974  0.00185528  0.00252200  1
  Fe  Fe85  1  0.37784531  0.37654151  0.87570504  1
  Fe  Fe86  1  0.37584156  0.11818086  0.37734749  1
  Fe  Fe87  1  0.87422332  0.62532176  0.12394844  1
  Fe  Fe88  1  0.62434072  0.87451737  0.87518101  1
  Fe  Fe89  1  0.00301379  0.50106483  0.50199781  1
  Co  Co90  1  0.86979442  0.12386364  0.62818729  1
  Co  Co91  1  -0.00051229  0.24835051  0.24974368  1
  Co  Co92  1  0.50108255  0.24727117  -0.00192443  1
  Co  Co93  1  0.74454163  0.49981407  0.74821508  1
  Co  Co94  1  0.87604121  0.87705199  0.62251143  1
  Co  Co95  1  0.62164175  0.37708958  0.87595861  1
  Co  Co96  1  0.62685809  0.12442173  0.87251706  1
  Co  Co97  1  0.24897989  -0.00125949  -0.00108734  1
  Co  Co98  1  0.62237717  0.37293543  0.12560396  1
  Co  Co99  1  0.24884763  0.49875716  0.49932798  1
  Co  Co100  1  0.24932063  0.49790103  0.75357378  1
  Co  Co101  1  0.24803598  -0.00337065  0.50165297  1
  Co  Co102  1  0.12963218  0.12762179  0.62687099  1
  Co  Co103  1  0.62665386  0.12960637  0.12599158  1
  Co  Co104  1  0.37679830  0.62146974  0.87549028  1
  Co  Co105  1  0.87597753  0.37531953  0.12436551  1
  Co  Co106  1  0.25440422  0.75177662  0.75440995  1
  Co  Co107  1  0.49907083  0.75096924  -0.00338739  1
  Co  Co108  1  0.37504378  0.87871372  0.62708226  1
  Co  Co109  1  -0.00159176  0.74794534  -0.00061937  1
  Co  Co110  1  0.37670939  0.87863382  0.37369571  1
  Co  Co111  1  0.25471381  0.75219934  0.50183911  1
  Co  Co112  1  0.62468739  0.62778419  0.12244412  1
  Co  Co113  1  0.00139913  0.00050245  0.74660864  1
  Co  Co114  1  0.62229621  0.37513565  0.62179262  1
  Co  Co115  1  0.87606902  0.37787139  0.62700512  1
  Co  Co116  1  0.50341309  -0.00054274  0.50372890  1
  Co  Co117  1  0.25192518  0.75194295  0.24775024  1
  Co  Co118  1  0.50187958  0.00056006  0.24547964  1
  Co  Co119  1  0.62531438  0.62531829  0.37939667  1
  Co  Co120  1  0.62537016  0.87087724  0.12460235  1
  Co  Co121  1  0.37043636  0.62570010  0.37444135  1
  Co  Co122  1  0.00430473  0.49990639  0.75025829  1
  Co  Co123  1  0.74749834  -0.00693529  0.74774727  1
  Co  Co124  1  -0.00595254  0.75064862  0.74991661  1
  Co  Co125  1  0.87452198  0.62062853  0.87322746  1
  Co  Co126  1  0.87759117  0.87928230  0.87698508  1
  Co  Co127  1  0.37447243  0.37587756  0.62481658  1
