# generated using pymatgen
data_Fe45Co19
_symmetry_space_group_name_H-M   'P 1'
_cell_length_a   11.41444280
_cell_length_b   11.41559221
_cell_length_c   11.41558514
_cell_angle_alpha   89.99803595
_cell_angle_beta   89.99641094
_cell_angle_gamma   89.99591329
_symmetry_Int_Tables_number   1
_chemical_formula_structural   Fe45Co19
_chemical_formula_sum   'Fe90 Co38'
_cell_volume   1487.48069500
_cell_formula_units_Z   2
loop_
 _symmetry_equiv_pos_site_id
 _symmetry_equiv_pos_as_xyz
  1  'x, y, z'
loop_
 _atom_site_type_symbol
 _atom_site_label
 _atom_site_symmetry_multiplicity
 _atom_site_fract_x
 _atom_site_fract_y
 _atom_site_fract_z
 _atom_site_occupancy
  Fe  Fe0  1  0.12333497  0.37627964  0.87624148  1
  Fe  Fe1  1  0.37522507  0.37373903  0.87415724  1
  Fe  Fe2  1  0.87728723  0.12615472  0.37388116  1
  Fe  Fe3  1  0.62671870  0.62827041  0.62438151  1
  Fe  Fe4  1  0.11849277  0.12310214  0.87172502  1
  Fe  Fe5  1  0.74941428  0.24940275  0.25028794  1
  Fe  Fe6  1  0.50071902  0.50184519  0.74901888  1
  Fe  Fe7  1  0.74939077  -0.00234521  0.25066036  1
  Fe  Fe8  1  0.87865441  0.12267439  0.62838489  1
  Fe  Fe9  1  0.74878468  0.50184171  0.75001098  1
  Fe  Fe10  1  -0.00031569  0.49995545  0.75116962  1
  Fe  Fe11  1  0.37311320  0.12724535  0.37531402  1
  Fe  Fe12  1  0.37502381  0.62122335  0.12725184  1
  Fe  Fe13  1  -0.00583585  0.00136549  0.00050849  1
  Fe  Fe14  1  0.25115161  0.50309249  0.75105385  1
  Fe  Fe15  1  0.75184599  0.75122059  0.00227403  1
  Fe  Fe16  1  0.50011533  0.24893531  0.50118669  1
  Fe  Fe17  1  0.37005615  0.12175494  0.62426009  1
  Fe  Fe18  1  0.50117115  0.24975482  0.00153611  1
  Fe  Fe19  1  0.75150083  0.25102308  0.74975795  1
  Fe  Fe20  1  0.62519774  0.87390692  0.87777204  1
  Fe  Fe21  1  0.12688665  0.37143766  0.37475610  1
  Fe  Fe22  1  -0.00002158  0.74968475  0.00307772  1
  Fe  Fe23  1  0.62656150  0.12563819  0.62349616  1
  Fe  Fe24  1  0.00133916  0.24904195  0.50426485  1
  Fe  Fe25  1  0.12528144  0.37697062  0.12271638  1
  Fe  Fe26  1  0.12454666  0.87753651  0.12386458  1
  Fe  Fe27  1  0.12383721  0.62117102  0.12519119  1
  Fe  Fe28  1  0.62231328  0.62664640  0.37180682  1
  Fe  Fe29  1  0.12555618  0.37664005  0.62588324  1
  Fe  Fe30  1  0.87630610  0.87461887  0.87619728  1
  Fe  Fe31  1  0.24974490  0.75072353  0.49982676  1
  Fe  Fe32  1  0.00261363  0.00195355  0.25060705  1
  Fe  Fe33  1  0.24461355  0.00427061  0.25287973  1
  Fe  Fe34  1  0.87583538  0.37645042  0.12565923  1
  Fe  Fe35  1  0.62631349  0.37628521  0.12481715  1
  Fe  Fe36  1  0.49910572  0.75216292  0.49972582  1
  Fe  Fe37  1  0.00013105  0.50025381  0.49817962  1
  Fe  Fe38  1  0.75222977  0.50085853  0.00058215  1
  Fe  Fe39  1  0.87435958  0.62839917  0.62560435  1
  Fe  Fe40  1  0.50282870  -0.00077121  0.25046476  1
  Fe  Fe41  1  0.62678577  0.37287478  0.37704150  1
  Fe  Fe42  1  0.37186269  0.87258275  0.87472917  1
  Fe  Fe43  1  0.62891674  0.87259907  0.62216792  1
  Fe  Fe44  1  0.00104066  0.75372458  0.50222855  1
  Fe  Fe45  1  0.87549134  0.37342445  0.37520158  1
  Fe  Fe46  1  0.37169648  0.37590285  0.12648659  1
  Fe  Fe47  1  0.62361525  0.62794915  0.87714215  1
  Fe  Fe48  1  0.24972306  0.50057185  0.49850595  1
  Fe  Fe49  1  0.75078010  -0.00353566  0.75073131  1
  Fe  Fe50  1  0.62850315  0.12424628  0.87786117  1
  Fe  Fe51  1  0.87640903  0.62583251  0.87376357  1
  Fe  Fe52  1  0.00158441  0.75593615  0.74723659  1
  Fe  Fe53  1  -0.00580368  0.24850430  -0.00182298  1
  Fe  Fe54  1  0.24887326  0.24821584  -0.00036925  1
  Fe  Fe55  1  0.75011180  0.75222093  0.25062489  1
  Fe  Fe56  1  0.36982513  0.87696380  0.62595296  1
  Fe  Fe57  1  0.00474420  -0.00277418  0.50123811  1
  Fe  Fe58  1  0.37425252  0.87537704  0.37188269  1
  Fe  Fe59  1  0.12575552  0.62758783  0.87675129  1
  Fe  Fe60  1  0.87715579  0.62314580  0.12888416  1
  Fe  Fe61  1  0.37216782  0.37233247  0.37296497  1
  Fe  Fe62  1  0.49860048  0.49862867  -0.00008542  1
  Fe  Fe63  1  0.37343845  0.12291063  0.12473071  1
  Fe  Fe64  1  0.37503185  0.37634346  0.62595641  1
  Fe  Fe65  1  0.62870073  0.12267835  0.12278957  1
  Fe  Fe66  1  0.49854822  0.75077537  0.74806259  1
  Fe  Fe67  1  0.50030335  -0.00076673  0.74963080  1
  Fe  Fe68  1  0.12531916  0.62576873  0.62491602  1
  Fe  Fe69  1  0.62652844  0.37477345  0.87546494  1
  Fe  Fe70  1  0.50156773  0.24821235  0.74853290  1
  Fe  Fe71  1  0.87764192  0.87415470  0.37460756  1
  Fe  Fe72  1  0.24735020  0.24757159  0.74937043  1
  Fe  Fe73  1  0.12299120  0.62704353  0.37353540  1
  Fe  Fe74  1  0.50071439  0.00005001  0.49907907  1
  Fe  Fe75  1  0.37382310  0.62733412  0.87651021  1
  Fe  Fe76  1  0.87848828  0.62555224  0.37235487  1
  Fe  Fe77  1  0.75031754  0.00173476  0.49733379  1
  Fe  Fe78  1  0.37677865  0.62496148  0.37361988  1
  Fe  Fe79  1  0.00345699  0.24805994  0.24735660  1
  Fe  Fe80  1  0.49564513  0.75346408  0.00598570  1
  Fe  Fe81  1  0.87406616  0.37666540  0.62495948  1
  Fe  Fe82  1  0.37670846  0.12606933  0.87504626  1
  Fe  Fe83  1  0.24941634  0.74979368  0.24692805  1
  Fe  Fe84  1  0.49947139  -0.00175022  0.00027354  1
  Fe  Fe85  1  0.50057761  0.24880552  0.24850342  1
  Fe  Fe86  1  0.24943795  0.00032339  -0.00333868  1
  Fe  Fe87  1  0.50102277  0.49878564  0.50036959  1
  Fe  Fe88  1  0.75036434  0.50193533  0.49863040  1
  Fe  Fe89  1  0.62346836  0.62500264  0.12724548  1
  Co  Co90  1  0.62642785  0.37413288  0.62388683  1
  Co  Co91  1  0.87248570  0.12522425  0.12830154  1
  Co  Co92  1  0.62614453  0.87563794  0.12368942  1
  Co  Co93  1  0.12410363  0.87120588  0.37223433  1
  Co  Co94  1  0.75145972  0.74733923  0.49388656  1
  Co  Co95  1  0.86998125  0.87339124  0.62100169  1
  Co  Co96  1  0.12585912  0.12079375  0.62662371  1
  Co  Co97  1  0.25035538  0.75004380  0.00558308  1
  Co  Co98  1  0.87697545  0.87514124  0.12753102  1
  Co  Co99  1  0.50004115  0.49680247  0.25151602  1
  Co  Co100  1  0.62458915  0.87406960  0.37590338  1
  Co  Co101  1  -0.00202420  0.50107348  -0.00098060  1
  Co  Co102  1  0.00207093  0.49700298  0.25239280  1
  Co  Co103  1  0.37493402  0.62474156  0.62271493  1
  Co  Co104  1  0.24923264  0.25006121  0.50412734  1
  Co  Co105  1  0.75428796  -0.00158840  0.00006495  1
  Co  Co106  1  0.12359783  0.12298258  0.12012639  1
  Co  Co107  1  0.00110498  0.75068390  0.24752090  1
  Co  Co108  1  0.75078161  0.75205389  0.75312789  1
  Co  Co109  1  0.24792599  0.50063775  0.25247301  1
  Co  Co110  1  -0.00049851  -0.00836051  0.74724517  1
  Co  Co111  1  0.87465701  0.12330040  0.86971200  1
  Co  Co112  1  0.75042428  0.49974719  0.25158507  1
  Co  Co113  1  0.62523633  0.12626392  0.37499777  1
  Co  Co114  1  0.87404913  0.37710831  0.87383436  1
  Co  Co115  1  0.75332077  0.24664101  0.50084698  1
  Co  Co116  1  0.12424243  0.87367239  0.87926268  1
  Co  Co117  1  0.25074293  0.50032664  -0.00183158  1
  Co  Co118  1  0.37025153  0.88142188  0.12802328  1
  Co  Co119  1  0.13256612  0.87760868  0.62627848  1
  Co  Co120  1  0.49842493  0.75343819  0.24691955  1
  Co  Co121  1  0.24704976  -0.00087254  0.49380566  1
  Co  Co122  1  0.24938635  0.00140660  0.75613928  1
  Co  Co123  1  0.24932592  0.74813771  0.74968734  1
  Co  Co124  1  0.75350927  0.25032089  -0.00036412  1
  Co  Co125  1  0.12456725  0.13004654  0.37916857  1
  Co  Co126  1  0.00041604  0.25276260  0.74904669  1
  Co  Co127  1  0.24729505  0.24661971  0.24591001  1
