# generated using pymatgen
data_Fe45Co19
_symmetry_space_group_name_H-M   'P 1'
_cell_length_a   11.41480724
_cell_length_b   11.41397108
_cell_length_c   11.41455958
_cell_angle_alpha   89.98628814
_cell_angle_beta   89.99786867
_cell_angle_gamma   89.99519383
_symmetry_Int_Tables_number   1
_chemical_formula_structural   Fe45Co19
_chemical_formula_sum   'Fe90 Co38'
_cell_volume   1487.18328255
_cell_formula_units_Z   2
loop_
 _symmetry_equiv_pos_site_id
 _symmetry_equiv_pos_as_xyz
  1  'x, y, z'
loop_
 _atom_site_type_symbol
 _atom_site_label
 _atom_site_symmetry_multiplicity
 _atom_site_fract_x
 _atom_site_fract_y
 _atom_site_fract_z
 _atom_site_occupancy
  Fe  Fe0  1  0.75025876  -0.00112197  0.50143565  1
  Fe  Fe1  1  0.37408496  0.12414637  0.37606068  1
  Fe  Fe2  1  -0.00186239  -0.00029968  0.75095881  1
  Fe  Fe3  1  0.87804117  0.37294072  0.87486884  1
  Fe  Fe4  1  0.87690882  0.37902246  0.62658861  1
  Fe  Fe5  1  0.87380537  0.87152217  0.87392158  1
  Fe  Fe6  1  0.75109149  -0.00107214  -0.00138416  1
  Fe  Fe7  1  0.00005484  -0.00003646  0.50002361  1
  Fe  Fe8  1  0.12496375  0.87588722  0.62459017  1
  Fe  Fe9  1  0.62562479  0.87542781  0.87172852  1
  Fe  Fe10  1  -0.00021833  0.50016019  0.25253213  1
  Fe  Fe11  1  0.75176646  0.50211790  0.75444859  1
  Fe  Fe12  1  0.00097071  0.25006098  0.24885232  1
  Fe  Fe13  1  0.37505060  0.37570932  0.12579522  1
  Fe  Fe14  1  0.24884172  0.24997712  0.50366002  1
  Fe  Fe15  1  0.62621631  0.37493591  0.37523676  1
  Fe  Fe16  1  0.74964644  0.75013637  0.24919225  1
  Fe  Fe17  1  0.87523965  0.37533103  0.12447044  1
  Fe  Fe18  1  0.37301421  0.87361802  0.87279898  1
  Fe  Fe19  1  0.50123463  0.25146867  0.50199228  1
  Fe  Fe20  1  0.12781940  0.87721761  0.12521582  1
  Fe  Fe21  1  0.37547405  0.62427633  0.12349388  1
  Fe  Fe22  1  0.11942270  0.37883443  0.62691721  1
  Fe  Fe23  1  0.00158671  0.74792227  0.50044184  1
  Fe  Fe24  1  0.62708338  0.37883775  0.62570772  1
  Fe  Fe25  1  0.87481851  0.87364136  0.37444392  1
  Fe  Fe26  1  0.62577495  0.12345849  0.87531024  1
  Fe  Fe27  1  0.24978022  0.24966190  0.74579024  1
  Fe  Fe28  1  0.12434481  0.37621727  0.37538794  1
  Fe  Fe29  1  0.37613739  0.87569629  0.62428417  1
  Fe  Fe30  1  0.24917483  0.49763340  -0.00277662  1
  Fe  Fe31  1  0.62400689  0.62515196  0.12359614  1
  Fe  Fe32  1  0.00136630  0.00065418  0.24957277  1
  Fe  Fe33  1  0.12403002  0.12696887  0.87249329  1
  Fe  Fe34  1  0.87475535  0.87446077  0.12588078  1
  Fe  Fe35  1  0.50004999  0.00082052  0.50096538  1
  Fe  Fe36  1  0.50137784  0.74778429  0.74748890  1
  Fe  Fe37  1  0.49768031  0.75018353  0.25033743  1
  Fe  Fe38  1  0.87655030  0.62867373  0.37279639  1
  Fe  Fe39  1  0.75040442  0.50097482  0.25102738  1
  Fe  Fe40  1  0.74644802  0.00228595  0.25086672  1
  Fe  Fe41  1  0.87377068  0.12606908  0.37539505  1
  Fe  Fe42  1  0.75182017  0.50268463  0.49683785  1
  Fe  Fe43  1  0.00262726  0.50137255  -0.00544637  1
  Fe  Fe44  1  0.24945398  0.74607020  0.74425804  1
  Fe  Fe45  1  0.00135943  0.75104885  -0.00014820  1
  Fe  Fe46  1  0.12577717  0.12440195  0.37720013  1
  Fe  Fe47  1  0.37547611  0.62468925  0.87522128  1
  Fe  Fe48  1  0.74727389  0.24754190  0.24850645  1
  Fe  Fe49  1  0.24749151  0.24958718  0.24831581  1
  Fe  Fe50  1  0.87868269  0.62408376  0.62801306  1
  Fe  Fe51  1  0.62264590  0.37624925  0.87623257  1
  Fe  Fe52  1  0.25008391  0.49990141  0.25119603  1
  Fe  Fe53  1  0.50267652  0.24568691  0.24909412  1
  Fe  Fe54  1  0.49972075  0.50186352  0.75045519  1
  Fe  Fe55  1  0.87474935  0.87301201  0.62498734  1
  Fe  Fe56  1  0.37618291  0.37813936  0.62475582  1
  Fe  Fe57  1  0.37281506  0.11913231  0.12692248  1
  Fe  Fe58  1  0.37381556  0.12634871  0.87266250  1
  Fe  Fe59  1  0.12524024  0.62399118  0.12525934  1
  Fe  Fe60  1  0.49976485  0.75099486  -0.00026587  1
  Fe  Fe61  1  0.74966845  0.50174220  -0.00237595  1
  Fe  Fe62  1  0.74795952  0.74895143  0.74804659  1
  Fe  Fe63  1  0.37541748  0.37453141  0.37651330  1
  Fe  Fe64  1  0.12585179  0.87371188  0.37649807  1
  Fe  Fe65  1  0.24935098  0.25108384  0.00177265  1
  Fe  Fe66  1  0.50197263  0.74566952  0.50342784  1
  Fe  Fe67  1  0.75175925  0.24844624  0.75240574  1
  Fe  Fe68  1  0.62452977  0.12182883  0.62725508  1
  Fe  Fe69  1  0.62460118  0.37521420  0.12348046  1
  Fe  Fe70  1  0.25155388  0.00272141  0.74676201  1
  Fe  Fe71  1  0.24724743  0.50120349  0.75053410  1
  Fe  Fe72  1  0.49794139  0.25081476  0.00018075  1
  Fe  Fe73  1  0.49981021  0.50065982  0.25175718  1
  Fe  Fe74  1  0.50003708  0.25040550  0.74963840  1
  Fe  Fe75  1  0.37254962  0.62332952  0.38020091  1
  Fe  Fe76  1  0.75025290  0.25045073  0.50196125  1
  Fe  Fe77  1  0.49676026  -0.00187542  -0.00167685  1
  Fe  Fe78  1  0.87391089  0.12550245  0.12282740  1
  Fe  Fe79  1  0.62574542  0.87265532  0.37804676  1
  Fe  Fe80  1  0.00234531  0.25030939  0.00110172  1
  Fe  Fe81  1  0.87571419  0.62675400  0.12283184  1
  Fe  Fe82  1  -0.00152984  0.25181169  0.50088804  1
  Fe  Fe83  1  0.00139433  -0.00074671  -0.00155666  1
  Fe  Fe84  1  0.37454458  0.87600206  0.37667390  1
  Fe  Fe85  1  0.25139715  0.75107786  0.00160741  1
  Fe  Fe86  1  0.87569843  0.12434684  0.62610692  1
  Fe  Fe87  1  0.62305492  0.87598723  0.12581352  1
  Fe  Fe88  1  0.12783025  0.87325698  0.87290424  1
  Fe  Fe89  1  0.25044700  0.75060598  0.25048717  1
  Co  Co90  1  0.49870440  0.49911350  -0.00001051  1
  Co  Co91  1  0.62526861  0.12540306  0.37967529  1
  Co  Co92  1  0.87433283  0.63103939  0.87560746  1
  Co  Co93  1  0.25042792  0.00066947  0.50237806  1
  Co  Co94  1  0.75009293  0.25257616  -0.00268167  1
  Co  Co95  1  0.00196720  0.75044067  0.74971172  1
  Co  Co96  1  0.62495670  0.62672547  0.37432878  1
  Co  Co97  1  0.62496804  0.87645201  0.62482566  1
  Co  Co98  1  0.37422285  0.37524271  0.87319106  1
  Co  Co99  1  0.87665339  0.12563539  0.87712588  1
  Co  Co100  1  0.49780228  -0.00059075  0.75085942  1
  Co  Co101  1  0.87284624  0.37143084  0.37330934  1
  Co  Co102  1  0.62510680  0.12339802  0.11891458  1
  Co  Co103  1  0.75339233  0.00018718  0.75008497  1
  Co  Co104  1  0.37504363  0.62106203  0.62276849  1
  Co  Co105  1  0.24999775  0.00002750  -0.00381334  1
  Co  Co106  1  0.12112401  0.62172426  0.62355423  1
  Co  Co107  1  0.12624119  0.12263205  0.12409951  1
  Co  Co108  1  0.74785071  0.75105704  0.00073923  1
  Co  Co109  1  0.24857819  0.74988326  0.50300792  1
  Co  Co110  1  0.24814180  -0.00223756  0.25305487  1
  Co  Co111  1  0.12407323  0.37824957  0.12558334  1
  Co  Co112  1  0.12683813  0.62540073  0.37546463  1
  Co  Co113  1  0.50218759  0.49959209  0.49865284  1
  Co  Co114  1  -0.00294342  0.50073387  0.49487521  1
  Co  Co115  1  0.37814033  0.12508673  0.62387636  1
  Co  Co116  1  0.37437545  0.87827922  0.12605107  1
  Co  Co117  1  0.12150049  0.12397932  0.62512337  1
  Co  Co118  1  0.75157493  0.74710001  0.50202629  1
  Co  Co119  1  0.12550225  0.37004305  0.87240154  1
  Co  Co120  1  0.62713719  0.62122287  0.62579839  1
  Co  Co121  1  0.50295547  0.00131570  0.25198347  1
  Co  Co122  1  0.00161861  0.50326651  0.75739065  1
  Co  Co123  1  0.62341706  0.62544551  0.87567115  1
  Co  Co124  1  -0.00342642  0.24928424  0.74806688  1
  Co  Co125  1  0.12756606  0.62986710  0.87539056  1
  Co  Co126  1  0.00215299  0.75066165  0.24836727  1
  Co  Co127  1  0.24754549  0.49799111  0.50196672  1
