# generated using pymatgen
data_Fe45Co19
_symmetry_space_group_name_H-M   'P 1'
_cell_length_a   11.41560975
_cell_length_b   11.41554400
_cell_length_c   11.41558828
_cell_angle_alpha   89.98992401
_cell_angle_beta   90.00534267
_cell_angle_gamma   90.00021718
_symmetry_Int_Tables_number   1
_chemical_formula_structural   Fe45Co19
_chemical_formula_sum   'Fe90 Co38'
_cell_volume   1487.62686976
_cell_formula_units_Z   2
loop_
 _symmetry_equiv_pos_site_id
 _symmetry_equiv_pos_as_xyz
  1  'x, y, z'
loop_
 _atom_site_type_symbol
 _atom_site_label
 _atom_site_symmetry_multiplicity
 _atom_site_fract_x
 _atom_site_fract_y
 _atom_site_fract_z
 _atom_site_occupancy
  Fe  Fe0  1  0.25103246  0.75228818  0.50173413  1
  Fe  Fe1  1  0.87667230  0.37314648  0.12568091  1
  Fe  Fe2  1  0.00074612  0.00149384  0.75077694  1
  Fe  Fe3  1  0.37380964  0.37691981  0.12639352  1
  Fe  Fe4  1  0.62287284  0.12854215  0.87953738  1
  Fe  Fe5  1  0.62225768  0.62426592  0.12350877  1
  Fe  Fe6  1  0.62295600  0.87556806  0.62491528  1
  Fe  Fe7  1  0.00131086  0.74899334  0.50068685  1
  Fe  Fe8  1  -0.00053265  0.24893560  0.49897465  1
  Fe  Fe9  1  0.74803031  0.00372565  0.74883337  1
  Fe  Fe10  1  0.37594569  0.87478944  0.12822321  1
  Fe  Fe11  1  0.87409893  0.87528212  0.87322624  1
  Fe  Fe12  1  0.00293996  0.50066756  0.49883075  1
  Fe  Fe13  1  0.37386803  0.36903165  0.86904178  1
  Fe  Fe14  1  0.62129881  0.12626253  0.12319131  1
  Fe  Fe15  1  0.49770411  -0.00297374  0.49463510  1
  Fe  Fe16  1  0.62461958  0.37360641  0.37684429  1
  Fe  Fe17  1  0.74960589  0.49988615  0.24983710  1
  Fe  Fe18  1  0.62109216  0.12874494  0.61844603  1
  Fe  Fe19  1  0.37288710  0.62507137  0.37694935  1
  Fe  Fe20  1  0.87547202  0.87688811  0.62589904  1
  Fe  Fe21  1  0.49957137  0.24999058  0.24977593  1
  Fe  Fe22  1  0.12558971  0.87484475  0.37378857  1
  Fe  Fe23  1  0.74847603  -0.00085432  -0.00020478  1
  Fe  Fe24  1  0.37454192  0.62817525  0.87309799  1
  Fe  Fe25  1  0.25167255  0.00410882  0.74986224  1
  Fe  Fe26  1  0.87617826  0.62442902  0.37643834  1
  Fe  Fe27  1  0.74819683  0.75248949  -0.00049400  1
  Fe  Fe28  1  0.00329206  0.50047842  0.75262310  1
  Fe  Fe29  1  0.00067765  0.75126396  0.00152125  1
  Fe  Fe30  1  0.12536348  0.87803184  0.62517724  1
  Fe  Fe31  1  0.00085738  0.74899665  0.24974467  1
  Fe  Fe32  1  0.00470436  0.24679808  0.24920312  1
  Fe  Fe33  1  0.49916948  0.50118274  0.24976403  1
  Fe  Fe34  1  0.75148449  0.74840387  0.50287332  1
  Fe  Fe35  1  0.50086582  0.75131477  0.25209703  1
  Fe  Fe36  1  0.87668731  0.12438167  0.12649723  1
  Fe  Fe37  1  0.37597760  0.87448166  0.87002736  1
  Fe  Fe38  1  0.62198352  0.37217739  0.62308036  1
  Fe  Fe39  1  0.12958412  0.62284091  0.62555891  1
  Fe  Fe40  1  0.25291959  -0.00192373  0.50002194  1
  Fe  Fe41  1  0.75104268  0.49975449  0.50163349  1
  Fe  Fe42  1  0.24906872  0.25182214  0.00110763  1
  Fe  Fe43  1  0.49917705  0.00483265  0.75117538  1
  Fe  Fe44  1  0.12531210  0.87437213  0.87495352  1
  Fe  Fe45  1  0.13019865  0.37542336  0.62853027  1
  Fe  Fe46  1  0.50151632  0.75314469  -0.00191563  1
  Fe  Fe47  1  0.74843685  0.24885627  0.74790638  1
  Fe  Fe48  1  0.00254567  0.24848741  0.75011927  1
  Fe  Fe49  1  0.87471755  0.62361820  0.12390964  1
  Fe  Fe50  1  0.87473719  0.87745792  0.12785215  1
  Fe  Fe51  1  0.12551526  0.62055994  0.12564882  1
  Fe  Fe52  1  0.74898952  0.49647097  0.00122079  1
  Fe  Fe53  1  0.49801731  0.49711344  -0.00119168  1
  Fe  Fe54  1  0.62516483  0.62465334  0.87483950  1
  Fe  Fe55  1  0.25021331  0.74649768  0.24863422  1
  Fe  Fe56  1  0.74652877  0.25009757  0.24898282  1
  Fe  Fe57  1  0.24982876  0.75031562  0.00055423  1
  Fe  Fe58  1  0.62356446  0.37156167  0.87554863  1
  Fe  Fe59  1  0.87489276  0.37187876  0.87494567  1
  Fe  Fe60  1  0.24660572  0.00074875  0.24897192  1
  Fe  Fe61  1  0.00211696  0.49599292  -0.00149286  1
  Fe  Fe62  1  0.74868853  0.74820652  0.74783568  1
  Fe  Fe63  1  0.75192569  0.00421008  0.49873317  1
  Fe  Fe64  1  0.87444786  0.87653552  0.37321007  1
  Fe  Fe65  1  0.37352944  0.37645962  0.37263791  1
  Fe  Fe66  1  0.12704239  0.37747418  0.37190673  1
  Fe  Fe67  1  0.49617393  0.75187120  0.50267962  1
  Fe  Fe68  1  0.87527502  0.62432944  0.87499466  1
  Fe  Fe69  1  0.87645478  0.37472692  0.62551466  1
  Fe  Fe70  1  0.87531004  0.37334646  0.37485930  1
  Fe  Fe71  1  0.12504622  0.12429120  0.62132457  1
  Fe  Fe72  1  0.12548759  0.12614702  0.87858856  1
  Fe  Fe73  1  0.74797646  0.74941967  0.25010334  1
  Fe  Fe74  1  0.37529589  0.12366304  0.12447593  1
  Fe  Fe75  1  0.37480689  0.12396439  0.37379058  1
  Fe  Fe76  1  0.74902697  0.50006348  0.74780869  1
  Fe  Fe77  1  0.87536353  0.12712381  0.87603560  1
  Fe  Fe78  1  0.24872604  0.24899138  0.24895609  1
  Fe  Fe79  1  0.49949436  -0.00271879  -0.00023226  1
  Fe  Fe80  1  0.62420724  0.62450721  0.37852353  1
  Fe  Fe81  1  0.49846440  0.50168330  0.74844705  1
  Fe  Fe82  1  0.25061569  -0.00263393  0.00021458  1
  Fe  Fe83  1  0.25338859  0.25198293  0.50155713  1
  Fe  Fe84  1  0.74395429  0.00094928  0.25235446  1
  Fe  Fe85  1  0.00116588  -0.00106404  0.00230390  1
  Fe  Fe86  1  -0.00270083  0.00266025  0.49616548  1
  Fe  Fe87  1  0.49485453  0.49837197  0.50309889  1
  Fe  Fe88  1  0.00182668  0.74917866  0.74920540  1
  Fe  Fe89  1  0.25052299  0.49921926  -0.00259134  1
  Co  Co90  1  0.62261795  0.12977194  0.37846413  1
  Co  Co91  1  0.12701273  0.12513507  0.12129358  1
  Co  Co92  1  0.37018858  0.62400454  0.62618904  1
  Co  Co93  1  0.12799108  0.37099797  0.87242448  1
  Co  Co94  1  0.24795569  0.75179553  0.74894813  1
  Co  Co95  1  0.62494708  0.87587346  0.87093799  1
  Co  Co96  1  0.37236388  0.87512040  0.37044755  1
  Co  Co97  1  0.62279249  0.37619935  0.12526972  1
  Co  Co98  1  0.50262459  0.00012030  0.25250424  1
  Co  Co99  1  0.00539836  0.00223530  0.25106485  1
  Co  Co100  1  0.25133348  0.49743399  0.49860055  1
  Co  Co101  1  0.25304711  0.50283127  0.25002018  1
  Co  Co102  1  0.12678372  0.62445862  0.37425606  1
  Co  Co103  1  0.62320368  0.62381935  0.62250998  1
  Co  Co104  1  0.12492952  0.62689818  0.87680382  1
  Co  Co105  1  0.37517331  0.12681514  0.88010662  1
  Co  Co106  1  0.12620464  0.87402069  0.12665804  1
  Co  Co107  1  0.49745896  0.25349500  0.00229313  1
  Co  Co108  1  0.49895596  0.24560346  0.74894782  1
  Co  Co109  1  -0.00197018  0.50009696  0.25135425  1
  Co  Co110  1  0.87727167  0.12650297  0.62676419  1
  Co  Co111  1  0.25014565  0.50208274  0.75519728  1
  Co  Co112  1  0.00140486  0.25128963  0.00141796  1
  Co  Co113  1  0.50131135  0.74728194  0.74755503  1
  Co  Co114  1  0.75031178  0.25046979  0.00233484  1
  Co  Co115  1  0.87783158  0.62254989  0.62619229  1
  Co  Co116  1  0.49316494  0.25436330  0.49775177  1
  Co  Co117  1  0.37772892  0.12417711  0.61999746  1
  Co  Co118  1  0.62696482  0.87279617  0.37834735  1
  Co  Co119  1  0.62331169  0.87428668  0.12551363  1
  Co  Co120  1  0.87425001  0.12626120  0.37027277  1
  Co  Co121  1  0.12650354  0.37809678  0.12739136  1
  Co  Co122  1  0.75372594  0.24916809  0.50092895  1
  Co  Co123  1  0.12869276  0.12516672  0.37868035  1
  Co  Co124  1  0.25090068  0.24123926  0.74739233  1
  Co  Co125  1  0.37651522  0.87704639  0.63002423  1
  Co  Co126  1  0.37222411  0.37535375  0.63130622  1
  Co  Co127  1  0.37768493  0.62577380  0.12278180  1
