# generated using pymatgen
data_Fe45Co19
_symmetry_space_group_name_H-M   'P 1'
_cell_length_a   11.41455230
_cell_length_b   11.41599266
_cell_length_c   11.41453335
_cell_angle_alpha   90.00688602
_cell_angle_beta   89.99487384
_cell_angle_gamma   90.00107194
_symmetry_Int_Tables_number   1
_chemical_formula_structural   Fe45Co19
_chemical_formula_sum   'Fe90 Co38'
_cell_volume   1487.41007768
_cell_formula_units_Z   2
loop_
 _symmetry_equiv_pos_site_id
 _symmetry_equiv_pos_as_xyz
  1  'x, y, z'
loop_
 _atom_site_type_symbol
 _atom_site_label
 _atom_site_symmetry_multiplicity
 _atom_site_fract_x
 _atom_site_fract_y
 _atom_site_fract_z
 _atom_site_occupancy
  Fe  Fe0  1  0.00217543  0.75231546  -0.00516158  1
  Fe  Fe1  1  0.37224149  0.37538166  0.37426944  1
  Fe  Fe2  1  -0.00281764  0.24528670  0.74888345  1
  Fe  Fe3  1  0.37220099  0.12548043  0.87526512  1
  Fe  Fe4  1  0.74942153  0.00086616  0.25007514  1
  Fe  Fe5  1  0.62805212  0.12413849  0.87526037  1
  Fe  Fe6  1  0.24908721  0.49787380  0.00163196  1
  Fe  Fe7  1  0.87453726  0.62390004  0.62861646  1
  Fe  Fe8  1  0.50083461  0.00037885  0.74802832  1
  Fe  Fe9  1  0.37230685  0.87516229  0.37430909  1
  Fe  Fe10  1  0.87506147  0.12523350  0.37932235  1
  Fe  Fe11  1  0.75206180  0.50043501  0.24926588  1
  Fe  Fe12  1  0.62397027  0.12520330  0.12450859  1
  Fe  Fe13  1  0.37550735  0.62529211  0.62750984  1
  Fe  Fe14  1  0.74664751  0.00134495  0.50199990  1
  Fe  Fe15  1  0.37891186  0.12551135  0.62076647  1
  Fe  Fe16  1  -0.00009089  0.75410213  0.25395515  1
  Fe  Fe17  1  0.62270395  0.37520740  0.12457400  1
  Fe  Fe18  1  0.75029651  0.74885190  0.50300141  1
  Fe  Fe19  1  0.87707930  0.12488543  0.12433987  1
  Fe  Fe20  1  0.37507394  0.87397038  0.62622243  1
  Fe  Fe21  1  0.00002194  0.00193745  -0.00391076  1
  Fe  Fe22  1  0.12222875  0.37094083  0.12754172  1
  Fe  Fe23  1  0.24875724  0.75469136  0.24600775  1
  Fe  Fe24  1  0.12884393  0.12539965  0.37292890  1
  Fe  Fe25  1  0.75134530  0.24868563  0.25146316  1
  Fe  Fe26  1  0.37130535  0.62393335  0.87387710  1
  Fe  Fe27  1  0.87601278  0.87595479  0.62398488  1
  Fe  Fe28  1  0.12483880  0.12576529  0.12643359  1
  Fe  Fe29  1  0.49820232  -0.00005955  0.25259853  1
  Fe  Fe30  1  0.24960643  -0.00157786  0.00251421  1
  Fe  Fe31  1  0.75146841  0.49868897  0.50192101  1
  Fe  Fe32  1  0.62628397  0.37224920  0.87544307  1
  Fe  Fe33  1  0.00209496  0.50189104  0.49999684  1
  Fe  Fe34  1  0.74808589  0.75294705  -0.00055724  1
  Fe  Fe35  1  0.87948150  0.37336003  0.37725037  1
  Fe  Fe36  1  0.62205356  0.62626954  0.12328561  1
  Fe  Fe37  1  0.74978463  0.75055169  0.24966965  1
  Fe  Fe38  1  0.50007338  0.00008344  -0.00126045  1
  Fe  Fe39  1  0.49753224  0.24951493  0.00035789  1
  Fe  Fe40  1  0.87668384  0.62631473  0.37538371  1
  Fe  Fe41  1  0.37319838  0.87599306  0.87381089  1
  Fe  Fe42  1  0.74950583  0.00261202  0.74528264  1
  Fe  Fe43  1  0.75186684  0.24849658  0.00183902  1
  Fe  Fe44  1  0.62540078  0.37407318  0.37502963  1
  Fe  Fe45  1  0.24797493  0.49899821  0.24819359  1
  Fe  Fe46  1  0.12524469  0.62713215  0.37429262  1
  Fe  Fe47  1  0.49885571  0.24872207  0.74993949  1
  Fe  Fe48  1  0.24920014  0.74945193  0.50287877  1
  Fe  Fe49  1  0.00090044  -0.00225312  0.25387276  1
  Fe  Fe50  1  0.50153107  0.49948203  0.75105019  1
  Fe  Fe51  1  0.49667102  0.24983365  0.25065487  1
  Fe  Fe52  1  0.12433510  0.37437311  0.62624565  1
  Fe  Fe53  1  0.37302974  0.62618421  0.37412931  1
  Fe  Fe54  1  0.00230862  -0.00283619  0.49756717  1
  Fe  Fe55  1  0.62125456  0.12781298  0.38006238  1
  Fe  Fe56  1  0.37812386  0.62723337  0.12313616  1
  Fe  Fe57  1  0.00219784  0.75199784  0.75266061  1
  Fe  Fe58  1  0.74990193  0.49900300  0.00070943  1
  Fe  Fe59  1  0.87683693  0.87646872  0.12500691  1
  Fe  Fe60  1  0.87125930  0.87857145  0.87417305  1
  Fe  Fe61  1  0.12525652  0.62586791  0.62814426  1
  Fe  Fe62  1  0.24844193  0.50060232  0.50108902  1
  Fe  Fe63  1  0.62058111  0.87409855  0.12407391  1
  Fe  Fe64  1  0.62515673  0.62412865  0.37653087  1
  Fe  Fe65  1  0.49910123  0.49984345  0.50110662  1
  Fe  Fe66  1  0.62550657  0.37387894  0.62472895  1
  Fe  Fe67  1  0.37212035  0.37436806  0.87506518  1
  Fe  Fe68  1  0.37327490  0.37575839  0.62688278  1
  Fe  Fe69  1  0.25149506  -0.00011715  0.50028446  1
  Fe  Fe70  1  0.87428517  0.37299364  0.87391165  1
  Fe  Fe71  1  0.49951213  0.50147891  0.24974950  1
  Fe  Fe72  1  0.24922091  0.25034757  0.50002797  1
  Fe  Fe73  1  0.75334027  0.24701126  0.74398383  1
  Fe  Fe74  1  0.62809953  0.62468563  0.87309164  1
  Fe  Fe75  1  0.12571678  0.87620092  0.62816033  1
  Fe  Fe76  1  0.50069521  0.75067492  0.49952821  1
  Fe  Fe77  1  0.12192142  0.62689000  0.12425769  1
  Fe  Fe78  1  0.00078887  0.49852202  -0.00091138  1
  Fe  Fe79  1  0.00137037  0.49981306  0.75214581  1
  Fe  Fe80  1  0.12760694  0.37153597  0.87309358  1
  Fe  Fe81  1  0.24819248  0.75349170  -0.00040073  1
  Fe  Fe82  1  0.87725238  0.62646494  0.12434907  1
  Fe  Fe83  1  0.87804718  0.37281574  0.12594137  1
  Fe  Fe84  1  0.12803752  0.12403344  0.87249501  1
  Fe  Fe85  1  0.37216086  0.12439738  0.12743666  1
  Fe  Fe86  1  0.12392275  0.12189262  0.62696891  1
  Fe  Fe87  1  0.87338572  0.62407399  0.87402063  1
  Fe  Fe88  1  0.62623006  0.87462854  0.37571305  1
  Fe  Fe89  1  0.50327064  0.75123619  0.75107143  1
  Co  Co90  1  0.62522244  0.62408469  0.62504613  1
  Co  Co91  1  0.12819735  0.88051185  0.87189333  1
  Co  Co92  1  0.50055669  0.75044966  -0.00660189  1
  Co  Co93  1  0.50031415  0.50044351  -0.00352970  1
  Co  Co94  1  0.87025839  0.12355558  0.87629908  1
  Co  Co95  1  0.49883276  -0.00455852  0.49918390  1
  Co  Co96  1  0.25144240  0.24648697  0.74636342  1
  Co  Co97  1  0.50032828  0.74997763  0.25371766  1
  Co  Co98  1  0.12843709  0.87303578  0.37760376  1
  Co  Co99  1  0.00019860  0.24779446  -0.00331563  1
  Co  Co100  1  0.74919396  0.49713428  0.74941201  1
  Co  Co101  1  0.00045806  0.75013677  0.50186120  1
  Co  Co102  1  0.74912273  -0.00068735  0.00433180  1
  Co  Co103  1  0.25021050  0.24975852  0.00183149  1
  Co  Co104  1  -0.00310143  0.00097061  0.75215882  1
  Co  Co105  1  0.37967465  0.87381404  0.12400707  1
  Co  Co106  1  0.62513808  0.87473191  0.62499028  1
  Co  Co107  1  -0.00093426  0.24697673  0.25284108  1
  Co  Co108  1  -0.00036343  0.50098849  0.25036057  1
  Co  Co109  1  0.87799843  0.12207067  0.61946524  1
  Co  Co110  1  0.24777578  0.75021180  0.75071886  1
  Co  Co111  1  0.37724500  0.37637185  0.12427868  1
  Co  Co112  1  0.25453289  0.00197952  0.74688739  1
  Co  Co113  1  0.62723661  0.87985688  0.87381687  1
  Co  Co114  1  0.49698390  0.25513036  0.49942604  1
  Co  Co115  1  0.11989724  0.87639482  0.12298871  1
  Co  Co116  1  0.37455499  0.12466927  0.37615481  1
  Co  Co117  1  0.25155149  0.25179365  0.24981852  1
  Co  Co118  1  0.87853224  0.37627004  0.62406699  1
  Co  Co119  1  0.75191747  0.25094135  0.50239256  1
  Co  Co120  1  0.24908400  0.50014929  0.74873119  1
  Co  Co121  1  0.74987070  0.75195230  0.74937604  1
  Co  Co122  1  0.87185280  0.87538381  0.37762799  1
  Co  Co123  1  0.24936473  -0.00403122  0.24807759  1
  Co  Co124  1  0.12758893  0.62320031  0.87612301  1
  Co  Co125  1  0.62021045  0.12743872  0.62114214  1
  Co  Co126  1  0.00358850  0.24815847  0.50125200  1
  Co  Co127  1  0.12346944  0.37512183  0.37455232  1
