# generated using pymatgen
data_Fe45Co19
_symmetry_space_group_name_H-M   'P 1'
_cell_length_a   11.41544570
_cell_length_b   11.41482761
_cell_length_c   11.41520536
_cell_angle_alpha   89.99932092
_cell_angle_beta   90.00230824
_cell_angle_gamma   89.99142002
_symmetry_Int_Tables_number   1
_chemical_formula_structural   Fe45Co19
_chemical_formula_sum   'Fe90 Co38'
_cell_volume   1487.46225196
_cell_formula_units_Z   2
loop_
 _symmetry_equiv_pos_site_id
 _symmetry_equiv_pos_as_xyz
  1  'x, y, z'
loop_
 _atom_site_type_symbol
 _atom_site_label
 _atom_site_symmetry_multiplicity
 _atom_site_fract_x
 _atom_site_fract_y
 _atom_site_fract_z
 _atom_site_occupancy
  Fe  Fe0  1  0.25223895  0.24984760  0.75184141  1
  Fe  Fe1  1  0.87570117  0.12590966  0.62295974  1
  Fe  Fe2  1  0.50155634  0.74872259  0.75142554  1
  Fe  Fe3  1  0.37454339  0.12378121  0.62172061  1
  Fe  Fe4  1  0.12824876  0.12496679  0.37300407  1
  Fe  Fe5  1  0.12354761  0.37621754  0.62585705  1
  Fe  Fe6  1  0.49721616  0.24237133  0.25764554  1
  Fe  Fe7  1  0.75073315  -0.00235120  0.24615532  1
  Fe  Fe8  1  0.49950652  0.24584784  0.75089538  1
  Fe  Fe9  1  -0.00248613  0.50044945  0.75161783  1
  Fe  Fe10  1  0.25520342  0.00177110  0.24618909  1
  Fe  Fe11  1  0.12553539  0.37576174  0.87530109  1
  Fe  Fe12  1  0.12525166  0.12395223  0.62667376  1
  Fe  Fe13  1  0.50270970  0.75135123  -0.00189465  1
  Fe  Fe14  1  0.49884832  0.74669758  0.25154270  1
  Fe  Fe15  1  0.00054089  0.25333690  0.49647694  1
  Fe  Fe16  1  0.12404352  0.62556038  0.62576824  1
  Fe  Fe17  1  0.74927447  0.24912729  0.74921933  1
  Fe  Fe18  1  -0.00129931  0.24983836  0.75121322  1
  Fe  Fe19  1  0.75063975  -0.00387814  0.50144528  1
  Fe  Fe20  1  0.50073111  0.00144567  0.49545536  1
  Fe  Fe21  1  0.87401308  0.37511691  0.12741924  1
  Fe  Fe22  1  0.37482727  0.62658493  0.62336385  1
  Fe  Fe23  1  0.62412231  0.62630819  0.12470071  1
  Fe  Fe24  1  0.37641746  0.87625254  0.87432418  1
  Fe  Fe25  1  0.74789306  0.50064705  0.25080888  1
  Fe  Fe26  1  0.50145887  0.74974384  0.49769415  1
  Fe  Fe27  1  0.62175031  0.12399181  0.12757752  1
  Fe  Fe28  1  0.00163860  -0.00138722  0.49799635  1
  Fe  Fe29  1  0.62262264  0.87670848  0.62718982  1
  Fe  Fe30  1  0.00214188  0.75011673  0.49757819  1
  Fe  Fe31  1  0.37831178  0.37411056  0.62478392  1
  Fe  Fe32  1  0.37506956  0.87468582  0.37385779  1
  Fe  Fe33  1  0.87267588  0.12485098  0.37499962  1
  Fe  Fe34  1  0.74900321  0.49721250  0.49749945  1
  Fe  Fe35  1  -0.00069311  0.49864588  0.00108545  1
  Fe  Fe36  1  0.49942690  0.50181626  0.49823454  1
  Fe  Fe37  1  0.87398455  0.87301073  0.37200427  1
  Fe  Fe38  1  0.12769502  0.62498620  0.12394344  1
  Fe  Fe39  1  0.87965846  0.87398865  0.62649658  1
  Fe  Fe40  1  0.87235280  0.37371462  0.87527456  1
  Fe  Fe41  1  0.49745465  0.50536061  0.25152910  1
  Fe  Fe42  1  0.25093052  0.25156582  0.00279558  1
  Fe  Fe43  1  0.87052335  0.62698807  0.37560617  1
  Fe  Fe44  1  0.24765888  -0.00372873  0.50228378  1
  Fe  Fe45  1  0.62411443  0.12451504  0.62181247  1
  Fe  Fe46  1  0.74892572  0.25400427  0.49778535  1
  Fe  Fe47  1  0.87471894  0.62543871  0.62378232  1
  Fe  Fe48  1  0.62593135  0.62573669  0.62285713  1
  Fe  Fe49  1  0.87239255  0.12301734  0.87754598  1
  Fe  Fe50  1  0.62182334  0.37398658  0.62487885  1
  Fe  Fe51  1  0.00051270  -0.00118800  0.00264248  1
  Fe  Fe52  1  0.12609697  0.12450894  0.87519478  1
  Fe  Fe53  1  0.25068641  0.75030951  0.75038845  1
  Fe  Fe54  1  0.37277299  0.37549027  0.37568421  1
  Fe  Fe55  1  0.12601426  0.87593767  0.36974217  1
  Fe  Fe56  1  0.74434819  0.25188206  0.00180851  1
  Fe  Fe57  1  0.24984126  -0.00397180  0.00303318  1
  Fe  Fe58  1  0.37592549  0.87566706  0.62534725  1
  Fe  Fe59  1  0.74284278  0.49500670  0.00096034  1
  Fe  Fe60  1  0.25339196  0.74775156  0.24746572  1
  Fe  Fe61  1  0.24790000  0.75101456  0.50027652  1
  Fe  Fe62  1  0.87300256  0.62511759  0.12247880  1
  Fe  Fe63  1  0.12983640  0.61999226  0.37270543  1
  Fe  Fe64  1  0.87247247  0.87861229  0.87535726  1
  Fe  Fe65  1  0.74749532  0.49965123  0.75058522  1
  Fe  Fe66  1  0.25374627  0.49826657  0.00329568  1
  Fe  Fe67  1  0.37673189  0.62331432  0.87781080  1
  Fe  Fe68  1  0.38280522  0.37098694  0.12433549  1
  Fe  Fe69  1  -0.00118776  0.74743803  0.24868399  1
  Fe  Fe70  1  -0.00068265  0.49766882  0.49655629  1
  Fe  Fe71  1  0.00128842  0.25068713  0.25211299  1
  Fe  Fe72  1  0.74935808  0.75169236  0.74951195  1
  Fe  Fe73  1  0.24862205  0.25316367  0.49951751  1
  Fe  Fe74  1  0.87111891  0.62522329  0.87791664  1
  Fe  Fe75  1  0.62752617  0.11997541  0.87418645  1
  Fe  Fe76  1  0.25302925  0.49942986  0.74875285  1
  Fe  Fe77  1  0.00183443  0.75174896  -0.00015588  1
  Fe  Fe78  1  0.74633828  0.75653971  0.00290608  1
  Fe  Fe79  1  0.12418148  0.87634090  0.87054633  1
  Fe  Fe80  1  0.62654073  0.87354956  0.37141526  1
  Fe  Fe81  1  0.12539384  0.12434078  0.12621099  1
  Fe  Fe82  1  0.00025037  0.25167771  0.00126207  1
  Fe  Fe83  1  0.12487906  0.37737406  0.12953049  1
  Fe  Fe84  1  0.38101774  0.37629600  0.87631150  1
  Fe  Fe85  1  0.12657303  0.62342481  0.87592816  1
  Fe  Fe86  1  0.37401688  0.12308125  0.87845661  1
  Fe  Fe87  1  0.87531787  0.12520355  0.12483678  1
  Fe  Fe88  1  0.50220696  -0.00156350  0.00166590  1
  Fe  Fe89  1  0.74743364  0.25097770  0.25103470  1
  Co  Co90  1  0.12878787  0.37857388  0.37097888  1
  Co  Co91  1  0.87481289  0.37523498  0.62568090  1
  Co  Co92  1  0.50133744  0.50370649  0.74876458  1
  Co  Co93  1  0.62660474  0.62666449  0.87609623  1
  Co  Co94  1  0.24881419  0.75355026  -0.00172423  1
  Co  Co95  1  0.63108982  0.12221189  0.37628239  1
  Co  Co96  1  0.74959633  0.75378872  0.50308786  1
  Co  Co97  1  0.37810096  0.87352353  0.12597438  1
  Co  Co98  1  0.62766897  0.62757603  0.37651582  1
  Co  Co99  1  0.62176459  0.37459297  0.87066907  1
  Co  Co100  1  -0.00251493  0.74752411  0.75336869  1
  Co  Co101  1  0.37793871  0.12549326  0.12062932  1
  Co  Co102  1  0.61858323  0.37254891  0.13166748  1
  Co  Co103  1  0.75057069  0.74999269  0.24581916  1
  Co  Co104  1  0.50581185  0.24768782  -0.00357379  1
  Co  Co105  1  0.37591274  0.62911211  0.11862848  1
  Co  Co106  1  0.87875463  0.87456081  0.12560373  1
  Co  Co107  1  0.61864219  0.87531156  0.13003023  1
  Co  Co108  1  0.62593590  0.87869677  0.87222578  1
  Co  Co109  1  0.25160718  0.00002540  0.74868331  1
  Co  Co110  1  0.75117178  0.00020084  0.74553237  1
  Co  Co111  1  0.62106157  0.37598688  0.37308128  1
  Co  Co112  1  0.49721740  0.00430574  0.25437597  1
  Co  Co113  1  0.74752720  -0.00177144  0.00686651  1
  Co  Co114  1  0.87440241  0.37449980  0.37160997  1
  Co  Co115  1  0.50025570  0.24740240  0.49549208  1
  Co  Co116  1  0.12552287  0.87420896  0.12909816  1
  Co  Co117  1  0.36762685  0.12313318  0.38007357  1
  Co  Co118  1  0.50508013  0.50037585  0.00123170  1
  Co  Co119  1  0.49842197  0.00288287  0.74933652  1
  Co  Co120  1  0.12238271  0.87347344  0.62871505  1
  Co  Co121  1  0.37191730  0.62614890  0.37876037  1
  Co  Co122  1  -0.00163653  0.00321881  0.75017939  1
  Co  Co123  1  0.25765631  0.50081857  0.24485171  1
  Co  Co124  1  -0.00170214  0.00136766  0.25071709  1
  Co  Co125  1  -0.00317398  0.50341272  0.25024250  1
  Co  Co126  1  0.25106140  0.49931869  0.50288841  1
  Co  Co127  1  0.25277800  0.24930262  0.24701704  1
