# generated using pymatgen
data_Fe45Co19
_symmetry_space_group_name_H-M   'P 1'
_cell_length_a   11.41596570
_cell_length_b   11.41566784
_cell_length_c   11.41545820
_cell_angle_alpha   90.00528766
_cell_angle_beta   90.00564460
_cell_angle_gamma   89.99879032
_symmetry_Int_Tables_number   1
_chemical_formula_structural   Fe45Co19
_chemical_formula_sum   'Fe90 Co38'
_cell_volume   1487.67245782
_cell_formula_units_Z   2
loop_
 _symmetry_equiv_pos_site_id
 _symmetry_equiv_pos_as_xyz
  1  'x, y, z'
loop_
 _atom_site_type_symbol
 _atom_site_label
 _atom_site_symmetry_multiplicity
 _atom_site_fract_x
 _atom_site_fract_y
 _atom_site_fract_z
 _atom_site_occupancy
  Fe  Fe0  1  0.12669990  0.62439197  0.87598487  1
  Fe  Fe1  1  0.74912519  0.24550461  0.74890265  1
  Fe  Fe2  1  0.62570906  0.62516320  0.37670999  1
  Fe  Fe3  1  0.24810302  0.75141653  0.49834771  1
  Fe  Fe4  1  0.50125346  0.24728375  0.74929280  1
  Fe  Fe5  1  0.74744210  0.75117120  0.25043029  1
  Fe  Fe6  1  0.62659842  0.11891919  0.87737964  1
  Fe  Fe7  1  0.12380579  0.37719975  0.37505685  1
  Fe  Fe8  1  0.12467681  0.37493660  0.87729602  1
  Fe  Fe9  1  0.50081938  0.75027140  0.25025082  1
  Fe  Fe10  1  0.12499825  0.62322269  0.37455567  1
  Fe  Fe11  1  0.87400712  0.37140118  0.62479383  1
  Fe  Fe12  1  -0.00292700  -0.00328287  0.49998991  1
  Fe  Fe13  1  0.12121975  0.37586004  0.12137795  1
  Fe  Fe14  1  0.24911407  0.24795285  0.74875004  1
  Fe  Fe15  1  0.75219243  0.49995875  -0.00055845  1
  Fe  Fe16  1  0.37668115  0.37159991  0.62463584  1
  Fe  Fe17  1  0.74293330  0.75129937  0.75349607  1
  Fe  Fe18  1  0.24710534  0.75383930  0.75040168  1
  Fe  Fe19  1  -0.00081247  0.50124018  0.75028673  1
  Fe  Fe20  1  0.12495132  0.62641317  0.62480647  1
  Fe  Fe21  1  0.62494441  0.12227635  0.12384794  1
  Fe  Fe22  1  0.75165101  -0.00079040  0.24865147  1
  Fe  Fe23  1  0.37485067  0.62749433  0.87351373  1
  Fe  Fe24  1  0.37211739  0.87477568  0.37209772  1
  Fe  Fe25  1  0.74930852  0.24946649  0.25071664  1
  Fe  Fe26  1  0.12659093  0.12069831  0.87511238  1
  Fe  Fe27  1  0.37370019  0.87459374  0.62480132  1
  Fe  Fe28  1  0.12359573  0.37488110  0.62559893  1
  Fe  Fe29  1  0.24725445  0.25126208  0.24863206  1
  Fe  Fe30  1  0.12645226  0.62277088  0.12475610  1
  Fe  Fe31  1  0.49692296  0.49930396  0.00083979  1
  Fe  Fe32  1  0.74350286  0.24572936  0.49943223  1
  Fe  Fe33  1  0.50013563  0.75085819  0.49973787  1
  Fe  Fe34  1  0.75174183  0.50131069  0.24903030  1
  Fe  Fe35  1  0.74734100  0.75343428  -0.00293795  1
  Fe  Fe36  1  0.62286207  0.87803355  0.12195022  1
  Fe  Fe37  1  0.00370238  0.75252927  -0.00199589  1
  Fe  Fe38  1  0.74781301  0.50234131  0.74966728  1
  Fe  Fe39  1  0.25377886  -0.00060579  0.00227239  1
  Fe  Fe40  1  0.50002703  0.75148072  -0.00077017  1
  Fe  Fe41  1  0.87457195  0.62799164  0.37486537  1
  Fe  Fe42  1  0.00091368  0.75378380  0.49880837  1
  Fe  Fe43  1  0.37682390  0.37553929  0.37345208  1
  Fe  Fe44  1  0.87443753  0.37395578  0.37598585  1
  Fe  Fe45  1  0.87528648  0.62876846  0.87506932  1
  Fe  Fe46  1  0.50268805  0.49822468  0.50216253  1
  Fe  Fe47  1  0.12513363  0.12082375  0.62631383  1
  Fe  Fe48  1  0.25102657  0.49958956  0.50129109  1
  Fe  Fe49  1  0.00050298  0.24679127  0.75161825  1
  Fe  Fe50  1  0.25083919  0.00031905  0.49994963  1
  Fe  Fe51  1  0.87569620  0.37421785  0.87448971  1
  Fe  Fe52  1  0.62550696  0.62468936  0.12240319  1
  Fe  Fe53  1  0.37586699  0.12871128  0.12533132  1
  Fe  Fe54  1  0.00156545  0.24826421  0.49924928  1
  Fe  Fe55  1  0.50131834  0.24872502  -0.00114802  1
  Fe  Fe56  1  0.50358762  0.25032217  0.25210760  1
  Fe  Fe57  1  0.87892024  0.37382181  0.12364354  1
  Fe  Fe58  1  0.37186011  0.62684027  0.12579540  1
  Fe  Fe59  1  0.37595725  0.62751559  0.62663020  1
  Fe  Fe60  1  0.00245086  0.75210021  0.25227721  1
  Fe  Fe61  1  0.75068589  0.24868242  0.00039213  1
  Fe  Fe62  1  0.87462003  0.62886790  0.62697867  1
  Fe  Fe63  1  0.24970685  0.24913769  0.50072715  1
  Fe  Fe64  1  0.87475392  0.87324755  0.62875891  1
  Fe  Fe65  1  0.37295458  0.12559452  0.87478070  1
  Fe  Fe66  1  0.62447101  0.37600658  0.12534634  1
  Fe  Fe67  1  0.12301965  0.12454512  0.12539471  1
  Fe  Fe68  1  0.87702617  0.12631412  0.12657985  1
  Fe  Fe69  1  0.62518335  0.87644582  0.62372086  1
  Fe  Fe70  1  0.62571369  0.37558037  0.87480952  1
  Fe  Fe71  1  0.13039855  0.87625570  0.12885975  1
  Fe  Fe72  1  0.50171853  0.50115862  0.74902241  1
  Fe  Fe73  1  0.62755343  0.87767036  0.37621572  1
  Fe  Fe74  1  0.49692256  -0.00108736  0.24856830  1
  Fe  Fe75  1  0.37519313  0.62297245  0.37381875  1
  Fe  Fe76  1  0.37366607  0.37265393  0.87586623  1
  Fe  Fe77  1  0.49799317  -0.00060089  0.74990244  1
  Fe  Fe78  1  -0.00195534  0.50070599  0.50118910  1
  Fe  Fe79  1  0.37517338  0.87376455  0.87672014  1
  Fe  Fe80  1  0.49946913  0.00180791  0.49958037  1
  Fe  Fe81  1  0.12363620  0.12114465  0.37220903  1
  Fe  Fe82  1  0.25024449  0.49924861  0.74985681  1
  Fe  Fe83  1  0.87624112  0.62754511  0.12431466  1
  Fe  Fe84  1  0.87386595  0.12058272  0.87501671  1
  Fe  Fe85  1  0.37629713  0.12724006  0.37601944  1
  Fe  Fe86  1  -0.00217235  -0.00208691  0.00096016  1
  Fe  Fe87  1  0.87520894  0.87263828  0.12566045  1
  Fe  Fe88  1  0.74849336  0.50095420  0.50266478  1
  Fe  Fe89  1  0.87526972  0.12332961  0.37423206  1
  Co  Co90  1  0.62417311  0.88187157  0.87850564  1
  Co  Co91  1  0.24920273  0.49771484  0.24800928  1
  Co  Co92  1  0.62365941  0.62759780  0.62341636  1
  Co  Co93  1  0.75242907  0.00135266  0.50262833  1
  Co  Co94  1  0.75428110  -0.00132110  0.00271124  1
  Co  Co95  1  0.00454928  0.75052542  0.75190552  1
  Co  Co96  1  0.62282858  0.62290964  0.87790118  1
  Co  Co97  1  0.75028085  0.00037136  0.74705135  1
  Co  Co98  1  0.25362959  -0.00188662  0.74981103  1
  Co  Co99  1  0.50070386  0.50285565  0.24809608  1
  Co  Co100  1  -0.00232864  0.00024498  0.74946901  1
  Co  Co101  1  0.37542820  0.12615039  0.62336285  1
  Co  Co102  1  0.24823841  0.75120800  -0.00179388  1
  Co  Co103  1  0.87528909  0.87418704  0.87266156  1
  Co  Co104  1  -0.00123415  0.24654786  -0.00356930  1
  Co  Co105  1  0.12469937  0.87987298  0.87502506  1
  Co  Co106  1  0.62591028  0.37806074  0.37267849  1
  Co  Co107  1  0.37309383  0.87119011  0.12617509  1
  Co  Co108  1  0.12776897  0.87868390  0.37213113  1
  Co  Co109  1  -0.00172476  0.50265931  -0.00201502  1
  Co  Co110  1  -0.00186214  0.50031899  0.25058428  1
  Co  Co111  1  0.50419535  0.25021142  0.49839381  1
  Co  Co112  1  0.75056122  0.75161497  0.50041277  1
  Co  Co113  1  0.25299359  0.49847338  0.00016375  1
  Co  Co114  1  0.00093850  0.25075365  0.25182360  1
  Co  Co115  1  0.87235786  0.87520350  0.37338832  1
  Co  Co116  1  0.25455162  0.00366438  0.24873302  1
  Co  Co117  1  0.37743961  0.37199235  0.12619505  1
  Co  Co118  1  0.24975975  0.74737267  0.25315975  1
  Co  Co119  1  0.12511009  0.87769133  0.62492806  1
  Co  Co120  1  0.50355905  0.75297232  0.75123528  1
  Co  Co121  1  0.62511227  0.11972484  0.37290227  1
  Co  Co122  1  0.87699275  0.12713692  0.62341322  1
  Co  Co123  1  0.62182447  0.12261785  0.62540865  1
  Co  Co124  1  -0.00241287  -0.00265355  0.24910420  1
  Co  Co125  1  0.49430658  0.00095224  0.00139647  1
  Co  Co126  1  0.24957769  0.24958922  0.00128645  1
  Co  Co127  1  0.62582061  0.37264544  0.62770635  1
