# generated using pymatgen
data_Fe45Co19
_symmetry_space_group_name_H-M   'P 1'
_cell_length_a   11.41572756
_cell_length_b   11.41530086
_cell_length_c   11.41603306
_cell_angle_alpha   89.98704621
_cell_angle_beta   89.99805338
_cell_angle_gamma   89.99165194
_symmetry_Int_Tables_number   1
_chemical_formula_structural   Fe45Co19
_chemical_formula_sum   'Fe90 Co38'
_cell_volume   1487.66847399
_cell_formula_units_Z   2
loop_
 _symmetry_equiv_pos_site_id
 _symmetry_equiv_pos_as_xyz
  1  'x, y, z'
loop_
 _atom_site_type_symbol
 _atom_site_label
 _atom_site_symmetry_multiplicity
 _atom_site_fract_x
 _atom_site_fract_y
 _atom_site_fract_z
 _atom_site_occupancy
  Fe  Fe0  1  0.50176281  0.50348114  0.24898816  1
  Fe  Fe1  1  0.62383598  0.87609423  0.37371247  1
  Fe  Fe2  1  0.24645222  0.25681028  0.25274951  1
  Fe  Fe3  1  0.75096373  0.75215586  -0.00123455  1
  Fe  Fe4  1  0.12480399  0.12790605  0.87476650  1
  Fe  Fe5  1  0.00034797  0.74819569  -0.00169762  1
  Fe  Fe6  1  0.62773899  0.62606884  0.62270813  1
  Fe  Fe7  1  0.75201910  0.74707131  0.75345913  1
  Fe  Fe8  1  0.87891009  0.37389292  0.12904597  1
  Fe  Fe9  1  0.87863840  0.87373530  0.37385532  1
  Fe  Fe10  1  0.37306576  0.87466002  0.37459468  1
  Fe  Fe11  1  0.87391391  0.12664761  0.87855072  1
  Fe  Fe12  1  0.12560033  0.12767748  0.62618735  1
  Fe  Fe13  1  0.62469658  0.87401057  0.62656676  1
  Fe  Fe14  1  0.24997634  -0.00009026  0.50124447  1
  Fe  Fe15  1  0.62858198  0.61808931  0.87984876  1
  Fe  Fe16  1  0.25195486  0.00037460  0.75020190  1
  Fe  Fe17  1  0.49932219  0.74689234  0.75322404  1
  Fe  Fe18  1  0.12259927  0.37639635  0.62503435  1
  Fe  Fe19  1  0.74775323  0.74996676  0.25025266  1
  Fe  Fe20  1  0.87499786  0.12320478  0.37281304  1
  Fe  Fe21  1  0.24950621  -0.00114000  0.00073933  1
  Fe  Fe22  1  0.37098746  0.12833298  0.12599153  1
  Fe  Fe23  1  0.37377360  0.62254940  0.37589157  1
  Fe  Fe24  1  0.49912102  0.24635819  0.49510430  1
  Fe  Fe25  1  0.37356002  0.37923366  0.12613450  1
  Fe  Fe26  1  -0.00476288  0.50214651  0.74637986  1
  Fe  Fe27  1  0.12452987  0.87413984  0.87428083  1
  Fe  Fe28  1  0.37616544  0.37912669  0.87524720  1
  Fe  Fe29  1  0.50250337  0.50053313  0.74932003  1
  Fe  Fe30  1  0.87299340  0.62582402  0.12246683  1
  Fe  Fe31  1  0.74962745  0.24962520  0.25034384  1
  Fe  Fe32  1  0.00179813  -0.00094244  0.50179897  1
  Fe  Fe33  1  0.25168752  0.74781389  0.74979345  1
  Fe  Fe34  1  0.75045511  0.50251100  0.25023908  1
  Fe  Fe35  1  0.62542238  0.12592624  0.62409016  1
  Fe  Fe36  1  0.12846066  0.62165338  0.12469197  1
  Fe  Fe37  1  0.00379887  0.00065202  0.24595546  1
  Fe  Fe38  1  0.87848752  0.37592911  0.37203828  1
  Fe  Fe39  1  0.87518628  0.37631375  0.87336951  1
  Fe  Fe40  1  0.75094114  -0.00011124  0.75243825  1
  Fe  Fe41  1  0.25046240  0.25224870  0.75076630  1
  Fe  Fe42  1  -0.00131900  0.74683427  0.74973560  1
  Fe  Fe43  1  0.50084020  0.74993035  0.49871775  1
  Fe  Fe44  1  0.74992250  0.25001229  0.49621030  1
  Fe  Fe45  1  0.49755136  0.74459999  0.00029523  1
  Fe  Fe46  1  0.62660409  0.12696890  0.87872115  1
  Fe  Fe47  1  0.62377473  0.87553209  0.87669357  1
  Fe  Fe48  1  0.12633188  0.12437806  0.37367657  1
  Fe  Fe49  1  0.87356598  0.37356715  0.62576270  1
  Fe  Fe50  1  0.24789711  0.74802286  0.50265671  1
  Fe  Fe51  1  0.37490953  0.87127896  0.12428832  1
  Fe  Fe52  1  0.37546389  0.87380919  0.62621702  1
  Fe  Fe53  1  0.24597395  0.25737920  -0.00024125  1
  Fe  Fe54  1  0.62829083  0.12572577  0.12225148  1
  Fe  Fe55  1  0.49871844  0.00002034  0.00150372  1
  Fe  Fe56  1  0.87480051  0.87224557  0.62642584  1
  Fe  Fe57  1  0.24771874  -0.00334731  0.24715297  1
  Fe  Fe58  1  0.50125371  0.24932840  0.25129626  1
  Fe  Fe59  1  0.87444878  0.12661204  0.62463513  1
  Fe  Fe60  1  0.24744048  0.74883096  0.25159761  1
  Fe  Fe61  1  -0.00080214  0.00142935  0.74995799  1
  Fe  Fe62  1  0.00177679  0.25192269  0.00169698  1
  Fe  Fe63  1  0.25178457  0.50045145  0.74693127  1
  Fe  Fe64  1  0.74922626  -0.00197355  0.24701708  1
  Fe  Fe65  1  0.49906607  0.00113982  0.24833660  1
  Fe  Fe66  1  0.12498655  0.62140473  0.87313837  1
  Fe  Fe67  1  0.00021441  0.25077765  0.49836505  1
  Fe  Fe68  1  0.74864905  0.25131014  0.75268719  1
  Fe  Fe69  1  0.00118555  0.00101754  0.00245344  1
  Fe  Fe70  1  0.50166486  0.74633403  0.24896952  1
  Fe  Fe71  1  0.37355713  0.12687066  0.87706979  1
  Fe  Fe72  1  0.75088953  0.49947981  0.49942557  1
  Fe  Fe73  1  0.50026978  0.25351603  0.00008267  1
  Fe  Fe74  1  0.87675818  0.87422427  0.12419504  1
  Fe  Fe75  1  0.62540267  0.37328621  0.62360314  1
  Fe  Fe76  1  0.12440465  0.61838540  0.37889987  1
  Fe  Fe77  1  0.50039410  0.24979478  0.75197722  1
  Fe  Fe78  1  0.24993340  0.25495183  0.49614948  1
  Fe  Fe79  1  0.49770819  0.00307874  0.49880394  1
  Fe  Fe80  1  0.75029030  -0.00253851  0.50008196  1
  Fe  Fe81  1  0.37794824  0.37373774  0.62309488  1
  Fe  Fe82  1  0.00302424  0.74952272  0.50288329  1
  Fe  Fe83  1  0.49790026  0.00231360  0.75078270  1
  Fe  Fe84  1  0.25249067  0.74666594  -0.00275050  1
  Fe  Fe85  1  0.00323778  0.74764441  0.24957179  1
  Fe  Fe86  1  0.87458495  0.62671773  0.37857896  1
  Fe  Fe87  1  0.50043318  0.50107325  0.49900418  1
  Fe  Fe88  1  0.00087140  0.49928570  0.00094289  1
  Fe  Fe89  1  0.62564131  0.37794938  0.12418565  1
  Co  Co90  1  0.87464196  0.62147510  0.87797976  1
  Co  Co91  1  -0.00257059  0.50661590  0.24903781  1
  Co  Co92  1  0.75149846  0.25554025  0.00034827  1
  Co  Co93  1  0.24755272  0.49752980  -0.00076007  1
  Co  Co94  1  0.12218276  0.37830785  0.87024933  1
  Co  Co95  1  0.74845454  0.75391300  0.49771359  1
  Co  Co96  1  0.37358562  0.12747561  0.62468786  1
  Co  Co97  1  0.87279822  0.12554574  0.12398643  1
  Co  Co98  1  0.12132288  0.37875418  0.13006082  1
  Co  Co99  1  0.62477417  0.37602941  0.37428609  1
  Co  Co100  1  0.62471256  0.37841542  0.87652460  1
  Co  Co101  1  0.00201759  0.24545287  0.25051725  1
  Co  Co102  1  0.11778175  0.38068763  0.37439546  1
  Co  Co103  1  -0.00457390  0.49967534  0.50345248  1
  Co  Co104  1  0.12503514  0.62091471  0.62588792  1
  Co  Co105  1  0.62681559  0.62441147  0.37666832  1
  Co  Co106  1  0.12412538  0.87495641  0.37598271  1
  Co  Co107  1  0.49716402  0.50183976  0.00258101  1
  Co  Co108  1  -0.00183323  0.24987905  0.74987937  1
  Co  Co109  1  0.37062669  0.62304518  0.12720607  1
  Co  Co110  1  0.12845983  0.12856257  0.12441734  1
  Co  Co111  1  0.12535483  0.87049141  0.12183950  1
  Co  Co112  1  0.62679748  0.12348012  0.37387762  1
  Co  Co113  1  0.75067619  0.50053746  0.74783087  1
  Co  Co114  1  0.24965536  0.49763045  0.25326254  1
  Co  Co115  1  0.62883235  0.62380680  0.12111086  1
  Co  Co116  1  0.37750376  0.62545026  0.62421649  1
  Co  Co117  1  0.25233501  0.49695143  0.50077361  1
  Co  Co118  1  0.75441529  0.49432445  0.00282343  1
  Co  Co119  1  0.37576875  0.87507994  0.87542554  1
  Co  Co120  1  0.62313386  0.87251878  0.12343946  1
  Co  Co121  1  0.12548991  0.87507997  0.62839042  1
  Co  Co122  1  0.37999685  0.37710909  0.37392434  1
  Co  Co123  1  0.75058313  -0.00356176  0.00013973  1
  Co  Co124  1  0.87141337  0.62859847  0.62197446  1
  Co  Co125  1  0.87792109  0.87503942  0.87549638  1
  Co  Co126  1  0.37085925  0.12541403  0.37088403  1
  Co  Co127  1  0.37437117  0.61955455  0.87380261  1
