# generated using pymatgen
data_Fe45Co19
_symmetry_space_group_name_H-M   'P 1'
_cell_length_a   11.41470395
_cell_length_b   11.41592118
_cell_length_c   11.41525210
_cell_angle_alpha   89.99533208
_cell_angle_beta   90.00514834
_cell_angle_gamma   90.00258303
_symmetry_Int_Tables_number   1
_chemical_formula_structural   Fe45Co19
_chemical_formula_sum   'Fe90 Co38'
_cell_volume   1487.51418936
_cell_formula_units_Z   2
loop_
 _symmetry_equiv_pos_site_id
 _symmetry_equiv_pos_as_xyz
  1  'x, y, z'
loop_
 _atom_site_type_symbol
 _atom_site_label
 _atom_site_symmetry_multiplicity
 _atom_site_fract_x
 _atom_site_fract_y
 _atom_site_fract_z
 _atom_site_occupancy
  Fe  Fe0  1  0.62330363  0.87463195  0.87611100  1
  Fe  Fe1  1  0.00007991  0.74977445  0.50149963  1
  Fe  Fe2  1  0.12632213  0.12398873  0.87615576  1
  Fe  Fe3  1  0.12581690  0.37717156  0.12513393  1
  Fe  Fe4  1  0.62406823  0.87517889  0.62304816  1
  Fe  Fe5  1  0.74670229  0.24991103  0.00074057  1
  Fe  Fe6  1  0.25268571  -0.00356761  0.75047403  1
  Fe  Fe7  1  0.49948651  0.75037088  0.49894542  1
  Fe  Fe8  1  0.62854240  0.62282065  0.37581968  1
  Fe  Fe9  1  0.37262917  0.62645334  0.62268829  1
  Fe  Fe10  1  0.12813621  0.62525734  0.87516400  1
  Fe  Fe11  1  0.87200337  0.62209399  0.87763197  1
  Fe  Fe12  1  0.37446887  0.37681176  0.12813504  1
  Fe  Fe13  1  0.74960000  0.75027263  0.74911077  1
  Fe  Fe14  1  0.37619725  0.87327537  0.12661077  1
  Fe  Fe15  1  0.13199481  0.62331573  0.12299435  1
  Fe  Fe16  1  0.00190746  0.50256416  0.25032375  1
  Fe  Fe17  1  0.50102412  0.50212801  0.00124730  1
  Fe  Fe18  1  0.62495783  0.87520591  0.37358616  1
  Fe  Fe19  1  0.00136891  0.50212688  0.50105029  1
  Fe  Fe20  1  0.37118411  0.12629778  0.37331909  1
  Fe  Fe21  1  0.25147959  0.25251619  0.00051894  1
  Fe  Fe22  1  -0.00043754  0.24730142  0.74942753  1
  Fe  Fe23  1  0.25153677  0.25262191  0.50171356  1
  Fe  Fe24  1  0.00116320  0.00093485  0.49887464  1
  Fe  Fe25  1  0.49856985  0.75067642  0.74931081  1
  Fe  Fe26  1  -0.00086276  0.74924066  0.74928572  1
  Fe  Fe27  1  0.00088931  0.24836175  0.00081264  1
  Fe  Fe28  1  0.87290446  0.62452228  0.62272042  1
  Fe  Fe29  1  0.87502885  0.37662094  0.87754247  1
  Fe  Fe30  1  0.25225180  0.75483798  0.74785416  1
  Fe  Fe31  1  0.37345242  0.62623296  0.87679649  1
  Fe  Fe32  1  0.87637221  0.37362953  0.62484434  1
  Fe  Fe33  1  0.49852706  0.49677659  0.49739607  1
  Fe  Fe34  1  0.50340042  0.00268491  0.00260616  1
  Fe  Fe35  1  0.37610598  0.12507183  0.87710700  1
  Fe  Fe36  1  0.12668257  0.12331901  0.62310881  1
  Fe  Fe37  1  0.74522112  0.00176226  0.00410854  1
  Fe  Fe38  1  0.50137833  0.74595673  0.00224250  1
  Fe  Fe39  1  0.87605131  0.37726336  0.37581197  1
  Fe  Fe40  1  0.87189680  0.12355927  0.37430531  1
  Fe  Fe41  1  0.49777289  0.50017351  0.25307139  1
  Fe  Fe42  1  0.25012806  0.49676820  0.50213899  1
  Fe  Fe43  1  0.12654940  0.12346292  0.12625685  1
  Fe  Fe44  1  0.50104894  0.00188627  0.24870619  1
  Fe  Fe45  1  0.49947480  0.24758226  0.74929017  1
  Fe  Fe46  1  0.87506028  0.87539870  0.12406108  1
  Fe  Fe47  1  0.62353050  0.37402515  0.87394281  1
  Fe  Fe48  1  0.87460089  0.87525513  0.37580720  1
  Fe  Fe49  1  0.12299360  0.87583673  0.87527797  1
  Fe  Fe50  1  0.37505354  0.12709683  0.12594043  1
  Fe  Fe51  1  0.74604565  0.74742993  0.00125100  1
  Fe  Fe52  1  0.25111043  -0.00285467  0.00060699  1
  Fe  Fe53  1  0.12615005  0.37340355  0.37445758  1
  Fe  Fe54  1  0.00036200  0.24759095  0.49938519  1
  Fe  Fe55  1  0.74831726  0.49905567  0.74864323  1
  Fe  Fe56  1  0.75069070  0.75029881  0.25123434  1
  Fe  Fe57  1  0.00144690  0.74769601  0.00055339  1
  Fe  Fe58  1  0.49922825  0.50232954  0.74905780  1
  Fe  Fe59  1  0.62536168  0.62506500  0.62290730  1
  Fe  Fe60  1  0.12320494  0.37516014  0.87507306  1
  Fe  Fe61  1  0.00119561  0.50162169  0.74895041  1
  Fe  Fe62  1  0.87674877  0.37795160  0.12236062  1
  Fe  Fe63  1  0.87282169  0.12497221  0.87637194  1
  Fe  Fe64  1  0.00067365  0.00165955  0.25169596  1
  Fe  Fe65  1  0.49920746  0.00001986  0.75061098  1
  Fe  Fe66  1  0.37454492  0.12352636  0.62306799  1
  Fe  Fe67  1  0.75075857  0.49776902  0.25179588  1
  Fe  Fe68  1  0.87226317  0.62166682  0.12353434  1
  Fe  Fe69  1  0.62884503  0.12911395  0.36821807  1
  Fe  Fe70  1  0.12473248  0.87599748  0.12750194  1
  Fe  Fe71  1  0.12796276  0.62863861  0.37759204  1
  Fe  Fe72  1  0.87362516  0.87683975  0.62230827  1
  Fe  Fe73  1  0.74993685  0.00043942  0.74953396  1
  Fe  Fe74  1  0.87459192  0.87562862  0.87834809  1
  Fe  Fe75  1  0.62189968  0.37357783  0.62278133  1
  Fe  Fe76  1  0.87372554  0.12422892  0.12604564  1
  Fe  Fe77  1  0.50215604  0.00342790  0.49678826  1
  Fe  Fe78  1  0.49905000  0.74590606  0.24950605  1
  Fe  Fe79  1  0.37049048  0.62658865  0.37613136  1
  Fe  Fe80  1  0.25043437  0.25123290  0.74837093  1
  Fe  Fe81  1  0.37724451  0.37446810  0.87387359  1
  Fe  Fe82  1  0.62681536  0.12681373  0.62599459  1
  Fe  Fe83  1  0.62288301  0.37252390  0.12947768  1
  Fe  Fe84  1  -0.00050361  0.74627500  0.24842879  1
  Fe  Fe85  1  0.74952868  0.25088842  0.49940583  1
  Fe  Fe86  1  0.24958251  -0.00771162  0.49524417  1
  Fe  Fe87  1  0.25002010  0.49764869  0.74769832  1
  Fe  Fe88  1  -0.00186395  0.00180951  0.74936181  1
  Fe  Fe89  1  0.00093500  0.24877441  0.25033407  1
  Co  Co90  1  0.24945166  0.50087845  0.25330241  1
  Co  Co91  1  0.74979058  0.49836422  0.50091442  1
  Co  Co92  1  0.12844209  0.12620824  0.37631526  1
  Co  Co93  1  0.25211088  0.49646595  -0.00292353  1
  Co  Co94  1  0.75034016  0.25164486  0.75085996  1
  Co  Co95  1  0.12077444  0.87166900  0.37144681  1
  Co  Co96  1  0.12191869  0.37361524  0.62485286  1
  Co  Co97  1  0.25031386  -0.00201735  0.25135115  1
  Co  Co98  1  0.37924958  0.87461322  0.87837130  1
  Co  Co99  1  0.62605826  0.37352474  0.37430105  1
  Co  Co100  1  0.24838569  0.25024832  0.24758957  1
  Co  Co101  1  0.25128871  0.75188034  0.25057974  1
  Co  Co102  1  0.37918870  0.37370723  0.62550866  1
  Co  Co103  1  0.37164180  0.37315272  0.37382186  1
  Co  Co104  1  0.24958928  0.75418313  0.00055150  1
  Co  Co105  1  0.37160809  0.62337616  0.12460623  1
  Co  Co106  1  0.25129174  0.75769200  0.49965539  1
  Co  Co107  1  0.74375117  0.49883967  0.00070352  1
  Co  Co108  1  0.49974244  0.24786260  0.49643053  1
  Co  Co109  1  0.74905590  0.75066664  0.49896731  1
  Co  Co110  1  0.62415093  0.12494374  0.87396535  1
  Co  Co111  1  0.62474259  0.13079026  0.13062402  1
  Co  Co112  1  0.12278894  0.87613159  0.62611534  1
  Co  Co113  1  0.62476621  0.62543654  0.87280179  1
  Co  Co114  1  0.12843709  0.62703080  0.62399347  1
  Co  Co115  1  0.37950969  0.87732038  0.62215767  1
  Co  Co116  1  0.87398125  0.62418601  0.37563783  1
  Co  Co117  1  0.74685204  0.00099254  0.49885430  1
  Co  Co118  1  0.75590002  0.25386308  0.24942592  1
  Co  Co119  1  0.62617991  0.62306804  0.12982673  1
  Co  Co120  1  0.38038711  0.87453676  0.37157068  1
  Co  Co121  1  0.87360194  0.12568531  0.62358390  1
  Co  Co122  1  0.49573994  0.25137283  0.25389188  1
  Co  Co123  1  0.00057985  0.00093771  0.00059233  1
  Co  Co124  1  0.00305244  0.50286696  -0.00041432  1
  Co  Co125  1  0.74943734  -0.00319478  0.24775977  1
  Co  Co126  1  0.50031367  0.25066101  0.00073611  1
  Co  Co127  1  0.62305720  0.87186363  0.12649729  1
