# generated using pymatgen
data_Fe45Co19
_symmetry_space_group_name_H-M   'P 1'
_cell_length_a   11.41488302
_cell_length_b   11.41472178
_cell_length_c   11.41461722
_cell_angle_alpha   90.00606830
_cell_angle_beta   90.00122986
_cell_angle_gamma   90.00523738
_symmetry_Int_Tables_number   1
_chemical_formula_structural   Fe45Co19
_chemical_formula_sum   'Fe90 Co38'
_cell_volume   1487.29851343
_cell_formula_units_Z   2
loop_
 _symmetry_equiv_pos_site_id
 _symmetry_equiv_pos_as_xyz
  1  'x, y, z'
loop_
 _atom_site_type_symbol
 _atom_site_label
 _atom_site_symmetry_multiplicity
 _atom_site_fract_x
 _atom_site_fract_y
 _atom_site_fract_z
 _atom_site_occupancy
  Fe  Fe0  1  0.75349165  0.75436257  0.24983341  1
  Fe  Fe1  1  0.25067315  0.74840897  0.50046120  1
  Fe  Fe2  1  0.37735693  0.37533618  0.12107560  1
  Fe  Fe3  1  0.75208733  0.75126283  0.75104945  1
  Fe  Fe4  1  0.24818273  0.50221744  0.00152374  1
  Fe  Fe5  1  0.25021220  -0.00123081  0.25035883  1
  Fe  Fe6  1  0.12491381  0.12638540  0.87249347  1
  Fe  Fe7  1  0.75200614  0.74694529  -0.00132335  1
  Fe  Fe8  1  0.37388666  0.37647974  0.62070812  1
  Fe  Fe9  1  0.62453915  0.12846837  0.62996637  1
  Fe  Fe10  1  -0.00015440  0.25167317  0.25181757  1
  Fe  Fe11  1  0.87095755  0.62090957  0.37682019  1
  Fe  Fe12  1  0.25107467  -0.00238348  0.75169723  1
  Fe  Fe13  1  0.50137272  0.00040778  0.24794167  1
  Fe  Fe14  1  0.74860201  -0.00091666  0.75068580  1
  Fe  Fe15  1  0.62637812  0.61964749  0.87178562  1
  Fe  Fe16  1  -0.00095435  0.00070018  0.75032341  1
  Fe  Fe17  1  0.49929582  0.24791702  0.50236393  1
  Fe  Fe18  1  0.00234288  0.24945256  0.50008904  1
  Fe  Fe19  1  0.12701095  0.12784999  0.62670416  1
  Fe  Fe20  1  0.87238465  0.12637452  0.62620433  1
  Fe  Fe21  1  0.75092609  0.49375274  0.00119335  1
  Fe  Fe22  1  0.24864870  0.00300877  0.49968455  1
  Fe  Fe23  1  0.62370904  0.87454730  0.87636199  1
  Fe  Fe24  1  0.50058249  0.50049557  0.24770438  1
  Fe  Fe25  1  -0.00429400  0.75054505  0.24990122  1
  Fe  Fe26  1  0.50004837  0.74534425  -0.00004249  1
  Fe  Fe27  1  0.87289610  0.12512794  0.37418808  1
  Fe  Fe28  1  0.12370353  0.62453121  0.87276302  1
  Fe  Fe29  1  0.74829120  0.00017366  0.49978109  1
  Fe  Fe30  1  -0.00362211  0.74498312  -0.00005845  1
  Fe  Fe31  1  0.87413502  0.87586808  0.62287326  1
  Fe  Fe32  1  0.75012164  0.49283625  0.24835412  1
  Fe  Fe33  1  0.50121645  0.00395700  0.00012428  1
  Fe  Fe34  1  0.62437545  0.37463919  0.62870104  1
  Fe  Fe35  1  0.37839430  0.12529610  0.87239120  1
  Fe  Fe36  1  -0.00378620  -0.00107773  0.24861441  1
  Fe  Fe37  1  0.62835986  0.13107493  0.12658121  1
  Fe  Fe38  1  0.00005384  0.49820120  0.74630950  1
  Fe  Fe39  1  0.62763818  0.62255938  0.12648062  1
  Fe  Fe40  1  0.87492652  0.37700284  0.38076737  1
  Fe  Fe41  1  0.37538914  0.62174012  0.87646852  1
  Fe  Fe42  1  0.62422938  0.87215097  0.62429421  1
  Fe  Fe43  1  0.24924726  0.49873961  0.74745094  1
  Fe  Fe44  1  0.62668355  0.87519495  0.12307434  1
  Fe  Fe45  1  0.25091904  0.25209517  0.25114916  1
  Fe  Fe46  1  0.12292349  0.87306027  0.87659386  1
  Fe  Fe47  1  0.25123854  0.00059979  -0.00168371  1
  Fe  Fe48  1  0.75282506  0.49283930  0.75035227  1
  Fe  Fe49  1  0.37723324  0.87409904  0.37666080  1
  Fe  Fe50  1  -0.00355830  0.74851463  0.74967347  1
  Fe  Fe51  1  0.12243471  0.87493919  0.37550509  1
  Fe  Fe52  1  0.87141430  0.62088505  0.62262782  1
  Fe  Fe53  1  -0.00375823  0.25152781  0.75038000  1
  Fe  Fe54  1  0.37466731  0.87411805  0.12117827  1
  Fe  Fe55  1  -0.00120364  0.00436408  0.00015954  1
  Fe  Fe56  1  0.25112826  0.49903459  0.24902694  1
  Fe  Fe57  1  0.37741966  0.87614587  0.62515994  1
  Fe  Fe58  1  0.37562034  0.37710063  0.37878453  1
  Fe  Fe59  1  0.37627373  0.62495021  0.62525856  1
  Fe  Fe60  1  0.12659400  0.12583249  0.12758156  1
  Fe  Fe61  1  0.25114713  0.74997510  0.24934259  1
  Fe  Fe62  1  0.37440443  0.12543997  0.37461261  1
  Fe  Fe63  1  0.50599795  0.50567453  0.50132230  1
  Fe  Fe64  1  0.49803071  0.24984333  0.24833964  1
  Fe  Fe65  1  0.25150910  0.75127200  0.75237602  1
  Fe  Fe66  1  -0.00103106  0.49918198  0.24966856  1
  Fe  Fe67  1  0.62537062  0.13188195  0.87071530  1
  Fe  Fe68  1  0.74832109  0.25149138  0.50053615  1
  Fe  Fe69  1  0.25404517  0.25310388  0.74946245  1
  Fe  Fe70  1  -0.00227919  0.74738755  0.49999023  1
  Fe  Fe71  1  0.12440875  0.87329175  0.12237167  1
  Fe  Fe72  1  0.12460674  0.62581737  0.12648090  1
  Fe  Fe73  1  0.87539987  0.87694425  0.87711649  1
  Fe  Fe74  1  0.74904039  0.00290602  -0.00068944  1
  Fe  Fe75  1  0.25069610  0.24867863  -0.00041760  1
  Fe  Fe76  1  0.00162787  0.00227130  0.50052080  1
  Fe  Fe77  1  0.12221098  0.37551879  0.87680372  1
  Fe  Fe78  1  0.49993045  0.74956793  0.75160795  1
  Fe  Fe79  1  0.50129455  0.00174102  0.50111575  1
  Fe  Fe80  1  0.62689345  0.12636115  0.37191606  1
  Fe  Fe81  1  0.12473905  0.87317372  0.62527765  1
  Fe  Fe82  1  0.12139225  0.37465890  0.12200899  1
  Fe  Fe83  1  0.62222671  0.37394842  0.37441326  1
  Fe  Fe84  1  0.12756467  0.37619019  0.37904132  1
  Fe  Fe85  1  0.49978285  0.74933093  0.24812862  1
  Fe  Fe86  1  0.87037277  0.13006480  0.12532415  1
  Fe  Fe87  1  0.62540282  0.87351041  0.37590907  1
  Fe  Fe88  1  0.12583219  0.62392298  0.37576133  1
  Fe  Fe89  1  0.37626347  0.62407466  0.37493907  1
  Co  Co90  1  0.37838354  0.87541217  0.87763138  1
  Co  Co91  1  0.87524703  0.37612993  0.61933459  1
  Co  Co92  1  0.75047666  -0.00240123  0.24966814  1
  Co  Co93  1  0.62872129  0.62651192  0.36867002  1
  Co  Co94  1  0.62194816  0.37203023  0.12489817  1
  Co  Co95  1  0.00456173  0.50123793  0.50234854  1
  Co  Co96  1  0.24771655  0.50291248  0.50227886  1
  Co  Co97  1  0.49661611  0.49783566  0.74934949  1
  Co  Co98  1  0.87445683  0.87555142  0.11948342  1
  Co  Co99  1  0.37388768  0.37775700  0.87963381  1
  Co  Co100  1  -0.00095626  0.50509435  0.00141602  1
  Co  Co101  1  0.12474670  0.12489405  0.37198955  1
  Co  Co102  1  0.75487059  0.25557959  0.75185405  1
  Co  Co103  1  0.88171815  0.37536529  0.87955655  1
  Co  Co104  1  0.87298070  0.62098081  0.87251073  1
  Co  Co105  1  0.50273898  0.74552957  0.50062285  1
  Co  Co106  1  0.49494957  0.25505082  0.74951710  1
  Co  Co107  1  0.37486984  0.62408031  0.12492290  1
  Co  Co108  1  0.74880809  0.25621488  -0.00371762  1
  Co  Co109  1  0.87509592  0.87686147  0.37886204  1
  Co  Co110  1  0.87161357  0.62257651  0.12787253  1
  Co  Co111  1  0.12471511  0.62797187  0.62690683  1
  Co  Co112  1  0.75157483  0.25670243  0.25186621  1
  Co  Co113  1  0.88036199  0.37201728  0.12145160  1
  Co  Co114  1  0.62150762  0.37500879  0.87219985  1
  Co  Co115  1  0.74851186  0.74806809  0.50010358  1
  Co  Co116  1  0.50000987  0.24984195  -0.00121644  1
  Co  Co117  1  0.62800877  0.62454845  0.63226332  1
  Co  Co118  1  0.00076561  0.24457118  -0.00124689  1
  Co  Co119  1  0.50325081  -0.00158865  0.75063873  1
  Co  Co120  1  0.25028350  0.24713388  0.49879713  1
  Co  Co121  1  0.74188046  0.49882835  0.49993221  1
  Co  Co122  1  0.87219061  0.12467929  0.87397027  1
  Co  Co123  1  0.25018631  0.74770671  -0.00181907  1
  Co  Co124  1  0.37419261  0.12593498  0.12614412  1
  Co  Co125  1  0.50280212  0.50066082  0.00048986  1
  Co  Co126  1  0.12613608  0.37149179  0.62438840  1
  Co  Co127  1  0.37526279  0.12292593  0.62748191  1
