# generated using pymatgen
data_Fe45Co19
_symmetry_space_group_name_H-M   'P 1'
_cell_length_a   11.41566585
_cell_length_b   11.41503762
_cell_length_c   11.41526749
_cell_angle_alpha   89.99399662
_cell_angle_beta   90.00355704
_cell_angle_gamma   90.00321670
_symmetry_Int_Tables_number   1
_chemical_formula_structural   Fe45Co19
_chemical_formula_sum   'Fe90 Co38'
_cell_volume   1487.52640630
_cell_formula_units_Z   2
loop_
 _symmetry_equiv_pos_site_id
 _symmetry_equiv_pos_as_xyz
  1  'x, y, z'
loop_
 _atom_site_type_symbol
 _atom_site_label
 _atom_site_symmetry_multiplicity
 _atom_site_fract_x
 _atom_site_fract_y
 _atom_site_fract_z
 _atom_site_occupancy
  Fe  Fe0  1  0.50101652  0.00131172  0.50115188  1
  Fe  Fe1  1  0.49707656  0.00464380  0.74749802  1
  Fe  Fe2  1  0.25133889  0.49675923  0.25188009  1
  Fe  Fe3  1  0.87446813  0.62597827  0.37703913  1
  Fe  Fe4  1  0.24607431  0.25054616  0.49842646  1
  Fe  Fe5  1  0.62508189  0.37353848  0.62518602  1
  Fe  Fe6  1  0.12426607  0.37261296  0.12681863  1
  Fe  Fe7  1  0.62352810  0.12588640  0.12500270  1
  Fe  Fe8  1  0.74942014  0.75107067  -0.00135539  1
  Fe  Fe9  1  0.24891746  0.75169568  0.00076190  1
  Fe  Fe10  1  0.49873894  0.75175007  0.49821431  1
  Fe  Fe11  1  0.25053760  0.24642956  0.75313326  1
  Fe  Fe12  1  0.50674625  0.24798839  0.49860132  1
  Fe  Fe13  1  0.37233494  0.62590039  0.62236538  1
  Fe  Fe14  1  0.12254981  0.37064670  0.62463843  1
  Fe  Fe15  1  0.62439576  0.87671610  0.87290101  1
  Fe  Fe16  1  0.12442315  0.87786118  0.13036111  1
  Fe  Fe17  1  0.37139428  0.62445799  0.37787865  1
  Fe  Fe18  1  0.00210512  0.49812901  0.49959423  1
  Fe  Fe19  1  0.49977526  0.50031605  0.74899739  1
  Fe  Fe20  1  0.62568761  0.62406757  0.12694091  1
  Fe  Fe21  1  0.87600004  0.62663801  0.12545189  1
  Fe  Fe22  1  0.74964152  0.75230355  0.50107820  1
  Fe  Fe23  1  0.74676734  0.25024357  0.25292875  1
  Fe  Fe24  1  0.62618211  0.62284055  0.37490430  1
  Fe  Fe25  1  0.49887558  0.25289633  -0.00255314  1
  Fe  Fe26  1  0.75099995  -0.00092128  0.00071612  1
  Fe  Fe27  1  0.12562892  0.12151077  0.37445923  1
  Fe  Fe28  1  0.87429193  0.37366754  0.12650029  1
  Fe  Fe29  1  0.25106812  -0.00020832  0.00143498  1
  Fe  Fe30  1  -0.00063452  0.00336901  0.75027949  1
  Fe  Fe31  1  0.50048099  0.49854460  0.00058428  1
  Fe  Fe32  1  0.75053602  0.24955568  -0.00079785  1
  Fe  Fe33  1  0.87677083  0.62668749  0.87544632  1
  Fe  Fe34  1  0.75142678  0.49912496  0.50140494  1
  Fe  Fe35  1  0.00431589  0.75439859  0.49827651  1
  Fe  Fe36  1  0.62488464  0.37582083  0.87375954  1
  Fe  Fe37  1  0.75111791  0.74775293  0.74961013  1
  Fe  Fe38  1  0.87585734  0.12724279  0.62107205  1
  Fe  Fe39  1  0.87748155  0.37300274  0.87504291  1
  Fe  Fe40  1  0.87720740  0.37158574  0.62303106  1
  Fe  Fe41  1  0.75230490  0.75237689  0.25081054  1
  Fe  Fe42  1  0.00239605  0.75199570  -0.00205326  1
  Fe  Fe43  1  0.87486578  0.12496172  0.12532491  1
  Fe  Fe44  1  0.00359664  -0.00217349  0.49928160  1
  Fe  Fe45  1  0.37386030  0.62342748  0.87543009  1
  Fe  Fe46  1  0.49748140  0.75084428  0.25289484  1
  Fe  Fe47  1  0.62514324  0.62542202  0.62421138  1
  Fe  Fe48  1  0.00065518  0.50269058  0.74969684  1
  Fe  Fe49  1  -0.00081144  0.24788555  0.25234600  1
  Fe  Fe50  1  0.62755047  0.87933861  0.37458501  1
  Fe  Fe51  1  0.37647243  0.12706163  0.12223873  1
  Fe  Fe52  1  0.25104352  0.24925619  0.25150853  1
  Fe  Fe53  1  0.37550427  0.37042739  0.62428753  1
  Fe  Fe54  1  -0.00028695  0.75321081  0.25279199  1
  Fe  Fe55  1  0.12848497  0.62478910  0.37577416  1
  Fe  Fe56  1  0.12348573  0.12459035  0.12423631  1
  Fe  Fe57  1  0.24779436  0.49698949  -0.00180230  1
  Fe  Fe58  1  0.87808199  0.87288147  0.62619229  1
  Fe  Fe59  1  0.75206914  0.50179303  0.74861762  1
  Fe  Fe60  1  0.12557204  0.62520369  0.12655270  1
  Fe  Fe61  1  0.24988686  0.75017824  0.74987785  1
  Fe  Fe62  1  0.62321287  0.12345439  0.87452138  1
  Fe  Fe63  1  0.12418302  0.87705432  0.87123513  1
  Fe  Fe64  1  0.49830183  0.49944021  0.50093755  1
  Fe  Fe65  1  0.00080199  0.24605340  0.75278200  1
  Fe  Fe66  1  0.37332367  0.87602293  0.62231496  1
  Fe  Fe67  1  0.86968574  0.12032922  0.37707361  1
  Fe  Fe68  1  0.49994383  0.75008243  -0.00128362  1
  Fe  Fe69  1  0.24777487  0.49834061  0.74910982  1
  Fe  Fe70  1  0.49879242  0.74878204  0.75033963  1
  Fe  Fe71  1  0.74967035  0.24886483  0.74907003  1
  Fe  Fe72  1  0.12568429  0.62719553  0.62346300  1
  Fe  Fe73  1  -0.00292307  0.00059140  -0.00082919  1
  Fe  Fe74  1  0.37484814  0.12394713  0.37823636  1
  Fe  Fe75  1  0.49867417  0.49603222  0.24990755  1
  Fe  Fe76  1  0.87367020  0.37436131  0.37582480  1
  Fe  Fe77  1  0.75031910  0.50053922  0.00058378  1
  Fe  Fe78  1  0.62486289  0.87453157  0.12566200  1
  Fe  Fe79  1  0.37392793  0.62393748  0.12482160  1
  Fe  Fe80  1  0.25057397  0.00556539  0.74625686  1
  Fe  Fe81  1  0.00158979  0.49821397  -0.00022036  1
  Fe  Fe82  1  0.49855707  0.00063016  0.24940389  1
  Fe  Fe83  1  0.37468235  0.87487347  0.12738384  1
  Fe  Fe84  1  0.24977790  0.25171432  -0.00377381  1
  Fe  Fe85  1  -0.00085697  0.49964430  0.25124724  1
  Fe  Fe86  1  0.75248180  0.00174231  0.74847481  1
  Fe  Fe87  1  0.50175414  0.25192581  0.25235295  1
  Fe  Fe88  1  0.62388249  0.87537517  0.62663373  1
  Fe  Fe89  1  0.37539923  0.87801178  0.87476586  1
  Co  Co90  1  0.12476920  0.12339055  0.87781719  1
  Co  Co91  1  0.12464283  0.37461402  0.37289999  1
  Co  Co92  1  0.37416225  0.12907851  0.61990658  1
  Co  Co93  1  0.74931513  -0.00131528  0.50653747  1
  Co  Co94  1  0.37125650  0.87908589  0.37599966  1
  Co  Co95  1  0.75184255  0.49997303  0.24963696  1
  Co  Co96  1  0.00011659  0.24854920  0.49429519  1
  Co  Co97  1  0.75091749  -0.00178452  0.24453260  1
  Co  Co98  1  0.87718609  0.87385162  0.12425952  1
  Co  Co99  1  0.50021810  -0.00209199  0.00246870  1
  Co  Co100  1  0.13082612  0.87863352  0.36928010  1
  Co  Co101  1  0.62551804  0.37890641  0.37580637  1
  Co  Co102  1  0.12197752  0.37275861  0.87341817  1
  Co  Co103  1  0.62833612  0.11890395  0.37400187  1
  Co  Co104  1  0.25191030  0.74925552  0.24926827  1
  Co  Co105  1  0.12436231  0.87554127  0.63020587  1
  Co  Co106  1  0.87259554  0.87856577  0.37677003  1
  Co  Co107  1  -0.00029170  0.24966891  0.00134289  1
  Co  Co108  1  0.24771619  0.75451915  0.49981523  1
  Co  Co109  1  0.62458655  0.62435990  0.87414979  1
  Co  Co110  1  0.87527397  0.87404022  0.87293165  1
  Co  Co111  1  0.49942490  0.24735028  0.75112369  1
  Co  Co112  1  0.37548347  0.37261348  0.37834826  1
  Co  Co113  1  0.87696587  0.62674878  0.62159226  1
  Co  Co114  1  0.12621740  0.62589341  0.87550773  1
  Co  Co115  1  0.24808565  0.49581857  0.50219564  1
  Co  Co116  1  -0.00278547  0.00084152  0.25145967  1
  Co  Co117  1  0.37543727  0.37688355  0.87232829  1
  Co  Co118  1  0.62643911  0.37480357  0.12502592  1
  Co  Co119  1  0.74686365  0.24960257  0.49914228  1
  Co  Co120  1  0.00070616  0.74666185  0.75030250  1
  Co  Co121  1  0.25365708  0.00438139  0.24755302  1
  Co  Co122  1  0.24664714  -0.00041364  0.50338845  1
  Co  Co123  1  0.37328909  0.37332618  0.12484299  1
  Co  Co124  1  0.87473932  0.12623485  0.87582135  1
  Co  Co125  1  0.12269233  0.12790893  0.62341170  1
  Co  Co126  1  0.37652638  0.12277976  0.87786435  1
  Co  Co127  1  0.62584891  0.12529057  0.62698359  1
