# generated using pymatgen
data_Fe45Co19
_symmetry_space_group_name_H-M   'P 1'
_cell_length_a   11.40549393
_cell_length_b   11.40715836
_cell_length_c   11.40657382
_cell_angle_alpha   89.99173372
_cell_angle_beta   89.99274629
_cell_angle_gamma   89.98902100
_symmetry_Int_Tables_number   1
_chemical_formula_structural   Fe45Co19
_chemical_formula_sum   'Fe90 Co38'
_cell_volume   1484.04396628
_cell_formula_units_Z   2
loop_
 _symmetry_equiv_pos_site_id
 _symmetry_equiv_pos_as_xyz
  1  'x, y, z'
loop_
 _atom_site_type_symbol
 _atom_site_label
 _atom_site_symmetry_multiplicity
 _atom_site_fract_x
 _atom_site_fract_y
 _atom_site_fract_z
 _atom_site_occupancy
  Fe  Fe0  1  0.12276305  0.37379392  0.12577790  1
  Fe  Fe1  1  0.00304092  0.74943075  -0.00239275  1
  Fe  Fe2  1  0.12099707  0.37726130  0.62139648  1
  Fe  Fe3  1  0.00092810  0.00320711  0.75390536  1
  Fe  Fe4  1  0.37085115  0.62552486  0.37744534  1
  Fe  Fe5  1  0.37638707  0.87220931  0.12463150  1
  Fe  Fe6  1  -0.00338652  0.24680441  0.49553108  1
  Fe  Fe7  1  0.87741909  0.62994237  0.12898891  1
  Fe  Fe8  1  0.00032198  0.74644980  0.49561677  1
  Fe  Fe9  1  0.87381716  0.62378704  0.87520675  1
  Fe  Fe10  1  -0.00455475  0.00216807  0.50036581  1
  Fe  Fe11  1  0.50081797  0.00007459  0.25032742  1
  Fe  Fe12  1  -0.00558465  0.00139512  0.24633986  1
  Fe  Fe13  1  0.63114060  0.38003437  0.37826652  1
  Fe  Fe14  1  0.50116134  0.50208492  0.25252687  1
  Fe  Fe15  1  0.49843890  0.50124165  0.50106216  1
  Fe  Fe16  1  0.12227800  0.12428448  0.12117677  1
  Fe  Fe17  1  -0.00169150  0.49928876  0.74958903  1
  Fe  Fe18  1  0.49904848  0.50076137  0.74778734  1
  Fe  Fe19  1  0.87639781  0.36775786  0.13152928  1
  Fe  Fe20  1  0.37244955  0.12441216  0.87317042  1
  Fe  Fe21  1  0.62545933  0.87556184  0.62409572  1
  Fe  Fe22  1  0.37161177  0.87468421  0.87409731  1
  Fe  Fe23  1  0.87798613  0.87351252  0.62639915  1
  Fe  Fe24  1  0.12192337  0.87721251  0.12188934  1
  Fe  Fe25  1  0.12460141  0.37616650  0.87614069  1
  Fe  Fe26  1  0.12095872  0.37894755  0.37565510  1
  Fe  Fe27  1  0.25033313  -0.00104707  0.50385430  1
  Fe  Fe28  1  0.37378539  0.87628809  0.37591827  1
  Fe  Fe29  1  0.12594709  0.62155459  0.87534570  1
  Fe  Fe30  1  0.37754849  0.37316473  0.12684268  1
  Fe  Fe31  1  -0.00321137  0.49816555  0.00253933  1
  Fe  Fe32  1  0.49947820  0.74923197  -0.00272902  1
  Fe  Fe33  1  0.75086452  0.00117509  0.74952036  1
  Fe  Fe34  1  0.12383225  0.62468696  0.12749116  1
  Fe  Fe35  1  0.00383252  0.74919697  0.75173428  1
  Fe  Fe36  1  0.74845048  0.75059381  0.74946107  1
  Fe  Fe37  1  0.50222564  0.24945324  -0.00255376  1
  Fe  Fe38  1  0.24528128  0.75229812  0.25210693  1
  Fe  Fe39  1  -0.00880093  0.50477772  0.49521397  1
  Fe  Fe40  1  0.75317974  0.49675751  0.00373827  1
  Fe  Fe41  1  0.63172946  0.11880134  0.37536088  1
  Fe  Fe42  1  0.37502290  0.12738633  0.62461743  1
  Fe  Fe43  1  0.50214160  0.24785138  0.49674577  1
  Fe  Fe44  1  0.62492901  0.87746083  0.87637176  1
  Fe  Fe45  1  0.62677269  0.62298243  0.87505458  1
  Fe  Fe46  1  0.24865776  0.25050132  0.49853592  1
  Fe  Fe47  1  0.63133390  0.12286494  0.12263397  1
  Fe  Fe48  1  0.24706096  0.24907529  0.25177661  1
  Fe  Fe49  1  0.24569739  0.74973026  0.74647983  1
  Fe  Fe50  1  0.25052949  -0.00042355  0.24720899  1
  Fe  Fe51  1  0.49873020  -0.00015100  0.74986728  1
  Fe  Fe52  1  0.87490241  0.87418017  0.87627075  1
  Fe  Fe53  1  0.62817678  0.87794046  0.37693642  1
  Fe  Fe54  1  0.12265094  0.12470579  0.62607025  1
  Fe  Fe55  1  0.87399485  0.87509167  0.37547170  1
  Fe  Fe56  1  0.24949308  0.49819197  0.25028092  1
  Fe  Fe57  1  0.37663042  0.12778714  0.12714226  1
  Fe  Fe58  1  0.62670470  0.12507051  0.62565098  1
  Fe  Fe59  1  -0.00163445  0.24922462  -0.00358223  1
  Fe  Fe60  1  0.49913704  0.00081541  0.50070943  1
  Fe  Fe61  1  0.87027703  0.12960950  0.87515912  1
  Fe  Fe62  1  0.37586055  0.87152434  0.62554971  1
  Fe  Fe63  1  0.75243569  0.24827755  0.50037468  1
  Fe  Fe64  1  0.50187590  0.74902565  0.25334157  1
  Fe  Fe65  1  0.49909913  0.00163943  -0.00050862  1
  Fe  Fe66  1  0.37438571  0.62660604  0.12586388  1
  Fe  Fe67  1  0.50299974  0.25010621  0.75152471  1
  Fe  Fe68  1  0.74901908  0.75226530  0.00099458  1
  Fe  Fe69  1  0.62658672  0.62478564  0.62384051  1
  Fe  Fe70  1  0.62470777  0.62591626  0.12433575  1
  Fe  Fe71  1  0.25104934  0.49920226  0.74592111  1
  Fe  Fe72  1  0.37702345  0.37290267  0.62403524  1
  Fe  Fe73  1  0.62389401  0.37469600  0.12639908  1
  Fe  Fe74  1  0.25113852  0.25021749  -0.00054046  1
  Fe  Fe75  1  0.63341880  0.62272854  0.37747255  1
  Fe  Fe76  1  0.24338406  0.75058347  0.50089172  1
  Fe  Fe77  1  0.50489356  0.24770593  0.25400518  1
  Fe  Fe78  1  0.75140443  0.49771142  0.74592371  1
  Fe  Fe79  1  0.25222237  0.49971239  0.00077945  1
  Fe  Fe80  1  0.12555394  0.12028862  0.37545064  1
  Fe  Fe81  1  0.74822943  0.75568256  0.24704516  1
  Fe  Fe82  1  0.87650118  0.37010707  0.62691160  1
  Fe  Fe83  1  0.37573950  0.37351427  0.37438116  1
  Fe  Fe84  1  0.37356601  0.62676949  0.87215227  1
  Fe  Fe85  1  0.62709521  0.37595477  0.87366170  1
  Fe  Fe86  1  0.49787494  0.49981726  -0.00137357  1
  Fe  Fe87  1  0.24680716  0.25078024  0.74957642  1
  Fe  Fe88  1  0.12839182  0.88109527  0.87807981  1
  Fe  Fe89  1  0.50196982  0.74875268  0.49946705  1
  Co  Co90  1  0.87315554  0.37289874  0.37126912  1
  Co  Co91  1  0.62046477  0.87568206  0.12264479  1
  Co  Co92  1  0.75423441  -0.00002836  0.50492483  1
  Co  Co93  1  0.37298855  0.12361961  0.37463478  1
  Co  Co94  1  0.75202514  0.75115734  0.50287127  1
  Co  Co95  1  0.87601209  0.12672270  0.62906898  1
  Co  Co96  1  0.74517773  0.24993420  0.25348885  1
  Co  Co97  1  0.24982450  0.00011219  0.74574868  1
  Co  Co98  1  0.87645147  0.62978812  0.62901368  1
  Co  Co99  1  0.25279272  0.49781223  0.50191789  1
  Co  Co100  1  0.87403040  0.37481098  0.87256517  1
  Co  Co101  1  0.12642015  0.62016981  0.37544325  1
  Co  Co102  1  0.62437862  0.37448449  0.62213521  1
  Co  Co103  1  0.12342416  0.88141199  0.37610088  1
  Co  Co104  1  0.00359421  0.24926736  0.75312128  1
  Co  Co105  1  0.74812235  0.25103880  0.74823073  1
  Co  Co106  1  0.50218339  0.74983980  0.75074477  1
  Co  Co107  1  0.75406032  -0.00577140  0.24347402  1
  Co  Co108  1  0.88036144  0.87037735  0.12154019  1
  Co  Co109  1  -0.00297649  0.50122304  0.25108475  1
  Co  Co110  1  0.00325581  0.24580766  0.25424015  1
  Co  Co111  1  0.87111456  0.13123048  0.12494961  1
  Co  Co112  1  0.75825535  0.50044681  0.50453079  1
  Co  Co113  1  0.74940217  0.25467686  -0.00123678  1
  Co  Co114  1  0.75208339  0.49917295  0.24512264  1
  Co  Co115  1  0.00402160  0.75174612  0.25501495  1
  Co  Co116  1  0.12218463  0.62107903  0.62259179  1
  Co  Co117  1  0.86850369  0.62868092  0.36887629  1
  Co  Co118  1  0.37514623  0.37410990  0.87413686  1
  Co  Co119  1  0.87054914  0.12284809  0.37068824  1
  Co  Co120  1  0.25420066  0.00173506  0.00363436  1
  Co  Co121  1  0.11913931  0.87720433  0.62430547  1
  Co  Co122  1  0.62813060  0.12333857  0.87576604  1
  Co  Co123  1  0.12810812  0.12338827  0.87724281  1
  Co  Co124  1  0.37439355  0.62815935  0.62409176  1
  Co  Co125  1  0.75400721  -0.00233216  0.00223643  1
  Co  Co126  1  0.24829136  0.74916423  0.00028149  1
  Co  Co127  1  -0.00590685  0.00363020  -0.00182491  1
