# generated using pymatgen
data_Fe45Co19
_symmetry_space_group_name_H-M   'P 1'
_cell_length_a   11.41468621
_cell_length_b   11.41527980
_cell_length_c   11.41657975
_cell_angle_alpha   90.00639806
_cell_angle_beta   89.99807158
_cell_angle_gamma   89.98849147
_symmetry_Int_Tables_number   1
_chemical_formula_structural   Fe45Co19
_chemical_formula_sum   'Fe90 Co38'
_cell_volume   1487.60127399
_cell_formula_units_Z   2
loop_
 _symmetry_equiv_pos_site_id
 _symmetry_equiv_pos_as_xyz
  1  'x, y, z'
loop_
 _atom_site_type_symbol
 _atom_site_label
 _atom_site_symmetry_multiplicity
 _atom_site_fract_x
 _atom_site_fract_y
 _atom_site_fract_z
 _atom_site_occupancy
  Fe  Fe0  1  0.87558721  0.12505402  0.12610991  1
  Fe  Fe1  1  0.12167292  0.12625661  0.62728720  1
  Fe  Fe2  1  0.74660769  0.25206069  -0.00143778  1
  Fe  Fe3  1  0.75005389  0.49944066  0.50010326  1
  Fe  Fe4  1  0.62581337  0.37661310  0.62833352  1
  Fe  Fe5  1  0.12586931  0.62530391  0.62580992  1
  Fe  Fe6  1  0.12502825  0.62440582  0.12523120  1
  Fe  Fe7  1  0.25039811  -0.00380951  0.25341616  1
  Fe  Fe8  1  0.87475142  0.62320638  0.37610951  1
  Fe  Fe9  1  0.37608803  0.37369747  0.37654938  1
  Fe  Fe10  1  0.49949809  0.50095250  0.50363222  1
  Fe  Fe11  1  0.50082877  0.74786508  0.50452361  1
  Fe  Fe12  1  0.87106305  0.87534030  0.12261023  1
  Fe  Fe13  1  0.12303502  0.37322001  0.62638781  1
  Fe  Fe14  1  0.12650104  0.62953539  0.37487666  1
  Fe  Fe15  1  0.00038496  0.75177526  0.50293379  1
  Fe  Fe16  1  -0.00221800  -0.00012778  0.75078794  1
  Fe  Fe17  1  0.62861049  0.87560629  0.62441282  1
  Fe  Fe18  1  0.50091624  0.49775014  0.24963983  1
  Fe  Fe19  1  0.12514856  0.37403020  0.87488626  1
  Fe  Fe20  1  0.75254141  0.24831808  0.50139296  1
  Fe  Fe21  1  0.37507143  0.37318093  0.62383134  1
  Fe  Fe22  1  0.38077357  0.37356006  0.87558536  1
  Fe  Fe23  1  0.62512294  0.37386702  0.37438918  1
  Fe  Fe24  1  0.62488024  0.62568099  0.37715711  1
  Fe  Fe25  1  0.87268371  0.87417537  0.87616611  1
  Fe  Fe26  1  0.87322567  0.62346579  0.62482626  1
  Fe  Fe27  1  0.50188479  0.00145233  0.00029812  1
  Fe  Fe28  1  -0.00256516  0.75024609  0.24855323  1
  Fe  Fe29  1  -0.00027395  0.25279456  0.00127796  1
  Fe  Fe30  1  0.62431271  0.12661849  0.12639186  1
  Fe  Fe31  1  0.12519846  0.87431784  0.12601380  1
  Fe  Fe32  1  0.12334684  0.87349273  0.87300197  1
  Fe  Fe33  1  0.25319173  0.24888801  0.00184126  1
  Fe  Fe34  1  0.87373132  0.87639976  0.37568601  1
  Fe  Fe35  1  0.37850859  0.12615067  0.87556715  1
  Fe  Fe36  1  0.87184785  0.87707396  0.62474225  1
  Fe  Fe37  1  0.37675095  0.62396944  0.12345488  1
  Fe  Fe38  1  0.00076405  0.49685167  0.25213124  1
  Fe  Fe39  1  -0.00037039  0.00013990  0.49900270  1
  Fe  Fe40  1  0.62514301  0.62266279  0.12512049  1
  Fe  Fe41  1  0.25111154  0.24935028  0.75004000  1
  Fe  Fe42  1  0.62460733  0.87631274  0.87403906  1
  Fe  Fe43  1  0.00184031  0.49753914  0.49805240  1
  Fe  Fe44  1  0.25096477  0.00096132  0.75045166  1
  Fe  Fe45  1  -0.00076133  0.74889733  -0.00019506  1
  Fe  Fe46  1  0.87342675  0.62071328  0.12221600  1
  Fe  Fe47  1  0.12783592  0.37597897  0.12477706  1
  Fe  Fe48  1  0.49984909  0.74993782  0.24887570  1
  Fe  Fe49  1  0.24843293  0.24924326  0.49937502  1
  Fe  Fe50  1  0.62314072  0.12646759  0.87262623  1
  Fe  Fe51  1  0.62416742  0.12735065  0.37497458  1
  Fe  Fe52  1  -0.00176052  0.49984231  0.75111639  1
  Fe  Fe53  1  0.37991651  0.62624531  0.87416063  1
  Fe  Fe54  1  0.62654402  0.12382348  0.62693788  1
  Fe  Fe55  1  0.24988470  0.75063480  0.74846076  1
  Fe  Fe56  1  0.12398711  0.12500901  0.12711493  1
  Fe  Fe57  1  0.50202174  0.00038736  0.50063322  1
  Fe  Fe58  1  0.37809907  0.12603599  0.37575644  1
  Fe  Fe59  1  0.87071319  0.37949342  0.12497713  1
  Fe  Fe60  1  0.62608255  0.87312071  0.37695243  1
  Fe  Fe61  1  0.24979164  -0.00036225  -0.00150177  1
  Fe  Fe62  1  0.75302787  0.25070327  0.74907622  1
  Fe  Fe63  1  0.25052350  0.50080080  0.25231710  1
  Fe  Fe64  1  0.62673210  0.87488681  0.12438451  1
  Fe  Fe65  1  -0.00071454  -0.00053949  0.00062969  1
  Fe  Fe66  1  0.37390506  0.62869420  0.37707827  1
  Fe  Fe67  1  0.24709375  -0.00209200  0.49712185  1
  Fe  Fe68  1  0.75023748  0.00068714  0.25144466  1
  Fe  Fe69  1  0.37415992  0.87504184  0.62415355  1
  Fe  Fe70  1  0.74983448  0.74729105  0.75078570  1
  Fe  Fe71  1  0.50059396  -0.00053053  0.25196012  1
  Fe  Fe72  1  0.12037524  0.12674959  0.37103273  1
  Fe  Fe73  1  0.37557349  0.12541469  0.62331007  1
  Fe  Fe74  1  0.25238640  0.49902355  0.75042758  1
  Fe  Fe75  1  0.62121856  0.62078210  0.87148640  1
  Fe  Fe76  1  0.25046358  0.74921801  0.00049425  1
  Fe  Fe77  1  0.87463245  0.12443760  0.87555544  1
  Fe  Fe78  1  0.12270945  0.62622301  0.87375466  1
  Fe  Fe79  1  0.37665740  0.87566567  0.12393634  1
  Fe  Fe80  1  0.74757542  0.74629607  -0.00167727  1
  Fe  Fe81  1  0.37850614  0.87298609  0.87434628  1
  Fe  Fe82  1  0.75042968  0.74736255  0.25137570  1
  Fe  Fe83  1  0.24909478  0.50001699  0.50016343  1
  Fe  Fe84  1  0.75183347  0.25079000  0.25183289  1
  Fe  Fe85  1  0.87355322  0.37844127  0.87583387  1
  Fe  Fe86  1  -0.00301882  0.25189834  0.49754670  1
  Fe  Fe87  1  0.25328915  0.24998381  0.24953571  1
  Fe  Fe88  1  0.12380593  0.12644240  0.87484449  1
  Fe  Fe89  1  0.25144717  0.50123529  -0.00246599  1
  Co  Co90  1  0.50118558  0.25087843  0.00414349  1
  Co  Co91  1  -0.00287952  0.25128264  0.75309217  1
  Co  Co92  1  0.50264237  0.25034959  0.50224546  1
  Co  Co93  1  0.74439193  0.49967104  -0.00318942  1
  Co  Co94  1  0.62191268  0.37485912  0.86960988  1
  Co  Co95  1  0.74841127  0.00265832  -0.00011003  1
  Co  Co96  1  0.75242279  0.50080217  0.75057366  1
  Co  Co97  1  0.25244080  0.75157884  0.24839510  1
  Co  Co98  1  0.50258807  0.74993395  0.74570826  1
  Co  Co99  1  0.24754840  0.75302243  0.50144020  1
  Co  Co100  1  0.37481652  0.12069650  0.12607482  1
  Co  Co101  1  0.62821023  0.37498292  0.12799741  1
  Co  Co102  1  0.12196193  0.87150038  0.37367333  1
  Co  Co103  1  -0.00194690  -0.00291923  0.24791170  1
  Co  Co104  1  0.49738609  0.50068292  0.74478932  1
  Co  Co105  1  0.49744712  0.25181626  0.24731523  1
  Co  Co106  1  0.12742284  0.37291250  0.37464442  1
  Co  Co107  1  0.37829131  0.87197970  0.37774788  1
  Co  Co108  1  0.37145674  0.62651961  0.62500813  1
  Co  Co109  1  0.75073466  0.00096309  0.75062408  1
  Co  Co110  1  -0.00232599  0.25627972  0.24829327  1
  Co  Co111  1  0.50329465  0.49580099  0.00166736  1
  Co  Co112  1  0.87652053  0.62375190  0.87677811  1
  Co  Co113  1  0.49973532  -0.00020550  0.74835219  1
  Co  Co114  1  0.50252373  0.74990427  0.00105492  1
  Co  Co115  1  0.87700698  0.37627297  0.62427367  1
  Co  Co116  1  0.87686275  0.12457999  0.62551162  1
  Co  Co117  1  -0.00285522  0.75023352  0.74750642  1
  Co  Co118  1  0.74799027  0.50270343  0.25253304  1
  Co  Co119  1  0.12493578  0.87763228  0.62719410  1
  Co  Co120  1  0.87717935  0.12509567  0.37251073  1
  Co  Co121  1  0.37325841  0.37762093  0.12475054  1
  Co  Co122  1  0.87126899  0.37648596  0.37548730  1
  Co  Co123  1  0.75098759  0.74865010  0.49879023  1
  Co  Co124  1  0.75008348  0.00421770  0.49795541  1
  Co  Co125  1  0.62880705  0.62320776  0.62515613  1
  Co  Co126  1  0.49909850  0.24876447  0.74651753  1
  Co  Co127  1  0.00195298  0.49845701  -0.00078796  1
