# generated using pymatgen
data_Fe45Co19
_symmetry_space_group_name_H-M   'P 1'
_cell_length_a   11.41413076
_cell_length_b   11.41522480
_cell_length_c   11.41547722
_cell_angle_alpha   89.99499744
_cell_angle_beta   89.99267606
_cell_angle_gamma   89.99621428
_symmetry_Int_Tables_number   1
_chemical_formula_structural   Fe45Co19
_chemical_formula_sum   'Fe90 Co38'
_cell_volume   1487.37808268
_cell_formula_units_Z   2
loop_
 _symmetry_equiv_pos_site_id
 _symmetry_equiv_pos_as_xyz
  1  'x, y, z'
loop_
 _atom_site_type_symbol
 _atom_site_label
 _atom_site_symmetry_multiplicity
 _atom_site_fract_x
 _atom_site_fract_y
 _atom_site_fract_z
 _atom_site_occupancy
  Fe  Fe0  1  0.49969547  0.50070748  0.25557880  1
  Fe  Fe1  1  0.49778442  0.00224796  0.49562384  1
  Fe  Fe2  1  0.75070998  -0.00566773  0.00550417  1
  Fe  Fe3  1  0.87440700  0.87570467  0.37297383  1
  Fe  Fe4  1  0.87849165  0.62447191  0.12394832  1
  Fe  Fe5  1  0.12778549  0.62825475  0.87520646  1
  Fe  Fe6  1  0.12491271  0.37320565  0.87560087  1
  Fe  Fe7  1  0.75139442  0.49904500  0.25065253  1
  Fe  Fe8  1  0.24906205  0.49800943  0.50071726  1
  Fe  Fe9  1  0.49891441  0.74902991  -0.00017837  1
  Fe  Fe10  1  0.62356839  0.37566351  0.12653190  1
  Fe  Fe11  1  0.87678365  0.37353136  0.87543102  1
  Fe  Fe12  1  0.37540717  0.87525479  0.62330553  1
  Fe  Fe13  1  0.74979717  0.75256195  0.24661855  1
  Fe  Fe14  1  0.74911443  0.49781142  0.74870670  1
  Fe  Fe15  1  0.74907046  0.75279215  0.50195265  1
  Fe  Fe16  1  0.62584312  0.12582358  0.87963887  1
  Fe  Fe17  1  0.49968482  0.49951432  -0.00007634  1
  Fe  Fe18  1  0.24828647  0.25048995  0.00411058  1
  Fe  Fe19  1  0.37080753  0.62583228  0.37596620  1
  Fe  Fe20  1  0.87173104  0.62603920  0.37716076  1
  Fe  Fe21  1  0.12724683  0.87417044  0.37382327  1
  Fe  Fe22  1  0.37238150  0.87313359  0.87449344  1
  Fe  Fe23  1  0.49991469  0.50019157  0.74989594  1
  Fe  Fe24  1  0.00081280  0.24802194  0.74879880  1
  Fe  Fe25  1  0.87360709  0.12284313  0.12953855  1
  Fe  Fe26  1  0.62411277  0.62278652  0.62235997  1
  Fe  Fe27  1  0.37393615  0.62550751  0.62311271  1
  Fe  Fe28  1  0.74992261  0.24870509  0.74697709  1
  Fe  Fe29  1  0.25179214  -0.00048482  0.25133989  1
  Fe  Fe30  1  0.87713356  0.62390693  0.62351036  1
  Fe  Fe31  1  0.00165910  0.50005904  0.75102841  1
  Fe  Fe32  1  0.87692955  0.87759229  0.62603551  1
  Fe  Fe33  1  0.12510521  0.37477416  0.37033828  1
  Fe  Fe34  1  0.00083002  0.74755515  0.25233494  1
  Fe  Fe35  1  0.49928781  0.74809529  0.25284746  1
  Fe  Fe36  1  0.50065358  0.75098530  0.74884827  1
  Fe  Fe37  1  0.12355996  0.87441541  0.12581963  1
  Fe  Fe38  1  0.00151305  0.75130823  0.49943963  1
  Fe  Fe39  1  0.87437634  0.36859249  0.37318387  1
  Fe  Fe40  1  0.62251642  0.12455017  0.62325332  1
  Fe  Fe41  1  0.75060947  0.25188567  0.00388057  1
  Fe  Fe42  1  0.74821725  0.75153590  0.74619339  1
  Fe  Fe43  1  0.87695800  0.37418275  0.62432375  1
  Fe  Fe44  1  0.00122530  0.75240470  0.75062186  1
  Fe  Fe45  1  0.12570855  0.12335752  0.87649415  1
  Fe  Fe46  1  0.24903528  0.25066591  0.49985733  1
  Fe  Fe47  1  -0.00046948  0.75239081  -0.00249043  1
  Fe  Fe48  1  0.37544588  0.12574092  0.12484201  1
  Fe  Fe49  1  0.88056071  0.37697197  0.12672642  1
  Fe  Fe50  1  0.37296593  0.37491308  0.87652888  1
  Fe  Fe51  1  0.12528434  0.87587844  0.62526968  1
  Fe  Fe52  1  0.37261284  0.62586047  0.87521681  1
  Fe  Fe53  1  0.87183031  0.62729851  0.87503688  1
  Fe  Fe54  1  0.62465762  0.87507211  0.37425142  1
  Fe  Fe55  1  0.25201785  -0.00036705  0.49765235  1
  Fe  Fe56  1  0.37695277  0.87447752  0.12776085  1
  Fe  Fe57  1  0.24732740  0.50089647  0.00424478  1
  Fe  Fe58  1  0.49890418  0.00128184  0.75151751  1
  Fe  Fe59  1  0.25173334  0.00184024  0.74974673  1
  Fe  Fe60  1  0.62517705  0.62534379  0.12578506  1
  Fe  Fe61  1  0.25163442  -0.00149030  0.00086519  1
  Fe  Fe62  1  0.50030820  0.74934967  0.49889903  1
  Fe  Fe63  1  0.50084476  0.24977650  0.49589862  1
  Fe  Fe64  1  0.74988629  0.00187309  0.74836317  1
  Fe  Fe65  1  0.24606432  0.24965665  0.24676650  1
  Fe  Fe66  1  0.49934804  0.00075810  -0.00002703  1
  Fe  Fe67  1  0.12374542  0.12534329  0.37539016  1
  Fe  Fe68  1  -0.00145683  -0.00232684  -0.00205639  1
  Fe  Fe69  1  0.74708859  0.49603178  0.50016576  1
  Fe  Fe70  1  0.62464762  0.37347954  0.87472608  1
  Fe  Fe71  1  0.37570520  0.37469382  0.12778251  1
  Fe  Fe72  1  0.25125281  0.24732221  0.74930822  1
  Fe  Fe73  1  0.75079891  0.49934709  0.00054721  1
  Fe  Fe74  1  0.62730251  0.87352168  0.87638997  1
  Fe  Fe75  1  -0.00031217  0.00243539  0.25372514  1
  Fe  Fe76  1  0.12331708  0.12361194  0.62267013  1
  Fe  Fe77  1  0.87958615  0.12457702  0.62048569  1
  Fe  Fe78  1  0.49766970  0.24762490  0.75277319  1
  Fe  Fe79  1  0.62739760  0.62629122  0.87656824  1
  Fe  Fe80  1  0.00170448  0.49750907  0.49821879  1
  Fe  Fe81  1  0.50319109  0.24776877  0.25143233  1
  Fe  Fe82  1  0.50205001  0.00376592  0.25195813  1
  Fe  Fe83  1  0.75219587  0.00127144  0.49761096  1
  Fe  Fe84  1  0.00191120  0.24783120  0.00425954  1
  Fe  Fe85  1  0.24878105  0.50109704  0.74802047  1
  Fe  Fe86  1  0.12809479  0.62514642  0.37435503  1
  Fe  Fe87  1  0.87449347  0.12372911  0.87625132  1
  Fe  Fe88  1  0.37354831  0.62539997  0.12655012  1
  Fe  Fe89  1  0.37676574  0.37461407  0.62280436  1
  Co  Co90  1  0.25026827  0.75011540  0.74748015  1
  Co  Co91  1  0.00282366  0.25209572  0.49914324  1
  Co  Co92  1  0.00093023  0.50186115  -0.00488238  1
  Co  Co93  1  0.12331849  0.62525485  0.62371793  1
  Co  Co94  1  0.88088205  0.87492059  0.12873645  1
  Co  Co95  1  0.49993070  0.50094646  0.49526079  1
  Co  Co96  1  0.37361930  0.12534636  0.87876705  1
  Co  Co97  1  0.62953473  0.62669814  0.37514320  1
  Co  Co98  1  0.37300126  0.37320567  0.37347991  1
  Co  Co99  1  0.25033317  0.75051991  0.00444596  1
  Co  Co100  1  0.61943859  0.87340546  0.12647600  1
  Co  Co101  1  0.24901791  0.75203480  0.49993666  1
  Co  Co102  1  0.00050562  0.00034195  0.75166116  1
  Co  Co103  1  0.62302361  0.87891923  0.62283848  1
  Co  Co104  1  -0.00236762  0.50281298  0.25579005  1
  Co  Co105  1  0.24994289  0.75068908  0.24794859  1
  Co  Co106  1  0.12566700  0.37474135  0.62733840  1
  Co  Co107  1  0.87438705  0.12844361  0.37388542  1
  Co  Co108  1  0.12874392  0.87642289  0.87502052  1
  Co  Co109  1  0.12119221  0.62501234  0.12621665  1
  Co  Co110  1  0.75146220  0.75230545  0.00515113  1
  Co  Co111  1  0.11951220  0.38100739  0.12684209  1
  Co  Co112  1  0.37209807  0.12806520  0.37299521  1
  Co  Co113  1  0.74830869  0.24982871  0.24710059  1
  Co  Co114  1  0.37571270  0.12585906  0.62180378  1
  Co  Co115  1  0.62606547  0.37432782  0.37453742  1
  Co  Co116  1  0.25040431  0.50056491  0.24797382  1
  Co  Co117  1  0.87093354  0.87520646  0.87188296  1
  Co  Co118  1  0.00284228  0.24640107  0.24708229  1
  Co  Co119  1  0.62535347  0.12497218  0.12208023  1
  Co  Co120  1  0.74826954  -0.00286076  0.24885721  1
  Co  Co121  1  0.00000038  -0.00198383  0.49605280  1
  Co  Co122  1  0.74867455  0.25009525  0.50339558  1
  Co  Co123  1  0.62024017  0.37409296  0.62548607  1
  Co  Co124  1  0.37607046  0.87400835  0.37422314  1
  Co  Co125  1  0.49878174  0.25145499  0.00041113  1
  Co  Co126  1  0.63061439  0.12548324  0.37512861  1
  Co  Co127  1  0.12560054  0.11870935  0.12447593  1
