# generated using pymatgen
data_Fe45Co19
_symmetry_space_group_name_H-M   'P 1'
_cell_length_a   11.41641553
_cell_length_b   11.41449494
_cell_length_c   11.41505274
_cell_angle_alpha   89.98666107
_cell_angle_beta   90.00812524
_cell_angle_gamma   90.00486089
_symmetry_Int_Tables_number   1
_chemical_formula_structural   Fe45Co19
_chemical_formula_sum   'Fe90 Co38'
_cell_volume   1487.52533794
_cell_formula_units_Z   2
loop_
 _symmetry_equiv_pos_site_id
 _symmetry_equiv_pos_as_xyz
  1  'x, y, z'
loop_
 _atom_site_type_symbol
 _atom_site_label
 _atom_site_symmetry_multiplicity
 _atom_site_fract_x
 _atom_site_fract_y
 _atom_site_fract_z
 _atom_site_occupancy
  Fe  Fe0  1  0.62559568  0.12450456  0.62433129  1
  Fe  Fe1  1  0.12475174  0.62528225  0.62575964  1
  Fe  Fe2  1  0.24902512  0.50042944  0.25413828  1
  Fe  Fe3  1  0.50318324  -0.00011620  0.49827289  1
  Fe  Fe4  1  0.37361427  0.62654535  0.87575570  1
  Fe  Fe5  1  0.87510698  0.87174695  0.87701071  1
  Fe  Fe6  1  0.75129710  0.00133140  0.00178257  1
  Fe  Fe7  1  0.12435032  0.87528742  0.87485531  1
  Fe  Fe8  1  0.74870850  0.74692570  0.75245251  1
  Fe  Fe9  1  -0.00288529  0.25221543  0.49931168  1
  Fe  Fe10  1  0.24802376  -0.00133363  0.49959737  1
  Fe  Fe11  1  0.50134185  -0.00071247  0.75073044  1
  Fe  Fe12  1  0.62510303  0.37535978  0.87472829  1
  Fe  Fe13  1  0.87503688  0.62243930  0.62762170  1
  Fe  Fe14  1  0.37481308  0.87439065  0.37334952  1
  Fe  Fe15  1  -0.00025276  0.49853425  0.25215416  1
  Fe  Fe16  1  0.24749396  0.50064233  0.49624241  1
  Fe  Fe17  1  0.87244881  0.12421444  0.37370942  1
  Fe  Fe18  1  0.25234618  0.00213290  0.00017013  1
  Fe  Fe19  1  -0.00067742  0.75023617  0.24761967  1
  Fe  Fe20  1  0.24984053  0.74960347  0.24836523  1
  Fe  Fe21  1  0.12367886  0.87723508  0.12344667  1
  Fe  Fe22  1  0.50340985  0.74967047  0.49984138  1
  Fe  Fe23  1  0.62743228  0.37752441  0.37309574  1
  Fe  Fe24  1  0.49931995  0.00070517  0.00024468  1
  Fe  Fe25  1  0.49910250  0.24948182  0.74953414  1
  Fe  Fe26  1  0.24883518  -0.00015998  0.74945128  1
  Fe  Fe27  1  0.49938104  0.50046830  0.75064025  1
  Fe  Fe28  1  0.49988735  0.74997874  0.74814203  1
  Fe  Fe29  1  0.00363403  0.49788500  -0.00352510  1
  Fe  Fe30  1  0.74859420  0.25211705  0.74946904  1
  Fe  Fe31  1  0.62628566  0.12560738  0.87545833  1
  Fe  Fe32  1  0.25027680  0.25074636  0.25046442  1
  Fe  Fe33  1  0.62691122  0.62347421  0.62576534  1
  Fe  Fe34  1  0.87426035  0.62426451  0.37507318  1
  Fe  Fe35  1  -0.00204261  0.00047544  0.24907032  1
  Fe  Fe36  1  0.25126066  0.25028380  0.49981714  1
  Fe  Fe37  1  0.00197483  0.75024282  0.75104165  1
  Fe  Fe38  1  0.24812361  0.75062111  0.49994808  1
  Fe  Fe39  1  -0.00262138  0.00391769  -0.00280846  1
  Fe  Fe40  1  0.50022002  0.24930744  0.25265062  1
  Fe  Fe41  1  0.87648904  0.62495129  0.12085718  1
  Fe  Fe42  1  0.87283856  0.87521119  0.37562717  1
  Fe  Fe43  1  0.24834755  0.00071947  0.25029196  1
  Fe  Fe44  1  0.87435785  0.87418272  0.62554306  1
  Fe  Fe45  1  0.37386951  0.62554531  0.62344596  1
  Fe  Fe46  1  0.37530150  0.87436912  0.87597461  1
  Fe  Fe47  1  0.37201141  0.37040560  0.87322825  1
  Fe  Fe48  1  0.12399579  0.12625433  0.37585041  1
  Fe  Fe49  1  0.75350833  0.49789379  0.50111049  1
  Fe  Fe50  1  0.50015411  0.74907468  0.00458487  1
  Fe  Fe51  1  0.37514507  0.87546891  0.62456249  1
  Fe  Fe52  1  0.75151021  0.25121552  0.50084060  1
  Fe  Fe53  1  0.87391336  0.87419205  0.12256239  1
  Fe  Fe54  1  0.75038239  -0.00132829  0.74971070  1
  Fe  Fe55  1  0.49929055  0.24977213  0.00049513  1
  Fe  Fe56  1  0.24838430  0.74997677  0.00136870  1
  Fe  Fe57  1  0.12201566  0.12369531  0.62637409  1
  Fe  Fe58  1  0.62534200  0.87293240  0.87724392  1
  Fe  Fe59  1  0.24824998  0.49763508  -0.00113249  1
  Fe  Fe60  1  0.37545681  0.37588039  0.62362433  1
  Fe  Fe61  1  0.24962333  0.50028599  0.75062218  1
  Fe  Fe62  1  0.50176358  0.74772816  0.24782130  1
  Fe  Fe63  1  0.12233053  0.87362680  0.37480194  1
  Fe  Fe64  1  0.50031819  0.50110468  0.49733892  1
  Fe  Fe65  1  0.87532748  0.37450914  0.12172034  1
  Fe  Fe66  1  0.49982639  0.24906199  0.49659903  1
  Fe  Fe67  1  -0.00167967  -0.00144908  0.50096781  1
  Fe  Fe68  1  0.49862983  0.50006564  -0.00097944  1
  Fe  Fe69  1  0.62544675  0.37885553  0.12533926  1
  Fe  Fe70  1  0.49847042  0.50424925  0.25181654  1
  Fe  Fe71  1  0.75071349  0.25120053  0.24774915  1
  Fe  Fe72  1  0.74907366  0.74772143  0.24698894  1
  Fe  Fe73  1  0.37450624  0.37667754  0.12704010  1
  Fe  Fe74  1  0.50219154  -0.00083020  0.25145612  1
  Fe  Fe75  1  0.12216468  0.12785422  0.12181891  1
  Fe  Fe76  1  0.37609394  0.12421706  0.12669405  1
  Fe  Fe77  1  0.62635081  0.12404548  0.12597755  1
  Fe  Fe78  1  0.74860863  0.50378408  -0.00325980  1
  Fe  Fe79  1  0.37669854  0.12314868  0.62461568  1
  Fe  Fe80  1  0.00089666  0.49926537  0.75327400  1
  Fe  Fe81  1  -0.00113225  0.25160548  0.24949165  1
  Fe  Fe82  1  0.87211853  0.37381641  0.87483354  1
  Fe  Fe83  1  0.00100385  0.24888274  0.75483780  1
  Fe  Fe84  1  -0.00070204  0.74858726  0.50076772  1
  Fe  Fe85  1  0.63063001  0.87534467  0.37583122  1
  Fe  Fe86  1  0.87561600  0.12508286  0.62846074  1
  Fe  Fe87  1  0.12466082  0.62290588  0.12508908  1
  Fe  Fe88  1  0.12230679  0.37538423  0.62442087  1
  Fe  Fe89  1  0.62516809  0.37658146  0.62564454  1
  Co  Co90  1  -0.00135967  0.50068996  0.49888021  1
  Co  Co91  1  0.62515584  0.62219532  0.12396221  1
  Co  Co92  1  0.62669978  0.87540594  0.12399617  1
  Co  Co93  1  0.12411628  0.37480552  0.12655552  1
  Co  Co94  1  0.00348957  0.75008814  0.00156863  1
  Co  Co95  1  0.25156930  0.25062555  0.00414894  1
  Co  Co96  1  0.75211476  0.00011266  0.24687609  1
  Co  Co97  1  0.12220602  0.62711120  0.37392817  1
  Co  Co98  1  0.37392021  0.12699699  0.87390252  1
  Co  Co99  1  0.87463137  0.37512694  0.37415291  1
  Co  Co100  1  0.75102094  0.74759004  0.50137147  1
  Co  Co101  1  0.74846469  0.74630186  0.00002544  1
  Co  Co102  1  0.62730885  0.87416178  0.62491524  1
  Co  Co103  1  -0.00079551  -0.00049770  0.75296119  1
  Co  Co104  1  0.75389467  0.50109050  0.24749870  1
  Co  Co105  1  0.37535085  0.37560735  0.37507153  1
  Co  Co106  1  0.37515105  0.62772815  0.37595322  1
  Co  Co107  1  0.12325249  0.37335971  0.37600620  1
  Co  Co108  1  0.12308013  0.87434177  0.62559487  1
  Co  Co109  1  0.87626078  0.12803537  0.12425070  1
  Co  Co110  1  0.37522576  0.87641701  0.12627226  1
  Co  Co111  1  0.37247751  0.62318099  0.12425309  1
  Co  Co112  1  0.37376014  0.12336549  0.37489031  1
  Co  Co113  1  0.12562339  0.62663218  0.87452771  1
  Co  Co114  1  0.12939503  0.37066148  0.87384487  1
  Co  Co115  1  0.74948877  0.50155777  0.75314151  1
  Co  Co116  1  0.62845485  0.62307413  0.37502226  1
  Co  Co117  1  0.62967117  0.12441304  0.37479212  1
  Co  Co118  1  0.87897156  0.62670135  0.87638308  1
  Co  Co119  1  0.87700684  0.37551716  0.62922601  1
  Co  Co120  1  0.87110761  0.12735889  0.87437078  1
  Co  Co121  1  0.12871573  0.12630614  0.87580129  1
  Co  Co122  1  0.25024797  0.24850810  0.74443166  1
  Co  Co123  1  0.62044099  0.62646893  0.87508489  1
  Co  Co124  1  0.74764453  0.25045760  0.00208751  1
  Co  Co125  1  -0.00000576  0.25106133  -0.00386417  1
  Co  Co126  1  0.25067389  0.75139502  0.75007515  1
  Co  Co127  1  0.75178886  0.00117900  0.50331653  1
