# generated using pymatgen
data_Fe45Co19
_symmetry_space_group_name_H-M   'P 1'
_cell_length_a   11.41355420
_cell_length_b   11.41449244
_cell_length_c   11.41523766
_cell_angle_alpha   89.99767101
_cell_angle_beta   89.99826036
_cell_angle_gamma   90.00216597
_symmetry_Int_Tables_number   1
_chemical_formula_structural   Fe45Co19
_chemical_formula_sum   'Fe90 Co38'
_cell_volume   1487.17633952
_cell_formula_units_Z   2
loop_
 _symmetry_equiv_pos_site_id
 _symmetry_equiv_pos_as_xyz
  1  'x, y, z'
loop_
 _atom_site_type_symbol
 _atom_site_label
 _atom_site_symmetry_multiplicity
 _atom_site_fract_x
 _atom_site_fract_y
 _atom_site_fract_z
 _atom_site_occupancy
  Fe  Fe0  1  0.37611674  0.37375963  0.87732197  1
  Fe  Fe1  1  0.50295273  -0.00358615  0.74817312  1
  Fe  Fe2  1  0.62499326  0.37360636  0.87669995  1
  Fe  Fe3  1  0.87040169  0.87727655  0.62044753  1
  Fe  Fe4  1  0.37386974  0.87583885  0.12503325  1
  Fe  Fe5  1  -0.00439182  0.50337911  0.49896282  1
  Fe  Fe6  1  -0.00150897  -0.00022692  0.74722978  1
  Fe  Fe7  1  0.12559424  0.62556238  0.87333630  1
  Fe  Fe8  1  0.62539428  0.62682438  0.87329336  1
  Fe  Fe9  1  0.50097313  0.00117063  0.00092721  1
  Fe  Fe10  1  0.87529616  0.12588685  0.37402384  1
  Fe  Fe11  1  0.62263220  0.12728534  0.12911444  1
  Fe  Fe12  1  0.12506528  0.37579662  0.12716787  1
  Fe  Fe13  1  0.00241042  0.00233846  0.00133587  1
  Fe  Fe14  1  0.12491700  0.12384698  0.37247756  1
  Fe  Fe15  1  0.86979467  0.87828289  0.87862871  1
  Fe  Fe16  1  0.25042181  0.75018784  0.25264977  1
  Fe  Fe17  1  0.49755115  0.25189434  0.25569516  1
  Fe  Fe18  1  0.87292989  0.12276674  0.62188309  1
  Fe  Fe19  1  0.37635523  0.37409683  0.12427054  1
  Fe  Fe20  1  0.25331255  0.75127737  0.74775942  1
  Fe  Fe21  1  0.12382383  0.62608853  0.62638160  1
  Fe  Fe22  1  0.87203464  0.37630860  0.62053614  1
  Fe  Fe23  1  0.50115412  0.75514779  0.74859014  1
  Fe  Fe24  1  0.37569235  0.12311569  0.62224955  1
  Fe  Fe25  1  0.62601042  0.87402906  0.12309503  1
  Fe  Fe26  1  0.37767763  0.37399379  0.62142810  1
  Fe  Fe27  1  0.50608278  0.50058158  0.49996880  1
  Fe  Fe28  1  0.25167021  0.50108565  0.00018436  1
  Fe  Fe29  1  0.87153722  0.62514756  0.12868608  1
  Fe  Fe30  1  0.87230709  0.62513480  0.87369064  1
  Fe  Fe31  1  0.00279786  0.24761863  0.00166805  1
  Fe  Fe32  1  0.37789566  0.62430836  0.37346060  1
  Fe  Fe33  1  0.12430506  0.37671082  0.37450403  1
  Fe  Fe34  1  0.62872487  0.62621155  0.13005031  1
  Fe  Fe35  1  0.25208263  0.25148177  0.25267590  1
  Fe  Fe36  1  0.25099735  0.74921919  -0.00071426  1
  Fe  Fe37  1  0.87663222  0.12497458  0.12838435  1
  Fe  Fe38  1  -0.00228094  0.75321605  0.75042614  1
  Fe  Fe39  1  0.00084678  -0.00292321  0.25240439  1
  Fe  Fe40  1  0.25027503  0.24967768  0.74898514  1
  Fe  Fe41  1  0.12294632  0.62694384  0.37306189  1
  Fe  Fe42  1  0.37493925  0.12327836  0.12858201  1
  Fe  Fe43  1  0.12513258  0.37627954  0.62303596  1
  Fe  Fe44  1  0.49951290  0.49824681  0.75039344  1
  Fe  Fe45  1  0.12505709  0.37455938  0.87521343  1
  Fe  Fe46  1  0.50127297  0.74899060  0.00060209  1
  Fe  Fe47  1  0.87447823  0.87184735  0.37706031  1
  Fe  Fe48  1  0.25227990  0.50005716  0.74968148  1
  Fe  Fe49  1  0.74899167  -0.00168518  0.25124240  1
  Fe  Fe50  1  0.25217529  0.25070532  0.49738147  1
  Fe  Fe51  1  -0.00132372  0.25031644  0.74825418  1
  Fe  Fe52  1  -0.00102094  0.49808637  0.74923493  1
  Fe  Fe53  1  0.50293953  0.74832468  0.50028824  1
  Fe  Fe54  1  0.62637573  0.12275669  0.62338934  1
  Fe  Fe55  1  0.87458502  0.37582554  0.12409581  1
  Fe  Fe56  1  0.12683235  0.87780161  0.87505888  1
  Fe  Fe57  1  0.87319370  0.37548006  0.87682827  1
  Fe  Fe58  1  0.75050709  0.25441602  0.25117370  1
  Fe  Fe59  1  0.62724823  0.87066536  0.37713320  1
  Fe  Fe60  1  0.25040598  0.50257264  0.49842491  1
  Fe  Fe61  1  -0.00253926  0.74828972  0.49997284  1
  Fe  Fe62  1  0.50226744  0.50138166  0.00102020  1
  Fe  Fe63  1  0.12710508  0.87633338  0.12612811  1
  Fe  Fe64  1  0.50192216  0.49804828  0.24966742  1
  Fe  Fe65  1  0.24844214  -0.00175772  0.49859739  1
  Fe  Fe66  1  0.87472409  0.12304404  0.87570786  1
  Fe  Fe67  1  0.24837112  0.24514806  0.00096697  1
  Fe  Fe68  1  0.37379290  0.12200270  0.87323694  1
  Fe  Fe69  1  0.75033340  0.24841034  0.74909753  1
  Fe  Fe70  1  0.74861083  0.49934401  0.74672140  1
  Fe  Fe71  1  -0.00163033  0.74926034  0.00019290  1
  Fe  Fe72  1  0.50077714  0.24910633  0.74834500  1
  Fe  Fe73  1  0.37487514  0.87667438  0.87588343  1
  Fe  Fe74  1  0.37453343  0.87365696  0.37719716  1
  Fe  Fe75  1  -0.00352555  0.49887788  0.25218316  1
  Fe  Fe76  1  0.74779939  0.75391358  0.74765257  1
  Fe  Fe77  1  0.74576126  0.24946074  0.49815468  1
  Fe  Fe78  1  0.50298069  0.00190501  0.49737133  1
  Fe  Fe79  1  0.62639193  0.12281273  0.87557019  1
  Fe  Fe80  1  0.37709064  0.62579660  0.62495416  1
  Fe  Fe81  1  0.12525678  0.12407319  0.62491028  1
  Fe  Fe82  1  0.74829902  0.24870734  0.00205947  1
  Fe  Fe83  1  0.12506369  0.62474696  0.12677841  1
  Fe  Fe84  1  0.37491035  0.62582524  0.12697420  1
  Fe  Fe85  1  0.50029169  -0.00268847  0.25279267  1
  Fe  Fe86  1  0.00065936  0.24902856  0.49910007  1
  Fe  Fe87  1  0.87367735  0.87530760  0.12339468  1
  Fe  Fe88  1  -0.00149192  0.50198723  -0.00051244  1
  Fe  Fe89  1  0.12579904  0.87358325  0.62209750  1
  Co  Co90  1  0.00035815  0.00048307  0.49879549  1
  Co  Co91  1  0.24958803  0.00376148  0.00085154  1
  Co  Co92  1  0.87618078  0.62529014  0.62869511  1
  Co  Co93  1  0.74946615  0.74288623  0.50251664  1
  Co  Co94  1  0.00032005  0.75165103  0.24761335  1
  Co  Co95  1  0.50156677  0.24787513  0.49882486  1
  Co  Co96  1  0.87366404  0.37423645  0.38019673  1
  Co  Co97  1  0.62578177  0.12662525  0.37110684  1
  Co  Co98  1  0.37766249  0.37851216  0.37766006  1
  Co  Co99  1  0.12431222  0.87243127  0.37645570  1
  Co  Co100  1  0.25166318  0.50037027  0.25139809  1
  Co  Co101  1  0.74915691  -0.00108140  0.74927875  1
  Co  Co102  1  0.74993546  0.74745751  0.00148300  1
  Co  Co103  1  0.62649026  0.62697143  0.36913536  1
  Co  Co104  1  0.62578946  0.37395101  0.62416941  1
  Co  Co105  1  0.25113031  0.74667506  0.49866445  1
  Co  Co106  1  0.37641674  0.87572681  0.62004433  1
  Co  Co107  1  0.12371127  0.12351890  0.87086927  1
  Co  Co108  1  0.49902268  0.75236167  0.24962734  1
  Co  Co109  1  0.75029211  0.75491179  0.24916008  1
  Co  Co110  1  0.74829085  0.50668744  0.49909820  1
  Co  Co111  1  0.62765911  0.87702630  0.61924968  1
  Co  Co112  1  0.25022811  -0.00214233  0.74615607  1
  Co  Co113  1  0.62693492  0.87597813  0.87908226  1
  Co  Co114  1  0.37474397  0.12243744  0.37593629  1
  Co  Co115  1  0.37659132  0.62649467  0.87421810  1
  Co  Co116  1  -0.00074265  0.25265564  0.25166199  1
  Co  Co117  1  0.87213323  0.62844358  0.37015825  1
  Co  Co118  1  0.74788081  0.00442599  0.00494749  1
  Co  Co119  1  0.62262528  0.62606128  0.62849104  1
  Co  Co120  1  0.12528791  0.12366671  0.13196207  1
  Co  Co121  1  0.74708491  0.50042516  0.00156049  1
  Co  Co122  1  0.25124086  -0.00315582  0.25359696  1
  Co  Co123  1  0.49931061  0.24660715  -0.00147519  1
  Co  Co124  1  0.74865008  0.00195693  0.49417099  1
  Co  Co125  1  0.62444848  0.37519180  0.37709036  1
  Co  Co126  1  0.62252028  0.37181282  0.12496249  1
  Co  Co127  1  0.75017673  0.49466972  0.25314743  1
