# generated using pymatgen
data_Fe45Co19
_symmetry_space_group_name_H-M   'P 1'
_cell_length_a   11.41525892
_cell_length_b   11.41548782
_cell_length_c   11.41368154
_cell_angle_alpha   89.99233721
_cell_angle_beta   90.00576762
_cell_angle_gamma   90.00200580
_symmetry_Int_Tables_number   1
_chemical_formula_structural   Fe45Co19
_chemical_formula_sum   'Fe90 Co38'
_cell_volume   1487.32537069
_cell_formula_units_Z   2
loop_
 _symmetry_equiv_pos_site_id
 _symmetry_equiv_pos_as_xyz
  1  'x, y, z'
loop_
 _atom_site_type_symbol
 _atom_site_label
 _atom_site_symmetry_multiplicity
 _atom_site_fract_x
 _atom_site_fract_y
 _atom_site_fract_z
 _atom_site_occupancy
  Fe  Fe0  1  0.74878257  0.49717255  0.00068415  1
  Fe  Fe1  1  0.63010051  0.12423616  0.87997594  1
  Fe  Fe2  1  0.87164254  0.12468745  0.87713371  1
  Fe  Fe3  1  0.74719387  0.24796267  0.24831127  1
  Fe  Fe4  1  0.50374085  0.00440582  0.25326074  1
  Fe  Fe5  1  0.12460792  0.37480656  0.87427508  1
  Fe  Fe6  1  -0.00192412  -0.00004008  0.00105121  1
  Fe  Fe7  1  -0.00234102  -0.00055930  0.49903460  1
  Fe  Fe8  1  0.50194814  0.00187984  0.75010913  1
  Fe  Fe9  1  0.25075763  0.25053756  0.25091987  1
  Fe  Fe10  1  0.75028312  0.25192854  0.74898783  1
  Fe  Fe11  1  -0.00134681  0.50214858  0.74711056  1
  Fe  Fe12  1  0.25176065  -0.00146530  0.50178576  1
  Fe  Fe13  1  0.37831728  0.62521755  0.62077543  1
  Fe  Fe14  1  0.62516688  0.87515769  0.12784551  1
  Fe  Fe15  1  0.12443496  0.87189132  0.12810648  1
  Fe  Fe16  1  0.37891363  0.87384557  0.37735788  1
  Fe  Fe17  1  -0.00127179  0.00030085  0.25160168  1
  Fe  Fe18  1  0.87194663  0.37991997  0.62380686  1
  Fe  Fe19  1  0.74876838  0.25503259  0.49927529  1
  Fe  Fe20  1  0.74972895  0.49965651  0.25282557  1
  Fe  Fe21  1  0.12517867  0.62618525  0.87399475  1
  Fe  Fe22  1  0.50207185  0.74890352  -0.00084204  1
  Fe  Fe23  1  0.37724029  0.37518279  0.37708686  1
  Fe  Fe24  1  0.62057636  0.37304582  0.12692827  1
  Fe  Fe25  1  0.37529148  0.62434460  0.87499372  1
  Fe  Fe26  1  0.62787235  0.62196352  0.62563508  1
  Fe  Fe27  1  0.12536865  0.37597929  0.37660198  1
  Fe  Fe28  1  0.87439076  0.87379813  0.12793401  1
  Fe  Fe29  1  0.87169727  0.87376345  0.37452764  1
  Fe  Fe30  1  0.74923323  -0.00364975  0.74754128  1
  Fe  Fe31  1  0.12556565  0.37540677  0.62286294  1
  Fe  Fe32  1  0.74738580  -0.00183177  0.50089874  1
  Fe  Fe33  1  0.87373890  0.12749616  0.37487053  1
  Fe  Fe34  1  0.50230767  0.74937677  0.25349466  1
  Fe  Fe35  1  0.25159088  0.74979657  0.74609086  1
  Fe  Fe36  1  -0.00269385  0.25217768  0.49940053  1
  Fe  Fe37  1  0.87160713  0.62435553  0.87348756  1
  Fe  Fe38  1  0.24934318  -0.00179115  0.00073781  1
  Fe  Fe39  1  0.74628855  0.75220910  0.50181848  1
  Fe  Fe40  1  0.37249599  0.12467966  0.87548808  1
  Fe  Fe41  1  -0.00083780  0.50359025  0.25460174  1
  Fe  Fe42  1  0.12552361  0.12542430  0.87464126  1
  Fe  Fe43  1  0.37486049  0.37702513  0.87674743  1
  Fe  Fe44  1  0.12508813  0.12587345  0.62326512  1
  Fe  Fe45  1  0.12573617  0.12542092  0.37667404  1
  Fe  Fe46  1  0.37582486  0.62623806  0.37911175  1
  Fe  Fe47  1  0.37694106  0.87319800  0.87378486  1
  Fe  Fe48  1  0.12226604  0.87478438  0.62440485  1
  Fe  Fe49  1  0.62436250  0.37464159  0.87511259  1
  Fe  Fe50  1  0.37821703  0.37371255  0.12353506  1
  Fe  Fe51  1  -0.00257053  0.74831083  0.00193938  1
  Fe  Fe52  1  -0.00196835  0.24965865  0.00160144  1
  Fe  Fe53  1  -0.00075076  0.50177038  0.00096056  1
  Fe  Fe54  1  0.38232788  0.87408120  0.62282544  1
  Fe  Fe55  1  0.12510995  0.62727909  0.12902059  1
  Fe  Fe56  1  -0.00325728  0.24894139  0.74730127  1
  Fe  Fe57  1  0.87386336  0.87422734  0.87336390  1
  Fe  Fe58  1  0.50130995  0.24843949  0.75136561  1
  Fe  Fe59  1  0.25079308  0.24991226  0.74863279  1
  Fe  Fe60  1  0.25140308  -0.00095280  0.74689604  1
  Fe  Fe61  1  0.12467737  0.12550588  0.12574594  1
  Fe  Fe62  1  0.62602410  0.12559713  0.62309555  1
  Fe  Fe63  1  0.37690909  0.37453123  0.62303633  1
  Fe  Fe64  1  0.74820003  0.00379052  0.24810108  1
  Fe  Fe65  1  0.37622701  0.62512694  0.12516898  1
  Fe  Fe66  1  -0.00333388  0.00231657  0.74756860  1
  Fe  Fe67  1  0.37439213  0.12536973  0.37769294  1
  Fe  Fe68  1  0.12465135  0.37518600  0.12647683  1
  Fe  Fe69  1  0.87581596  0.37600847  0.87435783  1
  Fe  Fe70  1  0.24995628  0.50087862  0.74671003  1
  Fe  Fe71  1  0.25122647  0.50206910  0.25310841  1
  Fe  Fe72  1  0.25103515  0.75063033  0.00113468  1
  Fe  Fe73  1  0.62709147  0.62598222  0.87295278  1
  Fe  Fe74  1  0.50221317  0.24993722  0.49890119  1
  Fe  Fe75  1  0.12497783  0.86966155  0.37454822  1
  Fe  Fe76  1  0.37759874  0.87492528  0.12708625  1
  Fe  Fe77  1  0.50042138  0.50111688  0.25278437  1
  Fe  Fe78  1  0.24939607  0.50055123  0.00097432  1
  Fe  Fe79  1  0.12340463  0.87343249  0.87279256  1
  Fe  Fe80  1  0.50137814  0.50019610  0.74921907  1
  Fe  Fe81  1  -0.00515574  0.74722747  0.74464265  1
  Fe  Fe82  1  0.62663364  0.62458491  0.12729803  1
  Fe  Fe83  1  0.74942366  0.75158309  0.00104201  1
  Fe  Fe84  1  0.87262362  0.62552220  0.37898146  1
  Fe  Fe85  1  0.87699084  0.37471111  0.12913703  1
  Fe  Fe86  1  0.50235821  -0.00020239  -0.00101296  1
  Fe  Fe87  1  0.25101288  -0.00146657  0.25097529  1
  Fe  Fe88  1  0.12357200  0.62481827  0.61807520  1
  Fe  Fe89  1  0.37648220  0.12672092  0.12421472  1
  Co  Co90  1  0.25017428  0.25087502  0.00050400  1
  Co  Co91  1  0.75154518  0.25477464  0.00295356  1
  Co  Co92  1  0.87508673  0.87626729  0.62387391  1
  Co  Co93  1  0.37719282  0.12617222  0.62379483  1
  Co  Co94  1  0.75118657  -0.00394071  0.00371946  1
  Co  Co95  1  0.75023674  0.75330816  0.74607396  1
  Co  Co96  1  0.62398212  0.37519895  0.62574538  1
  Co  Co97  1  -0.00372811  0.75119745  0.50069906  1
  Co  Co98  1  0.74591182  0.49573102  0.49541286  1
  Co  Co99  1  0.87344369  0.37237585  0.37187391  1
  Co  Co100  1  0.50192628  0.00246423  0.49804617  1
  Co  Co101  1  0.62629824  0.87650093  0.37314764  1
  Co  Co102  1  0.50696323  0.74782625  0.49777171  1
  Co  Co103  1  0.50156244  0.74761356  0.75018326  1
  Co  Co104  1  0.62788134  0.12642663  0.37809729  1
  Co  Co105  1  0.25128036  0.75203800  0.50143945  1
  Co  Co106  1  0.50000445  0.24907819  -0.00350875  1
  Co  Co107  1  0.25054758  0.25034182  0.49946924  1
  Co  Co108  1  0.00273778  0.24892812  0.25182160  1
  Co  Co109  1  0.50502997  0.49951134  0.49893420  1
  Co  Co110  1  0.62362093  0.12627881  0.12083492  1
  Co  Co111  1  0.87176852  0.12519943  0.62204562  1
  Co  Co112  1  0.12503373  0.62881879  0.37690862  1
  Co  Co113  1  0.86916036  0.62051317  0.62143676  1
  Co  Co114  1  0.25055682  0.50059805  0.49935115  1
  Co  Co115  1  0.50282703  0.50136058  -0.00054643  1
  Co  Co116  1  0.87591795  0.12615299  0.12637385  1
  Co  Co117  1  0.75059703  0.74856986  0.25056896  1
  Co  Co118  1  0.62682163  0.62483871  0.37352140  1
  Co  Co119  1  0.74912248  0.49796077  0.75189233  1
  Co  Co120  1  0.62269725  0.37369873  0.37131121  1
  Co  Co121  1  -0.00196504  0.49799172  0.49741948  1
  Co  Co122  1  0.87211368  0.62273534  0.12489047  1
  Co  Co123  1  0.49997859  0.24617523  0.25278869  1
  Co  Co124  1  -0.00441593  0.74783950  0.25177024  1
  Co  Co125  1  0.25385820  0.74977412  0.25179104  1
  Co  Co126  1  0.61978910  0.87631588  0.62482711  1
  Co  Co127  1  0.62504631  0.87448535  0.87438044  1
