# generated using pymatgen
data_Fe45Co19
_symmetry_space_group_name_H-M   'P 1'
_cell_length_a   11.41478311
_cell_length_b   11.41474031
_cell_length_c   11.41527002
_cell_angle_alpha   90.00260427
_cell_angle_beta   89.99294605
_cell_angle_gamma   89.99429737
_symmetry_Int_Tables_number   1
_chemical_formula_structural   Fe45Co19
_chemical_formula_sum   'Fe90 Co38'
_cell_volume   1487.37296096
_cell_formula_units_Z   2
loop_
 _symmetry_equiv_pos_site_id
 _symmetry_equiv_pos_as_xyz
  1  'x, y, z'
loop_
 _atom_site_type_symbol
 _atom_site_label
 _atom_site_symmetry_multiplicity
 _atom_site_fract_x
 _atom_site_fract_y
 _atom_site_fract_z
 _atom_site_occupancy
  Fe  Fe0  1  0.62675358  0.87546943  0.12435625  1
  Fe  Fe1  1  -0.00080428  0.24888258  0.50027106  1
  Fe  Fe2  1  0.00230697  0.50174452  0.75320270  1
  Fe  Fe3  1  0.87654852  0.12422690  0.12627216  1
  Fe  Fe4  1  0.00123688  0.74657398  0.24974655  1
  Fe  Fe5  1  0.24643513  0.00107994  0.00452309  1
  Fe  Fe6  1  0.25064043  0.49789828  0.50252627  1
  Fe  Fe7  1  0.49996838  0.74949868  0.50009749  1
  Fe  Fe8  1  0.62361094  0.37658341  0.37357882  1
  Fe  Fe9  1  0.74885543  0.24846022  0.74899950  1
  Fe  Fe10  1  0.24825628  0.25036810  0.74767463  1
  Fe  Fe11  1  0.37570208  0.87630511  0.62577407  1
  Fe  Fe12  1  0.37095188  0.87494884  0.12930816  1
  Fe  Fe13  1  0.50036994  0.74890408  0.25007075  1
  Fe  Fe14  1  0.75114262  0.25047874  0.49994261  1
  Fe  Fe15  1  0.00212822  -0.00053084  -0.00101536  1
  Fe  Fe16  1  0.62383165  0.87529531  0.37719937  1
  Fe  Fe17  1  0.37270157  0.87485466  0.87527100  1
  Fe  Fe18  1  0.37530308  0.62541688  0.37397792  1
  Fe  Fe19  1  0.00318119  0.24694942  0.74947927  1
  Fe  Fe20  1  0.75058707  0.25041057  0.00232513  1
  Fe  Fe21  1  0.74860658  0.50036602  0.75031649  1
  Fe  Fe22  1  -0.00034274  0.75060081  0.49998717  1
  Fe  Fe23  1  0.49826445  0.25147498  0.50075118  1
  Fe  Fe24  1  0.12607814  0.37406232  0.37665145  1
  Fe  Fe25  1  0.49971787  0.49981905  0.49799315  1
  Fe  Fe26  1  0.62533695  0.62644965  0.87489372  1
  Fe  Fe27  1  -0.00240987  0.74575795  -0.00064121  1
  Fe  Fe28  1  0.37491277  0.12469770  0.62617715  1
  Fe  Fe29  1  0.24996295  0.24926239  0.24697420  1
  Fe  Fe30  1  0.74933394  0.50078039  0.25111525  1
  Fe  Fe31  1  0.25215251  -0.00047217  0.49674975  1
  Fe  Fe32  1  0.49852800  0.75137639  0.00120931  1
  Fe  Fe33  1  0.62299834  0.12638615  0.87914753  1
  Fe  Fe34  1  0.37327243  0.62552604  0.87440747  1
  Fe  Fe35  1  0.75392818  0.74788663  0.00055325  1
  Fe  Fe36  1  0.62601948  0.87779305  0.62418611  1
  Fe  Fe37  1  0.37416463  0.37470343  0.87473475  1
  Fe  Fe38  1  -0.00008802  0.74940083  0.75029587  1
  Fe  Fe39  1  0.12325595  0.37812758  0.12268519  1
  Fe  Fe40  1  0.37465255  0.12637070  0.37329500  1
  Fe  Fe41  1  0.24774950  0.50019615  0.74908685  1
  Fe  Fe42  1  0.37508982  0.12553823  0.87765372  1
  Fe  Fe43  1  -0.00043303  0.25179137  0.25083549  1
  Fe  Fe44  1  0.24942877  0.74850935  0.00264568  1
  Fe  Fe45  1  0.12985882  0.87317333  0.37061523  1
  Fe  Fe46  1  0.37572602  0.62235318  0.12412749  1
  Fe  Fe47  1  0.87536481  0.38105693  0.12318276  1
  Fe  Fe48  1  0.12233434  0.62093182  0.12313238  1
  Fe  Fe49  1  0.25132694  0.25269072  0.50331192  1
  Fe  Fe50  1  0.87331122  0.87863164  0.62884478  1
  Fe  Fe51  1  0.49921334  -0.00180844  0.00172686  1
  Fe  Fe52  1  0.12512656  0.87145593  0.87565720  1
  Fe  Fe53  1  0.87524584  0.12130268  0.62550495  1
  Fe  Fe54  1  -0.00032466  0.50005206  0.49966131  1
  Fe  Fe55  1  0.87381567  0.62380793  0.62564600  1
  Fe  Fe56  1  0.25149292  0.25022828  0.00243240  1
  Fe  Fe57  1  0.25147535  0.74970422  0.50155887  1
  Fe  Fe58  1  0.75163650  0.00024088  -0.00128375  1
  Fe  Fe59  1  0.87633967  0.37580939  0.62716217  1
  Fe  Fe60  1  0.62494397  0.12471973  0.37539603  1
  Fe  Fe61  1  0.49992336  0.25068628  0.75080508  1
  Fe  Fe62  1  0.12575926  0.62417577  0.37736671  1
  Fe  Fe63  1  0.62718841  0.87342925  0.87534278  1
  Fe  Fe64  1  0.25034013  0.49931855  0.24975153  1
  Fe  Fe65  1  0.74991754  0.74966732  0.24955577  1
  Fe  Fe66  1  0.87332433  0.62468425  0.37497558  1
  Fe  Fe67  1  0.75018887  0.24980851  0.24851098  1
  Fe  Fe68  1  0.50015945  0.49681753  0.00008296  1
  Fe  Fe69  1  0.62491222  0.12253312  0.62235320  1
  Fe  Fe70  1  0.00097748  0.00023753  0.49725977  1
  Fe  Fe71  1  0.62696793  0.37393759  0.87691684  1
  Fe  Fe72  1  0.62521222  0.62314415  0.12468524  1
  Fe  Fe73  1  0.12576206  0.87458191  0.62537611  1
  Fe  Fe74  1  0.62280624  0.37740144  0.62487102  1
  Fe  Fe75  1  0.50049934  0.75014883  0.74942252  1
  Fe  Fe76  1  0.75037107  0.00095540  0.25106442  1
  Fe  Fe77  1  0.87494152  0.87489417  0.37350548  1
  Fe  Fe78  1  0.00450642  0.00185585  0.25067747  1
  Fe  Fe79  1  0.87610428  0.12442349  0.87349792  1
  Fe  Fe80  1  0.49871322  -0.00064799  0.25024466  1
  Fe  Fe81  1  0.87729159  0.87446846  0.12502673  1
  Fe  Fe82  1  0.74886474  0.74875533  0.50162199  1
  Fe  Fe83  1  0.50140799  0.00073402  0.75104517  1
  Fe  Fe84  1  0.37641956  0.62273483  0.62744099  1
  Fe  Fe85  1  0.87422952  0.37626328  0.37542672  1
  Fe  Fe86  1  0.50059355  0.25244175  0.24452521  1
  Fe  Fe87  1  0.12487917  0.37464557  0.87594579  1
  Fe  Fe88  1  -0.00227988  0.25258771  -0.00092868  1
  Fe  Fe89  1  0.24675215  0.00083430  0.75162382  1
  Co  Co90  1  0.12621023  0.12822027  0.37645284  1
  Co  Co91  1  0.49997992  0.25435483  0.00268620  1
  Co  Co92  1  0.50067361  0.49969075  0.75467481  1
  Co  Co93  1  0.87208892  0.62531758  0.87118941  1
  Co  Co94  1  0.12617161  0.12750269  0.87797503  1
  Co  Co95  1  0.75187947  0.00042154  0.49780148  1
  Co  Co96  1  0.00414976  0.00070192  0.75226968  1
  Co  Co97  1  0.62556562  0.62414590  0.37454065  1
  Co  Co98  1  0.75034857  0.49883482  0.50000510  1
  Co  Co99  1  0.74829366  0.74995542  0.74822067  1
  Co  Co100  1  0.87570924  0.12554913  0.37385803  1
  Co  Co101  1  0.12207147  0.37535806  0.62480390  1
  Co  Co102  1  0.74762086  0.00172421  0.75285490  1
  Co  Co103  1  0.37515357  0.37367961  0.37356949  1
  Co  Co104  1  0.62479286  0.12331633  0.12414365  1
  Co  Co105  1  0.12397496  0.87165082  0.12641505  1
  Co  Co106  1  0.12138549  0.12939218  0.12355061  1
  Co  Co107  1  0.49852586  0.50015958  0.24920061  1
  Co  Co108  1  0.62763705  0.37803071  0.12457104  1
  Co  Co109  1  0.24855615  0.74369787  0.24750655  1
  Co  Co110  1  0.37793058  0.37727683  0.62746074  1
  Co  Co111  1  0.49647864  -0.00022191  0.49825369  1
  Co  Co112  1  0.12825947  0.62764826  0.87441952  1
  Co  Co113  1  0.00113636  0.49886859  0.25348570  1
  Co  Co114  1  0.37784657  0.12473783  0.12320107  1
  Co  Co115  1  0.12619849  0.12334457  0.62192990  1
  Co  Co116  1  0.87557891  0.87457625  0.87367256  1
  Co  Co117  1  0.87567873  0.62145346  0.12797714  1
  Co  Co118  1  0.24724556  0.00493547  0.24724252  1
  Co  Co119  1  0.62383738  0.62199915  0.62538121  1
  Co  Co120  1  -0.00184402  0.50205782  -0.00608551  1
  Co  Co121  1  0.37224804  0.87263024  0.37036217  1
  Co  Co122  1  0.87383844  0.37346836  0.87228012  1
  Co  Co123  1  0.37385803  0.37702214  0.12458378  1
  Co  Co124  1  0.25160804  0.75028222  0.74819148  1
  Co  Co125  1  0.75180395  0.50193277  -0.00190342  1
  Co  Co126  1  0.12432346  0.62610610  0.62438274  1
  Co  Co127  1  0.24967572  0.50008530  -0.00108138  1
