# generated using pymatgen
data_Fe45Co19
_symmetry_space_group_name_H-M   'P 1'
_cell_length_a   11.41671113
_cell_length_b   11.41454169
_cell_length_c   11.41714949
_cell_angle_alpha   90.00111393
_cell_angle_beta   90.00805036
_cell_angle_gamma   90.00816368
_symmetry_Int_Tables_number   1
_chemical_formula_structural   Fe45Co19
_chemical_formula_sum   'Fe90 Co38'
_cell_volume   1487.84321806
_cell_formula_units_Z   2
loop_
 _symmetry_equiv_pos_site_id
 _symmetry_equiv_pos_as_xyz
  1  'x, y, z'
loop_
 _atom_site_type_symbol
 _atom_site_label
 _atom_site_symmetry_multiplicity
 _atom_site_fract_x
 _atom_site_fract_y
 _atom_site_fract_z
 _atom_site_occupancy
  Fe  Fe0  1  0.87530279  0.62319349  0.87660579  1
  Fe  Fe1  1  0.74572283  0.25386606  0.74672154  1
  Fe  Fe2  1  0.87925284  0.62347152  0.12502120  1
  Fe  Fe3  1  0.37615833  0.12642214  0.37445445  1
  Fe  Fe4  1  0.00140041  0.00055033  0.25290584  1
  Fe  Fe5  1  0.12772440  0.37086532  0.87602549  1
  Fe  Fe6  1  0.62292009  0.12664666  0.12573085  1
  Fe  Fe7  1  0.37669515  0.12563063  0.12546643  1
  Fe  Fe8  1  0.50075351  -0.00285795  0.24732185  1
  Fe  Fe9  1  0.50036379  0.49796659  0.25160229  1
  Fe  Fe10  1  0.49908213  0.49943102  -0.00076179  1
  Fe  Fe11  1  0.00205099  0.49488055  0.25222349  1
  Fe  Fe12  1  -0.00081976  -0.00041003  0.49710961  1
  Fe  Fe13  1  0.12197175  0.13042209  0.12318025  1
  Fe  Fe14  1  0.87578943  0.87552473  0.12434779  1
  Fe  Fe15  1  0.12781042  0.87468500  0.12428720  1
  Fe  Fe16  1  0.25026045  0.74788310  0.74837421  1
  Fe  Fe17  1  0.00045180  0.49721917  0.00005944  1
  Fe  Fe18  1  -0.00077555  0.75364283  0.75359556  1
  Fe  Fe19  1  0.37404403  0.87451488  0.62384535  1
  Fe  Fe20  1  0.87477437  0.62461745  0.37279034  1
  Fe  Fe21  1  0.62562082  0.62358888  0.87647101  1
  Fe  Fe22  1  0.12394776  0.37280566  0.62190277  1
  Fe  Fe23  1  0.50034019  0.75049024  0.74915211  1
  Fe  Fe24  1  -0.00083154  0.25119785  0.75068285  1
  Fe  Fe25  1  0.62564931  0.62194067  0.37584345  1
  Fe  Fe26  1  0.00011324  -0.00283736  0.75414388  1
  Fe  Fe27  1  0.74319673  0.25100607  0.50285067  1
  Fe  Fe28  1  0.24882690  0.50051861  0.74665409  1
  Fe  Fe29  1  0.37424658  0.62401053  0.87475493  1
  Fe  Fe30  1  0.87475442  0.12627986  0.62508519  1
  Fe  Fe31  1  0.49976523  0.49964516  0.75090765  1
  Fe  Fe32  1  0.25047054  0.00399155  0.50133337  1
  Fe  Fe33  1  0.12617602  0.13066881  0.37597501  1
  Fe  Fe34  1  0.37284040  0.37187727  0.37809252  1
  Fe  Fe35  1  0.37927557  0.37221597  0.62405786  1
  Fe  Fe36  1  0.00014929  0.49816843  0.74949911  1
  Fe  Fe37  1  0.62198038  0.62350047  0.12466991  1
  Fe  Fe38  1  0.12467536  0.87537215  0.62489399  1
  Fe  Fe39  1  0.49885230  0.24902322  -0.00338105  1
  Fe  Fe40  1  0.75048748  -0.00054056  0.24808214  1
  Fe  Fe41  1  0.25020490  0.00680485  -0.00328949  1
  Fe  Fe42  1  0.50210938  0.25192455  0.25405153  1
  Fe  Fe43  1  0.00181613  -0.00221985  -0.00403399  1
  Fe  Fe44  1  0.49744338  0.75258825  0.00354826  1
  Fe  Fe45  1  0.37629762  0.37372199  0.12455357  1
  Fe  Fe46  1  0.87854749  0.12724542  0.12422569  1
  Fe  Fe47  1  0.12206265  0.12601034  0.62620194  1
  Fe  Fe48  1  0.62234676  0.12273153  0.87266105  1
  Fe  Fe49  1  0.75157239  0.74807945  0.00158634  1
  Fe  Fe50  1  0.24997361  0.00319086  0.75151255  1
  Fe  Fe51  1  0.62529088  0.87587858  0.87705639  1
  Fe  Fe52  1  0.25090051  0.74537488  0.00440581  1
  Fe  Fe53  1  0.37155911  0.87524770  0.37450948  1
  Fe  Fe54  1  -0.00059432  0.75268122  0.49780534  1
  Fe  Fe55  1  0.37168996  0.37223341  0.87307659  1
  Fe  Fe56  1  0.75191265  0.74988283  0.49953476  1
  Fe  Fe57  1  0.50138299  0.00236033  0.50026323  1
  Fe  Fe58  1  0.24915262  0.49991912  0.00276320  1
  Fe  Fe59  1  0.74970976  0.75030045  0.24929091  1
  Fe  Fe60  1  0.75102366  -0.00194109  0.74888441  1
  Fe  Fe61  1  0.24803809  0.00261363  0.25095184  1
  Fe  Fe62  1  0.25098994  0.50202761  0.50303078  1
  Fe  Fe63  1  0.74852945  0.25277609  0.24792235  1
  Fe  Fe64  1  0.87157597  0.12690153  0.37533002  1
  Fe  Fe65  1  0.49724344  0.75297126  0.24714321  1
  Fe  Fe66  1  0.62518780  0.87574501  0.62429750  1
  Fe  Fe67  1  0.37333037  0.62601819  0.37222014  1
  Fe  Fe68  1  0.62556689  0.87595874  0.37421133  1
  Fe  Fe69  1  0.12370550  0.36959640  0.12496488  1
  Fe  Fe70  1  0.12447596  0.62559375  0.87569332  1
  Fe  Fe71  1  0.87721633  0.62487817  0.62618724  1
  Fe  Fe72  1  0.62803141  0.37874642  0.87733928  1
  Fe  Fe73  1  0.24916336  0.74748224  0.50134305  1
  Fe  Fe74  1  0.87473298  0.12530676  0.87450711  1
  Fe  Fe75  1  0.12585799  0.62421639  0.37477861  1
  Fe  Fe76  1  0.24843478  0.49895129  0.24815218  1
  Fe  Fe77  1  0.75073948  0.25092183  0.00161885  1
  Fe  Fe78  1  0.00283741  0.75247494  0.25105198  1
  Fe  Fe79  1  0.87288652  0.37229747  0.37599939  1
  Fe  Fe80  1  0.87185057  0.37650877  0.87512263  1
  Fe  Fe81  1  0.74871649  0.00129541  0.00154961  1
  Fe  Fe82  1  0.75020832  0.74900867  0.74910789  1
  Fe  Fe83  1  0.49944726  0.74797388  0.49974593  1
  Fe  Fe84  1  0.38149293  0.12913293  0.62987060  1
  Fe  Fe85  1  0.62446588  0.61959101  0.62248164  1
  Fe  Fe86  1  0.74978942  -0.00036605  0.50048732  1
  Fe  Fe87  1  0.74882200  0.49701140  0.24642677  1
  Fe  Fe88  1  -0.00153140  0.49774846  0.49889305  1
  Fe  Fe89  1  0.37356425  0.87652415  0.87731156  1
  Co  Co90  1  0.87566484  0.37310141  0.62513829  1
  Co  Co91  1  0.49459835  0.50250094  0.49711141  1
  Co  Co92  1  0.37798010  0.62071850  0.12632347  1
  Co  Co93  1  0.36840990  0.87908091  0.12420595  1
  Co  Co94  1  -0.00033829  0.24956597  0.49820401  1
  Co  Co95  1  0.24981182  0.74741836  0.24724098  1
  Co  Co96  1  0.25341606  0.24719601  0.00029523  1
  Co  Co97  1  0.12024807  0.62596291  0.62544037  1
  Co  Co98  1  0.75092822  0.50071897  0.00464464  1
  Co  Co99  1  0.37900526  0.12652582  0.86982231  1
  Co  Co100  1  0.50563019  0.24659491  0.49791659  1
  Co  Co101  1  0.62113348  0.38271863  0.62019506  1
  Co  Co102  1  0.12321429  0.13007611  0.87484229  1
  Co  Co103  1  0.50004231  0.00005896  0.00161837  1
  Co  Co104  1  -0.00033361  0.75269217  -0.00125586  1
  Co  Co105  1  0.24852961  0.24870519  0.74751057  1
  Co  Co106  1  0.75582004  0.49967127  0.50077481  1
  Co  Co107  1  0.37700632  0.62481539  0.62748658  1
  Co  Co108  1  0.50654670  0.25584294  0.75113826  1
  Co  Co109  1  0.12082135  0.62406871  0.12537509  1
  Co  Co110  1  0.87042888  0.87568703  0.87691731  1
  Co  Co111  1  0.13106727  0.87235298  0.87590193  1
  Co  Co112  1  0.62703089  0.12231019  0.37113488  1
  Co  Co113  1  0.62141648  0.37400350  0.12289886  1
  Co  Co114  1  0.87329880  0.87610540  0.37333652  1
  Co  Co115  1  -0.00056514  0.25045500  0.25398336  1
  Co  Co116  1  0.12957840  0.37315619  0.37818390  1
  Co  Co117  1  0.87634968  0.87580628  0.62469725  1
  Co  Co118  1  0.12922620  0.87447996  0.37616258  1
  Co  Co119  1  0.75093898  0.50079909  0.74803127  1
  Co  Co120  1  0.25184433  0.24648988  0.50313076  1
  Co  Co121  1  0.87751982  0.37420162  0.12526213  1
  Co  Co122  1  0.25072882  0.24976854  0.24865122  1
  Co  Co123  1  -0.00328730  0.25222521  -0.00354221  1
  Co  Co124  1  0.49844262  -0.00502891  0.75022419  1
  Co  Co125  1  0.62568246  0.37913371  0.37847293  1
  Co  Co126  1  0.62332059  0.12223215  0.62948729  1
  Co  Co127  1  0.62760053  0.87477784  0.12411109  1
