# generated using pymatgen
data_Fe45Co19
_symmetry_space_group_name_H-M   'P 1'
_cell_length_a   11.41688275
_cell_length_b   11.41434821
_cell_length_c   11.41575543
_cell_angle_alpha   89.98964773
_cell_angle_beta   90.00568393
_cell_angle_gamma   90.00205408
_symmetry_Int_Tables_number   1
_chemical_formula_structural   Fe45Co19
_chemical_formula_sum   'Fe90 Co38'
_cell_volume   1487.65869382
_cell_formula_units_Z   2
loop_
 _symmetry_equiv_pos_site_id
 _symmetry_equiv_pos_as_xyz
  1  'x, y, z'
loop_
 _atom_site_type_symbol
 _atom_site_label
 _atom_site_symmetry_multiplicity
 _atom_site_fract_x
 _atom_site_fract_y
 _atom_site_fract_z
 _atom_site_occupancy
  Fe  Fe0  1  0.49698181  0.25102196  0.00129383  1
  Fe  Fe1  1  0.49912146  0.74972454  0.50202420  1
  Fe  Fe2  1  0.49522297  0.49801022  -0.00293494  1
  Fe  Fe3  1  0.37733316  0.87536255  0.87373246  1
  Fe  Fe4  1  0.12583318  0.12408573  0.62383757  1
  Fe  Fe5  1  0.74976945  -0.00296210  0.75264575  1
  Fe  Fe6  1  0.87428372  0.37533987  0.37023310  1
  Fe  Fe7  1  0.12420917  0.37621272  0.37668736  1
  Fe  Fe8  1  0.25013187  -0.00092057  -0.00109557  1
  Fe  Fe9  1  0.37404326  0.12549139  0.87343185  1
  Fe  Fe10  1  0.87536308  0.12592643  0.87456423  1
  Fe  Fe11  1  0.62238933  0.37265849  0.87345367  1
  Fe  Fe12  1  0.37511069  0.87329356  0.37474845  1
  Fe  Fe13  1  -0.00034068  -0.00093246  0.74842871  1
  Fe  Fe14  1  0.12659693  0.37606914  0.12522546  1
  Fe  Fe15  1  0.37481368  0.62122736  0.62557216  1
  Fe  Fe16  1  -0.00123091  0.49815157  0.00132654  1
  Fe  Fe17  1  0.12653821  0.62393982  0.87603488  1
  Fe  Fe18  1  0.62391410  0.37365621  0.62769633  1
  Fe  Fe19  1  0.87459892  0.62546209  0.62524454  1
  Fe  Fe20  1  0.24996341  0.74763956  0.25105429  1
  Fe  Fe21  1  0.62421925  0.87379776  0.37555541  1
  Fe  Fe22  1  0.25111392  0.75034828  -0.00003004  1
  Fe  Fe23  1  -0.00159313  0.75213604  0.50076200  1
  Fe  Fe24  1  0.12274619  0.62326902  0.37867548  1
  Fe  Fe25  1  0.75161287  0.74975510  0.49881500  1
  Fe  Fe26  1  0.49920449  0.50000933  0.49943891  1
  Fe  Fe27  1  -0.00026987  0.25049905  0.74924035  1
  Fe  Fe28  1  0.25015914  0.50104400  0.25212809  1
  Fe  Fe29  1  0.75073198  0.00077841  0.49468490  1
  Fe  Fe30  1  0.12506148  0.87494673  0.12667422  1
  Fe  Fe31  1  0.49866026  0.75026068  0.00069285  1
  Fe  Fe32  1  0.62600950  0.37478629  0.37317740  1
  Fe  Fe33  1  0.37246912  0.12610403  0.12712027  1
  Fe  Fe34  1  0.00298455  0.24892178  0.25077200  1
  Fe  Fe35  1  0.87247898  0.37336559  0.62859971  1
  Fe  Fe36  1  0.87324140  0.12484864  0.12792967  1
  Fe  Fe37  1  0.50241504  0.25080408  0.24755933  1
  Fe  Fe38  1  0.87368754  0.87721095  0.12733647  1
  Fe  Fe39  1  -0.00018255  -0.00177379  0.49766812  1
  Fe  Fe40  1  0.74903440  0.74771975  0.24997704  1
  Fe  Fe41  1  0.50199647  0.75059346  0.74771087  1
  Fe  Fe42  1  0.24905421  0.75062999  0.74821155  1
  Fe  Fe43  1  0.37554884  0.37446503  0.37356041  1
  Fe  Fe44  1  -0.00076706  0.75008212  0.00052930  1
  Fe  Fe45  1  0.75281720  0.25288792  0.00069254  1
  Fe  Fe46  1  0.50045588  0.25016076  0.50252656  1
  Fe  Fe47  1  0.50159634  -0.00018084  0.74837177  1
  Fe  Fe48  1  0.62332369  0.62079150  0.12344876  1
  Fe  Fe49  1  -0.00190974  0.25138807  0.00052725  1
  Fe  Fe50  1  -0.00034940  0.74825949  0.25115097  1
  Fe  Fe51  1  0.74984231  0.75389760  0.75169019  1
  Fe  Fe52  1  0.50121557  0.74883460  0.24887954  1
  Fe  Fe53  1  0.25220364  0.25289401  0.00044854  1
  Fe  Fe54  1  0.75211977  0.49861821  0.49914975  1
  Fe  Fe55  1  0.62501444  0.62368891  0.37519066  1
  Fe  Fe56  1  0.12648396  0.37765013  0.62338534  1
  Fe  Fe57  1  0.50051622  -0.00013625  0.49998379  1
  Fe  Fe58  1  0.37533666  0.12649749  0.37448886  1
  Fe  Fe59  1  0.24792887  0.00135182  0.25300383  1
  Fe  Fe60  1  -0.00221700  0.25137478  0.50034583  1
  Fe  Fe61  1  0.12557477  0.37594839  0.87544169  1
  Fe  Fe62  1  0.24851784  -0.00211116  0.49894740  1
  Fe  Fe63  1  0.37348417  0.12365568  0.62499522  1
  Fe  Fe64  1  0.00041878  0.50061458  0.74900958  1
  Fe  Fe65  1  0.12615774  0.12595198  0.87403156  1
  Fe  Fe66  1  0.87488566  0.62220346  0.12637712  1
  Fe  Fe67  1  0.87577543  0.62453841  0.87464637  1
  Fe  Fe68  1  0.62723151  0.12378743  0.12297588  1
  Fe  Fe69  1  0.12634300  0.62361637  0.12313147  1
  Fe  Fe70  1  0.12498640  0.62237577  0.62285203  1
  Fe  Fe71  1  0.25101274  0.25178809  0.74774765  1
  Fe  Fe72  1  0.37556508  0.62233335  0.12580636  1
  Fe  Fe73  1  -0.00009165  0.00044737  0.00035381  1
  Fe  Fe74  1  0.12694867  0.12594173  0.12470687  1
  Fe  Fe75  1  0.25125302  0.25155250  0.50022315  1
  Fe  Fe76  1  0.62620891  0.87810877  0.12212713  1
  Fe  Fe77  1  0.12256231  0.87449153  0.87329665  1
  Fe  Fe78  1  0.50211621  0.00094966  0.24965977  1
  Fe  Fe79  1  0.25085073  0.75033276  0.50080663  1
  Fe  Fe80  1  0.75179686  0.49630283  0.00033417  1
  Fe  Fe81  1  0.00155779  0.00103949  0.25388381  1
  Fe  Fe82  1  0.62633382  0.62458153  0.62440515  1
  Fe  Fe83  1  0.37417539  0.87616365  0.12652993  1
  Fe  Fe84  1  0.62472299  0.12459369  0.87735515  1
  Fe  Fe85  1  0.74871067  0.49937391  0.75137347  1
  Fe  Fe86  1  0.62422138  0.62571359  0.87607520  1
  Fe  Fe87  1  0.62844296  0.12619392  0.62301995  1
  Fe  Fe88  1  0.75098724  0.75203133  -0.00089544  1
  Fe  Fe89  1  0.87245984  0.12591765  0.62369986  1
  Co  Co90  1  0.37647849  0.37302672  0.87002345  1
  Co  Co91  1  0.25384109  0.49845728  -0.00084988  1
  Co  Co92  1  0.37410817  0.37583862  0.12863818  1
  Co  Co93  1  0.75062324  0.25250631  0.49842066  1
  Co  Co94  1  0.50023871  0.24532853  0.74740469  1
  Co  Co95  1  0.37689538  0.62649858  0.37538900  1
  Co  Co96  1  0.87556163  0.12856129  0.37409796  1
  Co  Co97  1  0.62347873  0.37752783  0.12351316  1
  Co  Co98  1  0.87420713  0.87395683  0.37284419  1
  Co  Co99  1  0.12572063  0.87228366  0.37468108  1
  Co  Co100  1  0.12401245  0.87591613  0.62592267  1
  Co  Co101  1  0.37489652  0.87624881  0.62476002  1
  Co  Co102  1  0.12505421  0.12680871  0.37864650  1
  Co  Co103  1  0.74696705  0.00197693  0.25370050  1
  Co  Co104  1  0.62160122  0.87544572  0.87823322  1
  Co  Co105  1  0.00004738  0.74788269  0.74833217  1
  Co  Co106  1  0.75279107  -0.00096730  -0.00244667  1
  Co  Co107  1  0.49654966  0.00185160  0.00159336  1
  Co  Co108  1  0.00221246  0.50221393  0.24962842  1
  Co  Co109  1  0.74639846  0.24945921  0.24860448  1
  Co  Co110  1  0.62705238  0.87574936  0.62209751  1
  Co  Co111  1  0.87643305  0.37577388  0.87246189  1
  Co  Co112  1  0.37779959  0.37700837  0.62673104  1
  Co  Co113  1  0.25313269  0.49908161  0.49836017  1
  Co  Co114  1  0.24951007  0.49917329  0.75039267  1
  Co  Co115  1  0.74856487  0.50150733  0.24945356  1
  Co  Co116  1  0.37420966  0.62728906  0.87287501  1
  Co  Co117  1  0.24972995  -0.00102323  0.75096139  1
  Co  Co118  1  0.50014209  0.50038205  0.25207754  1
  Co  Co119  1  0.50101969  0.50238380  0.75123800  1
  Co  Co120  1  0.87361306  0.87572781  0.62386290  1
  Co  Co121  1  0.24741595  0.25021559  0.25199658  1
  Co  Co122  1  0.62299012  0.12806334  0.37616001  1
  Co  Co123  1  0.87601165  0.37464857  0.12979097  1
  Co  Co124  1  0.87886448  0.87399207  0.87508658  1
  Co  Co125  1  -0.00483729  0.49742704  0.50166636  1
  Co  Co126  1  0.74923222  0.24889657  0.75229204  1
  Co  Co127  1  0.87557962  0.62340446  0.37516270  1
