# generated using pymatgen
data_Fe45Co19
_symmetry_space_group_name_H-M   'P 1'
_cell_length_a   11.41460374
_cell_length_b   11.41566445
_cell_length_c   11.41399339
_cell_angle_alpha   89.99758257
_cell_angle_beta   90.00121701
_cell_angle_gamma   89.99277907
_symmetry_Int_Tables_number   1
_chemical_formula_structural   Fe45Co19
_chemical_formula_sum   'Fe90 Co38'
_cell_volume   1487.30366069
_cell_formula_units_Z   2
loop_
 _symmetry_equiv_pos_site_id
 _symmetry_equiv_pos_as_xyz
  1  'x, y, z'
loop_
 _atom_site_type_symbol
 _atom_site_label
 _atom_site_symmetry_multiplicity
 _atom_site_fract_x
 _atom_site_fract_y
 _atom_site_fract_z
 _atom_site_occupancy
  Fe  Fe0  1  0.74805240  0.25428483  -0.00076546  1
  Fe  Fe1  1  0.25139662  -0.00213885  0.49932425  1
  Fe  Fe2  1  0.50130708  0.75028807  0.74753402  1
  Fe  Fe3  1  0.37803018  0.37395837  0.12943126  1
  Fe  Fe4  1  0.74682433  0.49748104  0.49779958  1
  Fe  Fe5  1  0.24864442  0.25331655  0.49826253  1
  Fe  Fe6  1  0.62413273  0.12495059  0.87606800  1
  Fe  Fe7  1  0.87356789  0.37738712  0.12471756  1
  Fe  Fe8  1  -0.00224271  0.74635446  0.74759413  1
  Fe  Fe9  1  0.62549799  0.87313098  0.37712497  1
  Fe  Fe10  1  0.87569540  0.87403308  0.37280277  1
  Fe  Fe11  1  0.24995132  -0.00129022  0.00024805  1
  Fe  Fe12  1  0.75076244  0.00076530  0.74874096  1
  Fe  Fe13  1  0.50629593  0.49853215  0.00437525  1
  Fe  Fe14  1  0.12336281  0.12699898  0.88117303  1
  Fe  Fe15  1  0.24718625  0.25123693  0.24952938  1
  Fe  Fe16  1  0.49528157  -0.00393348  0.50173644  1
  Fe  Fe17  1  0.75133590  0.24896328  0.25250846  1
  Fe  Fe18  1  0.62440398  0.62659231  0.37716243  1
  Fe  Fe19  1  0.87570648  0.87280169  0.87422970  1
  Fe  Fe20  1  0.87275138  0.37496719  0.62356196  1
  Fe  Fe21  1  0.37459639  0.12634519  0.37585433  1
  Fe  Fe22  1  0.24825161  0.00150969  0.25030345  1
  Fe  Fe23  1  0.00213765  0.50019426  0.24755361  1
  Fe  Fe24  1  0.37496102  0.62573796  0.12453821  1
  Fe  Fe25  1  0.49930313  0.00048532  0.74654081  1
  Fe  Fe26  1  0.87804524  0.12772761  0.37709241  1
  Fe  Fe27  1  0.12227876  0.87443788  0.37272072  1
  Fe  Fe28  1  0.50195238  0.25146194  0.00208294  1
  Fe  Fe29  1  0.25091688  0.49710341  0.49711051  1
  Fe  Fe30  1  0.87933338  0.37320167  0.37472333  1
  Fe  Fe31  1  -0.00062757  0.00142489  0.75075732  1
  Fe  Fe32  1  0.75275341  -0.00166303  0.49925736  1
  Fe  Fe33  1  0.25048565  0.25003613  0.75222956  1
  Fe  Fe34  1  0.25074698  0.00244694  0.74981309  1
  Fe  Fe35  1  0.62030928  0.37541218  0.36934247  1
  Fe  Fe36  1  -0.00096695  0.25085515  0.75048025  1
  Fe  Fe37  1  -0.00135071  0.74601361  0.00285297  1
  Fe  Fe38  1  0.12495507  0.62328091  0.87707215  1
  Fe  Fe39  1  0.12403375  0.62559939  0.37405560  1
  Fe  Fe40  1  0.87001097  0.62225236  0.12625327  1
  Fe  Fe41  1  0.37640121  0.87570956  0.12680560  1
  Fe  Fe42  1  0.12433056  0.12494840  0.62361628  1
  Fe  Fe43  1  0.87355088  0.87582015  0.12777285  1
  Fe  Fe44  1  -0.00253047  0.75067571  0.50135110  1
  Fe  Fe45  1  -0.00043303  0.50114616  0.75133913  1
  Fe  Fe46  1  0.62461492  0.12408777  0.37733159  1
  Fe  Fe47  1  0.75001823  -0.00177733  -0.00087815  1
  Fe  Fe48  1  0.62557429  0.87563253  0.87313621  1
  Fe  Fe49  1  0.75126436  0.74855908  0.74347140  1
  Fe  Fe50  1  0.75001633  0.24942942  0.75060399  1
  Fe  Fe51  1  0.25019484  0.74701677  0.75127527  1
  Fe  Fe52  1  0.87579944  0.12507672  0.87888646  1
  Fe  Fe53  1  0.87543169  0.12648349  0.62175628  1
  Fe  Fe54  1  0.62850331  0.12515492  0.12501503  1
  Fe  Fe55  1  0.62584970  0.12584999  0.62226479  1
  Fe  Fe56  1  0.50057818  0.24981591  0.74869325  1
  Fe  Fe57  1  0.37606437  0.62438384  0.62345457  1
  Fe  Fe58  1  0.25049463  0.75041571  -0.00058466  1
  Fe  Fe59  1  -0.00099070  0.00506337  0.24639399  1
  Fe  Fe60  1  0.37639962  0.87611207  0.87403419  1
  Fe  Fe61  1  0.87427148  0.37868630  0.87758822  1
  Fe  Fe62  1  0.12332156  0.87400663  0.12614063  1
  Fe  Fe63  1  0.25019037  0.74975896  0.25072286  1
  Fe  Fe64  1  0.24894163  0.49811997  0.25079902  1
  Fe  Fe65  1  0.00147444  0.49824276  0.49973740  1
  Fe  Fe66  1  0.37430810  0.12445107  0.12459759  1
  Fe  Fe67  1  0.24997849  0.49861586  0.00169026  1
  Fe  Fe68  1  0.25225474  0.75221692  0.49837374  1
  Fe  Fe69  1  0.50217640  0.75015786  0.00048941  1
  Fe  Fe70  1  0.12562691  0.62389736  0.62329902  1
  Fe  Fe71  1  0.50161086  0.74832729  0.25001197  1
  Fe  Fe72  1  0.74830916  0.50107941  0.74895004  1
  Fe  Fe73  1  0.37697546  0.62242390  0.87611239  1
  Fe  Fe74  1  0.62704372  0.62432902  0.87507709  1
  Fe  Fe75  1  0.37687603  0.12445816  0.87722350  1
  Fe  Fe76  1  0.50065667  0.25329004  0.49938302  1
  Fe  Fe77  1  0.37458947  0.37500026  0.62493792  1
  Fe  Fe78  1  0.12410719  0.37509307  0.87922526  1
  Fe  Fe79  1  0.87429457  0.62528678  0.37513143  1
  Fe  Fe80  1  0.12570407  0.37609011  0.62637781  1
  Fe  Fe81  1  0.12462648  0.87567013  0.62506512  1
  Fe  Fe82  1  0.50142654  0.00191583  0.24991037  1
  Fe  Fe83  1  0.37739675  0.37668934  0.87472273  1
  Fe  Fe84  1  0.62600855  0.87569223  0.12681887  1
  Fe  Fe85  1  0.12142362  0.12796564  0.37587163  1
  Fe  Fe86  1  0.50273105  0.49948301  0.74662834  1
  Fe  Fe87  1  0.12231101  0.87445281  0.87577266  1
  Fe  Fe88  1  0.74915831  0.74889465  0.00149499  1
  Fe  Fe89  1  0.37738197  0.62452097  0.37620821  1
  Co  Co90  1  0.62748323  0.37276668  0.62590587  1
  Co  Co91  1  0.50108428  0.49605461  0.49979568  1
  Co  Co92  1  0.12167031  0.37357373  0.37262924  1
  Co  Co93  1  0.00153831  0.25244414  0.50347789  1
  Co  Co94  1  -0.00191559  0.74709297  0.24831374  1
  Co  Co95  1  0.75405436  0.75044839  0.50188443  1
  Co  Co96  1  0.87438623  0.61985277  0.62252873  1
  Co  Co97  1  0.74486842  0.49846752  0.00022590  1
  Co  Co98  1  0.75020056  0.00140450  0.25305833  1
  Co  Co99  1  0.50124587  -0.00031198  0.00139521  1
  Co  Co100  1  0.50125412  0.24403015  0.24982105  1
  Co  Co101  1  0.49725804  0.75273036  0.50098386  1
  Co  Co102  1  0.12678057  0.12769937  0.12044143  1
  Co  Co103  1  0.12367762  0.37394279  0.12245785  1
  Co  Co104  1  -0.00386963  0.25010542  0.00281248  1
  Co  Co105  1  0.86949413  0.12552097  0.12284602  1
  Co  Co106  1  0.74854680  0.25284342  0.49608896  1
  Co  Co107  1  0.25487916  0.25245200  -0.00067221  1
  Co  Co108  1  0.62860399  0.62469577  0.12745109  1
  Co  Co109  1  0.25007959  0.50036143  0.75085507  1
  Co  Co110  1  0.62579691  0.37382732  0.13177699  1
  Co  Co111  1  -0.00051754  -0.00073680  0.49835117  1
  Co  Co112  1  0.74930996  0.74980930  0.25175812  1
  Co  Co113  1  -0.00196367  -0.00082399  0.00234144  1
  Co  Co114  1  0.12793992  0.62498287  0.12664862  1
  Co  Co115  1  0.62404674  0.62532066  0.62032052  1
  Co  Co116  1  0.62631421  0.87644561  0.62315659  1
  Co  Co117  1  0.75003747  0.49916110  0.25420748  1
  Co  Co118  1  0.37196736  0.87305793  0.62835165  1
  Co  Co119  1  0.49967376  0.50483094  0.24871440  1
  Co  Co120  1  0.37421303  0.12817990  0.62205894  1
  Co  Co121  1  0.87133210  0.62443205  0.87541141  1
  Co  Co122  1  0.00004202  0.50404447  0.00149937  1
  Co  Co123  1  0.37808778  0.37412136  0.37113584  1
  Co  Co124  1  0.87644602  0.87783002  0.62626657  1
  Co  Co125  1  0.62457392  0.37502764  0.87222755  1
  Co  Co126  1  -0.00085608  0.24813518  0.24515957  1
  Co  Co127  1  0.37585707  0.87521501  0.37041886  1
