# generated using pymatgen
data_Fe45Co19
_symmetry_space_group_name_H-M   'P 1'
_cell_length_a   11.41516997
_cell_length_b   11.41506373
_cell_length_c   11.41552339
_cell_angle_alpha   90.00225619
_cell_angle_beta   90.00933471
_cell_angle_gamma   90.00169654
_symmetry_Int_Tables_number   1
_chemical_formula_structural   Fe45Co19
_chemical_formula_sum   'Fe90 Co38'
_cell_volume   1487.49852952
_cell_formula_units_Z   2
loop_
 _symmetry_equiv_pos_site_id
 _symmetry_equiv_pos_as_xyz
  1  'x, y, z'
loop_
 _atom_site_type_symbol
 _atom_site_label
 _atom_site_symmetry_multiplicity
 _atom_site_fract_x
 _atom_site_fract_y
 _atom_site_fract_z
 _atom_site_occupancy
  Fe  Fe0  1  0.12347852  0.12437323  0.62817066  1
  Fe  Fe1  1  0.12390721  0.12322715  0.37440609  1
  Fe  Fe2  1  0.24899845  0.74965741  0.25256584  1
  Fe  Fe3  1  0.25149231  0.24623060  0.24792801  1
  Fe  Fe4  1  0.75057371  0.24871341  0.49770882  1
  Fe  Fe5  1  0.75149575  0.24902526  0.75314531  1
  Fe  Fe6  1  0.37309955  0.37275680  0.87731225  1
  Fe  Fe7  1  0.00006248  0.75395644  0.75088256  1
  Fe  Fe8  1  0.25239389  0.74605880  0.49652353  1
  Fe  Fe9  1  0.62283296  0.87134958  0.62529325  1
  Fe  Fe10  1  0.87604541  0.12338750  0.62488468  1
  Fe  Fe11  1  0.25372646  0.00271200  0.25131640  1
  Fe  Fe12  1  0.62456888  0.12310341  0.87496783  1
  Fe  Fe13  1  0.62163919  0.12128856  0.37413812  1
  Fe  Fe14  1  0.00037059  -0.00592604  0.24960301  1
  Fe  Fe15  1  0.49962475  0.25056521  0.49861905  1
  Fe  Fe16  1  0.37478617  0.62462731  0.87433608  1
  Fe  Fe17  1  0.37195886  0.37241914  0.12273901  1
  Fe  Fe18  1  0.87294884  0.87932073  0.87652493  1
  Fe  Fe19  1  0.49919770  0.75207413  -0.00242750  1
  Fe  Fe20  1  0.25153393  0.00378489  0.50113988  1
  Fe  Fe21  1  0.49808171  0.24804001  0.24891958  1
  Fe  Fe22  1  0.87608099  0.12163580  0.37570583  1
  Fe  Fe23  1  0.00403969  0.75793469  0.00031802  1
  Fe  Fe24  1  0.37302619  0.37428751  0.37469584  1
  Fe  Fe25  1  0.62391055  0.62673393  0.12525720  1
  Fe  Fe26  1  0.24876813  0.50092004  0.74995853  1
  Fe  Fe27  1  0.37700660  0.12890796  0.62584375  1
  Fe  Fe28  1  0.00280160  0.24658716  -0.00011376  1
  Fe  Fe29  1  0.75112200  0.24775478  0.24931320  1
  Fe  Fe30  1  0.12466144  0.62775784  0.87559691  1
  Fe  Fe31  1  0.12557713  0.37224568  0.87696896  1
  Fe  Fe32  1  0.75290592  0.49981344  0.24828290  1
  Fe  Fe33  1  0.62839239  0.37487557  0.87851946  1
  Fe  Fe34  1  0.12428966  0.62601858  0.62474525  1
  Fe  Fe35  1  0.62727531  0.87508437  0.87159033  1
  Fe  Fe36  1  0.24785199  0.50125189  0.00192238  1
  Fe  Fe37  1  0.00037898  0.49898385  0.75143903  1
  Fe  Fe38  1  0.49811271  0.50280880  0.50023372  1
  Fe  Fe39  1  0.62626587  0.37485458  0.37434071  1
  Fe  Fe40  1  0.49752078  0.75461491  0.25265281  1
  Fe  Fe41  1  0.49963897  0.49738137  0.24783493  1
  Fe  Fe42  1  0.25083526  0.75043767  0.74946576  1
  Fe  Fe43  1  0.62195978  0.62900991  0.63027317  1
  Fe  Fe44  1  -0.00024007  0.49786623  0.49886431  1
  Fe  Fe45  1  0.75139505  0.50109567  0.75308492  1
  Fe  Fe46  1  0.24558636  0.50208361  0.24710297  1
  Fe  Fe47  1  0.12614369  0.87625342  0.62451275  1
  Fe  Fe48  1  0.87629679  0.62591303  0.87663466  1
  Fe  Fe49  1  0.37709404  0.87165242  0.62142350  1
  Fe  Fe50  1  0.12491115  0.37507570  0.37340906  1
  Fe  Fe51  1  0.87735228  0.11940284  0.12226768  1
  Fe  Fe52  1  0.62455750  0.87587941  0.12566308  1
  Fe  Fe53  1  0.50075761  0.50158445  0.00060812  1
  Fe  Fe54  1  0.37568611  0.62642097  0.12622986  1
  Fe  Fe55  1  -0.00222033  0.25193061  0.25058446  1
  Fe  Fe56  1  0.00168476  0.75383605  0.49775815  1
  Fe  Fe57  1  0.37441687  0.37319587  0.62526306  1
  Fe  Fe58  1  0.62395717  0.12694145  0.62611909  1
  Fe  Fe59  1  0.00444914  0.75585008  0.25076662  1
  Fe  Fe60  1  0.25163423  0.24825147  0.75196366  1
  Fe  Fe61  1  0.74878467  0.75009512  0.49863290  1
  Fe  Fe62  1  0.24344151  0.00769656  -0.00096560  1
  Fe  Fe63  1  0.00194833  0.49947508  0.00205251  1
  Fe  Fe64  1  0.62768024  0.37323844  0.12245611  1
  Fe  Fe65  1  0.74884037  -0.00071964  0.50094539  1
  Fe  Fe66  1  0.37054010  0.88008252  0.87600835  1
  Fe  Fe67  1  0.49827103  -0.00077404  0.74915165  1
  Fe  Fe68  1  -0.00288390  0.25110714  0.75087485  1
  Fe  Fe69  1  0.87882511  0.62613889  0.37315630  1
  Fe  Fe70  1  0.74862670  0.74973922  -0.00094007  1
  Fe  Fe71  1  0.74999811  0.50232713  0.49931841  1
  Fe  Fe72  1  0.75017066  0.75331156  0.25194300  1
  Fe  Fe73  1  0.00061359  0.24966434  0.49961799  1
  Fe  Fe74  1  0.62198626  0.12246268  0.12427329  1
  Fe  Fe75  1  0.25105386  0.50238485  0.50008223  1
  Fe  Fe76  1  0.87691874  0.62583858  0.62533115  1
  Fe  Fe77  1  0.49966547  0.49878069  0.75162341  1
  Fe  Fe78  1  0.87834248  0.62892565  0.12531697  1
  Fe  Fe79  1  0.62338610  0.62469510  0.37217256  1
  Fe  Fe80  1  0.74989182  -0.00232753  0.24935004  1
  Fe  Fe81  1  0.87451772  0.87687233  0.62422744  1
  Fe  Fe82  1  0.12603757  0.37361400  0.62550628  1
  Fe  Fe83  1  0.37265380  0.87891068  0.12282571  1
  Fe  Fe84  1  0.24885354  0.74911704  0.00069968  1
  Fe  Fe85  1  0.87383520  0.37385159  0.12178775  1
  Fe  Fe86  1  0.62591893  0.37369354  0.62534667  1
  Fe  Fe87  1  0.87268781  0.37457992  0.62445693  1
  Fe  Fe88  1  0.49838709  0.24769870  -0.00102122  1
  Fe  Fe89  1  0.87648291  0.11946853  0.87732662  1
  Co  Co90  1  0.12265163  0.62828635  0.12403639  1
  Co  Co91  1  0.37582891  0.62270557  0.37007164  1
  Co  Co92  1  0.37756433  0.12532106  0.37713511  1
  Co  Co93  1  0.49928805  0.00140956  0.50356303  1
  Co  Co94  1  0.37656165  0.62624580  0.62839853  1
  Co  Co95  1  0.12142311  0.12427021  0.13006725  1
  Co  Co96  1  0.74932674  0.00086825  0.74759344  1
  Co  Co97  1  0.37551184  0.12300032  0.87528120  1
  Co  Co98  1  -0.00044256  -0.00383645  0.75003995  1
  Co  Co99  1  0.12913021  0.87851337  0.37689843  1
  Co  Co100  1  0.12206472  0.62383125  0.37519289  1
  Co  Co101  1  0.00102975  -0.00010876  0.50092058  1
  Co  Co102  1  0.50256581  -0.00267524  -0.00222928  1
  Co  Co103  1  0.62287478  0.87799973  0.37695371  1
  Co  Co104  1  0.74731877  -0.00111761  0.00188257  1
  Co  Co105  1  0.12595551  0.37190056  0.12426906  1
  Co  Co106  1  0.75106947  0.24450191  0.00067034  1
  Co  Co107  1  0.87371917  0.87533994  0.12337826  1
  Co  Co108  1  0.87330368  0.37487869  0.37585135  1
  Co  Co109  1  0.37756529  0.12223573  0.12109649  1
  Co  Co110  1  0.50068328  0.25077164  0.75266770  1
  Co  Co111  1  0.49948327  0.74554830  0.49560089  1
  Co  Co112  1  0.24764059  0.24791679  0.49942805  1
  Co  Co113  1  0.75429857  0.75010481  0.75042151  1
  Co  Co114  1  0.87445448  0.37512775  0.87891600  1
  Co  Co115  1  0.87407580  0.87601953  0.37654141  1
  Co  Co116  1  0.12976069  0.87682933  0.87221461  1
  Co  Co117  1  0.62423640  0.62660976  0.87299935  1
  Co  Co118  1  0.24718659  0.24347502  0.00050035  1
  Co  Co119  1  0.00621873  -0.00343611  0.00017551  1
  Co  Co120  1  0.12280184  0.12435603  0.86854598  1
  Co  Co121  1  0.49664996  -0.00182790  0.24927372  1
  Co  Co122  1  0.75010317  0.50490837  0.00180497  1
  Co  Co123  1  0.13092207  0.87718093  0.12652702  1
  Co  Co124  1  0.49513056  0.75331980  0.75545455  1
  Co  Co125  1  0.37533984  0.87749796  0.37790697  1
  Co  Co126  1  0.25303491  0.00047860  0.74529712  1
  Co  Co127  1  -0.00050901  0.49772131  0.24729783  1
