# generated using pymatgen
data_Fe45Co19
_symmetry_space_group_name_H-M   'P 1'
_cell_length_a   11.41598373
_cell_length_b   11.41609172
_cell_length_c   11.41490157
_cell_angle_alpha   89.99889232
_cell_angle_beta   89.99123514
_cell_angle_gamma   89.99405553
_symmetry_Int_Tables_number   1
_chemical_formula_structural   Fe45Co19
_chemical_formula_sum   'Fe90 Co38'
_cell_volume   1487.65749143
_cell_formula_units_Z   2
loop_
 _symmetry_equiv_pos_site_id
 _symmetry_equiv_pos_as_xyz
  1  'x, y, z'
loop_
 _atom_site_type_symbol
 _atom_site_label
 _atom_site_symmetry_multiplicity
 _atom_site_fract_x
 _atom_site_fract_y
 _atom_site_fract_z
 _atom_site_occupancy
  Fe  Fe0  1  0.62653775  0.12646036  0.37666537  1
  Fe  Fe1  1  -0.00110293  0.25093403  0.50307701  1
  Fe  Fe2  1  0.87291803  0.87715707  0.12539450  1
  Fe  Fe3  1  0.87526844  0.12375308  0.87473409  1
  Fe  Fe4  1  0.00057330  0.75453545  -0.00389614  1
  Fe  Fe5  1  0.25224610  0.50102154  0.74995590  1
  Fe  Fe6  1  0.74978221  0.00043080  0.50104540  1
  Fe  Fe7  1  0.62843185  0.37238752  0.11956211  1
  Fe  Fe8  1  0.24999870  0.00377465  0.50205201  1
  Fe  Fe9  1  0.74567685  0.50252667  0.75372256  1
  Fe  Fe10  1  0.62614613  0.37483710  0.62485363  1
  Fe  Fe11  1  0.74698001  0.00333751  -0.00024811  1
  Fe  Fe12  1  0.50339092  0.49899420  -0.00318493  1
  Fe  Fe13  1  0.87915079  0.12234123  0.12313763  1
  Fe  Fe14  1  0.24851663  0.24918541  0.25041084  1
  Fe  Fe15  1  0.87333201  0.87360000  0.62822606  1
  Fe  Fe16  1  0.37578768  0.87715773  0.12648941  1
  Fe  Fe17  1  0.87583535  0.12468016  0.37614641  1
  Fe  Fe18  1  0.74768893  0.74973418  0.50211789  1
  Fe  Fe19  1  0.12366677  0.62450993  0.62431142  1
  Fe  Fe20  1  0.37532830  0.37443144  0.87402104  1
  Fe  Fe21  1  0.12618115  0.87737535  0.37591990  1
  Fe  Fe22  1  0.37727083  0.12603679  0.12520087  1
  Fe  Fe23  1  0.37980805  0.62502635  0.62510536  1
  Fe  Fe24  1  0.12424972  0.12389348  0.87511036  1
  Fe  Fe25  1  -0.00080971  0.75133443  0.25120949  1
  Fe  Fe26  1  0.75254544  0.50026515  0.49906222  1
  Fe  Fe27  1  0.38133573  0.62743788  0.87349539  1
  Fe  Fe28  1  0.62111838  0.62603909  0.62679858  1
  Fe  Fe29  1  0.50173633  0.00344875  -0.00150749  1
  Fe  Fe30  1  0.25094185  0.24932602  -0.00123770  1
  Fe  Fe31  1  -0.00076870  0.49878996  -0.00282254  1
  Fe  Fe32  1  0.37562911  0.37461000  0.12439760  1
  Fe  Fe33  1  0.12356609  0.62344297  0.37688817  1
  Fe  Fe34  1  0.87247722  0.37473741  0.12140979  1
  Fe  Fe35  1  0.50084390  -0.00005362  0.25467175  1
  Fe  Fe36  1  0.74615848  0.74870387  -0.00039615  1
  Fe  Fe37  1  0.37737987  0.12878125  0.62352904  1
  Fe  Fe38  1  0.25062589  0.50183126  -0.00143342  1
  Fe  Fe39  1  0.12327482  0.62504143  0.12467956  1
  Fe  Fe40  1  0.62554715  0.87707748  0.12773909  1
  Fe  Fe41  1  0.12405181  0.37600956  0.12292874  1
  Fe  Fe42  1  0.12531215  0.87513162  0.62526350  1
  Fe  Fe43  1  0.49795206  0.49597885  0.49928430  1
  Fe  Fe44  1  0.25046928  0.00121409  -0.00007516  1
  Fe  Fe45  1  0.25033383  0.49974942  0.25060005  1
  Fe  Fe46  1  0.37680426  0.87505280  0.87678242  1
  Fe  Fe47  1  0.62614148  0.62528538  0.37441194  1
  Fe  Fe48  1  0.62946022  0.37251144  0.37630818  1
  Fe  Fe49  1  0.87594061  0.62570121  0.62644136  1
  Fe  Fe50  1  0.25311178  0.75075248  0.74883101  1
  Fe  Fe51  1  0.25175854  0.00016306  0.74773540  1
  Fe  Fe52  1  0.62418231  0.12459666  0.62515793  1
  Fe  Fe53  1  0.87020347  0.87476108  0.37228447  1
  Fe  Fe54  1  0.25270736  0.74895139  0.00118575  1
  Fe  Fe55  1  0.74995015  0.24912918  0.74892404  1
  Fe  Fe56  1  0.25195297  0.74944815  0.25124731  1
  Fe  Fe57  1  0.24951822  0.00177623  0.25041281  1
  Fe  Fe58  1  0.50034064  -0.00213513  0.74935030  1
  Fe  Fe59  1  0.25386917  0.49707934  0.49994356  1
  Fe  Fe60  1  0.25293732  0.74847414  0.49815540  1
  Fe  Fe61  1  0.37570216  0.12808480  0.37760708  1
  Fe  Fe62  1  0.12141718  0.12313440  0.37823948  1
  Fe  Fe63  1  0.24831764  0.24829741  0.74965920  1
  Fe  Fe64  1  0.87004182  0.37411267  0.87785427  1
  Fe  Fe65  1  0.12530455  0.62707998  0.87325656  1
  Fe  Fe66  1  0.87383095  0.62901783  0.87262364  1
  Fe  Fe67  1  0.00021849  0.25194682  0.75177526  1
  Fe  Fe68  1  0.49903531  0.75219662  0.25413347  1
  Fe  Fe69  1  -0.00412495  0.50042393  0.25255750  1
  Fe  Fe70  1  0.74601710  -0.00350760  0.75091009  1
  Fe  Fe71  1  0.37907535  0.87479340  0.61892156  1
  Fe  Fe72  1  -0.00026817  0.24977655  0.24913486  1
  Fe  Fe73  1  0.50208984  0.25201813  0.75187556  1
  Fe  Fe74  1  0.00007031  0.49968957  0.75101576  1
  Fe  Fe75  1  0.12185339  0.12376020  0.12205358  1
  Fe  Fe76  1  0.00110918  -0.00543930  0.75328162  1
  Fe  Fe77  1  0.62390608  0.62471641  0.12557117  1
  Fe  Fe78  1  0.12373900  0.37544330  0.37630255  1
  Fe  Fe79  1  0.12603281  0.37599112  0.62562783  1
  Fe  Fe80  1  0.75126488  0.24697747  0.24741107  1
  Fe  Fe81  1  0.87312948  0.37696372  0.62465434  1
  Fe  Fe82  1  0.75299340  0.50130223  0.25002914  1
  Fe  Fe83  1  0.87587615  0.62639844  0.12374796  1
  Fe  Fe84  1  0.50153487  0.49662463  0.25140050  1
  Fe  Fe85  1  -0.00109771  0.75136813  0.50066425  1
  Fe  Fe86  1  0.87725062  0.12226222  0.62694259  1
  Fe  Fe87  1  0.50120763  0.25159713  0.25003300  1
  Fe  Fe88  1  0.37729012  0.62342429  0.12724502  1
  Fe  Fe89  1  0.12529801  0.87614900  0.12444050  1
  Co  Co90  1  0.62900458  0.87537298  0.37484038  1
  Co  Co91  1  0.62959889  0.37123204  0.87814281  1
  Co  Co92  1  0.50019504  0.75104949  0.00493899  1
  Co  Co93  1  0.24732392  0.24925925  0.50075987  1
  Co  Co94  1  0.87404452  0.62799889  0.37683210  1
  Co  Co95  1  0.13107484  0.87462248  0.87409262  1
  Co  Co96  1  0.12065651  0.12318145  0.62659805  1
  Co  Co97  1  -0.00045762  0.25171244  -0.00190540  1
  Co  Co98  1  0.37438378  0.37195391  0.37355872  1
  Co  Co99  1  0.62322868  0.87387292  0.87691864  1
  Co  Co100  1  0.50221501  0.00220054  0.49804022  1
  Co  Co101  1  0.74920492  0.74740906  0.24750003  1
  Co  Co102  1  0.49923348  0.24841945  -0.00253592  1
  Co  Co103  1  0.37294810  0.87813990  0.37721575  1
  Co  Co104  1  0.74818621  0.50622448  -0.00235471  1
  Co  Co105  1  0.74561521  0.75046653  0.74855412  1
  Co  Co106  1  -0.00341160  -0.00388599  0.50077249  1
  Co  Co107  1  0.50062701  0.75534260  0.74772384  1
  Co  Co108  1  0.87271257  0.37120609  0.37564432  1
  Co  Co109  1  0.62511859  0.12585146  0.87132333  1
  Co  Co110  1  0.62007453  0.63003964  0.87260757  1
  Co  Co111  1  0.37603893  0.62201348  0.37347781  1
  Co  Co112  1  -0.00007977  -0.00175255  0.25033650  1
  Co  Co113  1  0.62050809  0.12562807  0.12653904  1
  Co  Co114  1  0.00046521  -0.00401150  -0.00371955  1
  Co  Co115  1  0.37407185  0.37155672  0.62703997  1
  Co  Co116  1  0.74922813  0.00473548  0.24911474  1
  Co  Co117  1  0.75122940  0.24748968  0.50394163  1
  Co  Co118  1  0.86889959  0.87421120  0.87497085  1
  Co  Co119  1  0.37528989  0.12377511  0.87298559  1
  Co  Co120  1  0.50192833  0.25241868  0.50086645  1
  Co  Co121  1  0.50228367  0.49574981  0.75115273  1
  Co  Co122  1  -0.00306000  0.49856467  0.49999671  1
  Co  Co123  1  0.00118674  0.75228674  0.75053937  1
  Co  Co124  1  0.74976864  0.24217380  0.00147037  1
  Co  Co125  1  0.62260586  0.87549693  0.62144105  1
  Co  Co126  1  0.12715091  0.37544553  0.87471135  1
  Co  Co127  1  0.50052882  0.74937871  0.49531096  1
