# generated using pymatgen
data_Fe45Co19
_symmetry_space_group_name_H-M   'P 1'
_cell_length_a   11.41526201
_cell_length_b   11.41536472
_cell_length_c   11.41476783
_cell_angle_alpha   90.00000039
_cell_angle_beta   90.00311571
_cell_angle_gamma   90.00242585
_symmetry_Int_Tables_number   1
_chemical_formula_structural   Fe45Co19
_chemical_formula_sum   'Fe90 Co38'
_cell_volume   1487.45130710
_cell_formula_units_Z   2
loop_
 _symmetry_equiv_pos_site_id
 _symmetry_equiv_pos_as_xyz
  1  'x, y, z'
loop_
 _atom_site_type_symbol
 _atom_site_label
 _atom_site_symmetry_multiplicity
 _atom_site_fract_x
 _atom_site_fract_y
 _atom_site_fract_z
 _atom_site_occupancy
  Fe  Fe0  1  -0.00332166  0.75089392  0.49975477  1
  Fe  Fe1  1  0.74925164  0.25252759  0.50104100  1
  Fe  Fe2  1  0.12501570  0.62502593  0.62343534  1
  Fe  Fe3  1  0.24949666  0.00003150  0.24771311  1
  Fe  Fe4  1  0.12420650  0.37673575  0.12489772  1
  Fe  Fe5  1  0.62439116  0.37630976  0.87282048  1
  Fe  Fe6  1  0.37261381  0.12257526  0.37670708  1
  Fe  Fe7  1  0.87466407  0.12390859  0.62593172  1
  Fe  Fe8  1  0.87301265  0.12404121  0.37432873  1
  Fe  Fe9  1  0.87351623  0.62014973  0.87484120  1
  Fe  Fe10  1  0.74843018  0.25010655  0.24887396  1
  Fe  Fe11  1  0.62213095  0.87071222  0.12458146  1
  Fe  Fe12  1  -0.00246803  0.49986713  0.49983996  1
  Fe  Fe13  1  0.74596781  0.50033537  0.74664163  1
  Fe  Fe14  1  0.12339271  0.37478684  0.62462258  1
  Fe  Fe15  1  0.62464995  0.62497365  0.61704719  1
  Fe  Fe16  1  0.75148572  -0.00532068  0.49913223  1
  Fe  Fe17  1  -0.00096075  -0.00096708  -0.00171069  1
  Fe  Fe18  1  0.24989262  0.50086152  0.24784300  1
  Fe  Fe19  1  0.87283857  0.12648937  0.12413310  1
  Fe  Fe20  1  0.50066285  0.74678381  0.74992971  1
  Fe  Fe21  1  0.00064542  0.24943017  0.24997781  1
  Fe  Fe22  1  0.87626201  0.87416525  0.87045905  1
  Fe  Fe23  1  0.50094482  -0.00129469  0.49630258  1
  Fe  Fe24  1  0.62289505  0.87228160  0.62301451  1
  Fe  Fe25  1  0.50091318  0.00076280  0.75151121  1
  Fe  Fe26  1  0.37304793  0.37803271  0.37458635  1
  Fe  Fe27  1  0.87513863  0.62496949  0.62585067  1
  Fe  Fe28  1  0.37647527  0.87503508  0.62500794  1
  Fe  Fe29  1  0.12525999  0.12667280  0.12160235  1
  Fe  Fe30  1  -0.00057481  0.24964797  0.75138151  1
  Fe  Fe31  1  0.24769560  0.00121612  0.74989350  1
  Fe  Fe32  1  0.62548273  0.12699815  0.12361428  1
  Fe  Fe33  1  0.12625039  0.12588361  0.87742050  1
  Fe  Fe34  1  0.50274218  0.50039174  -0.00045889  1
  Fe  Fe35  1  0.25214452  0.75322095  0.49924391  1
  Fe  Fe36  1  0.37615616  0.12410572  0.62368173  1
  Fe  Fe37  1  0.00111950  0.74874487  -0.00285191  1
  Fe  Fe38  1  0.12740603  0.62387834  0.37804033  1
  Fe  Fe39  1  0.87394795  0.62488460  0.12518417  1
  Fe  Fe40  1  0.87490461  0.37527914  0.37209351  1
  Fe  Fe41  1  0.62606739  0.12459605  0.87860313  1
  Fe  Fe42  1  0.25096930  0.49927248  0.74849397  1
  Fe  Fe43  1  0.00051219  0.00068077  0.24894969  1
  Fe  Fe44  1  0.37552020  0.62340599  0.87599528  1
  Fe  Fe45  1  0.62471909  0.87215292  0.87404805  1
  Fe  Fe46  1  0.12483480  0.62049482  0.87648110  1
  Fe  Fe47  1  0.74808751  -0.00023151  0.74899436  1
  Fe  Fe48  1  0.74855364  0.74849015  0.00040299  1
  Fe  Fe49  1  0.37532899  0.62373953  0.62234195  1
  Fe  Fe50  1  0.00021215  0.50246200  0.25028941  1
  Fe  Fe51  1  0.12553510  0.37682416  0.37591044  1
  Fe  Fe52  1  0.25386367  0.25561854  0.00047015  1
  Fe  Fe53  1  0.62673233  0.37635997  0.37823529  1
  Fe  Fe54  1  0.87221043  0.12582158  0.87584440  1
  Fe  Fe55  1  0.12715333  0.12477517  0.37757446  1
  Fe  Fe56  1  0.74626679  0.24985256  0.74943080  1
  Fe  Fe57  1  0.74808260  -0.00329758  0.25043400  1
  Fe  Fe58  1  0.87113109  0.62894466  0.37351037  1
  Fe  Fe59  1  0.37494542  0.12523136  0.87533731  1
  Fe  Fe60  1  0.49899848  -0.00192568  0.00003743  1
  Fe  Fe61  1  0.24886364  0.74859549  0.75190031  1
  Fe  Fe62  1  0.12598702  0.87386735  0.12175058  1
  Fe  Fe63  1  0.87521216  0.37500187  0.62780584  1
  Fe  Fe64  1  0.24964968  0.74864183  0.25033832  1
  Fe  Fe65  1  0.49956148  0.25259330  -0.00107129  1
  Fe  Fe66  1  0.38248540  0.37591778  0.62726809  1
  Fe  Fe67  1  0.75002952  -0.00325380  0.00139064  1
  Fe  Fe68  1  0.12450580  0.37871344  0.87503962  1
  Fe  Fe69  1  0.62318626  0.12593785  0.62178723  1
  Fe  Fe70  1  0.37548828  0.87193473  0.12520223  1
  Fe  Fe71  1  0.12105248  0.87447767  0.62952874  1
  Fe  Fe72  1  -0.00098839  0.24995474  0.49962034  1
  Fe  Fe73  1  -0.00035593  -0.00003379  0.50134285  1
  Fe  Fe74  1  0.50257817  -0.00001103  0.25241816  1
  Fe  Fe75  1  0.37595773  0.12645139  0.12508377  1
  Fe  Fe76  1  0.12420872  0.87498393  0.37399669  1
  Fe  Fe77  1  -0.00542630  0.25611366  -0.00031692  1
  Fe  Fe78  1  0.50063368  0.24977371  0.25409584  1
  Fe  Fe79  1  0.24997658  0.25108585  0.24905389  1
  Fe  Fe80  1  0.87693310  0.87128354  0.12755796  1
  Fe  Fe81  1  0.25217333  0.25167219  0.50151510  1
  Fe  Fe82  1  0.12534453  0.62325925  0.12122795  1
  Fe  Fe83  1  0.37320849  0.87386809  0.87547381  1
  Fe  Fe84  1  0.37721460  0.62482454  0.12389742  1
  Fe  Fe85  1  0.74972976  0.74881353  0.74738642  1
  Fe  Fe86  1  0.50273190  0.50332647  0.25487479  1
  Fe  Fe87  1  0.25246753  0.25175621  0.75003081  1
  Fe  Fe88  1  0.74633886  0.50243921  0.24767142  1
  Fe  Fe89  1  0.50106552  0.74622114  0.25736139  1
  Co  Co90  1  0.00062584  0.74528262  0.75278288  1
  Co  Co91  1  0.74722679  0.49853382  0.00300001  1
  Co  Co92  1  0.50222995  0.24602739  0.75082117  1
  Co  Co93  1  0.50261052  0.50559617  0.74898718  1
  Co  Co94  1  0.74612630  0.75054943  0.24759246  1
  Co  Co95  1  0.37408454  0.87711433  0.37340332  1
  Co  Co96  1  0.12522727  0.87605638  0.87421133  1
  Co  Co97  1  0.00110218  0.50047354  0.74695271  1
  Co  Co98  1  0.25392169  0.49793766  0.00073443  1
  Co  Co99  1  0.25068324  0.49690574  0.50406183  1
  Co  Co100  1  0.75125836  0.25566512  -0.00002404  1
  Co  Co101  1  0.00172030  0.00522829  0.75194624  1
  Co  Co102  1  0.49940199  0.25051959  0.49683754  1
  Co  Co103  1  0.75404314  0.49683651  0.50122856  1
  Co  Co104  1  0.75556057  0.75532573  0.50326176  1
  Co  Co105  1  0.36928312  0.62225825  0.37694163  1
  Co  Co106  1  0.37934832  0.37829162  0.87157099  1
  Co  Co107  1  0.24985247  0.74832766  -0.00106849  1
  Co  Co108  1  0.87177040  0.37940012  0.87049930  1
  Co  Co109  1  0.87361773  0.37667585  0.12969483  1
  Co  Co110  1  -0.00389620  0.49781059  0.00154852  1
  Co  Co111  1  0.49921010  0.50144804  0.49637524  1
  Co  Co112  1  0.00397726  0.74716505  0.24935325  1
  Co  Co113  1  0.87927349  0.87668900  0.63097626  1
  Co  Co114  1  0.25226706  -0.00026557  0.00097128  1
  Co  Co115  1  0.49914128  0.75003300  -0.00314456  1
  Co  Co116  1  0.87679365  0.87306110  0.37034343  1
  Co  Co117  1  0.62209624  0.62756777  0.12371321  1
  Co  Co118  1  0.62662436  0.62577259  0.87591713  1
  Co  Co119  1  0.24818234  -0.00349427  0.50278817  1
  Co  Co120  1  0.12603811  0.12740235  0.62436392  1
  Co  Co121  1  0.63195264  0.62703350  0.38214611  1
  Co  Co122  1  0.49531572  0.74792712  0.49612709  1
  Co  Co123  1  0.62209621  0.37382156  0.12680775  1
  Co  Co124  1  0.62830237  0.12532108  0.37629467  1
  Co  Co125  1  0.62617656  0.87003773  0.37724185  1
  Co  Co126  1  0.37881893  0.37722638  0.12802860  1
  Co  Co127  1  0.62067057  0.37582472  0.62413546  1
