# generated using pymatgen
data_Fe45Co19
_symmetry_space_group_name_H-M   'P 1'
_cell_length_a   11.41552112
_cell_length_b   11.41477956
_cell_length_c   11.41629633
_cell_angle_alpha   89.99769540
_cell_angle_beta   90.00355984
_cell_angle_gamma   89.99806291
_symmetry_Int_Tables_number   1
_chemical_formula_structural   Fe45Co19
_chemical_formula_sum   'Fe90 Co38'
_cell_volume   1487.60798927
_cell_formula_units_Z   2
loop_
 _symmetry_equiv_pos_site_id
 _symmetry_equiv_pos_as_xyz
  1  'x, y, z'
loop_
 _atom_site_type_symbol
 _atom_site_label
 _atom_site_symmetry_multiplicity
 _atom_site_fract_x
 _atom_site_fract_y
 _atom_site_fract_z
 _atom_site_occupancy
  Fe  Fe0  1  0.37352189  0.87279363  0.87308572  1
  Fe  Fe1  1  0.74665463  0.49907567  0.50132844  1
  Fe  Fe2  1  0.37617201  0.37508896  0.12513822  1
  Fe  Fe3  1  0.12703366  0.12559219  0.87617913  1
  Fe  Fe4  1  0.37547843  0.87433672  0.62520502  1
  Fe  Fe5  1  0.12782180  0.37362911  0.12295563  1
  Fe  Fe6  1  0.25135464  0.00146442  0.00076615  1
  Fe  Fe7  1  0.74729615  0.00208352  0.00260284  1
  Fe  Fe8  1  0.87323990  0.62354173  0.37480529  1
  Fe  Fe9  1  0.74933967  0.49590977  0.24965632  1
  Fe  Fe10  1  0.62628622  0.87513951  0.87515883  1
  Fe  Fe11  1  0.00010455  -0.00060810  0.24899768  1
  Fe  Fe12  1  0.12691138  0.87599624  0.37602273  1
  Fe  Fe13  1  0.87308986  0.87367631  0.87405486  1
  Fe  Fe14  1  0.50015351  0.24816045  -0.00664474  1
  Fe  Fe15  1  0.25112931  0.74866984  0.50185125  1
  Fe  Fe16  1  0.25335170  0.50476103  -0.00146446  1
  Fe  Fe17  1  0.00019501  0.25091025  0.50083936  1
  Fe  Fe18  1  0.49638882  0.25393720  0.49756364  1
  Fe  Fe19  1  0.62415738  0.62452956  0.37339339  1
  Fe  Fe20  1  0.24997775  0.49977859  0.24905343  1
  Fe  Fe21  1  -0.00219758  0.75046582  0.49869218  1
  Fe  Fe22  1  -0.00122195  0.75043547  0.00100823  1
  Fe  Fe23  1  0.12736871  0.87242353  0.87551780  1
  Fe  Fe24  1  0.74467941  0.50139405  0.00062581  1
  Fe  Fe25  1  0.50102446  0.00198661  -0.00122147  1
  Fe  Fe26  1  0.25107163  0.50053030  0.50186767  1
  Fe  Fe27  1  0.25267159  0.74912882  0.25097544  1
  Fe  Fe28  1  0.24966323  -0.00038044  0.74858951  1
  Fe  Fe29  1  0.37882652  0.62543351  0.62809354  1
  Fe  Fe30  1  0.12465421  0.12472202  0.62580561  1
  Fe  Fe31  1  -0.00222259  0.25014460  0.75068376  1
  Fe  Fe32  1  0.37560227  0.87870726  0.37748530  1
  Fe  Fe33  1  -0.00178434  0.00020676  0.50226127  1
  Fe  Fe34  1  0.12655748  0.62699946  0.12334529  1
  Fe  Fe35  1  0.25280287  0.25015110  0.75216523  1
  Fe  Fe36  1  0.75037695  0.25010950  0.49804213  1
  Fe  Fe37  1  0.12574625  0.37558613  0.37491838  1
  Fe  Fe38  1  0.25241858  0.00299376  0.25073407  1
  Fe  Fe39  1  0.87297276  0.37372439  0.62426086  1
  Fe  Fe40  1  0.00075165  0.74809811  0.74949292  1
  Fe  Fe41  1  0.37841761  0.12724136  0.12622160  1
  Fe  Fe42  1  0.87277144  0.62457354  0.12453445  1
  Fe  Fe43  1  -0.00334220  0.25327053  0.24803979  1
  Fe  Fe44  1  0.50202914  0.00143304  0.50095310  1
  Fe  Fe45  1  -0.00137470  0.25082770  0.00011334  1
  Fe  Fe46  1  0.12768957  0.87363195  0.12443421  1
  Fe  Fe47  1  0.74728555  0.49897222  0.74843090  1
  Fe  Fe48  1  0.74711378  0.00287908  0.24684039  1
  Fe  Fe49  1  0.62768394  0.87245820  0.62489694  1
  Fe  Fe50  1  0.87418490  0.12329494  0.87508217  1
  Fe  Fe51  1  0.12555718  0.12485540  0.37462074  1
  Fe  Fe52  1  0.87257026  0.62702436  0.62404459  1
  Fe  Fe53  1  0.00097402  0.50084958  0.74964597  1
  Fe  Fe54  1  0.37590342  0.37857228  0.87478173  1
  Fe  Fe55  1  0.87375186  0.62467665  0.87646028  1
  Fe  Fe56  1  0.50158454  0.49570358  0.50121171  1
  Fe  Fe57  1  0.50210366  0.74963498  0.49968891  1
  Fe  Fe58  1  0.37633710  0.12605458  0.62558983  1
  Fe  Fe59  1  0.62371613  0.37060450  0.12546772  1
  Fe  Fe60  1  -0.00130998  0.49790722  0.24832206  1
  Fe  Fe61  1  0.62242495  0.12789810  0.37073596  1
  Fe  Fe62  1  0.87291378  0.87508578  0.12477725  1
  Fe  Fe63  1  0.12546703  0.12732174  0.12426509  1
  Fe  Fe64  1  0.12441949  0.62453869  0.37593039  1
  Fe  Fe65  1  0.12717154  0.37555244  0.62581579  1
  Fe  Fe66  1  0.87246354  0.37733475  0.87744832  1
  Fe  Fe67  1  0.00089988  -0.00059156  -0.00094956  1
  Fe  Fe68  1  0.62194504  0.62736018  0.12852211  1
  Fe  Fe69  1  0.74968018  0.00194994  0.50195797  1
  Fe  Fe70  1  0.00076778  0.49968346  0.00079367  1
  Fe  Fe71  1  0.24744242  0.50464398  0.75070175  1
  Fe  Fe72  1  0.49736921  0.74752629  -0.00024442  1
  Fe  Fe73  1  0.62368332  0.87266411  0.12557564  1
  Fe  Fe74  1  -0.00141689  0.75010593  0.25002909  1
  Fe  Fe75  1  0.87525616  0.12496159  0.37372438  1
  Fe  Fe76  1  0.87142450  0.87584563  0.37510953  1
  Fe  Fe77  1  0.50361972  0.49441820  0.74783500  1
  Fe  Fe78  1  0.37779737  0.62201578  0.37315946  1
  Fe  Fe79  1  0.50077313  0.00042158  0.75030958  1
  Fe  Fe80  1  0.62540628  0.87477920  0.37326925  1
  Fe  Fe81  1  0.12613209  0.37546500  0.87594316  1
  Fe  Fe82  1  0.12381699  0.87504719  0.62479628  1
  Fe  Fe83  1  0.75250139  0.00060844  0.74702974  1
  Fe  Fe84  1  0.37522395  0.87396406  0.12531963  1
  Fe  Fe85  1  0.74898145  0.24644460  0.00030241  1
  Fe  Fe86  1  0.62430809  0.13096784  0.62916332  1
  Fe  Fe87  1  0.25248638  0.24978789  0.49758021  1
  Fe  Fe88  1  0.62148431  0.62529855  0.87280303  1
  Fe  Fe89  1  -0.00006290  0.49872463  0.50108643  1
  Co  Co90  1  0.50118293  0.50097189  0.00134414  1
  Co  Co91  1  0.87210320  0.37650564  0.12068238  1
  Co  Co92  1  0.24994831  0.00182227  0.50179300  1
  Co  Co93  1  0.62002696  0.12877806  0.12776058  1
  Co  Co94  1  0.62617192  0.37362021  0.87573755  1
  Co  Co95  1  0.74816414  0.74937128  0.49959651  1
  Co  Co96  1  0.37739978  0.62299914  0.12888062  1
  Co  Co97  1  0.25381255  0.25056033  -0.00124666  1
  Co  Co98  1  0.62727522  0.12317923  0.87113143  1
  Co  Co99  1  0.75307720  0.25169687  0.75231057  1
  Co  Co100  1  0.75401208  0.25066491  0.24913387  1
  Co  Co101  1  0.62287030  0.62546432  0.62512327  1
  Co  Co102  1  0.25182837  0.24909421  0.25208711  1
  Co  Co103  1  0.37761378  0.12154107  0.37599739  1
  Co  Co104  1  0.74792705  0.74768736  0.75052700  1
  Co  Co105  1  0.37426099  0.12155601  0.87385224  1
  Co  Co106  1  0.49794026  0.75193150  0.25234048  1
  Co  Co107  1  0.24769035  0.74694464  0.74824610  1
  Co  Co108  1  0.49608711  0.25358235  0.25491748  1
  Co  Co109  1  0.37254120  0.37969420  0.37361278  1
  Co  Co110  1  0.75041259  0.74987257  0.25021460  1
  Co  Co111  1  0.87459023  0.37585289  0.37707846  1
  Co  Co112  1  0.12355683  0.62659710  0.87903441  1
  Co  Co113  1  0.87454416  0.87272491  0.62536323  1
  Co  Co114  1  0.62608182  0.36877792  0.62532357  1
  Co  Co115  1  0.12366986  0.62472103  0.62146178  1
  Co  Co116  1  0.49745119  0.25122931  0.75422963  1
  Co  Co117  1  0.49976337  -0.00192395  0.24958785  1
  Co  Co118  1  0.74778789  0.74811687  -0.00076570  1
  Co  Co119  1  0.87471066  0.12661162  0.62407082  1
  Co  Co120  1  0.50267387  0.49630285  0.24956064  1
  Co  Co121  1  0.38052208  0.62468120  0.86921277  1
  Co  Co122  1  0.25544183  0.74603911  -0.00046946  1
  Co  Co123  1  0.37337613  0.37566921  0.62713700  1
  Co  Co124  1  -0.00019167  0.00130869  0.75089396  1
  Co  Co125  1  0.87659111  0.12313650  0.12421325  1
  Co  Co126  1  0.62654494  0.37315577  0.37448303  1
  Co  Co127  1  0.50309161  0.75384388  0.74947916  1
