# generated using pymatgen
data_Fe45Co19
_symmetry_space_group_name_H-M   'P 1'
_cell_length_a   11.41393007
_cell_length_b   11.41481752
_cell_length_c   11.41305878
_cell_angle_alpha   90.00340875
_cell_angle_beta   90.01108484
_cell_angle_gamma   89.99527296
_symmetry_Int_Tables_number   1
_chemical_formula_structural   Fe45Co19
_chemical_formula_sum   'Fe90 Co38'
_cell_volume   1486.98375422
_cell_formula_units_Z   2
loop_
 _symmetry_equiv_pos_site_id
 _symmetry_equiv_pos_as_xyz
  1  'x, y, z'
loop_
 _atom_site_type_symbol
 _atom_site_label
 _atom_site_symmetry_multiplicity
 _atom_site_fract_x
 _atom_site_fract_y
 _atom_site_fract_z
 _atom_site_occupancy
  Fe  Fe0  1  -0.00227301  0.50053602  0.24892994  1
  Fe  Fe1  1  0.62607013  0.37756535  0.62570728  1
  Fe  Fe2  1  0.12360351  0.62611395  0.12629408  1
  Fe  Fe3  1  0.87523077  0.37296795  0.11965834  1
  Fe  Fe4  1  0.75076639  -0.00022768  -0.00065112  1
  Fe  Fe5  1  0.74783388  0.24892738  0.50132643  1
  Fe  Fe6  1  0.87189152  0.62597359  0.37233730  1
  Fe  Fe7  1  0.37303670  0.37688591  0.62711864  1
  Fe  Fe8  1  0.74992248  0.24968739  0.24738123  1
  Fe  Fe9  1  0.37385588  0.37517573  0.87443740  1
  Fe  Fe10  1  0.12482158  0.37564138  0.12552651  1
  Fe  Fe11  1  0.87301215  0.87248628  0.12458393  1
  Fe  Fe12  1  0.37461711  0.87176618  0.87363404  1
  Fe  Fe13  1  -0.00063086  -0.00188067  0.50004898  1
  Fe  Fe14  1  0.12514820  0.37723707  0.62537330  1
  Fe  Fe15  1  -0.00089143  0.49936116  0.75233489  1
  Fe  Fe16  1  0.00215332  0.24952363  0.75179610  1
  Fe  Fe17  1  0.12610261  0.12364840  0.62492274  1
  Fe  Fe18  1  0.50234289  0.50360850  0.50132877  1
  Fe  Fe19  1  0.62337456  0.12532228  0.87646973  1
  Fe  Fe20  1  -0.00035885  0.75301207  0.75121247  1
  Fe  Fe21  1  0.49768285  -0.00132361  -0.00140952  1
  Fe  Fe22  1  0.62284022  0.86859561  0.37903996  1
  Fe  Fe23  1  0.62561035  0.87351525  0.12218481  1
  Fe  Fe24  1  0.37444553  0.87636711  0.12935883  1
  Fe  Fe25  1  0.87429102  0.62481208  0.62648916  1
  Fe  Fe26  1  0.49930540  0.49949978  -0.00045808  1
  Fe  Fe27  1  0.12624199  0.87542950  0.62480908  1
  Fe  Fe28  1  -0.00066177  0.25019019  0.49989420  1
  Fe  Fe29  1  0.87606922  0.12661028  0.87762103  1
  Fe  Fe30  1  0.12666929  0.87665156  0.87497394  1
  Fe  Fe31  1  0.12680804  0.87401527  0.12809002  1
  Fe  Fe32  1  0.50207881  0.74933131  0.74484784  1
  Fe  Fe33  1  0.74913763  0.24880316  0.75053264  1
  Fe  Fe34  1  0.25022828  0.74817048  0.74843721  1
  Fe  Fe35  1  0.50176896  0.50083907  0.24804000  1
  Fe  Fe36  1  0.50094780  0.24990229  0.50077403  1
  Fe  Fe37  1  0.50051624  0.74787376  0.24727041  1
  Fe  Fe38  1  0.12530967  0.62531465  0.37365556  1
  Fe  Fe39  1  0.12755635  0.87403664  0.37302485  1
  Fe  Fe40  1  0.62654857  0.37604522  0.37309532  1
  Fe  Fe41  1  0.24955673  0.24776519  0.00045215  1
  Fe  Fe42  1  -0.00245284  0.75029034  0.49931550  1
  Fe  Fe43  1  0.25050624  0.50302502  0.00058696  1
  Fe  Fe44  1  0.87075777  0.87581314  0.62626185  1
  Fe  Fe45  1  0.25213001  0.00055144  0.00165352  1
  Fe  Fe46  1  0.87232299  0.87463295  0.37338434  1
  Fe  Fe47  1  0.12445569  0.62462676  0.62386564  1
  Fe  Fe48  1  0.12467200  0.37554697  0.87697770  1
  Fe  Fe49  1  0.25121568  0.24853268  0.24944479  1
  Fe  Fe50  1  0.62448083  0.87474114  0.87401903  1
  Fe  Fe51  1  0.49966724  0.25031788  0.75024700  1
  Fe  Fe52  1  0.62577645  0.37442325  0.87657143  1
  Fe  Fe53  1  0.24922935  0.49994784  0.49912999  1
  Fe  Fe54  1  0.25492510  0.75173611  0.50042226  1
  Fe  Fe55  1  0.37603681  0.37669596  0.37373274  1
  Fe  Fe56  1  0.87518590  0.62983732  0.12215637  1
  Fe  Fe57  1  0.37620587  0.62526686  0.37340565  1
  Fe  Fe58  1  0.25477650  -0.00167741  0.49966615  1
  Fe  Fe59  1  0.37451084  0.12727638  0.87515314  1
  Fe  Fe60  1  0.50052636  0.25030902  0.24774032  1
  Fe  Fe61  1  0.37693746  0.12426416  0.37424035  1
  Fe  Fe62  1  0.75189616  0.50285926  -0.00334259  1
  Fe  Fe63  1  0.12215019  0.62628833  0.87688856  1
  Fe  Fe64  1  0.62457673  0.12488033  0.12379355  1
  Fe  Fe65  1  0.25171563  0.74935965  0.00310954  1
  Fe  Fe66  1  0.87216003  0.12354997  0.37271786  1
  Fe  Fe67  1  0.50078955  0.50225375  0.74891653  1
  Fe  Fe68  1  0.25345592  0.00130570  0.74872735  1
  Fe  Fe69  1  0.87350480  0.37556613  0.37520124  1
  Fe  Fe70  1  -0.00150552  -0.00060686  0.75098220  1
  Fe  Fe71  1  0.87487524  0.37613223  0.62514378  1
  Fe  Fe72  1  0.12394550  0.37603211  0.37372485  1
  Fe  Fe73  1  0.12476572  0.12419606  0.37568505  1
  Fe  Fe74  1  0.62580959  0.62644641  0.12167510  1
  Fe  Fe75  1  0.37762415  0.62669394  0.87545381  1
  Fe  Fe76  1  0.37401679  0.37537366  0.12451264  1
  Fe  Fe77  1  0.74624191  -0.00043893  0.49804298  1
  Fe  Fe78  1  0.25091291  0.25023371  0.50176073  1
  Fe  Fe79  1  0.74897935  0.74964612  0.75384977  1
  Fe  Fe80  1  0.87454581  0.12394655  0.62451040  1
  Fe  Fe81  1  0.75091547  0.50202572  0.75515651  1
  Fe  Fe82  1  -0.00036141  -0.00160310  0.00019937  1
  Fe  Fe83  1  0.62615371  0.37519893  0.12240460  1
  Fe  Fe84  1  0.74954784  0.50208048  0.49873367  1
  Fe  Fe85  1  0.12442939  0.12366559  0.12540894  1
  Fe  Fe86  1  0.50346877  0.00010317  0.25238581  1
  Fe  Fe87  1  -0.00206678  0.24863558  0.24898483  1
  Fe  Fe88  1  0.62094632  0.11969462  0.62560043  1
  Fe  Fe89  1  -0.00066445  -0.00135135  0.24988691  1
  Co  Co90  1  0.12628522  0.12070460  0.87523261  1
  Co  Co91  1  0.49917203  -0.00227898  0.49693321  1
  Co  Co92  1  0.49788215  -0.00070598  0.75406904  1
  Co  Co93  1  0.87387934  0.12291230  0.12551153  1
  Co  Co94  1  0.37678043  0.87326795  0.37062513  1
  Co  Co95  1  0.75033231  0.00181856  0.75287296  1
  Co  Co96  1  0.62491577  0.62620027  0.37433878  1
  Co  Co97  1  -0.00122792  0.50147723  0.49860560  1
  Co  Co98  1  0.24825272  0.50200157  0.75299339  1
  Co  Co99  1  0.62002787  0.62636890  0.87690910  1
  Co  Co100  1  0.49740960  0.74712020  0.50515819  1
  Co  Co101  1  0.25157623  0.74743640  0.24880306  1
  Co  Co102  1  0.75092708  0.50068846  0.24628152  1
  Co  Co103  1  0.24968801  0.00227773  0.25110735  1
  Co  Co104  1  0.74857951  0.74957316  -0.00428469  1
  Co  Co105  1  0.74819491  0.24812400  0.00008999  1
  Co  Co106  1  0.74757473  0.75085412  0.24870871  1
  Co  Co107  1  0.25043075  0.50041897  0.24939099  1
  Co  Co108  1  0.37776251  0.12338278  0.12587451  1
  Co  Co109  1  0.37699270  0.62402346  0.12448799  1
  Co  Co110  1  0.74603890  -0.00326749  0.25028339  1
  Co  Co111  1  0.00339770  0.24756379  -0.00035036  1
  Co  Co112  1  0.49811356  0.75279509  0.00207744  1
  Co  Co113  1  0.87962202  0.62810842  0.87685918  1
  Co  Co114  1  0.00302135  0.75456362  -0.00037095  1
  Co  Co115  1  0.37196803  0.62198171  0.62639337  1
  Co  Co116  1  0.62642282  0.87753724  0.62553484  1
  Co  Co117  1  0.87494584  0.87483435  0.87610072  1
  Co  Co118  1  -0.00102000  0.50031705  0.00111146  1
  Co  Co119  1  0.24868807  0.24951295  0.75014689  1
  Co  Co120  1  0.62557493  0.12780637  0.37393342  1
  Co  Co121  1  0.37800296  0.87690065  0.62639970  1
  Co  Co122  1  0.62942941  0.62506027  0.62488459  1
  Co  Co123  1  0.87542569  0.37177095  0.87722253  1
  Co  Co124  1  0.49895075  0.25063149  0.00022851  1
  Co  Co125  1  0.37800170  0.12464250  0.62492208  1
  Co  Co126  1  -0.00049010  0.75064117  0.25175088  1
  Co  Co127  1  0.75119424  0.74883193  0.50057979  1
