# generated using pymatgen
data_Fe45Co19
_symmetry_space_group_name_H-M   'P 1'
_cell_length_a   11.41703340
_cell_length_b   11.41442543
_cell_length_c   11.41487882
_cell_angle_alpha   89.99895698
_cell_angle_beta   90.00125059
_cell_angle_gamma   90.00255398
_symmetry_Int_Tables_number   1
_chemical_formula_structural   Fe45Co19
_chemical_formula_sum   'Fe90 Co38'
_cell_volume   1487.57417882
_cell_formula_units_Z   2
loop_
 _symmetry_equiv_pos_site_id
 _symmetry_equiv_pos_as_xyz
  1  'x, y, z'
loop_
 _atom_site_type_symbol
 _atom_site_label
 _atom_site_symmetry_multiplicity
 _atom_site_fract_x
 _atom_site_fract_y
 _atom_site_fract_z
 _atom_site_occupancy
  Fe  Fe0  1  0.00352562  0.00129487  0.50216790  1
  Fe  Fe1  1  0.25014934  0.24968351  0.49963130  1
  Fe  Fe2  1  0.37693223  0.62729209  0.62630596  1
  Fe  Fe3  1  -0.00046978  0.00043812  -0.00083704  1
  Fe  Fe4  1  0.24924617  0.74825956  0.75153638  1
  Fe  Fe5  1  0.12421811  0.87447836  0.87484075  1
  Fe  Fe6  1  0.75187283  -0.00004905  0.74849509  1
  Fe  Fe7  1  0.87868445  0.62447039  0.62172803  1
  Fe  Fe8  1  0.24831927  0.74861228  0.49975120  1
  Fe  Fe9  1  0.74835551  0.50115124  0.50053279  1
  Fe  Fe10  1  0.12663834  0.37370876  0.37198517  1
  Fe  Fe11  1  0.62643765  0.12531339  0.87275677  1
  Fe  Fe12  1  0.00137969  0.25282942  0.00176179  1
  Fe  Fe13  1  0.87431919  0.87487498  0.37668463  1
  Fe  Fe14  1  0.74859095  0.00004837  0.24749671  1
  Fe  Fe15  1  0.87528305  0.12430258  0.37558781  1
  Fe  Fe16  1  0.87380592  0.37629740  0.62466245  1
  Fe  Fe17  1  0.62314665  0.87258245  0.62346271  1
  Fe  Fe18  1  0.50067998  0.24808235  0.50283996  1
  Fe  Fe19  1  0.87793560  0.62325989  0.87901264  1
  Fe  Fe20  1  0.62579230  0.37549845  0.12545758  1
  Fe  Fe21  1  0.25060718  0.49921127  0.75230057  1
  Fe  Fe22  1  0.62700825  0.87680481  0.87670438  1
  Fe  Fe23  1  0.37476431  0.62616527  0.37409799  1
  Fe  Fe24  1  0.87584732  0.37663940  0.87526280  1
  Fe  Fe25  1  0.12564531  0.87361166  0.37481588  1
  Fe  Fe26  1  0.49914337  0.24957319  -0.00038908  1
  Fe  Fe27  1  0.37586427  0.87940366  0.12417430  1
  Fe  Fe28  1  0.00048566  0.74890285  0.75049894  1
  Fe  Fe29  1  0.37285004  0.87610861  0.87555813  1
  Fe  Fe30  1  0.49945928  0.75214386  -0.00122149  1
  Fe  Fe31  1  0.37410946  0.12539821  0.87551924  1
  Fe  Fe32  1  0.75033139  0.24972988  -0.00029196  1
  Fe  Fe33  1  0.25171345  0.49916795  0.25132776  1
  Fe  Fe34  1  0.87761685  0.87325491  0.62501664  1
  Fe  Fe35  1  0.62358975  0.12184781  0.12377064  1
  Fe  Fe36  1  0.24808486  0.25399159  -0.00071090  1
  Fe  Fe37  1  0.87480250  0.87527479  0.12278661  1
  Fe  Fe38  1  0.50066928  0.75624519  0.25289488  1
  Fe  Fe39  1  0.24911216  0.49949770  0.49869409  1
  Fe  Fe40  1  0.50074341  0.50093539  0.50070691  1
  Fe  Fe41  1  0.37267654  0.12315031  0.37393829  1
  Fe  Fe42  1  0.62265659  0.62401364  0.87533119  1
  Fe  Fe43  1  0.37749497  0.37523902  0.62546837  1
  Fe  Fe44  1  0.37718467  0.62154836  0.87665348  1
  Fe  Fe45  1  0.37575072  0.62431855  0.12354544  1
  Fe  Fe46  1  0.25340242  0.25089759  0.75043104  1
  Fe  Fe47  1  0.50037345  0.49919818  0.25021723  1
  Fe  Fe48  1  0.12429662  0.37478179  0.62788700  1
  Fe  Fe49  1  0.12542332  0.87575275  0.12273009  1
  Fe  Fe50  1  0.12681248  0.12577868  0.12624976  1
  Fe  Fe51  1  0.87722877  0.62622856  0.37779701  1
  Fe  Fe52  1  0.75006383  0.24747836  0.24883687  1
  Fe  Fe53  1  0.00057088  0.24985308  0.50041472  1
  Fe  Fe54  1  0.75045359  0.75111202  0.24964936  1
  Fe  Fe55  1  0.62389707  0.37367375  0.37565699  1
  Fe  Fe56  1  0.62522437  0.62665701  0.12409026  1
  Fe  Fe57  1  0.87383435  0.12427448  0.87494306  1
  Fe  Fe58  1  0.75203244  0.75088215  -0.00025371  1
  Fe  Fe59  1  0.50014110  -0.00165579  0.49756004  1
  Fe  Fe60  1  0.00117637  0.00142106  0.25022393  1
  Fe  Fe61  1  0.62185711  0.37444239  0.87144647  1
  Fe  Fe62  1  0.87287345  0.37659151  0.12511253  1
  Fe  Fe63  1  0.12520841  0.12693484  0.87386776  1
  Fe  Fe64  1  0.74967931  0.50067731  0.75012686  1
  Fe  Fe65  1  0.24857593  0.00101780  0.74902583  1
  Fe  Fe66  1  0.49857255  0.00018538  0.75062657  1
  Fe  Fe67  1  0.49750650  0.24920773  0.25001740  1
  Fe  Fe68  1  0.75059906  0.00048083  0.50237346  1
  Fe  Fe69  1  -0.00096058  0.24911010  0.24940868  1
  Fe  Fe70  1  0.37427355  0.37677993  0.12351639  1
  Fe  Fe71  1  0.37388035  0.12095395  0.12546404  1
  Fe  Fe72  1  0.74973077  0.50197568  0.25071392  1
  Fe  Fe73  1  0.62427797  0.62829874  0.37591845  1
  Fe  Fe74  1  0.00133116  0.00084695  0.74857197  1
  Fe  Fe75  1  -0.00268936  0.24959726  0.74849369  1
  Fe  Fe76  1  0.24969735  0.75156300  0.24938682  1
  Fe  Fe77  1  0.24988023  0.75009321  -0.00017969  1
  Fe  Fe78  1  -0.00017767  0.74871893  0.24929722  1
  Fe  Fe79  1  0.62191932  0.62851096  0.62598565  1
  Fe  Fe80  1  0.87258651  0.37377458  0.37538197  1
  Fe  Fe81  1  0.12465719  0.62315452  0.12360522  1
  Fe  Fe82  1  0.75133293  0.74945246  0.75005466  1
  Fe  Fe83  1  0.24568400  0.00119211  0.50099065  1
  Fe  Fe84  1  0.62527878  0.12436506  0.37464633  1
  Fe  Fe85  1  0.12262111  0.62353407  0.62332489  1
  Fe  Fe86  1  -0.00124025  0.50086891  0.25040904  1
  Fe  Fe87  1  0.12235342  0.62241251  0.87805429  1
  Fe  Fe88  1  0.37399227  0.87366279  0.62474097  1
  Fe  Fe89  1  0.74837353  0.24820315  0.50368840  1
  Co  Co90  1  0.49975170  0.49995742  0.74819151  1
  Co  Co91  1  0.62484518  0.37440312  0.62700658  1
  Co  Co92  1  0.87588605  0.87553312  0.87399686  1
  Co  Co93  1  0.49928015  0.75268792  0.75332961  1
  Co  Co94  1  0.49774268  0.75145683  0.49672548  1
  Co  Co95  1  0.87556377  0.12495662  0.62464211  1
  Co  Co96  1  -0.00131974  0.50083302  0.74905282  1
  Co  Co97  1  0.75132902  0.25024337  0.74850311  1
  Co  Co98  1  0.62487774  0.87578021  0.12149272  1
  Co  Co99  1  0.00171273  0.49623965  0.49791027  1
  Co  Co100  1  0.75229284  0.00139120  0.00097116  1
  Co  Co101  1  0.50211228  0.49921537  0.00212382  1
  Co  Co102  1  0.62444925  0.12262796  0.62706228  1
  Co  Co103  1  0.37718487  0.37506850  0.37682092  1
  Co  Co104  1  0.24774474  0.49709619  -0.00185784  1
  Co  Co105  1  0.12545719  0.12780724  0.37328842  1
  Co  Co106  1  0.49771484  0.24731837  0.74774500  1
  Co  Co107  1  0.75155740  0.74848631  0.50189075  1
  Co  Co108  1  0.49972003  0.00103605  -0.00318818  1
  Co  Co109  1  0.25387906  0.24996278  0.24958211  1
  Co  Co110  1  0.37894088  0.37657266  0.87510449  1
  Co  Co111  1  0.36974616  0.87611645  0.37639496  1
  Co  Co112  1  0.00217090  0.75164162  0.49925440  1
  Co  Co113  1  0.12543816  0.62479351  0.37406925  1
  Co  Co114  1  0.12260995  0.37497347  0.87078013  1
  Co  Co115  1  0.50135274  -0.00285659  0.25310407  1
  Co  Co116  1  0.62989232  0.87445347  0.37776333  1
  Co  Co117  1  0.24802013  0.00059416  -0.00153786  1
  Co  Co118  1  0.12566173  0.12862581  0.62730806  1
  Co  Co119  1  0.87412505  0.62383651  0.12209382  1
  Co  Co120  1  0.00217949  0.49580456  0.00296022  1
  Co  Co121  1  0.24790887  -0.00032967  0.25017907  1
  Co  Co122  1  0.87600788  0.12520140  0.12416695  1
  Co  Co123  1  0.12628907  0.37594510  0.13008864  1
  Co  Co124  1  0.12598436  0.87244779  0.62739700  1
  Co  Co125  1  0.74821346  0.49886879  -0.00126503  1
  Co  Co126  1  0.37402682  0.12234108  0.62345584  1
  Co  Co127  1  -0.00001040  0.75132101  0.00057534  1
