# generated using pymatgen
data_Fe45Co19
_symmetry_space_group_name_H-M   'P 1'
_cell_length_a   11.41559969
_cell_length_b   11.41596564
_cell_length_c   11.41398559
_cell_angle_alpha   89.99325739
_cell_angle_beta   89.99034593
_cell_angle_gamma   89.99318015
_symmetry_Int_Tables_number   1
_chemical_formula_structural   Fe45Co19
_chemical_formula_sum   'Fe90 Co38'
_cell_volume   1487.47163088
_cell_formula_units_Z   2
loop_
 _symmetry_equiv_pos_site_id
 _symmetry_equiv_pos_as_xyz
  1  'x, y, z'
loop_
 _atom_site_type_symbol
 _atom_site_label
 _atom_site_symmetry_multiplicity
 _atom_site_fract_x
 _atom_site_fract_y
 _atom_site_fract_z
 _atom_site_occupancy
  Fe  Fe0  1  0.75116634  0.24850309  0.24938910  1
  Fe  Fe1  1  0.24887150  0.49871962  0.25279032  1
  Fe  Fe2  1  0.24963143  0.50133806  0.74917762  1
  Fe  Fe3  1  0.87598825  0.37249855  0.37384464  1
  Fe  Fe4  1  -0.00062818  0.75245497  0.25032258  1
  Fe  Fe5  1  0.62374990  0.12487093  0.12489828  1
  Fe  Fe6  1  0.50126633  0.25302129  0.74859986  1
  Fe  Fe7  1  0.24698032  0.00083115  0.49521416  1
  Fe  Fe8  1  0.87571966  0.62593798  0.37480550  1
  Fe  Fe9  1  0.49668056  0.00033005  0.00251986  1
  Fe  Fe10  1  0.75073573  0.24818653  0.00208542  1
  Fe  Fe11  1  -0.00073166  0.75241871  0.00070591  1
  Fe  Fe12  1  0.62532845  0.62261304  0.12761790  1
  Fe  Fe13  1  0.12397790  0.62729730  0.62609473  1
  Fe  Fe14  1  0.12328580  0.12596698  0.62436525  1
  Fe  Fe15  1  0.12903411  0.87740268  0.12407065  1
  Fe  Fe16  1  0.24970760  0.25155036  0.49863786  1
  Fe  Fe17  1  0.00115468  0.25063789  0.50074455  1
  Fe  Fe18  1  0.00119524  0.24801303  0.00141421  1
  Fe  Fe19  1  0.37538884  0.62396846  0.87398035  1
  Fe  Fe20  1  0.50014917  0.75102888  0.74842366  1
  Fe  Fe21  1  0.49822435  0.49663989  -0.00087880  1
  Fe  Fe22  1  0.00491143  -0.00123168  0.25423343  1
  Fe  Fe23  1  0.87363258  0.37464651  0.62621751  1
  Fe  Fe24  1  0.62725283  0.87616458  0.62274834  1
  Fe  Fe25  1  0.37775903  0.87425452  0.37231996  1
  Fe  Fe26  1  0.62685186  0.62304333  0.62544950  1
  Fe  Fe27  1  0.50134057  0.74933765  0.50005132  1
  Fe  Fe28  1  0.37480745  0.87346594  0.87562802  1
  Fe  Fe29  1  0.87286517  0.37371456  0.87517835  1
  Fe  Fe30  1  0.50201444  0.00034981  0.49854020  1
  Fe  Fe31  1  0.37479055  0.62429957  0.37504896  1
  Fe  Fe32  1  0.74982624  0.75166334  0.00199025  1
  Fe  Fe33  1  0.75076094  0.50029222  0.49900722  1
  Fe  Fe34  1  0.74884262  0.24576103  0.50271648  1
  Fe  Fe35  1  0.25169351  0.75078759  0.24957084  1
  Fe  Fe36  1  0.12536439  0.37447249  0.62598630  1
  Fe  Fe37  1  0.87532696  0.87901838  0.12564248  1
  Fe  Fe38  1  -0.00082909  0.00005828  0.74856490  1
  Fe  Fe39  1  0.74931423  0.00418745  0.74765532  1
  Fe  Fe40  1  0.50308406  0.49587932  0.75158019  1
  Fe  Fe41  1  0.62257617  0.12626914  0.87685903  1
  Fe  Fe42  1  0.37441785  0.12875688  0.87494334  1
  Fe  Fe43  1  -0.00091720  0.75153303  0.49994979  1
  Fe  Fe44  1  -0.00085487  0.49936307  0.25085537  1
  Fe  Fe45  1  0.12674266  0.87308330  0.62600970  1
  Fe  Fe46  1  0.25099193  0.74919108  -0.00065745  1
  Fe  Fe47  1  0.25134428  0.00122792  0.75029751  1
  Fe  Fe48  1  0.75018694  0.49980543  -0.00023018  1
  Fe  Fe49  1  0.12692623  0.12693550  0.87431669  1
  Fe  Fe50  1  0.37452749  0.87639939  0.62399192  1
  Fe  Fe51  1  0.62237035  0.87580879  0.12728131  1
  Fe  Fe52  1  0.49469702  0.25282384  0.00487122  1
  Fe  Fe53  1  0.87610965  0.12106641  0.12506728  1
  Fe  Fe54  1  0.00227053  0.49882917  -0.00069447  1
  Fe  Fe55  1  0.74747322  0.24877222  0.74758152  1
  Fe  Fe56  1  0.49985773  0.49886045  0.49891003  1
  Fe  Fe57  1  0.12281341  0.62886428  0.87258867  1
  Fe  Fe58  1  0.62589748  0.87545627  0.87460718  1
  Fe  Fe59  1  0.87418346  0.87807019  0.87759674  1
  Fe  Fe60  1  0.62692646  0.62453422  0.87440057  1
  Fe  Fe61  1  0.74739913  -0.00040968  0.25340243  1
  Fe  Fe62  1  0.49991543  0.74964420  0.00208678  1
  Fe  Fe63  1  0.37662458  0.12520236  0.62315575  1
  Fe  Fe64  1  0.87916049  0.12288004  0.37722085  1
  Fe  Fe65  1  -0.00300748  0.50062292  0.75134802  1
  Fe  Fe66  1  0.62445693  0.62467092  0.37300234  1
  Fe  Fe67  1  0.62055393  0.12714427  0.37407802  1
  Fe  Fe68  1  0.25201001  0.74917391  0.50130133  1
  Fe  Fe69  1  0.75473816  0.74708797  0.74852735  1
  Fe  Fe70  1  0.00199179  0.49881495  0.49850984  1
  Fe  Fe71  1  0.12557796  0.62585384  0.37611184  1
  Fe  Fe72  1  0.62450344  0.37269843  0.37448815  1
  Fe  Fe73  1  0.12999788  0.12396371  0.12686099  1
  Fe  Fe74  1  0.87220682  0.87840659  0.61822955  1
  Fe  Fe75  1  0.12939435  0.37190433  0.87375074  1
  Fe  Fe76  1  0.49918932  -0.00050353  0.75033995  1
  Fe  Fe77  1  0.12525239  0.62443097  0.12548347  1
  Fe  Fe78  1  0.37502316  0.37520812  0.62478500  1
  Fe  Fe79  1  0.74987499  0.75189399  0.25258915  1
  Fe  Fe80  1  0.12678833  0.37378198  0.12747465  1
  Fe  Fe81  1  0.87519369  0.12465143  0.87571931  1
  Fe  Fe82  1  0.87508440  0.62445841  0.12459809  1
  Fe  Fe83  1  0.37462050  0.62183367  0.12523469  1
  Fe  Fe84  1  0.37588686  0.62365478  0.62548085  1
  Fe  Fe85  1  0.87564271  0.37501293  0.12569024  1
  Fe  Fe86  1  0.37577192  0.37439684  0.37361082  1
  Fe  Fe87  1  0.12535872  0.87395034  0.87297179  1
  Fe  Fe88  1  0.62571507  0.37629706  0.12709656  1
  Fe  Fe89  1  0.37619295  0.12639475  0.37143361  1
  Co  Co90  1  0.74853878  0.74760450  0.49742964  1
  Co  Co91  1  0.12626258  0.86999710  0.37583209  1
  Co  Co92  1  0.12278593  0.37323377  0.37269764  1
  Co  Co93  1  0.36947020  0.12197618  0.12915260  1
  Co  Co94  1  0.49873680  0.25177512  0.24552353  1
  Co  Co95  1  0.61952407  0.12476185  0.62566630  1
  Co  Co96  1  0.50046484  0.00150732  0.24822675  1
  Co  Co97  1  0.49953827  0.74784338  0.24879537  1
  Co  Co98  1  -0.00043632  0.25051403  0.75127182  1
  Co  Co99  1  0.62265748  0.87479299  0.37573392  1
  Co  Co100  1  -0.00164083  0.24822264  0.24718951  1
  Co  Co101  1  0.62653364  0.37278973  0.87789152  1
  Co  Co102  1  0.00343843  0.00168273  -0.00064803  1
  Co  Co103  1  0.12344635  0.13022738  0.37426024  1
  Co  Co104  1  0.00594319  -0.00131046  0.49881589  1
  Co  Co105  1  0.49980998  0.49888551  0.25162779  1
  Co  Co106  1  0.25124265  0.25181265  0.25185676  1
  Co  Co107  1  0.49875096  0.25128726  0.49991118  1
  Co  Co108  1  0.62621460  0.37545735  0.62193660  1
  Co  Co109  1  0.37072606  0.37917965  0.12692433  1
  Co  Co110  1  0.87427844  0.87815900  0.37813895  1
  Co  Co111  1  0.74697480  0.00022220  0.00073630  1
  Co  Co112  1  0.74568459  0.00588158  0.49861571  1
  Co  Co113  1  0.37118401  0.37362139  0.87323753  1
  Co  Co114  1  0.87621946  0.62275475  0.62120741  1
  Co  Co115  1  0.75117619  0.50027942  0.75047785  1
  Co  Co116  1  0.75187950  0.49875531  0.25164373  1
  Co  Co117  1  0.25103669  0.24826207  0.74564688  1
  Co  Co118  1  0.37307534  0.87663184  0.12650659  1
  Co  Co119  1  0.25231224  0.00067829  -0.00385690  1
  Co  Co120  1  0.24797270  0.50093009  -0.00221047  1
  Co  Co121  1  -0.00700157  0.75209064  0.74850813  1
  Co  Co122  1  0.25351998  0.74949360  0.74950404  1
  Co  Co123  1  0.25234944  0.25038781  0.00291734  1
  Co  Co124  1  0.87899089  0.12502418  0.62311090  1
  Co  Co125  1  0.24776522  -0.00172474  0.25566323  1
  Co  Co126  1  0.87552877  0.62462501  0.87974512  1
  Co  Co127  1  0.24890036  0.49852143  0.50023110  1
