# generated using pymatgen
data_Fe45Co19
_symmetry_space_group_name_H-M   'P 1'
_cell_length_a   11.41530526
_cell_length_b   11.41441239
_cell_length_c   11.41538569
_cell_angle_alpha   90.01640140
_cell_angle_beta   90.00207379
_cell_angle_gamma   90.00647742
_symmetry_Int_Tables_number   1
_chemical_formula_structural   Fe45Co19
_chemical_formula_sum   'Fe90 Co38'
_cell_volume   1487.41329019
_cell_formula_units_Z   2
loop_
 _symmetry_equiv_pos_site_id
 _symmetry_equiv_pos_as_xyz
  1  'x, y, z'
loop_
 _atom_site_type_symbol
 _atom_site_label
 _atom_site_symmetry_multiplicity
 _atom_site_fract_x
 _atom_site_fract_y
 _atom_site_fract_z
 _atom_site_occupancy
  Fe  Fe0  1  0.87091440  0.87268381  0.12327763  1
  Fe  Fe1  1  0.75108609  0.24901752  0.25262732  1
  Fe  Fe2  1  0.24973420  0.74837125  0.75351231  1
  Fe  Fe3  1  0.37431109  0.62278672  0.12016176  1
  Fe  Fe4  1  0.74862217  0.24450942  0.74977159  1
  Fe  Fe5  1  0.62659833  0.87727281  0.62652743  1
  Fe  Fe6  1  0.62479715  0.12488952  0.37499306  1
  Fe  Fe7  1  0.87620951  0.62564387  0.87770731  1
  Fe  Fe8  1  -0.00126290  0.49711286  0.74794689  1
  Fe  Fe9  1  0.37202472  0.37479220  0.62576449  1
  Fe  Fe10  1  0.87773262  0.12501610  0.87551736  1
  Fe  Fe11  1  0.37691365  0.62210400  0.87883348  1
  Fe  Fe12  1  0.62371571  0.62524897  0.87366769  1
  Fe  Fe13  1  0.50484227  0.24609516  0.00234163  1
  Fe  Fe14  1  0.87322340  0.12540261  0.12378787  1
  Fe  Fe15  1  0.37505510  0.12799788  0.37282856  1
  Fe  Fe16  1  0.24839150  0.25343787  0.00267634  1
  Fe  Fe17  1  0.37281473  0.87465137  0.12665846  1
  Fe  Fe18  1  0.00049205  0.75229593  0.74976084  1
  Fe  Fe19  1  0.87618035  0.87668436  0.87467979  1
  Fe  Fe20  1  0.75053277  0.49966575  -0.00186574  1
  Fe  Fe21  1  0.12313754  0.62387977  0.37415080  1
  Fe  Fe22  1  0.62423882  0.87437190  0.37526935  1
  Fe  Fe23  1  0.62475911  0.62622491  0.37615358  1
  Fe  Fe24  1  0.12313341  0.62472517  0.87921984  1
  Fe  Fe25  1  0.50152709  0.25000294  0.50110288  1
  Fe  Fe26  1  0.25127428  0.50087799  0.75321510  1
  Fe  Fe27  1  0.49991202  0.74932504  0.24939133  1
  Fe  Fe28  1  0.87567164  0.37588359  0.37709567  1
  Fe  Fe29  1  0.12590489  0.62309708  0.62561154  1
  Fe  Fe30  1  0.87385000  0.37506664  0.12400979  1
  Fe  Fe31  1  0.49844068  -0.00052446  0.50157637  1
  Fe  Fe32  1  0.75353510  0.50324461  0.25078060  1
  Fe  Fe33  1  0.75260024  0.50018810  0.50014175  1
  Fe  Fe34  1  0.25092701  0.49690687  0.24515607  1
  Fe  Fe35  1  0.12415591  0.12655969  0.12501427  1
  Fe  Fe36  1  0.50036462  0.00136079  0.24875378  1
  Fe  Fe37  1  0.00132548  0.75065077  0.50204107  1
  Fe  Fe38  1  0.75085538  0.00181802  0.50173190  1
  Fe  Fe39  1  0.87517029  0.62354584  0.62420839  1
  Fe  Fe40  1  0.37458781  0.12657142  0.62503959  1
  Fe  Fe41  1  0.62460513  0.62595668  0.62457794  1
  Fe  Fe42  1  0.49759916  0.75060408  0.74761830  1
  Fe  Fe43  1  0.62991974  0.62789240  0.12452551  1
  Fe  Fe44  1  0.75126745  0.75136234  0.49986784  1
  Fe  Fe45  1  0.37851501  0.12528419  0.87547701  1
  Fe  Fe46  1  0.62597234  0.37515608  0.37576927  1
  Fe  Fe47  1  0.37388425  0.87275065  0.37345289  1
  Fe  Fe48  1  0.62709025  0.87518359  0.12530682  1
  Fe  Fe49  1  0.24879027  0.74900839  0.49807479  1
  Fe  Fe50  1  -0.00359960  0.74814740  0.24726869  1
  Fe  Fe51  1  0.24947781  0.00004277  -0.00079605  1
  Fe  Fe52  1  0.12782358  0.87240585  0.12663223  1
  Fe  Fe53  1  0.24663985  0.24963378  0.49818249  1
  Fe  Fe54  1  0.87789951  0.87493132  0.37509952  1
  Fe  Fe55  1  0.00174439  0.25552456  0.50543830  1
  Fe  Fe56  1  0.24960967  0.49984775  0.49961343  1
  Fe  Fe57  1  0.24536316  0.00256347  0.25364403  1
  Fe  Fe58  1  0.12421341  0.62390995  0.11990177  1
  Fe  Fe59  1  0.74700559  0.00282576  -0.00303433  1
  Fe  Fe60  1  0.37560473  0.37294072  0.37159810  1
  Fe  Fe61  1  0.75187170  0.75122693  0.75101993  1
  Fe  Fe62  1  0.49824158  0.49981687  0.50222869  1
  Fe  Fe63  1  0.75211288  0.00010621  0.25181405  1
  Fe  Fe64  1  0.62889976  0.37380218  0.62492987  1
  Fe  Fe65  1  0.49983195  0.49851437  0.74827849  1
  Fe  Fe66  1  0.62696583  0.37354780  0.12602915  1
  Fe  Fe67  1  0.37450736  0.12786824  0.12792019  1
  Fe  Fe68  1  -0.00011270  0.24880369  0.24940551  1
  Fe  Fe69  1  -0.00382432  0.50372162  0.24815722  1
  Fe  Fe70  1  0.37556889  0.87688839  0.87624970  1
  Fe  Fe71  1  -0.00070603  0.25194852  -0.00093527  1
  Fe  Fe72  1  0.62219478  0.88070630  0.87208925  1
  Fe  Fe73  1  0.00478015  -0.00302241  0.50166146  1
  Fe  Fe74  1  0.62559499  0.37403790  0.87400860  1
  Fe  Fe75  1  0.12323120  0.37402685  0.87432702  1
  Fe  Fe76  1  0.50032391  0.49981120  0.24797569  1
  Fe  Fe77  1  0.24832542  0.00215724  0.75146989  1
  Fe  Fe78  1  0.87314497  0.37336955  0.87193488  1
  Fe  Fe79  1  0.50058605  0.75201838  0.00007190  1
  Fe  Fe80  1  0.24575340  0.00022022  0.49670256  1
  Fe  Fe81  1  0.00328749  0.00056403  0.74955594  1
  Fe  Fe82  1  0.87956887  0.12384844  0.37662913  1
  Fe  Fe83  1  0.37640302  0.62512393  0.37528926  1
  Fe  Fe84  1  0.37092821  0.87319948  0.62403206  1
  Fe  Fe85  1  0.00214376  -0.00239359  0.00167228  1
  Fe  Fe86  1  0.87763083  0.12527823  0.62456231  1
  Fe  Fe87  1  0.24902792  0.24826073  0.75207670  1
  Fe  Fe88  1  0.12392787  0.37581871  0.37251139  1
  Fe  Fe89  1  0.37838639  0.37553162  0.87904403  1
  Co  Co90  1  0.24734022  0.49484302  0.00091744  1
  Co  Co91  1  0.00045803  0.49611042  0.50332879  1
  Co  Co92  1  0.00093009  0.75393788  0.00086031  1
  Co  Co93  1  0.62915973  0.12434220  0.12756201  1
  Co  Co94  1  0.74987499  0.50298603  0.75099915  1
  Co  Co95  1  0.49922638  0.00158964  0.00458560  1
  Co  Co96  1  0.25060535  0.75078154  -0.00212265  1
  Co  Co97  1  0.49909674  0.75109838  0.50127926  1
  Co  Co98  1  0.75361536  0.00321828  0.75010960  1
  Co  Co99  1  0.12978798  0.37614618  0.62863021  1
  Co  Co100  1  0.74867496  0.24839795  -0.00275526  1
  Co  Co101  1  0.86981201  0.37485250  0.62760416  1
  Co  Co102  1  0.75068081  0.24709169  0.49962044  1
  Co  Co103  1  0.12833636  0.87430247  0.62714847  1
  Co  Co104  1  0.12020581  0.12732170  0.37513130  1
  Co  Co105  1  0.87493222  0.87627596  0.62566783  1
  Co  Co106  1  0.87624597  0.62526339  0.37946973  1
  Co  Co107  1  0.87163005  0.62752835  0.11882017  1
  Co  Co108  1  0.75235042  0.74980246  0.25408229  1
  Co  Co109  1  0.12534328  0.12525340  0.62523737  1
  Co  Co110  1  0.25050535  0.74515345  0.24919100  1
  Co  Co111  1  0.12514244  0.87575896  0.87438777  1
  Co  Co112  1  0.12342250  0.87134265  0.37158661  1
  Co  Co113  1  0.00070308  0.25069389  0.74802300  1
  Co  Co114  1  0.37338298  0.62488267  0.62509350  1
  Co  Co115  1  0.49528324  -0.00099312  0.74530081  1
  Co  Co116  1  0.00028169  -0.00158084  0.24616167  1
  Co  Co117  1  0.61971904  0.12097070  0.87090108  1
  Co  Co118  1  0.74764076  0.75219328  -0.00670919  1
  Co  Co119  1  0.12375731  0.12569829  0.87744401  1
  Co  Co120  1  0.50026909  0.25313460  0.74830180  1
  Co  Co121  1  0.50348097  0.24962196  0.25035636  1
  Co  Co122  1  0.50574373  0.50035861  0.00095979  1
  Co  Co123  1  0.38002289  0.37344047  0.12340451  1
  Co  Co124  1  0.11914893  0.37584725  0.12643485  1
  Co  Co125  1  0.62279687  0.12312679  0.62673521  1
  Co  Co126  1  0.24700995  0.25194404  0.24826326  1
  Co  Co127  1  -0.00293971  0.49703282  -0.00178238  1
