# generated using pymatgen
data_Fe45Co19
_symmetry_space_group_name_H-M   'P 1'
_cell_length_a   11.41517157
_cell_length_b   11.41479944
_cell_length_c   11.41528546
_cell_angle_alpha   89.99424853
_cell_angle_beta   89.99880159
_cell_angle_gamma   89.99050246
_symmetry_Int_Tables_number   1
_chemical_formula_structural   Fe45Co19
_chemical_formula_sum   'Fe90 Co38'
_cell_volume   1487.43328678
_cell_formula_units_Z   2
loop_
 _symmetry_equiv_pos_site_id
 _symmetry_equiv_pos_as_xyz
  1  'x, y, z'
loop_
 _atom_site_type_symbol
 _atom_site_label
 _atom_site_symmetry_multiplicity
 _atom_site_fract_x
 _atom_site_fract_y
 _atom_site_fract_z
 _atom_site_occupancy
  Fe  Fe0  1  0.12518938  0.12670842  0.62595309  1
  Fe  Fe1  1  0.00427664  0.75211661  -0.00035144  1
  Fe  Fe2  1  0.37336503  0.37536546  0.37420849  1
  Fe  Fe3  1  0.50114804  0.00117456  0.50093270  1
  Fe  Fe4  1  -0.00200556  0.25154706  0.49851761  1
  Fe  Fe5  1  0.75069569  0.24770151  -0.00121624  1
  Fe  Fe6  1  0.75340751  0.50008467  0.50174777  1
  Fe  Fe7  1  0.37426041  0.62467218  0.37298891  1
  Fe  Fe8  1  0.74963783  -0.00046463  0.24913515  1
  Fe  Fe9  1  0.24992497  0.25092949  0.50113867  1
  Fe  Fe10  1  -0.00058367  -0.00029104  0.50135217  1
  Fe  Fe11  1  0.00111103  -0.00109532  -0.00189223  1
  Fe  Fe12  1  0.87652084  0.62537665  0.87749160  1
  Fe  Fe13  1  0.50012266  0.50039538  0.49984951  1
  Fe  Fe14  1  0.74971966  0.00178950  0.75335266  1
  Fe  Fe15  1  0.49930586  -0.00121982  0.24890009  1
  Fe  Fe16  1  0.75090401  0.00151045  0.49921626  1
  Fe  Fe17  1  0.75215038  0.00192623  -0.00118591  1
  Fe  Fe18  1  -0.00088757  0.24991472  0.00168778  1
  Fe  Fe19  1  0.00063289  0.25243178  0.75112804  1
  Fe  Fe20  1  0.24729390  0.74830093  0.00142196  1
  Fe  Fe21  1  0.87661707  0.62647727  0.62835372  1
  Fe  Fe22  1  0.87522938  0.37323260  0.37166142  1
  Fe  Fe23  1  0.12238543  0.37935226  0.62246950  1
  Fe  Fe24  1  0.37255408  0.87652229  0.37587191  1
  Fe  Fe25  1  0.37438235  0.12854284  0.87594211  1
  Fe  Fe26  1  0.87358112  0.87237009  0.37435686  1
  Fe  Fe27  1  0.24995010  0.00318088  0.75036175  1
  Fe  Fe28  1  0.62219120  0.12260070  0.12126497  1
  Fe  Fe29  1  0.62737282  0.62448983  0.37375039  1
  Fe  Fe30  1  0.24681855  0.74858111  0.24850324  1
  Fe  Fe31  1  0.24987845  0.49973931  0.74866781  1
  Fe  Fe32  1  0.37359321  0.37440439  0.87532406  1
  Fe  Fe33  1  0.12482503  0.87414079  0.62710975  1
  Fe  Fe34  1  0.49729911  0.49877383  0.24755798  1
  Fe  Fe35  1  0.50052034  0.74970319  0.00125912  1
  Fe  Fe36  1  0.62367542  0.62303341  0.87650472  1
  Fe  Fe37  1  0.12100731  0.37963735  0.12835893  1
  Fe  Fe38  1  0.12629683  0.87770379  0.37462426  1
  Fe  Fe39  1  0.37329236  0.87275584  0.12558309  1
  Fe  Fe40  1  0.50004853  0.50040448  0.74957199  1
  Fe  Fe41  1  0.12567733  0.37541264  0.87541916  1
  Fe  Fe42  1  0.24934565  -0.00074381  -0.00006257  1
  Fe  Fe43  1  0.12570582  0.61943601  0.37607099  1
  Fe  Fe44  1  0.62811775  0.87273800  0.62521706  1
  Fe  Fe45  1  0.24804793  0.25091203  0.24961000  1
  Fe  Fe46  1  0.00129479  0.74789981  0.24801782  1
  Fe  Fe47  1  0.87529428  0.87307297  0.87421037  1
  Fe  Fe48  1  0.37431635  0.87514947  0.62471020  1
  Fe  Fe49  1  0.25219798  0.50159572  0.00356843  1
  Fe  Fe50  1  0.87297882  0.62829797  0.37405179  1
  Fe  Fe51  1  0.87293380  0.12893004  0.62723871  1
  Fe  Fe52  1  0.62476385  0.87592915  0.87656235  1
  Fe  Fe53  1  0.62600008  0.37609211  0.12331775  1
  Fe  Fe54  1  0.00066541  0.00000502  0.24956927  1
  Fe  Fe55  1  0.24777885  0.74718928  0.74959013  1
  Fe  Fe56  1  0.50132015  0.24960531  0.75227027  1
  Fe  Fe57  1  0.12392426  0.62313594  0.87441112  1
  Fe  Fe58  1  0.87547975  0.87385258  0.12545856  1
  Fe  Fe59  1  0.87356522  0.87214812  0.62700378  1
  Fe  Fe60  1  0.50229602  0.74845808  0.50041399  1
  Fe  Fe61  1  0.50021095  0.00138983  0.75074757  1
  Fe  Fe62  1  0.12594542  0.12350015  0.37510822  1
  Fe  Fe63  1  0.37628416  0.12742654  0.12347834  1
  Fe  Fe64  1  0.74998181  0.24749859  0.24739569  1
  Fe  Fe65  1  0.24841447  0.74884582  0.50074641  1
  Fe  Fe66  1  0.74714709  0.74849502  0.00279053  1
  Fe  Fe67  1  0.00112864  0.74915207  0.50115088  1
  Fe  Fe68  1  0.50403020  0.75150107  0.24838096  1
  Fe  Fe69  1  0.75146337  0.50001365  0.75122504  1
  Fe  Fe70  1  0.87520373  0.37503456  0.87663201  1
  Fe  Fe71  1  0.12348043  0.37978335  0.37469770  1
  Fe  Fe72  1  0.50213652  0.24947648  0.49791240  1
  Fe  Fe73  1  0.62813304  0.37643414  0.37377220  1
  Fe  Fe74  1  0.62511305  0.37651057  0.87706366  1
  Fe  Fe75  1  0.62826668  0.87369185  0.37574612  1
  Fe  Fe76  1  0.12324252  0.12366560  0.12524740  1
  Fe  Fe77  1  0.62904277  0.37359542  0.62417669  1
  Fe  Fe78  1  0.50229035  0.74856551  0.74972173  1
  Fe  Fe79  1  0.37331184  0.87254655  0.87396136  1
  Fe  Fe80  1  0.49623600  0.49971383  0.00219366  1
  Fe  Fe81  1  0.24854737  0.25202786  0.00193788  1
  Fe  Fe82  1  0.62805003  0.12837609  0.62521014  1
  Fe  Fe83  1  0.37353252  0.12343557  0.37656679  1
  Fe  Fe84  1  0.00071532  -0.00020665  0.75223147  1
  Fe  Fe85  1  0.37523182  0.62474577  0.62523802  1
  Fe  Fe86  1  0.75441871  0.50320455  0.24323312  1
  Fe  Fe87  1  0.37617931  0.37341213  0.62516302  1
  Fe  Fe88  1  0.50080105  0.25060162  0.24942842  1
  Fe  Fe89  1  0.87530288  0.12565048  0.37293170  1
  Co  Co90  1  0.50050457  0.25369686  -0.00112932  1
  Co  Co91  1  0.74876590  0.74801748  0.75327801  1
  Co  Co92  1  0.12234588  0.62090207  0.12516549  1
  Co  Co93  1  0.12723351  0.87562643  0.87296904  1
  Co  Co94  1  0.74887960  0.25014327  0.75654495  1
  Co  Co95  1  0.37480986  0.62513311  0.87461462  1
  Co  Co96  1  0.62202604  0.12365531  0.87815427  1
  Co  Co97  1  0.25353892  0.49985234  0.50133396  1
  Co  Co98  1  0.00151963  0.25013116  0.25007610  1
  Co  Co99  1  0.74847450  0.74897972  0.24442945  1
  Co  Co100  1  0.62456519  0.12461527  0.37331967  1
  Co  Co101  1  0.49496625  -0.00285060  -0.00135279  1
  Co  Co102  1  0.37510551  0.37315371  0.12513655  1
  Co  Co103  1  0.12522671  0.12708811  0.87578552  1
  Co  Co104  1  -0.00635751  0.50087303  0.49924220  1
  Co  Co105  1  0.37579558  0.12630961  0.62468129  1
  Co  Co106  1  0.12322281  0.62150182  0.62466286  1
  Co  Co107  1  0.87895789  0.12598052  0.87396576  1
  Co  Co108  1  0.24879363  0.25213144  0.74823477  1
  Co  Co109  1  0.25241032  0.49954188  0.24702000  1
  Co  Co110  1  -0.00042302  0.49795430  -0.00127807  1
  Co  Co111  1  0.75124646  0.24992136  0.49547470  1
  Co  Co112  1  0.87570073  0.37371895  0.12433042  1
  Co  Co113  1  0.87668684  0.12397844  0.12547728  1
  Co  Co114  1  0.87922140  0.62692890  0.11924448  1
  Co  Co115  1  0.87287630  0.37154285  0.62678694  1
  Co  Co116  1  0.62264909  0.62141013  0.12474815  1
  Co  Co117  1  0.24862087  0.00002149  0.50297884  1
  Co  Co118  1  0.37572004  0.62786944  0.12708060  1
  Co  Co119  1  0.62642618  0.62323421  0.62499847  1
  Co  Co120  1  0.75022809  0.74838662  0.50163109  1
  Co  Co121  1  -0.00535797  0.50308392  0.25052727  1
  Co  Co122  1  -0.00167368  0.49868583  0.75137182  1
  Co  Co123  1  0.00107001  0.74963469  0.75161525  1
  Co  Co124  1  0.75135908  0.50046714  0.00078816  1
  Co  Co125  1  0.62555634  0.87895473  0.12262751  1
  Co  Co126  1  0.12482125  0.87650911  0.12625951  1
  Co  Co127  1  0.25123241  0.00148986  0.24699260  1
