# generated using pymatgen
data_Fe45Co19
_symmetry_space_group_name_H-M   'P 1'
_cell_length_a   11.41477487
_cell_length_b   11.41553552
_cell_length_c   11.41497850
_cell_angle_alpha   89.99925232
_cell_angle_beta   89.99816753
_cell_angle_gamma   90.00235010
_symmetry_Int_Tables_number   1
_chemical_formula_structural   Fe45Co19
_chemical_formula_sum   'Fe90 Co38'
_cell_volume   1487.43753794
_cell_formula_units_Z   2
loop_
 _symmetry_equiv_pos_site_id
 _symmetry_equiv_pos_as_xyz
  1  'x, y, z'
loop_
 _atom_site_type_symbol
 _atom_site_label
 _atom_site_symmetry_multiplicity
 _atom_site_fract_x
 _atom_site_fract_y
 _atom_site_fract_z
 _atom_site_occupancy
  Fe  Fe0  1  0.74792199  -0.00013985  0.75173119  1
  Fe  Fe1  1  0.37379089  0.62547061  0.87396162  1
  Fe  Fe2  1  0.62394121  0.61973390  0.12996183  1
  Fe  Fe3  1  -0.00283083  -0.00008733  0.25269049  1
  Fe  Fe4  1  0.37457689  0.12402206  0.12622464  1
  Fe  Fe5  1  0.49900630  -0.00019465  0.25193869  1
  Fe  Fe6  1  0.50149211  0.74689740  0.00147554  1
  Fe  Fe7  1  0.12611441  0.37481749  0.87392865  1
  Fe  Fe8  1  0.62538592  0.12712046  0.37403383  1
  Fe  Fe9  1  0.87594581  0.37262378  0.37794073  1
  Fe  Fe10  1  0.74848169  0.74828728  0.00138788  1
  Fe  Fe11  1  0.75171249  0.25185359  0.24857542  1
  Fe  Fe12  1  0.24639378  0.74727531  -0.00005458  1
  Fe  Fe13  1  0.24536944  0.24717507  0.00188452  1
  Fe  Fe14  1  0.49617472  0.49786808  0.75153938  1
  Fe  Fe15  1  0.87279648  0.12525528  0.62654098  1
  Fe  Fe16  1  0.49860919  0.25376498  0.25148813  1
  Fe  Fe17  1  0.00124884  0.50137999  0.50067566  1
  Fe  Fe18  1  0.12524846  0.87368456  0.87341923  1
  Fe  Fe19  1  0.49952079  0.75070086  0.74846842  1
  Fe  Fe20  1  0.25130454  0.49658689  0.25293613  1
  Fe  Fe21  1  0.62363146  0.87627893  0.12500883  1
  Fe  Fe22  1  0.00237416  0.25139582  0.25019208  1
  Fe  Fe23  1  0.25403168  0.25194887  0.74706437  1
  Fe  Fe24  1  0.00012296  0.75043143  0.74778931  1
  Fe  Fe25  1  0.25167807  -0.00337047  0.50130182  1
  Fe  Fe26  1  0.12831323  0.62498117  0.37691849  1
  Fe  Fe27  1  0.12117207  0.87478840  0.37913293  1
  Fe  Fe28  1  0.37430523  0.62755635  0.62022669  1
  Fe  Fe29  1  0.24799943  0.25220218  0.25018800  1
  Fe  Fe30  1  0.74816002  0.00003820  -0.00161483  1
  Fe  Fe31  1  0.50238681  0.50383892  0.49206268  1
  Fe  Fe32  1  0.87898157  0.37459702  0.12023941  1
  Fe  Fe33  1  0.49883470  0.74698897  0.25169742  1
  Fe  Fe34  1  0.24840794  0.24991042  0.50114469  1
  Fe  Fe35  1  0.74823518  0.50088260  0.49904797  1
  Fe  Fe36  1  0.87668203  0.62429385  0.12404839  1
  Fe  Fe37  1  0.87541968  0.62525374  0.87356180  1
  Fe  Fe38  1  0.12328138  0.87613442  0.12437046  1
  Fe  Fe39  1  0.62369870  0.12522117  0.12604271  1
  Fe  Fe40  1  0.37498039  0.12793338  0.87504616  1
  Fe  Fe41  1  0.00453275  0.50380309  -0.00119339  1
  Fe  Fe42  1  0.74881748  0.50029720  -0.00097128  1
  Fe  Fe43  1  0.62240511  0.37878077  0.12714297  1
  Fe  Fe44  1  0.24961448  0.75262471  0.25122986  1
  Fe  Fe45  1  0.12478060  0.37413869  0.62331742  1
  Fe  Fe46  1  0.12447035  0.12351334  0.62591891  1
  Fe  Fe47  1  0.62279353  0.12971325  0.87121576  1
  Fe  Fe48  1  0.25318756  -0.00375853  0.74725848  1
  Fe  Fe49  1  0.12800954  0.62816707  0.62469528  1
  Fe  Fe50  1  0.62082909  0.87938724  0.62502290  1
  Fe  Fe51  1  0.24742037  0.50312432  -0.00096091  1
  Fe  Fe52  1  -0.00000912  0.49940151  0.74842394  1
  Fe  Fe53  1  0.87582437  0.12759064  0.87582801  1
  Fe  Fe54  1  0.87212894  0.62704288  0.37613151  1
  Fe  Fe55  1  -0.00192024  0.25195983  0.74984648  1
  Fe  Fe56  1  0.12337503  0.12563636  0.37664477  1
  Fe  Fe57  1  0.50125031  0.00142828  -0.00226136  1
  Fe  Fe58  1  0.75258918  0.00058579  0.25130533  1
  Fe  Fe59  1  0.37579067  0.87336636  0.87635375  1
  Fe  Fe60  1  0.87423851  0.37516241  0.62357123  1
  Fe  Fe61  1  0.24665720  0.00244626  -0.00037546  1
  Fe  Fe62  1  0.37511544  0.87579339  0.12335188  1
  Fe  Fe63  1  0.38073738  0.12255627  0.62291720  1
  Fe  Fe64  1  0.75100773  0.00097063  0.49829710  1
  Fe  Fe65  1  0.37418749  0.62300467  0.12682644  1
  Fe  Fe66  1  0.87480358  0.87288362  0.87658449  1
  Fe  Fe67  1  0.74688118  0.74929004  0.50313272  1
  Fe  Fe68  1  0.75106665  0.49628557  0.75216638  1
  Fe  Fe69  1  0.37466877  0.12762128  0.37534021  1
  Fe  Fe70  1  0.25185660  0.49957904  0.74851113  1
  Fe  Fe71  1  0.37867634  0.87158567  0.37919520  1
  Fe  Fe72  1  -0.00022450  0.49938648  0.25200670  1
  Fe  Fe73  1  0.25037723  -0.00210843  0.25274247  1
  Fe  Fe74  1  0.62137773  0.37341799  0.87425275  1
  Fe  Fe75  1  0.75171285  0.75086083  0.24649333  1
  Fe  Fe76  1  0.87795270  0.12489561  0.12293266  1
  Fe  Fe77  1  0.74814263  0.24841092  0.50218629  1
  Fe  Fe78  1  0.74760986  0.75081777  0.74770243  1
  Fe  Fe79  1  0.87270836  0.62475415  0.62600941  1
  Fe  Fe80  1  0.74930246  0.25179558  -0.00076865  1
  Fe  Fe81  1  0.87800429  0.87610067  0.12181205  1
  Fe  Fe82  1  0.62444130  0.62454218  0.87254802  1
  Fe  Fe83  1  0.37728306  0.37690803  0.61853844  1
  Fe  Fe84  1  -0.00453081  -0.00069062  0.50054346  1
  Fe  Fe85  1  0.62343376  0.37536837  0.62481507  1
  Fe  Fe86  1  -0.00075931  -0.00110847  0.75027767  1
  Fe  Fe87  1  0.00020813  0.74893131  0.25108152  1
  Fe  Fe88  1  0.37602235  0.37662088  0.12159759  1
  Fe  Fe89  1  0.62612407  0.87358697  0.37355281  1
  Co  Co90  1  0.75150592  0.25331524  0.74982423  1
  Co  Co91  1  0.87299089  0.87073321  0.37597676  1
  Co  Co92  1  0.75636838  0.49613988  0.24897699  1
  Co  Co93  1  0.12690781  0.12644210  0.86776962  1
  Co  Co94  1  0.62345417  0.12363423  0.62733879  1
  Co  Co95  1  0.00310003  0.74722132  -0.00030091  1
  Co  Co96  1  0.36904345  0.62760182  0.37789250  1
  Co  Co97  1  0.49585290  0.25296358  0.74746404  1
  Co  Co98  1  0.38161705  0.87394523  0.62153813  1
  Co  Co99  1  0.12235041  0.87560581  0.62449125  1
  Co  Co100  1  0.24868704  0.75553516  0.50206792  1
  Co  Co101  1  0.12558934  0.62525010  0.86877836  1
  Co  Co102  1  0.12397156  0.12160219  0.13030726  1
  Co  Co103  1  0.12487890  0.37705541  0.12391076  1
  Co  Co104  1  0.62421354  0.61991793  0.62900204  1
  Co  Co105  1  0.49881584  0.00001558  0.75465640  1
  Co  Co106  1  0.87877530  0.37598374  0.87842633  1
  Co  Co107  1  0.00300281  0.00206366  -0.00326708  1
  Co  Co108  1  0.50071599  0.50196167  -0.00181717  1
  Co  Co109  1  0.50663614  0.74435893  0.49848371  1
  Co  Co110  1  0.62458028  0.87191186  0.87503184  1
  Co  Co111  1  0.25216795  0.75274970  0.74747073  1
  Co  Co112  1  0.50045299  0.24951746  0.00163654  1
  Co  Co113  1  0.37261342  0.37273009  0.37979580  1
  Co  Co114  1  0.50287370  0.24986702  0.49911422  1
  Co  Co115  1  0.62822017  0.37533852  0.37349485  1
  Co  Co116  1  0.37217790  0.37394532  0.87986041  1
  Co  Co117  1  -0.00147064  0.74794743  0.50181609  1
  Co  Co118  1  0.87553066  0.12913332  0.37506319  1
  Co  Co119  1  0.12422148  0.37448518  0.37825847  1
  Co  Co120  1  0.00563655  0.24668890  -0.00129523  1
  Co  Co121  1  0.24783320  0.49887400  0.50104988  1
  Co  Co122  1  0.63117461  0.62403337  0.36835995  1
  Co  Co123  1  0.12674999  0.62461049  0.13034211  1
  Co  Co124  1  0.87321231  0.87504564  0.62572555  1
  Co  Co125  1  -0.00006267  0.24882019  0.50345331  1
  Co  Co126  1  0.50070055  0.00215057  0.49546765  1
  Co  Co127  1  0.49503527  0.49893112  0.25682593  1
