# generated using pymatgen
data_Fe45Co19
_symmetry_space_group_name_H-M   'P 1'
_cell_length_a   11.41518777
_cell_length_b   11.41553199
_cell_length_c   11.41413639
_cell_angle_alpha   90.00735361
_cell_angle_beta   90.00421894
_cell_angle_gamma   89.99160861
_symmetry_Int_Tables_number   1
_chemical_formula_structural   Fe45Co19
_chemical_formula_sum   'Fe90 Co38'
_cell_volume   1487.38111544
_cell_formula_units_Z   2
loop_
 _symmetry_equiv_pos_site_id
 _symmetry_equiv_pos_as_xyz
  1  'x, y, z'
loop_
 _atom_site_type_symbol
 _atom_site_label
 _atom_site_symmetry_multiplicity
 _atom_site_fract_x
 _atom_site_fract_y
 _atom_site_fract_z
 _atom_site_occupancy
  Fe  Fe0  1  0.25177215  0.74966317  0.50137233  1
  Fe  Fe1  1  0.87320588  0.87538838  0.62982591  1
  Fe  Fe2  1  -0.00054063  0.75160687  0.50147540  1
  Fe  Fe3  1  0.74743546  -0.00041188  0.25127721  1
  Fe  Fe4  1  0.12093079  0.13091269  0.88170727  1
  Fe  Fe5  1  0.62819056  0.12332726  0.11521585  1
  Fe  Fe6  1  0.37109265  0.87716924  0.62941169  1
  Fe  Fe7  1  0.74708699  0.74438609  0.75518113  1
  Fe  Fe8  1  0.74977070  0.49665808  0.50108056  1
  Fe  Fe9  1  0.87665181  0.62286054  0.37481690  1
  Fe  Fe10  1  0.87670548  0.62214810  0.12085524  1
  Fe  Fe11  1  0.49822470  0.25322701  0.00053199  1
  Fe  Fe12  1  0.37974424  0.12919104  0.37404400  1
  Fe  Fe13  1  0.25455107  0.25111736  0.50078716  1
  Fe  Fe14  1  0.62792087  0.37577993  0.87499464  1
  Fe  Fe15  1  0.37864046  0.37222295  0.37053167  1
  Fe  Fe16  1  0.87502893  0.37489594  0.37152088  1
  Fe  Fe17  1  0.50050507  0.74733883  0.74930447  1
  Fe  Fe18  1  0.74728243  0.25013730  0.24765109  1
  Fe  Fe19  1  0.00459217  0.74694804  0.75113400  1
  Fe  Fe20  1  0.24676411  0.50198120  0.75126130  1
  Fe  Fe21  1  0.37805051  0.12410023  0.87506143  1
  Fe  Fe22  1  0.24966035  0.24704719  0.75107365  1
  Fe  Fe23  1  0.12599806  0.62327733  0.62335323  1
  Fe  Fe24  1  0.00236930  0.00365329  0.75085813  1
  Fe  Fe25  1  0.25084258  0.49647132  -0.00164863  1
  Fe  Fe26  1  0.50447499  0.50276830  0.74819390  1
  Fe  Fe27  1  0.37598727  0.87595961  0.37220442  1
  Fe  Fe28  1  0.74933293  0.25287816  0.50045710  1
  Fe  Fe29  1  0.62376122  0.12768025  0.62439315  1
  Fe  Fe30  1  0.37398043  0.62345105  0.12335740  1
  Fe  Fe31  1  0.74802956  0.50190420  0.25002922  1
  Fe  Fe32  1  -0.00093131  0.00103945  0.00222817  1
  Fe  Fe33  1  0.62619668  0.87685264  0.12119417  1
  Fe  Fe34  1  0.87533720  0.87554949  0.37309644  1
  Fe  Fe35  1  0.00399362  0.75177448  -0.00110616  1
  Fe  Fe36  1  0.74968018  -0.00012733  0.49940059  1
  Fe  Fe37  1  0.87520389  0.12677204  0.37385647  1
  Fe  Fe38  1  0.50087863  0.00106929  0.75063806  1
  Fe  Fe39  1  0.74815872  0.74805246  0.24945317  1
  Fe  Fe40  1  0.87429138  0.87590943  0.12483182  1
  Fe  Fe41  1  0.12416033  0.37387901  0.37522923  1
  Fe  Fe42  1  -0.00259220  0.49700684  0.50339077  1
  Fe  Fe43  1  0.37579312  0.62189893  0.37473567  1
  Fe  Fe44  1  0.24914554  -0.00056003  -0.00113967  1
  Fe  Fe45  1  -0.00179965  -0.00089533  0.50166699  1
  Fe  Fe46  1  0.50224402  0.00171197  0.24714592  1
  Fe  Fe47  1  0.62687503  0.87416141  0.62660608  1
  Fe  Fe48  1  0.50145568  0.24934136  0.74885206  1
  Fe  Fe49  1  0.50002101  -0.00035772  0.50107622  1
  Fe  Fe50  1  -0.00290176  0.25246553  0.50355715  1
  Fe  Fe51  1  0.37468246  0.62473719  0.87543504  1
  Fe  Fe52  1  0.49631330  0.75234547  0.00011840  1
  Fe  Fe53  1  0.87810913  0.87424909  0.87368205  1
  Fe  Fe54  1  0.37055775  0.87490546  0.87200527  1
  Fe  Fe55  1  0.12501978  0.87506263  0.37417261  1
  Fe  Fe56  1  0.24876942  0.74737443  0.24902642  1
  Fe  Fe57  1  0.62287171  0.87643322  0.87732838  1
  Fe  Fe58  1  0.25259291  0.49707511  0.49966253  1
  Fe  Fe59  1  0.62421828  0.62190611  0.11759328  1
  Fe  Fe60  1  0.37174210  0.87530224  0.12662247  1
  Fe  Fe61  1  0.62356153  0.62339056  0.37808154  1
  Fe  Fe62  1  0.12466479  0.62269700  0.37611712  1
  Fe  Fe63  1  0.87360432  0.62469687  0.62758321  1
  Fe  Fe64  1  0.50191941  0.74914557  0.24860526  1
  Fe  Fe65  1  0.00305373  0.49785421  0.24663372  1
  Fe  Fe66  1  0.00085033  0.74887203  0.24919781  1
  Fe  Fe67  1  0.12807141  0.87687020  0.62862723  1
  Fe  Fe68  1  0.50155404  0.49862961  0.24712205  1
  Fe  Fe69  1  0.00242807  0.00349663  0.24693037  1
  Fe  Fe70  1  0.75055544  0.74908754  -0.00235460  1
  Fe  Fe71  1  0.12672496  0.12590261  0.62263914  1
  Fe  Fe72  1  0.12881433  0.36959168  0.12105853  1
  Fe  Fe73  1  0.62930060  0.37736370  0.11949430  1
  Fe  Fe74  1  0.87073070  0.37501479  0.63591886  1
  Fe  Fe75  1  0.25218362  0.00188475  0.49951229  1
  Fe  Fe76  1  0.50130228  0.49397533  0.50414469  1
  Fe  Fe77  1  0.74825906  0.00454252  0.75573184  1
  Fe  Fe78  1  0.12607205  0.62297774  0.12057160  1
  Fe  Fe79  1  0.62214144  0.12906906  0.37655087  1
  Fe  Fe80  1  0.12615940  0.37453345  0.62792883  1
  Fe  Fe81  1  0.24710994  0.00412906  0.24930277  1
  Fe  Fe82  1  0.49840958  0.75158705  0.50175946  1
  Fe  Fe83  1  0.37258475  0.12764892  0.12385597  1
  Fe  Fe84  1  0.75086302  0.75132124  0.49867905  1
  Fe  Fe85  1  0.37511773  0.37638900  0.87007315  1
  Fe  Fe86  1  0.37248467  0.37294478  0.12811980  1
  Fe  Fe87  1  -0.00005624  0.24907228  0.24527110  1
  Fe  Fe88  1  0.87326880  0.12630886  0.62755636  1
  Fe  Fe89  1  0.12328826  0.12747955  0.37704946  1
  Co  Co90  1  0.00319749  0.24751917  0.74711299  1
  Co  Co91  1  0.12537961  0.62274980  0.88039229  1
  Co  Co92  1  0.37560689  0.62271734  0.62553817  1
  Co  Co93  1  0.75651441  0.49865868  -0.00698468  1
  Co  Co94  1  0.61959530  0.12493366  0.88233198  1
  Co  Co95  1  -0.01035047  0.25560142  0.00469968  1
  Co  Co96  1  0.74703280  0.50846473  0.75566355  1
  Co  Co97  1  0.12550253  0.87541249  0.12535820  1
  Co  Co98  1  0.24815320  0.24852313  0.25323443  1
  Co  Co99  1  0.00276177  0.50267941  0.75209185  1
  Co  Co100  1  0.12210173  0.37108178  0.87490599  1
  Co  Co101  1  0.88081295  0.62554193  0.87710157  1
  Co  Co102  1  0.24793659  0.74533194  0.75068265  1
  Co  Co103  1  0.88021570  0.12807048  0.87461683  1
  Co  Co104  1  0.50479236  0.24949459  0.24211843  1
  Co  Co105  1  0.87028160  0.12254507  0.12555700  1
  Co  Co106  1  0.49439268  -0.00277507  0.00083464  1
  Co  Co107  1  0.75480962  -0.00051157  -0.00757911  1
  Co  Co108  1  0.12733924  0.13085100  0.11891880  1
  Co  Co109  1  0.37626936  0.12483903  0.62668814  1
  Co  Co110  1  0.86993550  0.37865967  0.12855486  1
  Co  Co111  1  0.49486225  0.49526048  -0.00010045  1
  Co  Co112  1  0.37352014  0.37553218  0.63050316  1
  Co  Co113  1  -0.00123790  0.49213066  -0.00131860  1
  Co  Co114  1  0.25634051  0.25225730  -0.00571246  1
  Co  Co115  1  0.24990260  0.75110762  -0.00047513  1
  Co  Co116  1  0.12584031  0.87599039  0.87359729  1
  Co  Co117  1  0.62353653  0.37372052  0.37299350  1
  Co  Co118  1  0.24868816  0.49849147  0.24914527  1
  Co  Co119  1  0.61927452  0.62350656  0.88287996  1
  Co  Co120  1  0.24705393  0.00708090  0.75405170  1
  Co  Co121  1  0.74584107  0.24264783  0.75656286  1
  Co  Co122  1  0.49947285  0.25530837  0.50517323  1
  Co  Co123  1  0.62556278  0.62574585  0.62097481  1
  Co  Co124  1  0.87606622  0.37319118  0.86376319  1
  Co  Co125  1  0.63042322  0.37414303  0.63183374  1
  Co  Co126  1  0.62351855  0.87447728  0.37497312  1
  Co  Co127  1  0.75590134  0.25186918  -0.00411854  1
