# generated using pymatgen
data_Fe45Co19
_symmetry_space_group_name_H-M   'P 1'
_cell_length_a   11.41445893
_cell_length_b   11.41460993
_cell_length_c   11.41495332
_cell_angle_alpha   90.00030927
_cell_angle_beta   89.99201776
_cell_angle_gamma   90.00168149
_symmetry_Int_Tables_number   1
_chemical_formula_structural   Fe45Co19
_chemical_formula_sum   'Fe90 Co38'
_cell_volume   1487.27247318
_cell_formula_units_Z   2
loop_
 _symmetry_equiv_pos_site_id
 _symmetry_equiv_pos_as_xyz
  1  'x, y, z'
loop_
 _atom_site_type_symbol
 _atom_site_label
 _atom_site_symmetry_multiplicity
 _atom_site_fract_x
 _atom_site_fract_y
 _atom_site_fract_z
 _atom_site_occupancy
  Fe  Fe0  1  0.74998366  0.00137558  0.24993576  1
  Fe  Fe1  1  0.49868782  0.00346848  0.75177073  1
  Fe  Fe2  1  0.00094165  0.75179562  0.49771037  1
  Fe  Fe3  1  0.12464678  0.62637986  0.87417763  1
  Fe  Fe4  1  0.12908652  0.37409144  0.12384971  1
  Fe  Fe5  1  0.62304339  0.62455812  0.12600152  1
  Fe  Fe6  1  0.74949941  0.49752558  0.24903130  1
  Fe  Fe7  1  0.87769187  0.62693835  0.12592379  1
  Fe  Fe8  1  0.12628025  0.87340111  0.12784223  1
  Fe  Fe9  1  0.49851216  0.49586933  0.49926329  1
  Fe  Fe10  1  0.62259973  0.62301083  0.62509334  1
  Fe  Fe11  1  0.49796721  -0.00057361  0.24860597  1
  Fe  Fe12  1  0.49855215  0.00312912  0.49948362  1
  Fe  Fe13  1  0.49676513  0.49676501  0.00024796  1
  Fe  Fe14  1  0.49764147  0.74993129  0.49864718  1
  Fe  Fe15  1  0.37446931  0.87676224  0.87602538  1
  Fe  Fe16  1  0.00066242  0.50040895  0.00092349  1
  Fe  Fe17  1  0.75008380  0.24682422  0.75353255  1
  Fe  Fe18  1  0.49704014  0.25029871  -0.00007190  1
  Fe  Fe19  1  0.62471535  0.37376064  0.62724874  1
  Fe  Fe20  1  0.24978955  0.00228291  0.00069151  1
  Fe  Fe21  1  0.74800807  0.74987096  0.49982270  1
  Fe  Fe22  1  0.87793545  0.62752864  0.87245224  1
  Fe  Fe23  1  0.00201785  0.00105063  0.49939882  1
  Fe  Fe24  1  0.87314348  0.87420112  0.62623151  1
  Fe  Fe25  1  0.00252722  0.49839184  0.25022148  1
  Fe  Fe26  1  0.74977205  0.00169892  0.50012985  1
  Fe  Fe27  1  0.00047507  -0.00101495  0.74983221  1
  Fe  Fe28  1  0.49554347  0.49773318  0.75275430  1
  Fe  Fe29  1  0.37271276  0.87659664  0.12564606  1
  Fe  Fe30  1  0.62346579  0.87694559  0.37541351  1
  Fe  Fe31  1  0.87849497  0.12670895  0.62631611  1
  Fe  Fe32  1  0.87606463  0.37273970  0.62539550  1
  Fe  Fe33  1  0.62128044  0.12860480  0.37364212  1
  Fe  Fe34  1  0.49885702  0.75058405  0.74883059  1
  Fe  Fe35  1  0.62411907  0.87864860  0.87410896  1
  Fe  Fe36  1  0.62528075  0.87693074  0.62644616  1
  Fe  Fe37  1  0.75009589  0.50150369  0.75071828  1
  Fe  Fe38  1  0.37363382  0.62221782  0.62440652  1
  Fe  Fe39  1  0.87709318  0.37439329  0.87423162  1
  Fe  Fe40  1  0.00418019  0.49991620  0.74729574  1
  Fe  Fe41  1  0.12963243  0.87699361  0.37326719  1
  Fe  Fe42  1  0.87611027  0.87308209  0.12549484  1
  Fe  Fe43  1  0.00187818  -0.00113401  -0.00084638  1
  Fe  Fe44  1  0.74960385  0.49872862  0.50026076  1
  Fe  Fe45  1  0.87455110  0.37441577  0.12500150  1
  Fe  Fe46  1  0.49581825  0.75240427  0.25182692  1
  Fe  Fe47  1  0.62439503  0.12680216  0.62537279  1
  Fe  Fe48  1  0.87759408  0.12597164  0.12407706  1
  Fe  Fe49  1  0.12803912  0.87634516  0.62328302  1
  Fe  Fe50  1  0.75010682  0.75125037  0.25225161  1
  Fe  Fe51  1  -0.00036685  0.25250056  0.25095291  1
  Fe  Fe52  1  0.87659090  0.62717589  0.62603409  1
  Fe  Fe53  1  0.62149222  0.62317507  0.37439057  1
  Fe  Fe54  1  0.75079790  0.50077801  -0.00020930  1
  Fe  Fe55  1  0.75111784  0.25039808  0.49819618  1
  Fe  Fe56  1  0.12563228  0.62673074  0.12706308  1
  Fe  Fe57  1  0.50005947  0.75233479  0.00187065  1
  Fe  Fe58  1  0.12861884  0.37447179  0.87456571  1
  Fe  Fe59  1  0.62416436  0.12652483  0.12421969  1
  Fe  Fe60  1  0.74869433  0.75057685  -0.00074321  1
  Fe  Fe61  1  0.37173825  0.37271287  0.62598165  1
  Fe  Fe62  1  0.87410232  0.87440548  0.87246984  1
  Fe  Fe63  1  0.12711451  0.12452327  0.87093871  1
  Fe  Fe64  1  0.25348749  0.74834983  0.49694834  1
  Fe  Fe65  1  0.12712745  0.87484909  0.87448841  1
  Fe  Fe66  1  0.12753992  0.37179452  0.37766783  1
  Fe  Fe67  1  0.37416711  0.62309443  0.12674938  1
  Fe  Fe68  1  0.75120058  0.24898752  -0.00110880  1
  Fe  Fe69  1  0.00144492  0.49834113  0.50082139  1
  Fe  Fe70  1  0.62206084  0.62491645  0.87533259  1
  Fe  Fe71  1  0.37387839  0.87765431  0.62272294  1
  Fe  Fe72  1  0.37403604  0.12753081  0.62790217  1
  Fe  Fe73  1  0.00271319  0.24931889  -0.00200441  1
  Fe  Fe74  1  -0.00030859  -0.00326200  0.25128871  1
  Fe  Fe75  1  0.25007350  0.74922177  0.00086261  1
  Fe  Fe76  1  0.25229152  0.50138227  -0.00213723  1
  Fe  Fe77  1  0.62361292  0.37370080  0.87560050  1
  Fe  Fe78  1  0.87626640  0.62311587  0.37521534  1
  Fe  Fe79  1  0.74947860  0.00014011  0.00061148  1
  Fe  Fe80  1  0.12422600  0.12467421  0.12813174  1
  Fe  Fe81  1  0.12857857  0.62428491  0.37467468  1
  Fe  Fe82  1  0.87717082  0.12573578  0.37464842  1
  Fe  Fe83  1  0.37316891  0.12734406  0.12623284  1
  Fe  Fe84  1  0.49750308  0.49326939  0.24753428  1
  Fe  Fe85  1  0.12780577  0.37113380  0.62322517  1
  Fe  Fe86  1  0.37170571  0.36998721  0.37602859  1
  Fe  Fe87  1  0.24985706  0.00874692  0.49689132  1
  Fe  Fe88  1  0.62575102  0.37157922  0.37353539  1
  Fe  Fe89  1  0.25043380  0.74930883  0.74883953  1
  Co  Co90  1  0.12714161  0.62651053  0.62196466  1
  Co  Co91  1  0.24747680  0.24550127  0.00015011  1
  Co  Co92  1  0.49733316  0.00060602  0.00225908  1
  Co  Co93  1  0.62792024  0.37366631  0.12220058  1
  Co  Co94  1  0.74654428  0.74887057  0.74978400  1
  Co  Co95  1  0.25002413  0.24950214  0.74866811  1
  Co  Co96  1  0.12105235  0.12564488  0.37113040  1
  Co  Co97  1  0.12267073  0.12598649  0.62874328  1
  Co  Co98  1  0.50005287  0.24849063  0.75074931  1
  Co  Co99  1  0.25111180  -0.00034842  0.74942852  1
  Co  Co100  1  0.75101315  0.24862256  0.25008989  1
  Co  Co101  1  0.24939659  0.24221955  0.49939212  1
  Co  Co102  1  0.24942470  0.50143722  0.75055556  1
  Co  Co103  1  0.87506396  0.37570545  0.37475698  1
  Co  Co104  1  0.00185188  0.25068167  0.75254931  1
  Co  Co105  1  0.62508757  0.87546797  0.12702131  1
  Co  Co106  1  0.25095885  0.49861873  0.49981938  1
  Co  Co107  1  0.87337380  0.87692232  0.37663324  1
  Co  Co108  1  0.24861300  0.24847477  0.25110343  1
  Co  Co109  1  0.00058712  0.75144610  -0.00026015  1
  Co  Co110  1  0.37996797  0.12880220  0.37155407  1
  Co  Co111  1  0.62244439  0.12401614  0.87849987  1
  Co  Co112  1  0.49901945  0.25418238  0.24552689  1
  Co  Co113  1  0.25153061  0.00316722  0.25113933  1
  Co  Co114  1  0.36832908  0.37300747  0.12210336  1
  Co  Co115  1  0.37271075  0.12568634  0.87517340  1
  Co  Co116  1  0.25013169  0.49726572  0.25071971  1
  Co  Co117  1  0.37154527  0.37144746  0.87532357  1
  Co  Co118  1  0.87782901  0.12404771  0.87659733  1
  Co  Co119  1  0.49900741  0.25121279  0.50242025  1
  Co  Co120  1  0.74989665  0.00427563  0.74985980  1
  Co  Co121  1  0.00383807  0.75215663  0.74854523  1
  Co  Co122  1  0.00058967  0.24932681  0.49901138  1
  Co  Co123  1  0.00128075  0.75100950  0.25310147  1
  Co  Co124  1  0.37364777  0.87951188  0.37723560  1
  Co  Co125  1  0.37559716  0.62745126  0.87548674  1
  Co  Co126  1  0.37618707  0.62018943  0.37372048  1
  Co  Co127  1  0.25363120  0.74959444  0.25159085  1
