# generated using pymatgen
data_Fe45Co19
_symmetry_space_group_name_H-M   'P 1'
_cell_length_a   11.41481572
_cell_length_b   11.41609041
_cell_length_c   11.41479146
_cell_angle_alpha   90.00690132
_cell_angle_beta   90.00768857
_cell_angle_gamma   89.99576745
_symmetry_Int_Tables_number   1
_chemical_formula_structural   Fe45Co19
_chemical_formula_sum   'Fe90 Co38'
_cell_volume   1487.49076271
_cell_formula_units_Z   2
loop_
 _symmetry_equiv_pos_site_id
 _symmetry_equiv_pos_as_xyz
  1  'x, y, z'
loop_
 _atom_site_type_symbol
 _atom_site_label
 _atom_site_symmetry_multiplicity
 _atom_site_fract_x
 _atom_site_fract_y
 _atom_site_fract_z
 _atom_site_occupancy
  Fe  Fe0  1  0.12323991  0.87481081  0.37391588  1
  Fe  Fe1  1  -0.00205443  0.24898830  0.00501021  1
  Fe  Fe2  1  0.25032086  0.74815316  0.49728478  1
  Fe  Fe3  1  0.00095178  0.74636902  0.24816049  1
  Fe  Fe4  1  0.12290397  0.12434636  0.87769604  1
  Fe  Fe5  1  0.12328202  0.12404864  0.37194492  1
  Fe  Fe6  1  0.24897921  0.74837389  0.25035952  1
  Fe  Fe7  1  0.12087690  0.37973999  0.37201471  1
  Fe  Fe8  1  0.50553022  0.75229402  0.25004647  1
  Fe  Fe9  1  0.50194544  0.74971016  0.00159604  1
  Fe  Fe10  1  0.37927831  0.37160450  0.12403567  1
  Fe  Fe11  1  0.87292656  0.87351697  0.62519732  1
  Fe  Fe12  1  0.25135522  0.49858178  0.49828621  1
  Fe  Fe13  1  0.74612558  0.24738999  -0.00494035  1
  Fe  Fe14  1  0.37460544  0.62651332  0.62496947  1
  Fe  Fe15  1  0.49955879  0.49998050  0.74860621  1
  Fe  Fe16  1  0.38004436  0.37482890  0.87625353  1
  Fe  Fe17  1  0.74922611  0.25015634  0.49770812  1
  Fe  Fe18  1  -0.00255040  -0.00008287  0.49898227  1
  Fe  Fe19  1  0.74721752  0.49839176  0.24773493  1
  Fe  Fe20  1  0.74505517  0.25312607  0.25202068  1
  Fe  Fe21  1  0.37712021  0.12453392  0.87346454  1
  Fe  Fe22  1  0.00019372  0.25090333  0.24400354  1
  Fe  Fe23  1  0.74939185  0.74951004  0.75285881  1
  Fe  Fe24  1  0.37986245  0.37214188  0.37747687  1
  Fe  Fe25  1  0.37807896  0.87440582  0.37622073  1
  Fe  Fe26  1  0.00042681  -0.00045095  0.75015160  1
  Fe  Fe27  1  0.37717718  0.62635521  0.12597641  1
  Fe  Fe28  1  0.24951316  -0.00000068  0.75091894  1
  Fe  Fe29  1  0.25216046  0.24866877  -0.00049645  1
  Fe  Fe30  1  0.87584231  0.87452913  0.37211297  1
  Fe  Fe31  1  0.37353316  0.12844269  0.62011768  1
  Fe  Fe32  1  0.62237659  0.62338801  0.87509646  1
  Fe  Fe33  1  0.12589005  0.87220228  0.12334308  1
  Fe  Fe34  1  0.00108211  0.75030949  0.75228910  1
  Fe  Fe35  1  0.12501232  0.37604017  0.62562523  1
  Fe  Fe36  1  0.87690734  0.37807275  0.37208946  1
  Fe  Fe37  1  0.74508655  0.49962314  0.00093194  1
  Fe  Fe38  1  0.75266510  0.00148402  0.75172441  1
  Fe  Fe39  1  0.74983115  0.00128046  -0.00012938  1
  Fe  Fe40  1  0.87006491  0.87192432  0.12620462  1
  Fe  Fe41  1  0.25009631  0.50071205  0.24932400  1
  Fe  Fe42  1  0.25147759  -0.00095664  0.00045158  1
  Fe  Fe43  1  0.86931189  0.62756594  0.12470771  1
  Fe  Fe44  1  0.87568360  0.87550609  0.87654884  1
  Fe  Fe45  1  0.37543996  0.12706523  0.12773955  1
  Fe  Fe46  1  0.62489278  0.12631994  0.12617748  1
  Fe  Fe47  1  0.87532915  0.12483799  0.37044445  1
  Fe  Fe48  1  -0.00043725  0.25165925  0.49895985  1
  Fe  Fe49  1  0.12522706  0.12616842  0.62363153  1
  Fe  Fe50  1  0.87700698  0.62200018  0.37374304  1
  Fe  Fe51  1  0.37779481  0.87494855  0.12672860  1
  Fe  Fe52  1  0.50404880  0.24863859  0.75020224  1
  Fe  Fe53  1  -0.00106397  0.50074213  0.75085860  1
  Fe  Fe54  1  0.50267457  0.49707644  0.24717296  1
  Fe  Fe55  1  0.24958125  0.25041835  0.75141998  1
  Fe  Fe56  1  0.74852402  0.75114082  0.49675906  1
  Fe  Fe57  1  0.87433814  0.12638807  0.62555605  1
  Fe  Fe58  1  0.49774309  -0.00210434  0.74457253  1
  Fe  Fe59  1  0.62381867  0.87749859  0.87471856  1
  Fe  Fe60  1  0.62751192  0.12049191  0.62213847  1
  Fe  Fe61  1  0.87244588  0.37478397  0.62835237  1
  Fe  Fe62  1  0.62320724  0.62316641  0.37579874  1
  Fe  Fe63  1  0.25058224  -0.00054694  0.25042602  1
  Fe  Fe64  1  0.62719444  0.37598856  0.62557363  1
  Fe  Fe65  1  0.12482930  0.62708957  0.88059876  1
  Fe  Fe66  1  -0.00108959  0.49794881  0.00520217  1
  Fe  Fe67  1  0.62537391  0.62546248  0.62354301  1
  Fe  Fe68  1  0.37585834  0.87383386  0.87437322  1
  Fe  Fe69  1  0.50087367  0.00271537  0.25303068  1
  Fe  Fe70  1  0.37605401  0.37197042  0.62238281  1
  Fe  Fe71  1  0.12540959  0.62313208  0.62327833  1
  Fe  Fe72  1  0.00045233  0.74940756  0.49938585  1
  Fe  Fe73  1  0.87096648  0.37425387  0.87390958  1
  Fe  Fe74  1  0.50130468  0.75296576  0.74606727  1
  Fe  Fe75  1  0.25049287  0.25076674  0.25191497  1
  Fe  Fe76  1  0.87430118  0.62440457  0.87762988  1
  Fe  Fe77  1  0.12478722  0.37457048  0.87832750  1
  Fe  Fe78  1  -0.00063856  0.25047626  0.75112640  1
  Fe  Fe79  1  0.75104555  0.49983590  0.50030512  1
  Fe  Fe80  1  0.24836947  0.75059696  0.75348113  1
  Fe  Fe81  1  0.74802346  -0.00288971  0.25112456  1
  Fe  Fe82  1  0.25448200  0.50177562  0.00032691  1
  Fe  Fe83  1  0.49958989  0.00161430  0.00188052  1
  Fe  Fe84  1  0.12666911  0.87551739  0.62441706  1
  Fe  Fe85  1  -0.00184407  0.00154771  0.00545491  1
  Fe  Fe86  1  0.25152965  0.00092783  0.49805944  1
  Fe  Fe87  1  0.25157109  0.49993855  0.75302373  1
  Fe  Fe88  1  0.37909890  0.62540857  0.37527716  1
  Fe  Fe89  1  0.87485375  0.62573902  0.62517973  1
  Co  Co90  1  0.50192971  0.24657763  -0.00273760  1
  Co  Co91  1  0.49654144  -0.00089635  0.50095004  1
  Co  Co92  1  0.12397613  0.87581234  0.87860368  1
  Co  Co93  1  0.62629564  0.62662235  0.12624410  1
  Co  Co94  1  -0.00197385  0.49848338  0.50316948  1
  Co  Co95  1  0.37441420  0.12759476  0.37759363  1
  Co  Co96  1  0.50287662  0.24858629  0.25375612  1
  Co  Co97  1  0.75569075  -0.00041808  0.49685575  1
  Co  Co98  1  0.86908666  0.12648848  0.12802774  1
  Co  Co99  1  0.37841081  0.62731620  0.87378446  1
  Co  Co100  1  0.24523176  0.25292107  0.49686075  1
  Co  Co101  1  0.74616673  0.75066783  -0.00304039  1
  Co  Co102  1  0.62300285  0.87788917  0.37856931  1
  Co  Co103  1  0.74658473  0.24627052  0.75270026  1
  Co  Co104  1  0.63054600  0.87792887  0.62320709  1
  Co  Co105  1  0.62200336  0.11918280  0.87287889  1
  Co  Co106  1  0.12871004  0.12569202  0.12579682  1
  Co  Co107  1  -0.00084228  0.50230445  0.24164502  1
  Co  Co108  1  0.50119627  0.75221815  0.50254734  1
  Co  Co109  1  0.86945680  0.37328049  0.12423656  1
  Co  Co110  1  0.87773649  0.12532814  0.87514949  1
  Co  Co111  1  0.62403820  0.37790473  0.87407436  1
  Co  Co112  1  0.25566201  0.75098497  0.00084708  1
  Co  Co113  1  0.62207799  0.37119732  0.12215438  1
  Co  Co114  1  0.12291161  0.62133196  0.37523871  1
  Co  Co115  1  0.12777110  0.62620733  0.12166685  1
  Co  Co116  1  -0.00013507  -0.00105888  0.24510446  1
  Co  Co117  1  0.50063276  0.50238711  0.00252207  1
  Co  Co118  1  0.50614735  0.24811192  0.49863075  1
  Co  Co119  1  0.74658655  0.75053762  0.25407447  1
  Co  Co120  1  0.62579035  0.87614092  0.12430678  1
  Co  Co121  1  0.12896837  0.37499773  0.12411057  1
  Co  Co122  1  0.49919778  0.50040424  0.50246734  1
  Co  Co123  1  0.62723535  0.12118523  0.37665715  1
  Co  Co124  1  0.74998863  0.50355896  0.75016811  1
  Co  Co125  1  0.37059272  0.87321024  0.62392840  1
  Co  Co126  1  -0.00395996  0.75125991  0.00207052  1
  Co  Co127  1  0.62362510  0.37906321  0.37700924  1
