# generated using pymatgen
data_Fe45Co19
_symmetry_space_group_name_H-M   'P 1'
_cell_length_a   11.41721521
_cell_length_b   11.41632071
_cell_length_c   11.41508274
_cell_angle_alpha   90.00462730
_cell_angle_beta   89.99659155
_cell_angle_gamma   89.99711575
_symmetry_Int_Tables_number   1
_chemical_formula_structural   Fe45Co19
_chemical_formula_sum   'Fe90 Co38'
_cell_volume   1487.87144474
_cell_formula_units_Z   2
loop_
 _symmetry_equiv_pos_site_id
 _symmetry_equiv_pos_as_xyz
  1  'x, y, z'
loop_
 _atom_site_type_symbol
 _atom_site_label
 _atom_site_symmetry_multiplicity
 _atom_site_fract_x
 _atom_site_fract_y
 _atom_site_fract_z
 _atom_site_occupancy
  Fe  Fe0  1  0.24824308  0.00006621  0.25078817  1
  Fe  Fe1  1  0.12264008  0.62430805  0.87849537  1
  Fe  Fe2  1  0.24935828  0.24996059  0.75091847  1
  Fe  Fe3  1  0.25045058  0.50024089  0.50113944  1
  Fe  Fe4  1  0.62672123  0.87436337  0.62600609  1
  Fe  Fe5  1  0.50147169  0.75129358  0.75238493  1
  Fe  Fe6  1  0.37605628  0.12600001  0.12549994  1
  Fe  Fe7  1  0.37491726  0.37439500  0.37281092  1
  Fe  Fe8  1  0.50059079  0.24961293  0.25177634  1
  Fe  Fe9  1  0.12412951  0.37515956  0.37415402  1
  Fe  Fe10  1  0.50101459  0.75129575  -0.00223402  1
  Fe  Fe11  1  0.50024909  0.49868963  0.74814201  1
  Fe  Fe12  1  0.62807322  0.62565841  0.12415485  1
  Fe  Fe13  1  0.87250586  0.12751409  0.87912948  1
  Fe  Fe14  1  0.25016055  0.50144240  0.24905895  1
  Fe  Fe15  1  0.62638128  0.12412862  0.37661510  1
  Fe  Fe16  1  0.12334772  0.62626205  0.62439715  1
  Fe  Fe17  1  -0.00032636  0.50000547  0.74986240  1
  Fe  Fe18  1  -0.00161542  0.50397998  0.24436632  1
  Fe  Fe19  1  0.87432497  0.62081844  0.88192888  1
  Fe  Fe20  1  0.87480272  0.37565940  0.37329523  1
  Fe  Fe21  1  -0.00171809  0.25040704  0.49950024  1
  Fe  Fe22  1  -0.00359433  0.75258830  0.49927906  1
  Fe  Fe23  1  0.62669057  0.87345406  0.12409979  1
  Fe  Fe24  1  0.62544285  0.12541512  0.87650989  1
  Fe  Fe25  1  0.74961681  0.25031062  0.24983371  1
  Fe  Fe26  1  0.12267873  0.87378828  0.62659626  1
  Fe  Fe27  1  -0.00106360  0.49993950  0.50062160  1
  Fe  Fe28  1  0.12709413  0.12166838  0.87693522  1
  Fe  Fe29  1  0.00044232  0.24790116  0.25005979  1
  Fe  Fe30  1  0.74911017  0.00079630  0.75180986  1
  Fe  Fe31  1  0.75170599  0.49897522  0.74911727  1
  Fe  Fe32  1  0.75177063  -0.00485162  0.49811358  1
  Fe  Fe33  1  0.24792892  0.50037221  0.74875877  1
  Fe  Fe34  1  0.12659643  0.12540614  0.12451808  1
  Fe  Fe35  1  0.50104191  0.50271620  0.25033234  1
  Fe  Fe36  1  0.37604540  0.37288881  0.62647100  1
  Fe  Fe37  1  0.87417388  0.62677771  0.62363838  1
  Fe  Fe38  1  0.87329243  0.87539845  0.87674939  1
  Fe  Fe39  1  -0.00115303  -0.00033270  0.00139882  1
  Fe  Fe40  1  0.25235203  0.25082496  0.00061379  1
  Fe  Fe41  1  0.12459037  0.37376902  0.12595457  1
  Fe  Fe42  1  0.12577738  0.87361385  0.12469955  1
  Fe  Fe43  1  0.50102576  -0.00206396  -0.00138737  1
  Fe  Fe44  1  0.37592811  0.62304531  0.87478887  1
  Fe  Fe45  1  0.25143420  0.75096742  0.49979618  1
  Fe  Fe46  1  0.75013090  0.74856208  0.75212204  1
  Fe  Fe47  1  0.24840647  0.75158977  0.75344391  1
  Fe  Fe48  1  -0.00094455  0.75008940  0.75386183  1
  Fe  Fe49  1  0.24806201  -0.00161632  0.49870795  1
  Fe  Fe50  1  0.37608251  0.87468277  0.12478822  1
  Fe  Fe51  1  0.25013988  0.75270490  -0.00309686  1
  Fe  Fe52  1  0.37615735  0.87595468  0.62873986  1
  Fe  Fe53  1  -0.00113987  0.74698815  0.24622059  1
  Fe  Fe54  1  0.50163246  0.49661829  0.00047054  1
  Fe  Fe55  1  0.62603951  0.62542377  0.61969544  1
  Fe  Fe56  1  0.74860930  -0.00090984  0.24905119  1
  Fe  Fe57  1  0.62519394  0.12762536  0.12231658  1
  Fe  Fe58  1  0.37534396  0.62451312  0.12299009  1
  Fe  Fe59  1  0.87136214  0.87210883  0.12477024  1
  Fe  Fe60  1  0.62583576  0.37659229  0.37739518  1
  Fe  Fe61  1  0.00004928  0.24937737  0.75179829  1
  Fe  Fe62  1  0.37658574  0.12506742  0.62728915  1
  Fe  Fe63  1  0.25191344  0.74912940  0.25021304  1
  Fe  Fe64  1  0.75096037  0.50045655  0.24741000  1
  Fe  Fe65  1  0.87411251  0.12371225  0.62409898  1
  Fe  Fe66  1  0.87150022  0.62618813  0.37531062  1
  Fe  Fe67  1  0.24931993  0.25033386  0.49915462  1
  Fe  Fe68  1  0.37882060  0.87425680  0.37333489  1
  Fe  Fe69  1  0.87496248  0.12294859  0.37499177  1
  Fe  Fe70  1  0.24942755  0.49849026  0.00127021  1
  Fe  Fe71  1  0.75023301  0.25136802  0.75174216  1
  Fe  Fe72  1  0.12327604  0.37572269  0.87565452  1
  Fe  Fe73  1  0.37366546  0.12538315  0.37333554  1
  Fe  Fe74  1  0.87243824  0.12857402  0.12201078  1
  Fe  Fe75  1  0.62523548  0.12744323  0.62360819  1
  Fe  Fe76  1  0.12481764  0.62656028  0.37509799  1
  Fe  Fe77  1  -0.00041382  0.00062250  0.75158836  1
  Fe  Fe78  1  0.62648093  0.62146672  0.87625143  1
  Fe  Fe79  1  -0.00026993  -0.00307081  0.49819760  1
  Fe  Fe80  1  0.50016302  0.00028263  0.50083189  1
  Fe  Fe81  1  0.37508425  0.12044373  0.87288685  1
  Fe  Fe82  1  0.49951579  0.25447665  -0.00301380  1
  Fe  Fe83  1  0.37586923  0.62588624  0.62622402  1
  Fe  Fe84  1  0.62429730  0.37265302  0.62280761  1
  Fe  Fe85  1  0.37910141  0.62684348  0.37605360  1
  Fe  Fe86  1  0.87539856  0.37397945  0.62573877  1
  Fe  Fe87  1  0.00159463  0.00078859  0.24938538  1
  Fe  Fe88  1  0.12403613  0.12514531  0.62354948  1
  Fe  Fe89  1  0.50185294  -0.00005014  0.24857923  1
  Co  Co90  1  0.62695893  0.87573602  0.87488348  1
  Co  Co91  1  0.37678263  0.37561981  0.12655252  1
  Co  Co92  1  0.87671274  0.87532795  0.36938229  1
  Co  Co93  1  0.87443938  0.87513881  0.62952836  1
  Co  Co94  1  0.12379761  0.37479805  0.62497823  1
  Co  Co95  1  0.37441513  0.37807071  0.87356605  1
  Co  Co96  1  0.74802064  0.75012767  -0.00303924  1
  Co  Co97  1  0.00019425  0.75077509  0.00133318  1
  Co  Co98  1  0.86900759  0.62800766  0.12064879  1
  Co  Co99  1  0.50203874  0.74796237  0.24680527  1
  Co  Co100  1  0.50422511  0.00010914  0.74985763  1
  Co  Co101  1  0.62125803  0.87428144  0.37400565  1
  Co  Co102  1  0.74687813  0.74953766  0.25350093  1
  Co  Co103  1  0.24758887  -0.00064147  0.74785164  1
  Co  Co104  1  0.74875792  0.49291147  0.00367713  1
  Co  Co105  1  0.24929120  0.24935380  0.24866341  1
  Co  Co106  1  0.75174650  0.75405430  0.49751093  1
  Co  Co107  1  0.12368872  0.87831335  0.87629531  1
  Co  Co108  1  0.49986603  0.75140843  0.50227957  1
  Co  Co109  1  0.87743333  0.37622227  0.87739006  1
  Co  Co110  1  0.25108581  -0.00051262  0.00257134  1
  Co  Co111  1  0.62211853  0.37359398  0.12852271  1
  Co  Co112  1  0.00005140  0.50115667  0.00614906  1
  Co  Co113  1  0.37585378  0.87833998  0.87254069  1
  Co  Co114  1  0.75206930  0.49912921  0.50081663  1
  Co  Co115  1  0.75005389  -0.00013724  0.00111806  1
  Co  Co116  1  0.49930405  0.24904031  0.49754628  1
  Co  Co117  1  0.75233770  0.25052047  0.49865449  1
  Co  Co118  1  0.00252123  0.24834809  -0.00088170  1
  Co  Co119  1  0.12371115  0.87164397  0.37310615  1
  Co  Co120  1  0.12890756  0.62710176  0.12335764  1
  Co  Co121  1  0.50028087  0.24969854  0.75241141  1
  Co  Co122  1  0.12435726  0.12593452  0.37585258  1
  Co  Co123  1  0.62481188  0.62466274  0.37877654  1
  Co  Co124  1  0.62576207  0.37785436  0.87127872  1
  Co  Co125  1  0.87733543  0.37132708  0.12345190  1
  Co  Co126  1  0.74689747  0.25627115  -0.00018652  1
  Co  Co127  1  0.49779201  0.49887561  0.50086619  1
