# generated using pymatgen
data_Fe45Co19
_symmetry_space_group_name_H-M   'P 1'
_cell_length_a   11.41579436
_cell_length_b   11.41465701
_cell_length_c   11.41613513
_cell_angle_alpha   90.01162270
_cell_angle_beta   89.99622847
_cell_angle_gamma   90.00692878
_symmetry_Int_Tables_number   1
_chemical_formula_structural   Fe45Co19
_chemical_formula_sum   'Fe90 Co38'
_cell_volume   1487.60658182
_cell_formula_units_Z   2
loop_
 _symmetry_equiv_pos_site_id
 _symmetry_equiv_pos_as_xyz
  1  'x, y, z'
loop_
 _atom_site_type_symbol
 _atom_site_label
 _atom_site_symmetry_multiplicity
 _atom_site_fract_x
 _atom_site_fract_y
 _atom_site_fract_z
 _atom_site_occupancy
  Fe  Fe0  1  0.49684753  -0.00219248  0.24847616  1
  Fe  Fe1  1  0.75159814  0.24833661  0.25100785  1
  Fe  Fe2  1  0.25244293  0.00023637  0.75040052  1
  Fe  Fe3  1  0.00060744  0.25249522  -0.00156426  1
  Fe  Fe4  1  0.00168465  0.75292297  0.50036971  1
  Fe  Fe5  1  0.37756751  0.87673178  0.87655206  1
  Fe  Fe6  1  0.87459558  0.87470245  0.37561722  1
  Fe  Fe7  1  0.49740472  0.75138669  0.24998319  1
  Fe  Fe8  1  0.12470377  0.12689281  0.12444306  1
  Fe  Fe9  1  0.25188835  0.00129289  0.00080041  1
  Fe  Fe10  1  0.87439746  0.12382386  0.12380904  1
  Fe  Fe11  1  0.74841755  0.74909882  0.25156136  1
  Fe  Fe12  1  0.62191140  0.12851157  0.87734299  1
  Fe  Fe13  1  0.13063980  0.87488307  0.12661540  1
  Fe  Fe14  1  0.74936035  0.50281074  0.25107906  1
  Fe  Fe15  1  0.62073885  0.87481508  0.62469329  1
  Fe  Fe16  1  0.74772117  0.00041634  0.49972559  1
  Fe  Fe17  1  0.87292778  0.37432105  0.12597576  1
  Fe  Fe18  1  0.12641642  0.87534863  0.87447392  1
  Fe  Fe19  1  0.12652736  0.37505770  0.37526125  1
  Fe  Fe20  1  0.62239768  0.12594521  0.37444260  1
  Fe  Fe21  1  0.87547230  0.12431569  0.37736273  1
  Fe  Fe22  1  0.12423602  0.12558143  0.87516470  1
  Fe  Fe23  1  0.49981116  0.25114338  0.50130429  1
  Fe  Fe24  1  -0.00228070  0.49970729  0.49850904  1
  Fe  Fe25  1  -0.00145204  -0.00377360  0.00076573  1
  Fe  Fe26  1  0.62016853  0.12374446  0.62534490  1
  Fe  Fe27  1  0.50319542  0.49834899  0.24457759  1
  Fe  Fe28  1  0.25157504  0.74881704  0.75101863  1
  Fe  Fe29  1  0.25003757  0.25166582  0.75253950  1
  Fe  Fe30  1  0.00033918  0.49836024  0.75041111  1
  Fe  Fe31  1  -0.00223296  0.25084612  0.25161372  1
  Fe  Fe32  1  0.75094010  0.50546016  0.49946490  1
  Fe  Fe33  1  0.00078893  0.75178326  0.24910297  1
  Fe  Fe34  1  0.74952070  0.74765894  0.75017592  1
  Fe  Fe35  1  0.87378274  0.62642728  0.12450574  1
  Fe  Fe36  1  0.12563465  0.62281707  0.87510937  1
  Fe  Fe37  1  0.62373255  0.87353779  0.12235783  1
  Fe  Fe38  1  0.62824741  0.37840459  0.62824792  1
  Fe  Fe39  1  0.37625000  0.62255333  0.12247931  1
  Fe  Fe40  1  0.87254951  0.37448048  0.62659139  1
  Fe  Fe41  1  0.62213200  0.62068706  0.87265186  1
  Fe  Fe42  1  0.37550447  0.61629375  0.87724842  1
  Fe  Fe43  1  0.37702306  0.12885853  0.12108459  1
  Fe  Fe44  1  0.74745477  0.74585387  0.50102820  1
  Fe  Fe45  1  0.74829483  0.24857927  0.50137962  1
  Fe  Fe46  1  -0.00053286  0.25071337  0.50033257  1
  Fe  Fe47  1  0.50107723  0.50109456  0.50237976  1
  Fe  Fe48  1  0.37522567  0.37663193  0.37536591  1
  Fe  Fe49  1  0.00195677  -0.00129853  0.74821549  1
  Fe  Fe50  1  0.37531619  0.62253403  0.62597183  1
  Fe  Fe51  1  0.74665944  0.49832948  -0.00039628  1
  Fe  Fe52  1  0.62634604  0.37589581  0.37491705  1
  Fe  Fe53  1  0.25210575  0.74793577  0.49974854  1
  Fe  Fe54  1  0.25072165  0.74768423  -0.00097446  1
  Fe  Fe55  1  0.37749038  0.87697912  0.62424457  1
  Fe  Fe56  1  0.75051641  0.75191223  -0.00318643  1
  Fe  Fe57  1  0.74601642  0.00009226  0.75207393  1
  Fe  Fe58  1  0.87740899  0.62597241  0.87507268  1
  Fe  Fe59  1  0.62371002  0.12772392  0.12286285  1
  Fe  Fe60  1  0.37102954  0.37525493  0.62348493  1
  Fe  Fe61  1  0.12527135  0.12398301  0.37566101  1
  Fe  Fe62  1  0.37790547  0.12737996  0.87699070  1
  Fe  Fe63  1  0.49955851  0.25278309  0.24859732  1
  Fe  Fe64  1  0.87148297  0.37166442  0.87106800  1
  Fe  Fe65  1  0.87476769  0.87513859  0.62585969  1
  Fe  Fe66  1  0.49981159  0.74872877  -0.00094987  1
  Fe  Fe67  1  0.12385908  0.62447115  0.12473056  1
  Fe  Fe68  1  0.74957442  -0.00221346  -0.00235954  1
  Fe  Fe69  1  -0.00240557  0.49918512  0.25143974  1
  Fe  Fe70  1  0.00096106  0.49640544  -0.00055290  1
  Fe  Fe71  1  -0.00005872  -0.00146007  0.24996436  1
  Fe  Fe72  1  0.00202024  0.75121817  0.74939625  1
  Fe  Fe73  1  0.62002421  0.87417159  0.37834082  1
  Fe  Fe74  1  -0.00055807  0.75349751  0.00069153  1
  Fe  Fe75  1  0.25318599  0.00255183  0.50139504  1
  Fe  Fe76  1  0.87631638  0.12541259  0.87292220  1
  Fe  Fe77  1  0.25045712  0.25008121  0.24966935  1
  Fe  Fe78  1  0.12499688  0.62420703  0.62511141  1
  Fe  Fe79  1  0.37606677  0.12608175  0.37587777  1
  Fe  Fe80  1  0.74821434  -0.00068938  0.25054076  1
  Fe  Fe81  1  0.49906058  0.74862152  0.75030154  1
  Fe  Fe82  1  0.12760733  0.37508296  0.62370545  1
  Fe  Fe83  1  0.49846108  0.25442290  0.75133911  1
  Fe  Fe84  1  0.37784789  0.62346278  0.37465150  1
  Fe  Fe85  1  0.12425936  0.62487846  0.37475075  1
  Fe  Fe86  1  0.13134175  0.87673326  0.37343390  1
  Fe  Fe87  1  0.24971809  0.50090762  0.24857580  1
  Fe  Fe88  1  0.87600569  0.12402518  0.62535514  1
  Fe  Fe89  1  0.12634389  0.12600386  0.62448123  1
  Co  Co90  1  0.87636678  0.87544216  0.87067735  1
  Co  Co91  1  0.75352397  0.50443277  0.75078575  1
  Co  Co92  1  0.24873647  0.50047907  0.74833574  1
  Co  Co93  1  0.62869389  0.37565241  0.86993807  1
  Co  Co94  1  0.12881687  0.87534701  0.62549633  1
  Co  Co95  1  0.25047432  0.50247659  0.49862796  1
  Co  Co96  1  0.25106005  0.24893839  0.49812274  1
  Co  Co97  1  0.75097094  0.24989754  -0.00076472  1
  Co  Co98  1  0.50091045  0.00089323  0.75253300  1
  Co  Co99  1  0.49862109  0.74634428  0.50101601  1
  Co  Co100  1  0.37163724  0.38000298  0.87902433  1
  Co  Co101  1  0.87133112  0.37414855  0.37632081  1
  Co  Co102  1  0.50069536  -0.00059091  0.00148816  1
  Co  Co103  1  0.62962365  0.37042361  0.12804159  1
  Co  Co104  1  0.62146173  0.62428438  0.37403154  1
  Co  Co105  1  0.62265712  0.62310971  0.62890386  1
  Co  Co106  1  0.00242330  0.25121373  0.74916084  1
  Co  Co107  1  0.87647619  0.62799038  0.37462338  1
  Co  Co108  1  0.62190759  0.87282674  0.87460241  1
  Co  Co109  1  0.49644066  0.49556237  0.74914032  1
  Co  Co110  1  0.37293949  0.87528563  0.37624920  1
  Co  Co111  1  0.24793531  0.25065968  -0.00109842  1
  Co  Co112  1  0.12470392  0.37338676  0.12784806  1
  Co  Co113  1  0.24562007  0.49919062  0.00360973  1
  Co  Co114  1  0.25285588  0.74543599  0.25010197  1
  Co  Co115  1  0.62581049  0.62832919  0.12406300  1
  Co  Co116  1  0.12820658  0.37633396  0.87466947  1
  Co  Co117  1  0.37331651  0.87279149  0.12242580  1
  Co  Co118  1  0.37137965  0.37479149  0.12351179  1
  Co  Co119  1  0.50638813  0.49351278  0.00353555  1
  Co  Co120  1  0.00145457  -0.00183101  0.50006634  1
  Co  Co121  1  0.87859615  0.62646267  0.62507267  1
  Co  Co122  1  0.87223758  0.87451905  0.12653569  1
  Co  Co123  1  0.37606380  0.12678644  0.62788828  1
  Co  Co124  1  0.50147236  0.25893568  -0.00101708  1
  Co  Co125  1  0.25421108  0.00410593  0.24729448  1
  Co  Co126  1  0.74790270  0.24547377  0.74820120  1
  Co  Co127  1  0.49741034  0.00277288  0.49872916  1
