# generated using pymatgen
data_Fe45Co19
_symmetry_space_group_name_H-M   'P 1'
_cell_length_a   11.41634395
_cell_length_b   11.41613817
_cell_length_c   11.41429550
_cell_angle_alpha   89.98659334
_cell_angle_beta   89.99915770
_cell_angle_gamma   89.99576344
_symmetry_Int_Tables_number   1
_chemical_formula_structural   Fe45Co19
_chemical_formula_sum   'Fe90 Co38'
_cell_volume   1487.63147877
_cell_formula_units_Z   2
loop_
 _symmetry_equiv_pos_site_id
 _symmetry_equiv_pos_as_xyz
  1  'x, y, z'
loop_
 _atom_site_type_symbol
 _atom_site_label
 _atom_site_symmetry_multiplicity
 _atom_site_fract_x
 _atom_site_fract_y
 _atom_site_fract_z
 _atom_site_occupancy
  Fe  Fe0  1  0.75123497  -0.00153879  0.74800338  1
  Fe  Fe1  1  0.74830168  0.75044702  0.00202813  1
  Fe  Fe2  1  0.49913423  0.49974129  0.24673769  1
  Fe  Fe3  1  0.12392653  0.87551224  0.62090713  1
  Fe  Fe4  1  0.62405186  0.62170481  0.87862117  1
  Fe  Fe5  1  0.24767856  0.25223110  0.74851184  1
  Fe  Fe6  1  0.50055018  0.75065373  0.00069329  1
  Fe  Fe7  1  0.49884975  0.00064894  0.75061709  1
  Fe  Fe8  1  0.37339494  0.87441015  0.87460410  1
  Fe  Fe9  1  0.12527410  0.37780110  0.62391497  1
  Fe  Fe10  1  0.37509491  0.37145476  0.12326968  1
  Fe  Fe11  1  0.12779918  0.37858196  0.37441358  1
  Fe  Fe12  1  0.00192780  0.75180249  0.75264837  1
  Fe  Fe13  1  0.74884799  0.24812003  0.24848794  1
  Fe  Fe14  1  0.62365828  0.87485706  0.37715113  1
  Fe  Fe15  1  0.62562908  0.62519534  0.37459543  1
  Fe  Fe16  1  0.49816058  0.50079045  0.75081906  1
  Fe  Fe17  1  0.25300851  0.00100418  0.25433587  1
  Fe  Fe18  1  0.00115080  0.49948939  0.24822909  1
  Fe  Fe19  1  0.75260758  -0.00072670  0.49872529  1
  Fe  Fe20  1  0.87587146  0.62679023  0.87649108  1
  Fe  Fe21  1  0.12682312  0.12054504  0.87567440  1
  Fe  Fe22  1  0.62407336  0.87375601  0.62207123  1
  Fe  Fe23  1  0.12684419  0.62394645  0.62496032  1
  Fe  Fe24  1  0.87647636  0.37404476  0.62475793  1
  Fe  Fe25  1  0.37462627  0.12885939  0.62447189  1
  Fe  Fe26  1  0.49493978  -0.00078067  0.49905360  1
  Fe  Fe27  1  0.12586056  0.87908064  0.12343204  1
  Fe  Fe28  1  0.25136685  0.50203789  -0.00065552  1
  Fe  Fe29  1  0.74968140  0.25112020  0.50094960  1
  Fe  Fe30  1  0.49944280  0.00039117  0.25155353  1
  Fe  Fe31  1  0.50147201  0.75018190  0.75132137  1
  Fe  Fe32  1  0.62505009  0.37511824  0.37350895  1
  Fe  Fe33  1  0.00028735  0.24753072  0.00145375  1
  Fe  Fe34  1  0.74774752  0.75062001  0.75073174  1
  Fe  Fe35  1  0.50018635  0.25212144  0.50069621  1
  Fe  Fe36  1  0.87571295  0.12483022  0.37328773  1
  Fe  Fe37  1  0.50512023  0.24815386  0.75514785  1
  Fe  Fe38  1  0.49405812  0.00477750  -0.00148260  1
  Fe  Fe39  1  0.87360076  0.37158254  0.12461941  1
  Fe  Fe40  1  0.62497171  0.12376392  0.62455393  1
  Fe  Fe41  1  0.62375940  0.12464173  0.12342636  1
  Fe  Fe42  1  0.37515823  0.87618404  0.12626751  1
  Fe  Fe43  1  0.24768623  0.24884719  0.25090701  1
  Fe  Fe44  1  0.24788413  0.75147228  0.25107596  1
  Fe  Fe45  1  0.12528865  0.37611821  0.87737789  1
  Fe  Fe46  1  0.25171296  0.24574770  0.00038553  1
  Fe  Fe47  1  0.87235176  0.37277367  0.87558075  1
  Fe  Fe48  1  0.50208599  0.75085822  0.24871643  1
  Fe  Fe49  1  0.62509509  0.87874234  0.87708818  1
  Fe  Fe50  1  -0.00114332  0.00102843  0.25079487  1
  Fe  Fe51  1  0.87447876  0.62665816  0.62411909  1
  Fe  Fe52  1  0.00022291  0.49980856  0.75194427  1
  Fe  Fe53  1  0.87692376  0.87141965  0.62173703  1
  Fe  Fe54  1  0.49790278  0.49998729  0.49994501  1
  Fe  Fe55  1  -0.00160384  -0.00164221  0.75189135  1
  Fe  Fe56  1  0.37427154  0.87121686  0.62327307  1
  Fe  Fe57  1  0.00181717  0.75457131  -0.00165243  1
  Fe  Fe58  1  0.37218180  0.62644827  0.37420770  1
  Fe  Fe59  1  0.25118074  -0.00138579  0.74780362  1
  Fe  Fe60  1  0.00148531  0.24953987  0.75067553  1
  Fe  Fe61  1  0.12361250  0.87764086  0.37987481  1
  Fe  Fe62  1  -0.00017910  0.50406493  0.49697556  1
  Fe  Fe63  1  0.12571111  0.12292181  0.62172025  1
  Fe  Fe64  1  0.62425506  0.37544285  0.62757337  1
  Fe  Fe65  1  0.62395838  0.12519710  0.37673088  1
  Fe  Fe66  1  0.87555822  0.87645288  0.12734645  1
  Fe  Fe67  1  0.37620973  0.37450525  0.87517132  1
  Fe  Fe68  1  0.00165961  0.74891274  0.25441543  1
  Fe  Fe69  1  0.37321809  0.62584897  0.62555321  1
  Fe  Fe70  1  0.37350488  0.37334696  0.37512305  1
  Fe  Fe71  1  0.75106810  0.49948731  0.75093469  1
  Fe  Fe72  1  0.24799600  0.74787775  0.75368371  1
  Fe  Fe73  1  0.12482624  0.62401259  0.12511337  1
  Fe  Fe74  1  0.87537910  0.12757886  0.62534648  1
  Fe  Fe75  1  0.87538024  0.62719030  0.12651792  1
  Fe  Fe76  1  0.24808097  0.75097243  -0.00156213  1
  Fe  Fe77  1  0.87456006  0.37594025  0.37437126  1
  Fe  Fe78  1  0.74812242  0.49922863  0.24571864  1
  Fe  Fe79  1  0.62484753  0.62633084  0.62338164  1
  Fe  Fe80  1  0.50126372  0.25005629  0.24846670  1
  Fe  Fe81  1  0.74766406  0.75355004  0.25017186  1
  Fe  Fe82  1  0.74926116  0.49973880  0.50033640  1
  Fe  Fe83  1  0.12531670  0.12204663  0.12420170  1
  Fe  Fe84  1  0.00303411  0.25089485  0.24928086  1
  Fe  Fe85  1  0.00233531  0.24938451  0.49790731  1
  Fe  Fe86  1  0.75343754  0.00066249  0.00356314  1
  Fe  Fe87  1  0.87283983  0.12612085  0.87470753  1
  Fe  Fe88  1  -0.00125305  0.49901104  0.00162547  1
  Fe  Fe89  1  0.37488076  0.62725028  0.12471358  1
  Co  Co90  1  0.74787181  0.00005899  0.25056945  1
  Co  Co91  1  -0.00245405  -0.00113564  -0.00196100  1
  Co  Co92  1  0.87672114  0.12491871  0.12674721  1
  Co  Co93  1  0.62356976  0.37287394  0.12284384  1
  Co  Co94  1  0.25030814  0.49993735  0.75230848  1
  Co  Co95  1  0.37657446  0.87146364  0.37402452  1
  Co  Co96  1  0.62257984  0.87890762  0.12225558  1
  Co  Co97  1  0.37697661  0.62577023  0.87635307  1
  Co  Co98  1  0.62428832  0.62526402  0.12503926  1
  Co  Co99  1  0.37471125  0.12560637  0.12951225  1
  Co  Co100  1  0.00087894  0.74457409  0.49543425  1
  Co  Co101  1  0.12487956  0.12312433  0.37595369  1
  Co  Co102  1  0.13025372  0.62025204  0.37291750  1
  Co  Co103  1  0.87658473  0.87613882  0.37491731  1
  Co  Co104  1  0.12776086  0.37494639  0.12268565  1
  Co  Co105  1  0.62954121  0.11983553  0.87581428  1
  Co  Co106  1  0.25393758  0.49840400  0.50233066  1
  Co  Co107  1  0.37637774  0.37214414  0.62821048  1
  Co  Co108  1  -0.00295093  0.00214178  0.50071561  1
  Co  Co109  1  0.87148069  0.62342145  0.37132720  1
  Co  Co110  1  0.62563554  0.37894873  0.87725571  1
  Co  Co111  1  0.37075283  0.12584597  0.86957900  1
  Co  Co112  1  0.50016757  0.24611309  -0.00379399  1
  Co  Co113  1  0.37655519  0.12967481  0.37565606  1
  Co  Co114  1  0.49896221  0.74795931  0.49992767  1
  Co  Co115  1  0.75197599  0.50080636  0.00301931  1
  Co  Co116  1  0.25434390  0.00074017  0.00104775  1
  Co  Co117  1  0.24832099  0.25087625  0.50011678  1
  Co  Co118  1  0.87184652  0.87335406  0.87522958  1
  Co  Co119  1  0.74755352  0.25079939  0.74938351  1
  Co  Co120  1  0.12227026  0.62335029  0.87658996  1
  Co  Co121  1  0.24835131  0.75034573  0.49808670  1
  Co  Co122  1  0.25281726  0.49906185  0.24557159  1
  Co  Co123  1  0.49874251  0.49919167  0.00428674  1
  Co  Co124  1  0.75115973  0.74997027  0.49779119  1
  Co  Co125  1  0.74763211  0.24941378  0.00049967  1
  Co  Co126  1  0.25524032  0.00038348  0.49808883  1
  Co  Co127  1  0.12799677  0.87916002  0.87522273  1
