# generated using pymatgen
data_Fe45Co19
_symmetry_space_group_name_H-M   'P 1'
_cell_length_a   11.41417016
_cell_length_b   11.41537996
_cell_length_c   11.41510425
_cell_angle_alpha   90.00306409
_cell_angle_beta   90.00226972
_cell_angle_gamma   90.00454326
_symmetry_Int_Tables_number   1
_chemical_formula_structural   Fe45Co19
_chemical_formula_sum   'Fe90 Co38'
_cell_volume   1487.35484937
_cell_formula_units_Z   2
loop_
 _symmetry_equiv_pos_site_id
 _symmetry_equiv_pos_as_xyz
  1  'x, y, z'
loop_
 _atom_site_type_symbol
 _atom_site_label
 _atom_site_symmetry_multiplicity
 _atom_site_fract_x
 _atom_site_fract_y
 _atom_site_fract_z
 _atom_site_occupancy
  Fe  Fe0  1  0.75047495  0.75135473  0.49970434  1
  Fe  Fe1  1  0.87544368  0.62613068  0.37762257  1
  Fe  Fe2  1  0.87762135  0.87869781  0.87107251  1
  Fe  Fe3  1  0.62306499  0.12631320  0.62368222  1
  Fe  Fe4  1  0.37463275  0.87640498  0.12715393  1
  Fe  Fe5  1  0.62476983  0.37388720  0.12667738  1
  Fe  Fe6  1  0.00156529  0.75376658  -0.00157488  1
  Fe  Fe7  1  0.49953671  0.50198112  0.25098302  1
  Fe  Fe8  1  0.87639808  0.62405874  0.12342419  1
  Fe  Fe9  1  0.87527024  0.62485704  0.87563392  1
  Fe  Fe10  1  0.00307502  0.75198708  0.50249165  1
  Fe  Fe11  1  0.75051274  0.75068295  0.24995999  1
  Fe  Fe12  1  0.62322555  0.87599749  0.12757078  1
  Fe  Fe13  1  0.25041124  0.25395060  0.50012871  1
  Fe  Fe14  1  -0.00125055  0.50007851  0.75073082  1
  Fe  Fe15  1  0.37554740  0.62566386  0.87487872  1
  Fe  Fe16  1  0.74865700  -0.00035313  0.25161343  1
  Fe  Fe17  1  0.87462147  0.12204335  0.87301230  1
  Fe  Fe18  1  0.87534378  0.87732924  0.62741253  1
  Fe  Fe19  1  0.49839447  0.24607026  0.24919416  1
  Fe  Fe20  1  0.62378753  0.62771112  0.37644453  1
  Fe  Fe21  1  0.24934659  0.75305936  0.00009706  1
  Fe  Fe22  1  0.00106384  0.00017018  0.50179831  1
  Fe  Fe23  1  0.87466711  0.62322998  0.62348020  1
  Fe  Fe24  1  0.49461486  0.75503711  0.49712312  1
  Fe  Fe25  1  0.62137708  0.87441764  0.62541108  1
  Fe  Fe26  1  0.12355164  0.37423632  0.12484917  1
  Fe  Fe27  1  0.12896503  0.87518326  0.37360592  1
  Fe  Fe28  1  -0.00185438  0.24839253  0.24969571  1
  Fe  Fe29  1  0.37584304  0.37522340  0.87420535  1
  Fe  Fe30  1  0.74889854  0.74894595  0.75079919  1
  Fe  Fe31  1  0.24908049  0.00390615  0.24687462  1
  Fe  Fe32  1  0.87059328  0.37695771  0.62396632  1
  Fe  Fe33  1  0.50010884  0.00321768  0.25512262  1
  Fe  Fe34  1  0.24885164  0.49883280  -0.00102704  1
  Fe  Fe35  1  0.50148904  0.00048612  -0.00107655  1
  Fe  Fe36  1  0.25617037  -0.00247230  0.50422084  1
  Fe  Fe37  1  0.75225592  0.49677570  -0.00141104  1
  Fe  Fe38  1  0.49823538  0.00461481  0.74823383  1
  Fe  Fe39  1  0.00199426  0.74945091  0.25164026  1
  Fe  Fe40  1  0.12433163  0.37579539  0.62626897  1
  Fe  Fe41  1  0.12586319  0.87641860  0.63036333  1
  Fe  Fe42  1  0.87298338  0.37511478  0.37630971  1
  Fe  Fe43  1  0.37597371  0.37480659  0.37370967  1
  Fe  Fe44  1  0.50211829  0.50185103  0.75016096  1
  Fe  Fe45  1  0.00200853  0.49795409  0.49901026  1
  Fe  Fe46  1  0.12280001  0.37302261  0.87471104  1
  Fe  Fe47  1  0.37841104  0.37212146  0.62753550  1
  Fe  Fe48  1  0.12354021  0.12499007  0.87579381  1
  Fe  Fe49  1  0.87757956  0.87739446  0.12550911  1
  Fe  Fe50  1  -0.00205667  0.24676393  0.74644760  1
  Fe  Fe51  1  0.50010343  0.24911340  0.00059100  1
  Fe  Fe52  1  0.75046566  0.24811984  0.25026892  1
  Fe  Fe53  1  0.74720395  -0.00058758  0.50075692  1
  Fe  Fe54  1  0.25056737  0.49957064  0.25099599  1
  Fe  Fe55  1  0.25057823  0.49934970  0.74881520  1
  Fe  Fe56  1  0.49988196  0.75098021  -0.00090699  1
  Fe  Fe57  1  0.25247571  0.24887585  0.24758615  1
  Fe  Fe58  1  -0.00476461  0.24966572  0.00259996  1
  Fe  Fe59  1  0.12347488  0.62560328  0.87347358  1
  Fe  Fe60  1  0.74824513  0.00017442  -0.00060770  1
  Fe  Fe61  1  0.24606397  -0.00213241  -0.00046893  1
  Fe  Fe62  1  0.13091318  0.62549147  0.38071051  1
  Fe  Fe63  1  0.50033907  0.49918456  -0.00074417  1
  Fe  Fe64  1  0.74982094  0.24831271  0.74827660  1
  Fe  Fe65  1  0.62585679  0.62569932  0.12243894  1
  Fe  Fe66  1  0.25245444  0.25081412  0.00207675  1
  Fe  Fe67  1  0.74923996  0.75338368  -0.00065362  1
  Fe  Fe68  1  0.37496300  0.12504286  0.87599068  1
  Fe  Fe69  1  0.74911035  0.50168566  0.25225869  1
  Fe  Fe70  1  0.75107880  0.24893120  0.00098881  1
  Fe  Fe71  1  0.25119408  0.24857884  0.75051781  1
  Fe  Fe72  1  0.62530600  0.37447956  0.87222549  1
  Fe  Fe73  1  0.37465365  0.62417278  0.12341873  1
  Fe  Fe74  1  0.37505381  0.87443897  0.87008333  1
  Fe  Fe75  1  0.87331044  0.12408800  0.37818942  1
  Fe  Fe76  1  0.12740702  0.12653713  0.37699502  1
  Fe  Fe77  1  0.49703264  0.74902206  0.25159935  1
  Fe  Fe78  1  0.50324891  0.25010407  0.49795856  1
  Fe  Fe79  1  0.12779495  0.12498933  0.62415082  1
  Fe  Fe80  1  0.87534918  0.87556732  0.37602802  1
  Fe  Fe81  1  0.62574445  0.62533565  0.62359841  1
  Fe  Fe82  1  0.00191415  0.00251093  0.24894031  1
  Fe  Fe83  1  0.62284959  0.87496899  0.87102857  1
  Fe  Fe84  1  0.12437175  0.62561505  0.12348321  1
  Fe  Fe85  1  0.00165452  0.50004394  0.25172355  1
  Fe  Fe86  1  -0.00125775  0.24954034  0.50109504  1
  Fe  Fe87  1  0.37369364  0.62517584  0.62171519  1
  Fe  Fe88  1  0.50214506  0.49702779  0.49925416  1
  Fe  Fe89  1  0.24946049  0.74829010  0.74782747  1
  Co  Co90  1  0.37793928  0.87408683  0.63136619  1
  Co  Co91  1  0.62641465  0.37435681  0.62812628  1
  Co  Co92  1  0.25141626  0.75529788  0.50332041  1
  Co  Co93  1  0.00190316  0.00414005  0.74816048  1
  Co  Co94  1  0.87224116  0.12248987  0.62331352  1
  Co  Co95  1  0.87325461  0.12092346  0.12525110  1
  Co  Co96  1  0.37089731  0.87731990  0.37074108  1
  Co  Co97  1  0.74591248  0.00044763  0.74794795  1
  Co  Co98  1  -0.00017486  0.49781933  -0.00158954  1
  Co  Co99  1  0.50029446  0.24781056  0.75313047  1
  Co  Co100  1  0.62614656  0.62444848  0.87847135  1
  Co  Co101  1  0.49774241  -0.00141562  0.49945412  1
  Co  Co102  1  0.12441390  0.87522433  0.86926992  1
  Co  Co103  1  0.25165182  0.74669699  0.24935125  1
  Co  Co104  1  0.74593806  0.49969931  0.49692418  1
  Co  Co105  1  0.00279167  -0.00065392  0.00027757  1
  Co  Co106  1  0.87584088  0.37200822  0.87191115  1
  Co  Co107  1  0.62495119  0.12432006  0.12522573  1
  Co  Co108  1  0.37633120  0.12189794  0.12205921  1
  Co  Co109  1  0.37578347  0.37662858  0.12488155  1
  Co  Co110  1  0.25215627  0.00449318  0.75015695  1
  Co  Co111  1  0.37191567  0.62344776  0.37959457  1
  Co  Co112  1  0.37185944  0.12572068  0.37819584  1
  Co  Co113  1  -0.00123314  0.74851134  0.74788776  1
  Co  Co114  1  0.12465350  0.87355300  0.12762238  1
  Co  Co115  1  0.12535648  0.37235234  0.37362226  1
  Co  Co116  1  0.74805436  0.25088857  0.50078399  1
  Co  Co117  1  0.12602808  0.62268812  0.62299742  1
  Co  Co118  1  0.87498659  0.37715085  0.12777598  1
  Co  Co119  1  0.62462967  0.37344235  0.37163242  1
  Co  Co120  1  0.50190053  0.74511880  0.75092512  1
  Co  Co121  1  0.62675667  0.12484291  0.37641317  1
  Co  Co122  1  0.74935182  0.50179830  0.75175612  1
  Co  Co123  1  0.37608110  0.12971539  0.62271882  1
  Co  Co124  1  0.25134704  0.49318929  0.50159953  1
  Co  Co125  1  0.62544745  0.87395795  0.37540930  1
  Co  Co126  1  0.62580029  0.12523331  0.87480026  1
  Co  Co127  1  0.12431079  0.12807210  0.12298874  1
