# generated using pymatgen
data_Fe45Co19
_symmetry_space_group_name_H-M   'P 1'
_cell_length_a   11.41509239
_cell_length_b   11.41460035
_cell_length_c   11.41515787
_cell_angle_alpha   90.00454514
_cell_angle_beta   89.99331993
_cell_angle_gamma   90.00842033
_symmetry_Int_Tables_number   1
_chemical_formula_structural   Fe45Co19
_chemical_formula_sum   'Fe90 Co38'
_cell_volume   1487.38040023
_cell_formula_units_Z   2
loop_
 _symmetry_equiv_pos_site_id
 _symmetry_equiv_pos_as_xyz
  1  'x, y, z'
loop_
 _atom_site_type_symbol
 _atom_site_label
 _atom_site_symmetry_multiplicity
 _atom_site_fract_x
 _atom_site_fract_y
 _atom_site_fract_z
 _atom_site_occupancy
  Fe  Fe0  1  0.49956237  0.74964576  0.49960504  1
  Fe  Fe1  1  0.75415278  0.24918385  0.74543871  1
  Fe  Fe2  1  0.25178856  0.74931407  0.00213775  1
  Fe  Fe3  1  0.00336967  -0.00073875  0.75451202  1
  Fe  Fe4  1  0.75056936  0.49969680  0.74852168  1
  Fe  Fe5  1  0.62625655  0.62821742  0.37314945  1
  Fe  Fe6  1  0.87680877  0.62397804  0.12738618  1
  Fe  Fe7  1  0.74941283  0.75364032  0.50055806  1
  Fe  Fe8  1  0.87477786  0.37514763  0.87537706  1
  Fe  Fe9  1  0.75173603  0.75480256  0.75091693  1
  Fe  Fe10  1  0.62894450  0.36846962  0.37508182  1
  Fe  Fe11  1  0.50545628  -0.00061796  0.49709767  1
  Fe  Fe12  1  0.12469145  0.87292651  0.37535371  1
  Fe  Fe13  1  0.37477047  0.12393677  0.12593382  1
  Fe  Fe14  1  0.87742448  0.88083929  0.62010120  1
  Fe  Fe15  1  0.62488810  0.37317544  0.12667715  1
  Fe  Fe16  1  0.50326663  0.50075398  0.49775759  1
  Fe  Fe17  1  0.00236286  0.50259179  -0.00030189  1
  Fe  Fe18  1  0.24679659  -0.00410676  0.75016080  1
  Fe  Fe19  1  0.37485556  0.87536301  0.87722454  1
  Fe  Fe20  1  0.00131129  0.75323252  0.74991130  1
  Fe  Fe21  1  0.37418442  0.62353804  0.12777186  1
  Fe  Fe22  1  0.24681846  0.00106184  0.00063274  1
  Fe  Fe23  1  0.37509626  0.37557233  0.12511774  1
  Fe  Fe24  1  0.37369655  0.62495380  0.62675521  1
  Fe  Fe25  1  0.87890988  0.87552854  0.88099376  1
  Fe  Fe26  1  0.49578702  0.75107231  0.24794043  1
  Fe  Fe27  1  0.37267137  0.12493961  0.87390628  1
  Fe  Fe28  1  0.49977632  0.24805200  0.00075038  1
  Fe  Fe29  1  0.24911683  -0.00242943  0.24999625  1
  Fe  Fe30  1  0.37545800  0.12330484  0.62371544  1
  Fe  Fe31  1  0.25108939  0.75038411  0.49924314  1
  Fe  Fe32  1  0.50169425  0.49851566  0.25280513  1
  Fe  Fe33  1  0.37596376  0.87486840  0.37379061  1
  Fe  Fe34  1  0.87538051  0.12153259  0.12669682  1
  Fe  Fe35  1  0.00133274  0.50032957  0.74976516  1
  Fe  Fe36  1  0.12295328  0.12375869  0.62486306  1
  Fe  Fe37  1  0.62380189  0.87379628  0.12349251  1
  Fe  Fe38  1  0.75497186  0.75385417  0.24764178  1
  Fe  Fe39  1  0.74904598  -0.00322540  0.75056201  1
  Fe  Fe40  1  0.87349766  0.62479401  0.37355616  1
  Fe  Fe41  1  0.74756580  -0.00089248  0.25319768  1
  Fe  Fe42  1  0.49930200  0.50232996  -0.00116481  1
  Fe  Fe43  1  0.50213632  -0.00074208  0.75110115  1
  Fe  Fe44  1  0.75005486  0.50157134  0.00177740  1
  Fe  Fe45  1  0.37603234  0.12646092  0.37588433  1
  Fe  Fe46  1  0.87430304  0.62497813  0.87398094  1
  Fe  Fe47  1  0.87586521  0.37728351  0.12567092  1
  Fe  Fe48  1  0.74950909  -0.00081829  0.00021104  1
  Fe  Fe49  1  0.62627733  0.62845353  0.87651321  1
  Fe  Fe50  1  0.12580623  0.37440717  0.87581426  1
  Fe  Fe51  1  0.50272199  0.00287219  0.25156578  1
  Fe  Fe52  1  0.37466113  0.37290506  0.37751220  1
  Fe  Fe53  1  0.75125155  0.24844719  0.00291823  1
  Fe  Fe54  1  0.62712241  0.12433946  0.62219099  1
  Fe  Fe55  1  0.12478105  0.62679149  0.37188145  1
  Fe  Fe56  1  0.37637483  0.87577642  0.62328415  1
  Fe  Fe57  1  0.62705295  0.37383606  0.87544991  1
  Fe  Fe58  1  0.12049379  0.87330914  0.12247177  1
  Fe  Fe59  1  0.12293780  0.37475965  0.12640645  1
  Fe  Fe60  1  0.87389540  0.62465873  0.62489410  1
  Fe  Fe61  1  0.62511274  0.62751280  0.12517188  1
  Fe  Fe62  1  0.24859202  0.49819806  0.25222672  1
  Fe  Fe63  1  0.50026108  0.50033686  0.75063606  1
  Fe  Fe64  1  0.25036941  0.25065454  0.25220127  1
  Fe  Fe65  1  -0.00077253  0.24558658  -0.00122373  1
  Fe  Fe66  1  0.12386892  0.62643246  0.12995752  1
  Fe  Fe67  1  0.62784579  0.37465924  0.62266946  1
  Fe  Fe68  1  0.49825881  0.75080460  0.75265916  1
  Fe  Fe69  1  0.87137227  0.37727640  0.37437271  1
  Fe  Fe70  1  0.24905917  0.24918324  0.00144269  1
  Fe  Fe71  1  0.37282995  0.37723661  0.87594681  1
  Fe  Fe72  1  0.62748741  0.12617706  0.87517004  1
  Fe  Fe73  1  0.50110755  0.00115573  -0.00002337  1
  Fe  Fe74  1  -0.00357251  0.24700478  0.75026814  1
  Fe  Fe75  1  0.24873661  0.50138106  0.49968403  1
  Fe  Fe76  1  -0.00078822  -0.00347495  0.25304670  1
  Fe  Fe77  1  0.62631507  0.62753670  0.62565671  1
  Fe  Fe78  1  -0.00061605  0.75052553  0.49902648  1
  Fe  Fe79  1  -0.00247664  0.25058457  0.25350602  1
  Fe  Fe80  1  0.37498071  0.37552592  0.62215353  1
  Fe  Fe81  1  0.12665291  0.62751420  0.62673766  1
  Fe  Fe82  1  0.25006140  0.25120254  0.74701081  1
  Fe  Fe83  1  0.24756901  0.00086765  0.49895526  1
  Fe  Fe84  1  0.13010292  0.62630330  0.87205385  1
  Fe  Fe85  1  0.12124566  0.37326769  0.62129713  1
  Fe  Fe86  1  0.49984445  0.24961457  0.74874944  1
  Fe  Fe87  1  -0.00116222  0.50207350  0.49816812  1
  Fe  Fe88  1  0.12371647  0.12592213  0.12886775  1
  Fe  Fe89  1  -0.00359884  0.24589911  0.49741001  1
  Co  Co90  1  0.12291302  0.87538233  0.62132527  1
  Co  Co91  1  0.62365528  0.87369860  0.62611044  1
  Co  Co92  1  0.37630812  0.87802492  0.12502559  1
  Co  Co93  1  0.62594569  0.13310362  0.37663602  1
  Co  Co94  1  0.24850929  0.24628256  0.50029997  1
  Co  Co95  1  0.75241410  0.24718524  0.24703620  1
  Co  Co96  1  0.62285438  0.86955485  0.37147229  1
  Co  Co97  1  0.87777236  0.37885103  0.62431918  1
  Co  Co98  1  0.87643471  0.11539810  0.62359252  1
  Co  Co99  1  0.12483206  0.37441484  0.37737718  1
  Co  Co100  1  0.00472153  0.00231015  0.49486911  1
  Co  Co101  1  0.12358109  0.87219594  0.88079307  1
  Co  Co102  1  0.25023843  0.75656696  0.74902568  1
  Co  Co103  1  0.74818767  0.50066017  0.24931089  1
  Co  Co104  1  -0.00394202  0.75353788  0.25127758  1
  Co  Co105  1  0.87549978  0.87736885  0.37943437  1
  Co  Co106  1  0.62405056  0.87301525  0.87815859  1
  Co  Co107  1  0.62541805  0.12387086  0.12460629  1
  Co  Co108  1  0.75743702  0.24807626  0.50367209  1
  Co  Co109  1  0.24777345  0.50106478  0.00314243  1
  Co  Co110  1  0.49976345  0.25010626  0.50270629  1
  Co  Co111  1  0.49597565  0.74835347  0.00019107  1
  Co  Co112  1  0.87802423  0.87821308  0.12095256  1
  Co  Co113  1  0.12841223  0.12743660  0.87318976  1
  Co  Co114  1  0.74248598  -0.00235715  0.49540028  1
  Co  Co115  1  0.00024895  0.49890608  0.25187333  1
  Co  Co116  1  0.00277365  0.00654574  -0.00205018  1
  Co  Co117  1  0.75322401  0.75010134  0.00143327  1
  Co  Co118  1  0.24852681  0.49563085  0.74596446  1
  Co  Co119  1  0.37465909  0.62528036  0.37353426  1
  Co  Co120  1  0.12522638  0.12527622  0.37170608  1
  Co  Co121  1  0.87230376  0.12013004  0.37552387  1
  Co  Co122  1  0.74839249  0.50141519  0.49949796  1
  Co  Co123  1  0.49863673  0.24878323  0.24793201  1
  Co  Co124  1  0.37033467  0.62308034  0.87243701  1
  Co  Co125  1  -0.00056325  0.74419520  0.00029534  1
  Co  Co126  1  0.87130222  0.12392834  0.87458259  1
  Co  Co127  1  0.25067057  0.75306822  0.24938820  1
