# generated using pymatgen
data_Fe45Co19
_symmetry_space_group_name_H-M   'P 1'
_cell_length_a   11.41439841
_cell_length_b   11.41575555
_cell_length_c   11.41613640
_cell_angle_alpha   90.00281901
_cell_angle_beta   90.00604960
_cell_angle_gamma   89.99218670
_symmetry_Int_Tables_number   1
_chemical_formula_structural   Fe45Co19
_chemical_formula_sum   'Fe90 Co38'
_cell_volume   1487.56800768
_cell_formula_units_Z   2
loop_
 _symmetry_equiv_pos_site_id
 _symmetry_equiv_pos_as_xyz
  1  'x, y, z'
loop_
 _atom_site_type_symbol
 _atom_site_label
 _atom_site_symmetry_multiplicity
 _atom_site_fract_x
 _atom_site_fract_y
 _atom_site_fract_z
 _atom_site_occupancy
  Fe  Fe0  1  0.74951574  0.49914459  0.75062584  1
  Fe  Fe1  1  0.62250448  0.37618113  0.12332598  1
  Fe  Fe2  1  -0.00090568  0.50256713  -0.00037185  1
  Fe  Fe3  1  0.50114173  0.74879484  -0.00070247  1
  Fe  Fe4  1  0.00098638  -0.00010425  -0.00305977  1
  Fe  Fe5  1  0.74792661  0.25105268  0.50400598  1
  Fe  Fe6  1  0.37523532  0.37638234  0.12353225  1
  Fe  Fe7  1  0.62407692  0.12615720  0.87297005  1
  Fe  Fe8  1  0.25229503  0.50124355  0.50013184  1
  Fe  Fe9  1  -0.00162817  0.00103350  0.49944781  1
  Fe  Fe10  1  0.87181289  0.87325497  0.37579777  1
  Fe  Fe11  1  0.87195906  0.12844686  0.87532674  1
  Fe  Fe12  1  0.24868482  0.25423928  0.25059652  1
  Fe  Fe13  1  0.87277034  0.37422905  0.37568715  1
  Fe  Fe14  1  0.12518548  0.12807841  0.37939956  1
  Fe  Fe15  1  0.49987292  0.25447603  0.74583653  1
  Fe  Fe16  1  -0.00274495  0.50056144  0.49855107  1
  Fe  Fe17  1  0.24979725  0.75050772  0.74782959  1
  Fe  Fe18  1  0.49963241  -0.00486686  0.74815067  1
  Fe  Fe19  1  0.00342066  0.25314083  0.25156620  1
  Fe  Fe20  1  0.37693556  0.12783627  0.37510581  1
  Fe  Fe21  1  0.86952341  0.62490597  0.37143608  1
  Fe  Fe22  1  0.49840887  0.00206762  0.50159346  1
  Fe  Fe23  1  0.50234832  0.49945129  0.25377441  1
  Fe  Fe24  1  0.50628043  0.75165795  0.74765720  1
  Fe  Fe25  1  0.87623513  0.12468550  0.62537344  1
  Fe  Fe26  1  0.12408477  0.87414819  0.12541305  1
  Fe  Fe27  1  0.37428499  0.12531395  0.12619917  1
  Fe  Fe28  1  -0.00217942  0.74807665  0.49801653  1
  Fe  Fe29  1  0.50082202  0.50091573  -0.00443427  1
  Fe  Fe30  1  0.25001689  0.50193252  -0.00107827  1
  Fe  Fe31  1  0.87722485  0.12722528  0.12377135  1
  Fe  Fe32  1  0.50040334  -0.00040346  0.25155939  1
  Fe  Fe33  1  0.50588205  0.74453574  0.50144160  1
  Fe  Fe34  1  0.12279884  0.62446865  0.62449616  1
  Fe  Fe35  1  0.37488318  0.62491704  0.87158277  1
  Fe  Fe36  1  0.12660519  0.62419220  0.37264262  1
  Fe  Fe37  1  0.87166514  0.62600500  0.12891937  1
  Fe  Fe38  1  0.87212111  0.62466655  0.62689054  1
  Fe  Fe39  1  0.74963918  -0.00131055  0.75033599  1
  Fe  Fe40  1  0.00030337  0.50058580  0.75058667  1
  Fe  Fe41  1  0.37573023  0.87569480  0.12562775  1
  Fe  Fe42  1  0.75083702  0.50047727  0.00069177  1
  Fe  Fe43  1  0.25189570  0.00069282  0.50447344  1
  Fe  Fe44  1  0.49834800  0.00165779  -0.00145024  1
  Fe  Fe45  1  0.00162330  0.49683420  0.25119554  1
  Fe  Fe46  1  0.25317290  0.24924025  0.50700296  1
  Fe  Fe47  1  0.24881442  0.24898963  -0.00234441  1
  Fe  Fe48  1  0.87451379  0.37261005  0.87623395  1
  Fe  Fe49  1  0.50437641  0.74948220  0.25150100  1
  Fe  Fe50  1  0.62706960  0.87598111  0.37994510  1
  Fe  Fe51  1  0.00084516  0.24903956  0.75020653  1
  Fe  Fe52  1  0.74788921  0.25190713  0.24723897  1
  Fe  Fe53  1  0.12515366  0.37623326  0.87491621  1
  Fe  Fe54  1  0.25015703  -0.00092984  0.25141556  1
  Fe  Fe55  1  0.12485183  0.12598306  0.12457538  1
  Fe  Fe56  1  0.37616883  0.62337846  0.12769643  1
  Fe  Fe57  1  0.87121435  0.87550429  0.62175959  1
  Fe  Fe58  1  0.37389209  0.62684443  0.37301379  1
  Fe  Fe59  1  0.87569751  0.12871851  0.37481473  1
  Fe  Fe60  1  0.37823832  0.37235628  0.37801041  1
  Fe  Fe61  1  0.74956776  0.00082747  0.25140396  1
  Fe  Fe62  1  0.62372700  0.12318849  0.62560824  1
  Fe  Fe63  1  -0.00283487  0.75111586  0.75058319  1
  Fe  Fe64  1  0.37559929  0.87316041  0.37799515  1
  Fe  Fe65  1  0.12832088  0.11890652  0.86874955  1
  Fe  Fe66  1  0.24995205  0.74869719  0.50195862  1
  Fe  Fe67  1  0.00034864  0.00016498  0.25250050  1
  Fe  Fe68  1  0.12715173  0.62393722  0.12944500  1
  Fe  Fe69  1  0.62928884  0.62787512  0.87546227  1
  Fe  Fe70  1  0.12579741  0.87349183  0.37593293  1
  Fe  Fe71  1  0.87125723  0.87182700  0.87626371  1
  Fe  Fe72  1  0.87805216  0.37162731  0.12106535  1
  Fe  Fe73  1  0.12244761  0.87669336  0.62655329  1
  Fe  Fe74  1  0.62494113  0.87539118  0.12173428  1
  Fe  Fe75  1  0.62301350  0.12510901  0.12511079  1
  Fe  Fe76  1  0.49895994  0.24975070  -0.00099182  1
  Fe  Fe77  1  0.37177198  0.37640757  0.87049782  1
  Fe  Fe78  1  0.62239472  0.12970697  0.37514700  1
  Fe  Fe79  1  0.74912829  0.00203842  -0.00040570  1
  Fe  Fe80  1  0.12358589  0.62704012  0.87411020  1
  Fe  Fe81  1  0.37892658  0.62114740  0.62826868  1
  Fe  Fe82  1  -0.00167527  0.74869491  -0.00008527  1
  Fe  Fe83  1  0.37382401  0.87482577  0.87483941  1
  Fe  Fe84  1  0.87492293  0.87444734  0.12653435  1
  Fe  Fe85  1  0.25048642  0.75021111  0.00123273  1
  Fe  Fe86  1  0.87509470  0.37515098  0.62632513  1
  Fe  Fe87  1  0.62814117  0.37188794  0.87458892  1
  Fe  Fe88  1  0.37347248  0.12414758  0.87095290  1
  Fe  Fe89  1  0.12444903  0.37590004  0.62316276  1
  Co  Co90  1  0.25131383  0.49532606  0.25230611  1
  Co  Co91  1  -0.00628084  -0.00133173  0.75165868  1
  Co  Co92  1  0.24894719  0.25089531  0.74567209  1
  Co  Co93  1  0.50017092  0.50240800  0.49548202  1
  Co  Co94  1  0.25108498  0.75218838  0.24968829  1
  Co  Co95  1  0.74558948  0.75313978  0.24964159  1
  Co  Co96  1  0.87267713  0.62486486  0.87240054  1
  Co  Co97  1  0.25003091  -0.00080359  0.00082290  1
  Co  Co98  1  0.75103484  0.74835369  0.00245472  1
  Co  Co99  1  0.62802197  0.87824015  0.62022488  1
  Co  Co100  1  0.62510735  0.37309808  0.37758485  1
  Co  Co101  1  0.12466044  0.37603961  0.12158391  1
  Co  Co102  1  0.74681509  0.24914501  0.00239158  1
  Co  Co103  1  0.74866192  0.49462591  0.24682823  1
  Co  Co104  1  0.50047887  0.25197870  0.24706924  1
  Co  Co105  1  0.50429003  0.49958236  0.75582102  1
  Co  Co106  1  0.37694965  0.38285670  0.62761487  1
  Co  Co107  1  0.24600161  0.50202796  0.74949794  1
  Co  Co108  1  0.75069333  0.00618597  0.49786175  1
  Co  Co109  1  0.75200224  0.49875115  0.50084477  1
  Co  Co110  1  0.50036176  0.25102176  0.50666630  1
  Co  Co111  1  0.25464206  -0.00426696  0.74429754  1
  Co  Co112  1  0.62273598  0.38123124  0.62272458  1
  Co  Co113  1  0.12157604  0.12181969  0.62663420  1
  Co  Co114  1  0.37771843  0.12465334  0.62861422  1
  Co  Co115  1  -0.00242969  0.25079730  0.50253747  1
  Co  Co116  1  0.00462877  0.24672218  -0.00506453  1
  Co  Co117  1  0.74731179  0.75179913  0.74654211  1
  Co  Co118  1  0.62407595  0.62344169  0.12426092  1
  Co  Co119  1  0.37840100  0.87023966  0.62198806  1
  Co  Co120  1  0.12604695  0.87480726  0.87312303  1
  Co  Co121  1  0.62602191  0.87515319  0.87770401  1
  Co  Co122  1  0.74875313  0.25019660  0.74563283  1
  Co  Co123  1  0.62567141  0.61877399  0.62656048  1
  Co  Co124  1  -0.00004142  0.74963060  0.25211685  1
  Co  Co125  1  0.74842826  0.74576801  0.50192672  1
  Co  Co126  1  0.63192409  0.62126883  0.37372526  1
  Co  Co127  1  0.12549358  0.37491070  0.38156100  1
