# generated using pymatgen
data_Fe45Co19
_symmetry_space_group_name_H-M   'P 1'
_cell_length_a   11.41507121
_cell_length_b   11.41601237
_cell_length_c   11.41502943
_cell_angle_alpha   90.00027432
_cell_angle_beta   90.00168690
_cell_angle_gamma   90.00339837
_symmetry_Int_Tables_number   1
_chemical_formula_structural   Fe45Co19
_chemical_formula_sum   'Fe90 Co38'
_cell_volume   1487.54492484
_cell_formula_units_Z   2
loop_
 _symmetry_equiv_pos_site_id
 _symmetry_equiv_pos_as_xyz
  1  'x, y, z'
loop_
 _atom_site_type_symbol
 _atom_site_label
 _atom_site_symmetry_multiplicity
 _atom_site_fract_x
 _atom_site_fract_y
 _atom_site_fract_z
 _atom_site_occupancy
  Fe  Fe0  1  0.37600222  0.12333603  0.62287373  1
  Fe  Fe1  1  0.12244271  0.37631197  0.37739271  1
  Fe  Fe2  1  0.37661341  0.12235755  0.87590966  1
  Fe  Fe3  1  -0.00073211  0.74728518  0.50382747  1
  Fe  Fe4  1  0.37506711  0.37791618  0.12237108  1
  Fe  Fe5  1  0.87478914  0.87511540  0.12596505  1
  Fe  Fe6  1  -0.00231596  0.24915118  0.25129021  1
  Fe  Fe7  1  0.25064685  0.25058519  -0.00087624  1
  Fe  Fe8  1  0.37502884  0.37780419  0.62359733  1
  Fe  Fe9  1  0.12396875  0.87476035  0.37712621  1
  Fe  Fe10  1  0.74608977  0.49997453  -0.00331560  1
  Fe  Fe11  1  0.74949694  0.75086240  0.49719566  1
  Fe  Fe12  1  0.12474359  0.87250292  0.62582164  1
  Fe  Fe13  1  0.50473173  -0.00077126  0.50060609  1
  Fe  Fe14  1  0.74817571  -0.00145747  0.50139360  1
  Fe  Fe15  1  0.00041932  0.50039792  0.74420060  1
  Fe  Fe16  1  0.87523849  0.37650210  0.37590849  1
  Fe  Fe17  1  0.24746285  0.00114456  0.00054139  1
  Fe  Fe18  1  0.75209775  0.74919571  -0.00036580  1
  Fe  Fe19  1  0.37552465  0.12312313  0.37565291  1
  Fe  Fe20  1  0.62699940  0.87147046  0.12892313  1
  Fe  Fe21  1  0.37351062  0.12586855  0.12606673  1
  Fe  Fe22  1  0.25292059  0.25130221  0.49997554  1
  Fe  Fe23  1  0.49995708  0.74899087  0.00027092  1
  Fe  Fe24  1  0.87733872  0.62150406  0.37622487  1
  Fe  Fe25  1  0.50114880  0.74991134  0.49861199  1
  Fe  Fe26  1  0.37369029  0.62168628  0.12219075  1
  Fe  Fe27  1  0.87481094  0.37562090  0.12398106  1
  Fe  Fe28  1  0.62646619  0.12963309  0.12237647  1
  Fe  Fe29  1  0.00021828  0.00255542  0.25077530  1
  Fe  Fe30  1  0.87464547  0.62289369  0.87264379  1
  Fe  Fe31  1  0.37870495  0.37934401  0.37709385  1
  Fe  Fe32  1  0.75151956  0.24992086  0.49855528  1
  Fe  Fe33  1  0.12385315  0.37415340  0.12603587  1
  Fe  Fe34  1  0.62508845  0.37236845  0.12029673  1
  Fe  Fe35  1  0.24973675  0.25103906  0.25238879  1
  Fe  Fe36  1  0.37535862  0.87720160  0.37561158  1
  Fe  Fe37  1  0.37480697  0.87706899  0.87621684  1
  Fe  Fe38  1  0.37215829  0.62222980  0.62434418  1
  Fe  Fe39  1  0.12503333  0.37207693  0.86918689  1
  Fe  Fe40  1  0.12370814  0.12832048  0.87206791  1
  Fe  Fe41  1  0.62449938  0.87365764  0.87381285  1
  Fe  Fe42  1  0.75336997  0.75197021  0.75099193  1
  Fe  Fe43  1  0.87470644  0.87636568  0.62752084  1
  Fe  Fe44  1  -0.00203146  0.24996982  -0.00179717  1
  Fe  Fe45  1  0.87478632  0.12245883  0.62800741  1
  Fe  Fe46  1  0.24648092  0.50083706  0.25126279  1
  Fe  Fe47  1  0.37673098  0.87650150  0.62326634  1
  Fe  Fe48  1  0.00000973  0.74821643  -0.00137004  1
  Fe  Fe49  1  0.74976062  0.00186317  -0.00226024  1
  Fe  Fe50  1  0.37696664  0.62134425  0.37542111  1
  Fe  Fe51  1  0.87576464  0.37674067  0.87313180  1
  Fe  Fe52  1  0.50183875  -0.00036786  0.24956161  1
  Fe  Fe53  1  0.62642232  0.62906466  0.62711268  1
  Fe  Fe54  1  0.24909102  0.00007634  0.74780706  1
  Fe  Fe55  1  0.87422662  0.12728166  0.12448433  1
  Fe  Fe56  1  0.00168574  0.00143247  -0.00025818  1
  Fe  Fe57  1  0.37694959  0.37714690  0.87659543  1
  Fe  Fe58  1  0.00405126  0.50032574  -0.00162333  1
  Fe  Fe59  1  0.75027581  0.00223199  0.25113042  1
  Fe  Fe60  1  -0.00280369  0.25139263  0.50385137  1
  Fe  Fe61  1  0.12521197  0.12829921  0.62561393  1
  Fe  Fe62  1  0.12351426  0.12477979  0.37835551  1
  Fe  Fe63  1  0.74679326  0.49899151  0.75038835  1
  Fe  Fe64  1  0.74826079  0.49736934  0.25077093  1
  Fe  Fe65  1  0.50122758  0.25278406  0.25074459  1
  Fe  Fe66  1  0.25004661  0.74845478  0.49978844  1
  Fe  Fe67  1  0.24720124  0.00113269  0.25081986  1
  Fe  Fe68  1  0.50230718  -0.00022179  0.00271122  1
  Fe  Fe69  1  0.12835450  0.62722546  0.87027890  1
  Fe  Fe70  1  0.75125508  0.24706400  0.75479070  1
  Fe  Fe71  1  0.50537991  0.00116153  0.74762514  1
  Fe  Fe72  1  0.49870963  0.24844452  0.74992184  1
  Fe  Fe73  1  0.00181289  0.49988018  0.50701549  1
  Fe  Fe74  1  0.37311070  0.87557999  0.12495521  1
  Fe  Fe75  1  0.87645551  0.87840074  0.87279082  1
  Fe  Fe76  1  0.87549585  0.87673586  0.37485613  1
  Fe  Fe77  1  0.74683475  0.50036219  0.50056878  1
  Fe  Fe78  1  0.37143205  0.62344522  0.87788649  1
  Fe  Fe79  1  0.87614527  0.62180762  0.12471480  1
  Fe  Fe80  1  0.24964902  0.74758168  0.25034533  1
  Fe  Fe81  1  0.12578004  0.87212318  0.87264955  1
  Fe  Fe82  1  -0.00150921  0.74729154  0.24964443  1
  Fe  Fe83  1  0.62493550  0.62687612  0.12687291  1
  Fe  Fe84  1  0.50227010  0.50146421  0.75163880  1
  Fe  Fe85  1  0.62469227  0.37149079  0.62466852  1
  Fe  Fe86  1  0.12453425  0.87365783  0.12514765  1
  Fe  Fe87  1  0.49650300  0.74926582  0.75087856  1
  Fe  Fe88  1  0.62532235  0.12787407  0.37617874  1
  Fe  Fe89  1  0.62227461  0.62498892  0.37136946  1
  Co  Co90  1  0.62662463  0.62960064  0.87211190  1
  Co  Co91  1  0.87813944  0.12165346  0.87262776  1
  Co  Co92  1  0.74530468  0.00157826  0.75019022  1
  Co  Co93  1  0.74964245  0.25289849  0.25173231  1
  Co  Co94  1  0.24936862  0.75053286  0.00068434  1
  Co  Co95  1  -0.00119417  -0.00001353  0.50247503  1
  Co  Co96  1  0.50411586  0.50177911  0.50388076  1
  Co  Co97  1  0.75465018  0.24990241  -0.00525872  1
  Co  Co98  1  0.24481514  0.49740489  -0.00144059  1
  Co  Co99  1  0.25583934  0.24908768  0.74974205  1
  Co  Co100  1  0.62535534  0.86996987  0.62654527  1
  Co  Co101  1  -0.00404505  0.25206682  0.74643275  1
  Co  Co102  1  -0.00228354  0.74750179  0.74845116  1
  Co  Co103  1  0.62271400  0.37051222  0.87508242  1
  Co  Co104  1  0.49561665  0.24980775  0.00019912  1
  Co  Co105  1  0.50450872  0.50252336  -0.00256676  1
  Co  Co106  1  0.24847867  0.00012636  0.50231775  1
  Co  Co107  1  0.12460732  0.62459548  0.12507591  1
  Co  Co108  1  0.25468062  0.75288746  0.74877529  1
  Co  Co109  1  0.62309803  0.37428672  0.37881080  1
  Co  Co110  1  0.24748666  0.49975143  0.49871384  1
  Co  Co111  1  0.49710461  0.25038491  0.49956923  1
  Co  Co112  1  0.12981566  0.62532774  0.62781327  1
  Co  Co113  1  0.86947434  0.37556393  0.62566219  1
  Co  Co114  1  0.49570043  0.75020237  0.24926246  1
  Co  Co115  1  0.75465454  0.74722321  0.25194878  1
  Co  Co116  1  0.25130774  0.49756871  0.75080380  1
  Co  Co117  1  0.62632035  0.12996097  0.62349893  1
  Co  Co118  1  0.12507565  0.12770630  0.12508869  1
  Co  Co119  1  0.12917645  0.37256664  0.62643634  1
  Co  Co120  1  0.87032589  0.62477504  0.62509795  1
  Co  Co121  1  0.50161876  0.49762026  0.24716367  1
  Co  Co122  1  0.00389248  -0.00057207  0.74917025  1
  Co  Co123  1  0.87469157  0.12482025  0.37617804  1
  Co  Co124  1  0.62521095  0.87393058  0.37176346  1
  Co  Co125  1  0.62207775  0.12654914  0.87822223  1
  Co  Co126  1  0.12178202  0.62456146  0.37672266  1
  Co  Co127  1  0.00029829  0.49927797  0.24942071  1
