# generated using pymatgen
data_Fe45Co19
_symmetry_space_group_name_H-M   'P 1'
_cell_length_a   11.41534316
_cell_length_b   11.41524991
_cell_length_c   11.41529903
_cell_angle_alpha   89.99731341
_cell_angle_beta   90.00536353
_cell_angle_gamma   89.99198922
_symmetry_Int_Tables_number   1
_chemical_formula_structural   Fe45Co19
_chemical_formula_sum   'Fe90 Co38'
_cell_volume   1487.51612133
_cell_formula_units_Z   2
loop_
 _symmetry_equiv_pos_site_id
 _symmetry_equiv_pos_as_xyz
  1  'x, y, z'
loop_
 _atom_site_type_symbol
 _atom_site_label
 _atom_site_symmetry_multiplicity
 _atom_site_fract_x
 _atom_site_fract_y
 _atom_site_fract_z
 _atom_site_occupancy
  Fe  Fe0  1  0.37692423  0.62814191  0.62678541  1
  Fe  Fe1  1  0.12649723  0.87514981  0.37162988  1
  Fe  Fe2  1  0.24971890  0.50092102  0.49933042  1
  Fe  Fe3  1  0.75124887  0.49790381  0.25067251  1
  Fe  Fe4  1  0.62237882  0.62112976  0.12840164  1
  Fe  Fe5  1  0.24850501  0.24950218  0.50032393  1
  Fe  Fe6  1  0.37442448  0.37494973  0.62498075  1
  Fe  Fe7  1  0.25139713  0.25021579  0.75176656  1
  Fe  Fe8  1  0.37174661  0.87446441  0.37207934  1
  Fe  Fe9  1  0.49940521  -0.00134756  0.25047514  1
  Fe  Fe10  1  0.24810503  0.74864537  0.50074292  1
  Fe  Fe11  1  0.74853483  0.24258393  0.50428606  1
  Fe  Fe12  1  0.62551887  0.62484325  0.37333438  1
  Fe  Fe13  1  0.37384106  0.87415938  0.12575769  1
  Fe  Fe14  1  0.75252836  0.00390925  0.00253475  1
  Fe  Fe15  1  0.25179042  0.00017565  0.75305834  1
  Fe  Fe16  1  0.87112510  0.36848142  0.12351622  1
  Fe  Fe17  1  0.12477176  0.37541149  0.62486199  1
  Fe  Fe18  1  0.87658150  0.87456120  0.12397434  1
  Fe  Fe19  1  0.49743382  -0.00479872  0.75521990  1
  Fe  Fe20  1  0.25079580  0.00178827  0.49898941  1
  Fe  Fe21  1  0.62645725  0.62438244  0.87355112  1
  Fe  Fe22  1  0.25005571  0.00036693  0.00059364  1
  Fe  Fe23  1  0.12551217  0.12920603  0.37143008  1
  Fe  Fe24  1  0.75115726  0.75073014  0.24966538  1
  Fe  Fe25  1  0.12564264  0.37479294  0.12585974  1
  Fe  Fe26  1  0.25025477  0.25244260  -0.00073106  1
  Fe  Fe27  1  0.37550862  0.12567828  0.37325058  1
  Fe  Fe28  1  -0.00063011  0.25114516  0.75158912  1
  Fe  Fe29  1  -0.00187914  0.49872806  0.75061037  1
  Fe  Fe30  1  -0.00267590  0.49589877  0.25095279  1
  Fe  Fe31  1  0.62584425  0.12311285  0.87360830  1
  Fe  Fe32  1  0.87390548  0.37258214  0.62453456  1
  Fe  Fe33  1  0.12385702  0.12480337  0.62640705  1
  Fe  Fe34  1  0.12318076  0.62331425  0.87662402  1
  Fe  Fe35  1  0.25095334  0.50065221  0.00061487  1
  Fe  Fe36  1  0.62500441  0.62498903  0.62519090  1
  Fe  Fe37  1  0.12235019  0.62403960  0.37201708  1
  Fe  Fe38  1  -0.00193468  0.00283003  0.24813363  1
  Fe  Fe39  1  0.74960404  0.74789887  0.00204712  1
  Fe  Fe40  1  -0.00086776  0.75009093  0.49745294  1
  Fe  Fe41  1  0.37542854  0.62858789  0.87284243  1
  Fe  Fe42  1  0.37721783  0.12372233  0.62604006  1
  Fe  Fe43  1  0.87590525  0.62551080  0.62374231  1
  Fe  Fe44  1  0.50004996  0.25153554  0.75276629  1
  Fe  Fe45  1  0.74941792  0.75164896  0.74967440  1
  Fe  Fe46  1  0.50071363  0.49866125  0.49931394  1
  Fe  Fe47  1  0.87462831  0.62504285  0.87598923  1
  Fe  Fe48  1  0.74798400  0.49913139  0.00061182  1
  Fe  Fe49  1  0.87357063  0.87485929  0.87776395  1
  Fe  Fe50  1  0.37773112  0.62762940  0.37312013  1
  Fe  Fe51  1  0.25206056  0.49987180  0.24964749  1
  Fe  Fe52  1  0.75066506  0.50039688  0.50042486  1
  Fe  Fe53  1  0.12524359  0.12649235  0.87678539  1
  Fe  Fe54  1  0.12475304  0.87598225  0.62473706  1
  Fe  Fe55  1  0.87534878  0.87765026  0.62431050  1
  Fe  Fe56  1  0.50129118  0.75288637  0.49954427  1
  Fe  Fe57  1  -0.00118262  -0.00012713  0.75317254  1
  Fe  Fe58  1  -0.00118804  0.49583774  -0.00049984  1
  Fe  Fe59  1  0.50542467  0.25415395  -0.00229892  1
  Fe  Fe60  1  0.62735320  0.37266483  0.37470023  1
  Fe  Fe61  1  0.75064185  0.00697429  0.50214209  1
  Fe  Fe62  1  0.49821731  -0.00253909  -0.00327159  1
  Fe  Fe63  1  0.75048926  0.74964687  0.49931610  1
  Fe  Fe64  1  0.37420625  0.37301815  0.37564432  1
  Fe  Fe65  1  0.50184486  0.75021201  -0.00090080  1
  Fe  Fe66  1  0.12285136  0.87350128  0.12649292  1
  Fe  Fe67  1  0.38025734  0.62441487  0.12768290  1
  Fe  Fe68  1  0.12302766  0.12856198  0.12448643  1
  Fe  Fe69  1  0.24950177  0.50118734  0.74944670  1
  Fe  Fe70  1  0.87475386  0.12719131  0.87852418  1
  Fe  Fe71  1  0.00080651  0.75022348  0.75089852  1
  Fe  Fe72  1  0.37728582  0.12599390  0.12284665  1
  Fe  Fe73  1  0.12580299  0.87454659  0.87723033  1
  Fe  Fe74  1  0.62764547  0.87902822  0.37474951  1
  Fe  Fe75  1  0.50308754  0.25094762  0.24862583  1
  Fe  Fe76  1  0.00059606  0.00385618  0.49791432  1
  Fe  Fe77  1  0.87782902  0.62536160  0.12567234  1
  Fe  Fe78  1  0.62579665  0.87934736  0.62528319  1
  Fe  Fe79  1  0.87320815  0.87838730  0.37426134  1
  Fe  Fe80  1  0.62605685  0.87721225  0.12404645  1
  Fe  Fe81  1  -0.00070943  0.49730936  0.49790496  1
  Fe  Fe82  1  0.24753478  0.74720217  0.00373337  1
  Fe  Fe83  1  0.87252289  0.36793186  0.37588149  1
  Fe  Fe84  1  0.37352953  0.87314448  0.62737614  1
  Fe  Fe85  1  0.50220641  0.24799571  0.50094177  1
  Fe  Fe86  1  0.37967461  0.37689955  0.12261075  1
  Fe  Fe87  1  0.62724279  0.37443108  0.62775721  1
  Fe  Fe88  1  0.86888653  0.37197636  0.87525557  1
  Fe  Fe89  1  0.50069328  0.49872065  0.75179339  1
  Co  Co90  1  0.75175721  0.50196773  0.74842798  1
  Co  Co91  1  -0.00059625  0.25161804  0.24966086  1
  Co  Co92  1  0.00026269  0.00089789  0.00110467  1
  Co  Co93  1  0.62368679  0.12236238  0.37403283  1
  Co  Co94  1  0.37534403  0.12713809  0.87792564  1
  Co  Co95  1  0.87435633  0.62423502  0.37455938  1
  Co  Co96  1  0.62382279  0.37976931  0.12600896  1
  Co  Co97  1  0.50541390  0.75383624  0.75185765  1
  Co  Co98  1  0.49671917  -0.00166512  0.49823173  1
  Co  Co99  1  0.24421388  0.74830228  0.74879317  1
  Co  Co100  1  0.75055288  0.24476995  0.74696190  1
  Co  Co101  1  0.75293060  0.00206725  0.75001472  1
  Co  Co102  1  0.25320385  0.25118281  0.24687270  1
  Co  Co103  1  0.00037202  0.74967035  -0.00080567  1
  Co  Co104  1  0.74492816  0.24593000  0.24609832  1
  Co  Co105  1  0.88026776  0.12416908  0.62566134  1
  Co  Co106  1  0.12135227  0.62345024  0.62296810  1
  Co  Co107  1  0.11951591  0.62207013  0.12636645  1
  Co  Co108  1  0.74327994  0.24880776  0.00287332  1
  Co  Co109  1  0.00180573  0.24931254  0.50004572  1
  Co  Co110  1  0.87753945  0.13022199  0.12366370  1
  Co  Co111  1  0.24960872  0.00298657  0.24725435  1
  Co  Co112  1  0.12671970  0.37421215  0.37332550  1
  Co  Co113  1  0.37364324  0.37582490  0.87553194  1
  Co  Co114  1  0.12695214  0.37590892  0.87427178  1
  Co  Co115  1  0.00139748  0.25288471  -0.00174325  1
  Co  Co116  1  0.50173602  0.50048725  -0.00538461  1
  Co  Co117  1  0.49946365  0.49673300  0.25485752  1
  Co  Co118  1  0.62148702  0.12103562  0.12432546  1
  Co  Co119  1  0.63037851  0.37592812  0.87152120  1
  Co  Co120  1  0.87433421  0.12763199  0.37263980  1
  Co  Co121  1  0.63068678  0.87711633  0.87864774  1
  Co  Co122  1  0.61884910  0.12080465  0.62910037  1
  Co  Co123  1  0.75229560  0.00325310  0.24631158  1
  Co  Co124  1  0.50302053  0.75418268  0.25017203  1
  Co  Co125  1  0.37031299  0.86949949  0.87625291  1
  Co  Co126  1  0.24851424  0.74703417  0.24745963  1
  Co  Co127  1  -0.00260690  0.75106272  0.25127426  1
