# generated using pymatgen
data_Fe45Co19
_symmetry_space_group_name_H-M   'P 1'
_cell_length_a   11.41509604
_cell_length_b   11.41541840
_cell_length_c   11.41526930
_cell_angle_alpha   90.00288398
_cell_angle_beta   90.00713564
_cell_angle_gamma   90.00086049
_symmetry_Int_Tables_number   1
_chemical_formula_structural   Fe45Co19
_chemical_formula_sum   'Fe90 Co38'
_cell_volume   1487.50200930
_cell_formula_units_Z   2
loop_
 _symmetry_equiv_pos_site_id
 _symmetry_equiv_pos_as_xyz
  1  'x, y, z'
loop_
 _atom_site_type_symbol
 _atom_site_label
 _atom_site_symmetry_multiplicity
 _atom_site_fract_x
 _atom_site_fract_y
 _atom_site_fract_z
 _atom_site_occupancy
  Fe  Fe0  1  -0.00179832  0.25280893  -0.00006958  1
  Fe  Fe1  1  0.75085568  0.00089359  0.25132315  1
  Fe  Fe2  1  0.24891834  0.24920058  0.00064406  1
  Fe  Fe3  1  -0.00114441  -0.00136881  0.24956182  1
  Fe  Fe4  1  0.24831732  0.00029053  0.25004072  1
  Fe  Fe5  1  0.50117203  0.25020124  -0.00040052  1
  Fe  Fe6  1  0.74721971  0.24961356  0.25012858  1
  Fe  Fe7  1  0.12369532  0.87509674  0.62576545  1
  Fe  Fe8  1  0.24784180  0.75043539  -0.00314137  1
  Fe  Fe9  1  0.87562376  0.87225364  0.12676180  1
  Fe  Fe10  1  0.37350243  0.62484200  0.37739495  1
  Fe  Fe11  1  0.50226555  0.00113490  0.24853920  1
  Fe  Fe12  1  0.50544439  0.24578513  0.75200452  1
  Fe  Fe13  1  0.24593262  0.74897734  0.75179512  1
  Fe  Fe14  1  0.24897296  0.74994133  0.25187235  1
  Fe  Fe15  1  0.87704187  0.37537956  0.37383878  1
  Fe  Fe16  1  0.00294658  0.50083761  0.25066439  1
  Fe  Fe17  1  0.75469168  0.25077329  0.49917654  1
  Fe  Fe18  1  0.87505336  0.62370894  0.87204882  1
  Fe  Fe19  1  0.87476189  0.13002862  0.62883823  1
  Fe  Fe20  1  0.37214739  0.62600737  0.62576983  1
  Fe  Fe21  1  0.49716144  0.75150650  0.49994157  1
  Fe  Fe22  1  0.37472932  0.37272959  0.62844710  1
  Fe  Fe23  1  0.49959031  -0.00155887  0.50301605  1
  Fe  Fe24  1  0.37462586  0.62648919  0.12525940  1
  Fe  Fe25  1  0.12336147  0.37160013  0.62398118  1
  Fe  Fe26  1  0.37712290  0.12135044  0.87444761  1
  Fe  Fe27  1  0.00020741  -0.00054621  0.75052925  1
  Fe  Fe28  1  0.24931635  -0.00130283  0.00283531  1
  Fe  Fe29  1  0.12391102  0.62673974  0.12372093  1
  Fe  Fe30  1  0.87528806  0.12697221  0.12539027  1
  Fe  Fe31  1  0.62632733  0.37768957  0.12205453  1
  Fe  Fe32  1  0.00111206  0.75290773  -0.00476290  1
  Fe  Fe33  1  0.00019839  0.49955929  0.49969222  1
  Fe  Fe34  1  0.87393064  0.62610505  0.12560192  1
  Fe  Fe35  1  0.37311721  0.62325238  0.87198831  1
  Fe  Fe36  1  0.87440871  0.87312260  0.62729838  1
  Fe  Fe37  1  0.62635588  0.37186130  0.62683351  1
  Fe  Fe38  1  0.37355598  0.37348234  0.12685512  1
  Fe  Fe39  1  0.12474743  0.37740634  0.87578082  1
  Fe  Fe40  1  0.37536079  0.87474667  0.62960627  1
  Fe  Fe41  1  0.50210357  0.50219959  0.24915779  1
  Fe  Fe42  1  0.75248439  0.74943733  0.49755202  1
  Fe  Fe43  1  0.25086182  0.50075203  -0.00009649  1
  Fe  Fe44  1  0.87408656  0.62627216  0.62708579  1
  Fe  Fe45  1  0.75021546  0.74760036  0.25365155  1
  Fe  Fe46  1  0.75102498  0.49873154  0.50210851  1
  Fe  Fe47  1  0.12309188  0.87295281  0.37566080  1
  Fe  Fe48  1  0.62583897  0.62823922  0.62467130  1
  Fe  Fe49  1  0.75198834  -0.00292708  0.00117246  1
  Fe  Fe50  1  0.62634359  0.12475864  0.12060888  1
  Fe  Fe51  1  0.24974416  0.49787223  0.50059692  1
  Fe  Fe52  1  0.24723375  0.49931591  0.25077879  1
  Fe  Fe53  1  0.49940961  0.75013161  -0.00237864  1
  Fe  Fe54  1  0.37492015  0.12649656  0.12652998  1
  Fe  Fe55  1  0.37595840  0.37565950  0.87279417  1
  Fe  Fe56  1  0.12370554  0.12628821  0.37587827  1
  Fe  Fe57  1  0.25059041  0.25034995  0.49852157  1
  Fe  Fe58  1  0.37512414  0.87380016  0.12639004  1
  Fe  Fe59  1  0.75333621  0.00113554  0.49962022  1
  Fe  Fe60  1  0.00402587  0.25242127  0.24825006  1
  Fe  Fe61  1  0.49889779  0.49872418  0.50178826  1
  Fe  Fe62  1  0.50156632  0.74779188  0.25193391  1
  Fe  Fe63  1  0.62520881  0.87253398  0.12512946  1
  Fe  Fe64  1  -0.00402272  0.49777145  0.00184851  1
  Fe  Fe65  1  0.00072456  0.49951851  0.74760039  1
  Fe  Fe66  1  0.62316766  0.12638207  0.37879113  1
  Fe  Fe67  1  0.87399791  0.12449991  0.87386981  1
  Fe  Fe68  1  -0.00052401  -0.00304711  0.00075369  1
  Fe  Fe69  1  0.75065670  0.75033217  -0.00320743  1
  Fe  Fe70  1  0.12467122  0.12223978  0.87636574  1
  Fe  Fe71  1  0.24733897  0.24856585  0.75170903  1
  Fe  Fe72  1  0.50093301  0.50159679  0.74795402  1
  Fe  Fe73  1  0.62305314  0.87805059  0.87274437  1
  Fe  Fe74  1  0.37553439  0.12634994  0.62513968  1
  Fe  Fe75  1  0.37765092  0.12768579  0.37360135  1
  Fe  Fe76  1  0.37577822  0.37216499  0.37187514  1
  Fe  Fe77  1  -0.00139614  0.74843417  0.49836122  1
  Fe  Fe78  1  0.37578147  0.87896656  0.87108581  1
  Fe  Fe79  1  0.62294045  0.37449716  0.37649442  1
  Fe  Fe80  1  0.74765422  0.50301073  0.25003130  1
  Fe  Fe81  1  0.74611930  0.00101132  0.74751677  1
  Fe  Fe82  1  0.62714805  0.62133243  0.87534589  1
  Fe  Fe83  1  0.12618727  0.62631815  0.62466041  1
  Fe  Fe84  1  0.12368731  0.12548320  0.62406854  1
  Fe  Fe85  1  0.62557657  0.87518951  0.37741317  1
  Fe  Fe86  1  0.25158313  -0.00181677  0.49937468  1
  Fe  Fe87  1  0.49915338  0.50142824  0.00182540  1
  Fe  Fe88  1  -0.00375167  0.00171701  0.49877653  1
  Fe  Fe89  1  0.75201482  0.25536693  -0.00434748  1
  Co  Co90  1  -0.00171491  0.74786815  0.25238464  1
  Co  Co91  1  0.00307212  0.24948742  0.75311107  1
  Co  Co92  1  0.62635036  0.62616937  0.12148977  1
  Co  Co93  1  0.12424298  0.87269202  0.12626501  1
  Co  Co94  1  0.62660226  0.87116420  0.62332718  1
  Co  Co95  1  0.87674984  0.37161090  0.62710762  1
  Co  Co96  1  0.62630241  0.12090823  0.88024590  1
  Co  Co97  1  0.75432568  0.49847562  -0.00016188  1
  Co  Co98  1  0.87352869  0.87718536  0.87160097  1
  Co  Co99  1  0.24782286  0.49874546  0.74851136  1
  Co  Co100  1  0.12272018  0.12422388  0.12337351  1
  Co  Co101  1  0.62365293  0.62497846  0.37985933  1
  Co  Co102  1  0.12672586  0.37678878  0.12184265  1
  Co  Co103  1  0.24624937  0.24926766  0.24925826  1
  Co  Co104  1  0.37592128  0.87577191  0.37287459  1
  Co  Co105  1  0.50527096  0.00388525  0.74509370  1
  Co  Co106  1  0.87642206  0.12827472  0.37103408  1
  Co  Co107  1  0.49827824  -0.00211986  0.00349735  1
  Co  Co108  1  0.12288714  0.62035052  0.87574111  1
  Co  Co109  1  0.12443243  0.37358151  0.37780198  1
  Co  Co110  1  0.12725497  0.87924386  0.87288400  1
  Co  Co111  1  0.74649636  0.24979954  0.75459265  1
  Co  Co112  1  0.24886472  0.00239583  0.74719800  1
  Co  Co113  1  0.25078468  0.75331059  0.50121783  1
  Co  Co114  1  0.00141294  0.75079538  0.75248031  1
  Co  Co115  1  0.74960825  0.75011429  0.75252547  1
  Co  Co116  1  0.62793855  0.12896107  0.61932759  1
  Co  Co117  1  0.87518885  0.87431784  0.37490348  1
  Co  Co118  1  0.50414823  0.24952947  0.24640448  1
  Co  Co119  1  0.12706483  0.62665312  0.37698704  1
  Co  Co120  1  0.87573106  0.37688330  0.86883549  1
  Co  Co121  1  0.75045978  0.49948405  0.74710587  1
  Co  Co122  1  0.87359889  0.37443268  0.12995325  1
  Co  Co123  1  0.62338868  0.38011089  0.87488954  1
  Co  Co124  1  0.50031802  0.74808535  0.75176619  1
  Co  Co125  1  0.87500633  0.62124214  0.37573371  1
  Co  Co126  1  0.49806538  0.25256176  0.50129788  1
  Co  Co127  1  -0.00248265  0.24822765  0.49950766  1
