# generated using pymatgen
data_Fe45Co19
_symmetry_space_group_name_H-M   'P 1'
_cell_length_a   11.41572137
_cell_length_b   11.41548583
_cell_length_c   11.41708409
_cell_angle_alpha   90.00426151
_cell_angle_beta   89.99736111
_cell_angle_gamma   90.00899534
_symmetry_Int_Tables_number   1
_chemical_formula_structural   Fe45Co19
_chemical_formula_sum   'Fe90 Co38'
_cell_volume   1487.82876915
_cell_formula_units_Z   2
loop_
 _symmetry_equiv_pos_site_id
 _symmetry_equiv_pos_as_xyz
  1  'x, y, z'
loop_
 _atom_site_type_symbol
 _atom_site_label
 _atom_site_symmetry_multiplicity
 _atom_site_fract_x
 _atom_site_fract_y
 _atom_site_fract_z
 _atom_site_occupancy
  Fe  Fe0  1  0.62213459  0.12617613  0.62460145  1
  Fe  Fe1  1  0.24707851  -0.00262150  -0.00097845  1
  Fe  Fe2  1  0.25521994  0.24845170  0.74458012  1
  Fe  Fe3  1  0.37328475  0.12451788  0.12483471  1
  Fe  Fe4  1  0.74946495  0.74648878  0.50157664  1
  Fe  Fe5  1  0.00246915  0.49838749  -0.00065213  1
  Fe  Fe6  1  0.12753837  0.37318755  0.62255329  1
  Fe  Fe7  1  0.37501149  0.12572500  0.87446289  1
  Fe  Fe8  1  0.50069081  -0.00309310  0.00052758  1
  Fe  Fe9  1  0.50119554  0.74942826  0.49857482  1
  Fe  Fe10  1  0.24974195  0.74894730  0.50115549  1
  Fe  Fe11  1  0.12829053  0.37704667  0.12741889  1
  Fe  Fe12  1  0.37607618  0.62381212  0.87802626  1
  Fe  Fe13  1  0.49984957  0.49872704  0.24767919  1
  Fe  Fe14  1  0.75106702  0.24983033  0.49966175  1
  Fe  Fe15  1  0.62382422  0.12647281  0.87580875  1
  Fe  Fe16  1  0.74904954  0.25012506  0.75091370  1
  Fe  Fe17  1  0.50276245  0.75273743  0.00054227  1
  Fe  Fe18  1  0.49793687  0.75074083  0.24787313  1
  Fe  Fe19  1  0.74797610  0.74817684  -0.00059378  1
  Fe  Fe20  1  0.74977159  0.00194333  0.75102925  1
  Fe  Fe21  1  0.24931936  0.00155511  0.50170225  1
  Fe  Fe22  1  0.49759545  0.25326426  0.24832262  1
  Fe  Fe23  1  0.37000976  0.37855716  0.37884472  1
  Fe  Fe24  1  0.00484204  0.50186905  0.25190439  1
  Fe  Fe25  1  0.00216344  0.24917287  0.00021403  1
  Fe  Fe26  1  -0.00233420  0.74883816  0.74944954  1
  Fe  Fe27  1  0.74906393  0.50186136  0.74924775  1
  Fe  Fe28  1  0.74817150  0.50037845  0.24812408  1
  Fe  Fe29  1  0.75133328  0.00251950  0.25169744  1
  Fe  Fe30  1  0.12420673  0.62512562  0.87529759  1
  Fe  Fe31  1  0.00144528  0.74997833  0.00043755  1
  Fe  Fe32  1  0.25026036  0.25026294  0.25240230  1
  Fe  Fe33  1  0.12321805  0.87475528  0.62600116  1
  Fe  Fe34  1  0.62546461  0.87335125  0.62624618  1
  Fe  Fe35  1  0.12211055  0.62649890  0.62505727  1
  Fe  Fe36  1  0.00016134  0.24893236  0.49951426  1
  Fe  Fe37  1  0.12739975  0.37288875  0.87262037  1
  Fe  Fe38  1  -0.00056958  0.24903284  0.75075444  1
  Fe  Fe39  1  0.87534394  0.87644911  0.87557904  1
  Fe  Fe40  1  0.87570213  0.62460480  0.37650471  1
  Fe  Fe41  1  0.62406165  0.12785393  0.37431380  1
  Fe  Fe42  1  0.12349861  0.87394967  0.37511696  1
  Fe  Fe43  1  0.62283340  0.37537018  0.62432840  1
  Fe  Fe44  1  0.62544349  0.87265837  0.37231187  1
  Fe  Fe45  1  0.25177241  0.25288083  0.00071183  1
  Fe  Fe46  1  0.37761584  0.62142379  0.62217980  1
  Fe  Fe47  1  0.87626006  0.62147977  0.87390283  1
  Fe  Fe48  1  0.87619582  0.87651640  0.12415040  1
  Fe  Fe49  1  0.37588294  0.87543177  0.62443220  1
  Fe  Fe50  1  0.24933793  0.50127222  0.74942654  1
  Fe  Fe51  1  0.24973093  0.74926144  0.24865663  1
  Fe  Fe52  1  0.74957046  0.74604829  0.75069873  1
  Fe  Fe53  1  0.37509613  0.12327226  0.37549311  1
  Fe  Fe54  1  0.62613550  0.37373441  0.37360419  1
  Fe  Fe55  1  0.24761502  0.75224083  -0.00045194  1
  Fe  Fe56  1  0.00117442  0.74916482  0.24889133  1
  Fe  Fe57  1  0.37471840  0.62332920  0.37671148  1
  Fe  Fe58  1  0.87519929  0.37557986  0.12657926  1
  Fe  Fe59  1  0.00078886  0.24878744  0.24981751  1
  Fe  Fe60  1  0.87673438  0.62349942  0.12459838  1
  Fe  Fe61  1  0.49659512  0.25484052  0.00135299  1
  Fe  Fe62  1  0.87613886  0.37785249  0.62513543  1
  Fe  Fe63  1  0.87565347  0.87528268  0.62447792  1
  Fe  Fe64  1  0.00133481  0.00315817  0.75256555  1
  Fe  Fe65  1  0.00476709  0.00288928  -0.00077832  1
  Fe  Fe66  1  0.75113064  0.25136152  0.00134190  1
  Fe  Fe67  1  0.87579352  0.12533273  0.62460644  1
  Fe  Fe68  1  0.25174542  0.74964054  0.75041674  1
  Fe  Fe69  1  0.62372034  0.12689524  0.12637300  1
  Fe  Fe70  1  0.87476775  0.37497988  0.37412158  1
  Fe  Fe71  1  0.49990344  -0.00132129  0.75208080  1
  Fe  Fe72  1  0.00345215  0.50149016  0.49871375  1
  Fe  Fe73  1  0.75046754  0.00128922  0.49839234  1
  Fe  Fe74  1  0.87536048  0.37588312  0.87389163  1
  Fe  Fe75  1  0.50033402  -0.00227954  0.49812415  1
  Fe  Fe76  1  0.75025008  0.74802817  0.24780175  1
  Fe  Fe77  1  0.49578302  0.25140554  0.50151477  1
  Fe  Fe78  1  0.49910020  0.49804896  0.75132284  1
  Fe  Fe79  1  0.62510304  0.37764709  0.87888915  1
  Fe  Fe80  1  0.87560819  0.12528650  0.12502887  1
  Fe  Fe81  1  0.25004047  -0.00270472  0.24889502  1
  Fe  Fe82  1  0.74837445  -0.00025473  -0.00005124  1
  Fe  Fe83  1  0.87750766  0.87511219  0.37594522  1
  Fe  Fe84  1  0.50016683  0.75044385  0.75253634  1
  Fe  Fe85  1  0.49828366  -0.00281126  0.24939679  1
  Fe  Fe86  1  0.37178883  0.62223012  0.12285331  1
  Fe  Fe87  1  0.24992803  -0.00014608  0.75047391  1
  Fe  Fe88  1  0.74644522  0.50292760  0.50024470  1
  Fe  Fe89  1  0.12343884  0.12427942  0.37505052  1
  Co  Co90  1  0.12340457  0.12583936  0.62579863  1
  Co  Co91  1  0.12361556  0.87304845  0.87251468  1
  Co  Co92  1  0.36864102  0.37788938  0.12902620  1
  Co  Co93  1  0.87471000  0.12615745  0.87617627  1
  Co  Co94  1  0.62733922  0.37531806  0.12356888  1
  Co  Co95  1  0.62298699  0.62317041  0.12264861  1
  Co  Co96  1  0.12679102  0.37208328  0.37685982  1
  Co  Co97  1  0.37294819  0.87375144  0.37622543  1
  Co  Co98  1  0.87687487  0.62143253  0.62426921  1
  Co  Co99  1  0.00013616  0.00031260  0.50045695  1
  Co  Co100  1  0.24938513  0.49770242  -0.00324762  1
  Co  Co101  1  0.37418586  0.87475951  0.87569916  1
  Co  Co102  1  0.50007051  0.25261313  0.75022209  1
  Co  Co103  1  0.12458395  0.62988509  0.37528485  1
  Co  Co104  1  0.62401051  0.62625975  0.37133350  1
  Co  Co105  1  0.75084597  0.24912212  0.24918259  1
  Co  Co106  1  0.87690208  0.12705612  0.37533628  1
  Co  Co107  1  0.24500390  0.50361890  0.50026259  1
  Co  Co108  1  0.12862219  0.12636287  0.12585031  1
  Co  Co109  1  0.12683148  0.62384163  0.12254293  1
  Co  Co110  1  0.62701565  0.87488314  0.87370729  1
  Co  Co111  1  0.37922930  0.12217189  0.62575025  1
  Co  Co112  1  -0.00043531  0.00140036  0.24860319  1
  Co  Co113  1  0.62129687  0.62508908  0.62635231  1
  Co  Co114  1  -0.00083678  0.74946888  0.50112398  1
  Co  Co115  1  0.25298723  0.24521709  0.50120364  1
  Co  Co116  1  0.75355518  0.50114970  0.00173849  1
  Co  Co117  1  0.62660699  0.87510507  0.12762031  1
  Co  Co118  1  0.37346897  0.87455759  0.12292826  1
  Co  Co119  1  0.24661949  0.50281666  0.25370751  1
  Co  Co120  1  0.12912614  0.12907291  0.87433093  1
  Co  Co121  1  0.37269642  0.37500079  0.87151779  1
  Co  Co122  1  0.50366546  0.49933128  0.49707928  1
  Co  Co123  1  0.37371488  0.37963269  0.62148139  1
  Co  Co124  1  0.12400873  0.87430689  0.12632244  1
  Co  Co125  1  0.00374430  0.49890518  0.74992700  1
  Co  Co126  1  0.62268328  0.62133408  0.87783213  1
  Co  Co127  1  0.49497353  0.49468584  0.00305382  1
