# generated using pymatgen
data_Fe45Co19
_symmetry_space_group_name_H-M   'P 1'
_cell_length_a   11.41608086
_cell_length_b   11.41466629
_cell_length_c   11.41450003
_cell_angle_alpha   89.98885426
_cell_angle_beta   90.01149650
_cell_angle_gamma   89.98994875
_symmetry_Int_Tables_number   1
_chemical_formula_structural   Fe45Co19
_chemical_formula_sum   'Fe90 Co38'
_cell_volume   1487.43201727
_cell_formula_units_Z   2
loop_
 _symmetry_equiv_pos_site_id
 _symmetry_equiv_pos_as_xyz
  1  'x, y, z'
loop_
 _atom_site_type_symbol
 _atom_site_label
 _atom_site_symmetry_multiplicity
 _atom_site_fract_x
 _atom_site_fract_y
 _atom_site_fract_z
 _atom_site_occupancy
  Fe  Fe0  1  0.62349635  0.12274247  0.87694723  1
  Fe  Fe1  1  0.25064622  0.50275837  0.74680873  1
  Fe  Fe2  1  0.50114983  0.25077234  0.75165522  1
  Fe  Fe3  1  0.37569510  0.87435691  0.87776417  1
  Fe  Fe4  1  0.87286993  0.37377809  0.12673231  1
  Fe  Fe5  1  0.62219963  0.62620061  0.62277108  1
  Fe  Fe6  1  0.87347445  0.87505559  0.37420937  1
  Fe  Fe7  1  0.62737572  0.87807186  0.37216242  1
  Fe  Fe8  1  0.00147678  -0.00146439  0.74918476  1
  Fe  Fe9  1  0.12232620  0.62382296  0.37351310  1
  Fe  Fe10  1  0.12585356  0.87347194  0.12384553  1
  Fe  Fe11  1  0.37345957  0.37473868  0.87442127  1
  Fe  Fe12  1  0.37351391  0.37222733  0.62322535  1
  Fe  Fe13  1  -0.00308034  0.49828564  0.49868229  1
  Fe  Fe14  1  0.00087376  0.74940460  -0.00002411  1
  Fe  Fe15  1  0.00164219  0.25075546  -0.00250790  1
  Fe  Fe16  1  0.25149073  0.50077833  0.24827978  1
  Fe  Fe17  1  0.87339816  0.37221274  0.62318683  1
  Fe  Fe18  1  0.74603073  0.75014908  0.49918368  1
  Fe  Fe19  1  0.75235362  0.50314452  0.49721580  1
  Fe  Fe20  1  0.25184550  0.74562169  0.00288599  1
  Fe  Fe21  1  0.37753692  0.62592832  0.87420967  1
  Fe  Fe22  1  0.49767167  -0.00140778  0.00637306  1
  Fe  Fe23  1  0.87477184  0.12445545  0.37549355  1
  Fe  Fe24  1  0.87654758  0.62931801  0.62605798  1
  Fe  Fe25  1  0.87313363  0.87256802  0.62594699  1
  Fe  Fe26  1  0.75129140  0.74547468  0.25130454  1
  Fe  Fe27  1  0.75060236  0.50000861  0.00281170  1
  Fe  Fe28  1  0.50084078  0.24866152  0.49564439  1
  Fe  Fe29  1  0.00305123  0.24997714  0.75260584  1
  Fe  Fe30  1  0.74813727  0.25005887  0.25023297  1
  Fe  Fe31  1  0.12782671  0.87747246  0.62160151  1
  Fe  Fe32  1  0.12667066  0.37487499  0.62365062  1
  Fe  Fe33  1  0.74990927  0.50109351  0.74880926  1
  Fe  Fe34  1  0.00403210  0.24955248  0.49622974  1
  Fe  Fe35  1  0.37756523  0.62693591  0.37437482  1
  Fe  Fe36  1  0.74865013  0.24842376  0.75014604  1
  Fe  Fe37  1  0.62442638  0.12309525  0.62217960  1
  Fe  Fe38  1  0.12416621  0.62382510  0.87474877  1
  Fe  Fe39  1  0.49975869  0.49774570  0.74834886  1
  Fe  Fe40  1  0.37513441  0.12751106  0.62542679  1
  Fe  Fe41  1  0.37191796  0.12362131  0.36655431  1
  Fe  Fe42  1  0.37114141  0.87513212  0.37479669  1
  Fe  Fe43  1  0.24794251  0.74929188  0.24913585  1
  Fe  Fe44  1  0.00287437  0.75257390  0.49953230  1
  Fe  Fe45  1  0.00536504  0.25184608  0.25440457  1
  Fe  Fe46  1  0.74671897  0.75075416  -0.00133032  1
  Fe  Fe47  1  0.25200710  0.50210411  0.00226200  1
  Fe  Fe48  1  0.50355161  0.75290809  0.75095722  1
  Fe  Fe49  1  0.62988229  0.37825099  0.37509776  1
  Fe  Fe50  1  0.87457578  0.62826358  0.87273192  1
  Fe  Fe51  1  -0.00152347  0.50107949  0.00020081  1
  Fe  Fe52  1  0.74829778  -0.00181044  0.74853607  1
  Fe  Fe53  1  0.24807470  0.74744921  0.74746305  1
  Fe  Fe54  1  0.87279190  0.37347633  0.87578379  1
  Fe  Fe55  1  0.62046808  0.12776361  0.12714595  1
  Fe  Fe56  1  0.62598817  0.37414221  0.62200348  1
  Fe  Fe57  1  0.87533982  0.12621706  0.62299206  1
  Fe  Fe58  1  0.37211423  0.37452475  0.37535214  1
  Fe  Fe59  1  0.50071990  0.49643752  0.25013359  1
  Fe  Fe60  1  0.87329338  0.87164286  0.12634311  1
  Fe  Fe61  1  -0.00592858  0.50247527  0.25040844  1
  Fe  Fe62  1  0.62398223  0.62519216  0.87578051  1
  Fe  Fe63  1  0.25173900  0.50595082  0.50268753  1
  Fe  Fe64  1  0.25089369  0.00152570  0.74905260  1
  Fe  Fe65  1  0.49886346  -0.00194690  0.74826148  1
  Fe  Fe66  1  0.25412234  0.00382008  0.00458887  1
  Fe  Fe67  1  0.12439967  0.37755449  0.12505689  1
  Fe  Fe68  1  0.87761731  0.12753872  0.12682143  1
  Fe  Fe69  1  0.62672556  0.12046953  0.37375312  1
  Fe  Fe70  1  0.49760906  -0.00104997  0.49757693  1
  Fe  Fe71  1  0.12766824  0.87666012  0.87712253  1
  Fe  Fe72  1  -0.00131539  -0.00139434  0.00140946  1
  Fe  Fe73  1  0.37712033  0.36994706  0.12714027  1
  Fe  Fe74  1  0.87290722  0.87420141  0.87390371  1
  Fe  Fe75  1  0.25135192  0.24717328  -0.00042521  1
  Fe  Fe76  1  -0.00046544  -0.00301584  0.24986941  1
  Fe  Fe77  1  0.49933125  0.75321841  0.24863913  1
  Fe  Fe78  1  0.12479448  0.12469378  0.12687040  1
  Fe  Fe79  1  0.74980845  0.00120317  0.00457966  1
  Fe  Fe80  1  0.24617292  0.24669644  0.49496972  1
  Fe  Fe81  1  0.62384369  0.62396005  0.12732509  1
  Fe  Fe82  1  0.12798484  0.87961561  0.37729769  1
  Fe  Fe83  1  0.62676521  0.37321651  0.87801607  1
  Fe  Fe84  1  0.49849497  0.50001933  0.49962180  1
  Fe  Fe85  1  0.49922193  0.49887206  0.00157246  1
  Fe  Fe86  1  0.87506829  0.12373223  0.87570098  1
  Fe  Fe87  1  0.24751389  0.24721329  0.75353006  1
  Fe  Fe88  1  -0.00010690  0.49855063  0.75078053  1
  Fe  Fe89  1  0.37475664  0.87077236  0.62094532  1
  Co  Co90  1  0.87489923  0.62860979  0.12307807  1
  Co  Co91  1  0.12586994  0.38249092  0.37562509  1
  Co  Co92  1  0.87806528  0.62932335  0.37782376  1
  Co  Co93  1  0.37715310  0.12187619  0.87424748  1
  Co  Co94  1  0.50098518  0.75048470  0.00244530  1
  Co  Co95  1  0.75344711  0.50312196  0.25090821  1
  Co  Co96  1  0.12296241  0.62389396  0.12712472  1
  Co  Co97  1  0.75049162  0.24776301  0.00168269  1
  Co  Co98  1  0.50224404  0.75361574  0.49550623  1
  Co  Co99  1  0.00390218  0.75326448  0.75064807  1
  Co  Co100  1  0.62143517  0.62419275  0.37310977  1
  Co  Co101  1  0.74822880  0.24847062  0.49853066  1
  Co  Co102  1  0.37333363  0.87206790  0.12438748  1
  Co  Co103  1  0.24967552  -0.00295385  0.24462982  1
  Co  Co104  1  0.37856605  0.62551688  0.12795340  1
  Co  Co105  1  0.62323886  0.87922601  0.87839641  1
  Co  Co106  1  0.49724022  0.24934207  -0.00251542  1
  Co  Co107  1  0.50362968  0.25348814  0.25652994  1
  Co  Co108  1  0.75167126  -0.00146807  0.50089636  1
  Co  Co109  1  0.38144764  0.62924655  0.62468962  1
  Co  Co110  1  0.00204967  0.75260196  0.25049539  1
  Co  Co111  1  0.62554677  0.37424455  0.12495309  1
  Co  Co112  1  0.24794185  0.74467921  0.49944687  1
  Co  Co113  1  0.74452593  0.75117390  0.75016542  1
  Co  Co114  1  0.25474725  0.00417707  0.50185651  1
  Co  Co115  1  0.12609356  0.11717087  0.37302356  1
  Co  Co116  1  0.11938124  0.62363282  0.62418637  1
  Co  Co117  1  0.62338124  0.87703981  0.62218523  1
  Co  Co118  1  0.24435972  0.25258562  0.25179672  1
  Co  Co119  1  0.49835862  -0.00400142  0.24825159  1
  Co  Co120  1  -0.00326059  -0.00047516  0.50018106  1
  Co  Co121  1  0.87245843  0.37190905  0.37379679  1
  Co  Co122  1  0.12403494  0.12422049  0.62432754  1
  Co  Co123  1  0.37705145  0.13066217  0.13291167  1
  Co  Co124  1  0.75260581  0.00247359  0.24643291  1
  Co  Co125  1  0.12413117  0.12071794  0.87686044  1
  Co  Co126  1  0.62822838  0.87310157  0.12783300  1
  Co  Co127  1  0.12757980  0.37752070  0.87630528  1
