# generated using pymatgen
data_Fe45Co19
_symmetry_space_group_name_H-M   'P 1'
_cell_length_a   11.41522335
_cell_length_b   11.41488349
_cell_length_c   11.41574430
_cell_angle_alpha   89.99405850
_cell_angle_beta   90.00259165
_cell_angle_gamma   89.99900210
_symmetry_Int_Tables_number   1
_chemical_formula_structural   Fe45Co19
_chemical_formula_sum   'Fe90 Co38'
_cell_volume   1487.51079556
_cell_formula_units_Z   2
loop_
 _symmetry_equiv_pos_site_id
 _symmetry_equiv_pos_as_xyz
  1  'x, y, z'
loop_
 _atom_site_type_symbol
 _atom_site_label
 _atom_site_symmetry_multiplicity
 _atom_site_fract_x
 _atom_site_fract_y
 _atom_site_fract_z
 _atom_site_occupancy
  Fe  Fe0  1  0.74808647  0.25146875  -0.00117810  1
  Fe  Fe1  1  0.49880840  0.24814896  -0.00272782  1
  Fe  Fe2  1  0.87544761  0.37484734  0.87535344  1
  Fe  Fe3  1  0.62574321  0.12520887  0.37496815  1
  Fe  Fe4  1  0.12297581  0.12372981  0.37225135  1
  Fe  Fe5  1  0.12612186  0.37551861  0.87559961  1
  Fe  Fe6  1  0.75209575  0.00000323  0.75079621  1
  Fe  Fe7  1  0.37786897  0.87334436  0.87689867  1
  Fe  Fe8  1  0.62641225  0.87513702  0.62337971  1
  Fe  Fe9  1  0.12226754  0.87674475  0.37592252  1
  Fe  Fe10  1  0.49967373  0.50134938  0.50358939  1
  Fe  Fe11  1  0.74863155  -0.00204616  0.24947177  1
  Fe  Fe12  1  0.50267365  0.74959949  0.74929782  1
  Fe  Fe13  1  0.12159595  0.87515928  0.87725232  1
  Fe  Fe14  1  0.25116441  0.75023651  0.24986682  1
  Fe  Fe15  1  0.37505394  0.12563783  0.37585509  1
  Fe  Fe16  1  0.87392368  0.37354894  0.37394218  1
  Fe  Fe17  1  -0.00136548  0.74894567  0.25108117  1
  Fe  Fe18  1  0.25106597  0.24971644  -0.00134780  1
  Fe  Fe19  1  0.37557439  0.37277575  0.62776026  1
  Fe  Fe20  1  0.74891134  0.49860671  0.00038478  1
  Fe  Fe21  1  -0.00031005  0.50026969  0.00121614  1
  Fe  Fe22  1  0.87579569  0.87312815  0.62560150  1
  Fe  Fe23  1  0.12730701  0.62056640  0.37620478  1
  Fe  Fe24  1  -0.00457142  0.74676141  0.75335609  1
  Fe  Fe25  1  0.62684611  0.62320985  0.87125153  1
  Fe  Fe26  1  0.12574688  0.62666476  0.12431715  1
  Fe  Fe27  1  0.74610471  0.49577058  0.25017563  1
  Fe  Fe28  1  0.00183492  0.25112346  0.49986849  1
  Fe  Fe29  1  0.62244949  0.87306690  0.12242122  1
  Fe  Fe30  1  0.12395601  0.87311822  0.12295904  1
  Fe  Fe31  1  0.24978380  0.74878224  0.50089218  1
  Fe  Fe32  1  0.37340341  0.37587116  0.37500638  1
  Fe  Fe33  1  0.62703475  0.37087258  0.62474113  1
  Fe  Fe34  1  0.87723116  0.87761887  0.37490318  1
  Fe  Fe35  1  0.50118382  0.00261671  0.50247208  1
  Fe  Fe36  1  0.62405044  0.87673097  0.87494414  1
  Fe  Fe37  1  0.62572659  0.12470857  0.87296934  1
  Fe  Fe38  1  0.75153303  0.49898861  0.50090720  1
  Fe  Fe39  1  0.12431026  0.62309606  0.62457377  1
  Fe  Fe40  1  0.75189232  0.00168696  0.49985159  1
  Fe  Fe41  1  0.50249155  0.25286116  0.25084890  1
  Fe  Fe42  1  0.25375771  0.50280143  -0.00029461  1
  Fe  Fe43  1  0.37512010  0.62418426  0.37462276  1
  Fe  Fe44  1  0.12524871  0.12535418  0.12700447  1
  Fe  Fe45  1  0.75207657  0.74971108  0.49766451  1
  Fe  Fe46  1  0.24792629  -0.00096384  0.50031985  1
  Fe  Fe47  1  0.00171806  0.49768974  0.24988556  1
  Fe  Fe48  1  0.75118163  0.74954731  -0.00384971  1
  Fe  Fe49  1  0.37631615  0.12487704  0.12685782  1
  Fe  Fe50  1  0.00161215  0.25003211  0.75167013  1
  Fe  Fe51  1  0.75041150  0.00069096  -0.00078129  1
  Fe  Fe52  1  0.62797294  0.62679787  0.62539324  1
  Fe  Fe53  1  0.24846730  0.75298422  0.75097834  1
  Fe  Fe54  1  0.87623332  0.12620355  0.37118187  1
  Fe  Fe55  1  0.00085826  0.24942362  -0.00027642  1
  Fe  Fe56  1  0.25115430  -0.00123934  0.24972036  1
  Fe  Fe57  1  0.62051944  0.37574674  0.87368578  1
  Fe  Fe58  1  -0.00153261  0.00284214  0.75105312  1
  Fe  Fe59  1  0.25107274  0.49743175  0.75010166  1
  Fe  Fe60  1  0.49856005  0.00405202  0.74659135  1
  Fe  Fe61  1  0.37544834  0.37504454  0.12472260  1
  Fe  Fe62  1  0.12918427  0.12410512  0.62875852  1
  Fe  Fe63  1  0.37726420  0.87435015  0.37792279  1
  Fe  Fe64  1  -0.00168851  0.74709610  0.49814213  1
  Fe  Fe65  1  0.12526988  0.62499659  0.87615214  1
  Fe  Fe66  1  0.87562172  0.87321075  0.12349114  1
  Fe  Fe67  1  0.12842713  0.37403618  0.12679107  1
  Fe  Fe68  1  0.49705182  0.50471975  -0.00165800  1
  Fe  Fe69  1  -0.00236338  0.49831922  0.50058119  1
  Fe  Fe70  1  0.62430210  0.12626551  0.12534498  1
  Fe  Fe71  1  0.87373381  0.12828017  0.12683688  1
  Fe  Fe72  1  -0.00304086  0.50054651  0.74899569  1
  Fe  Fe73  1  0.25048107  -0.00047396  -0.00066053  1
  Fe  Fe74  1  0.37446627  0.62634789  0.62792201  1
  Fe  Fe75  1  0.50154629  0.24759321  0.50319457  1
  Fe  Fe76  1  0.37890678  0.87209640  0.12108644  1
  Fe  Fe77  1  0.50066915  0.49900739  0.24914894  1
  Fe  Fe78  1  -0.00134729  0.00292630  0.00003129  1
  Fe  Fe79  1  0.87316913  0.62466131  0.12645398  1
  Fe  Fe80  1  0.87202708  0.12984808  0.62669282  1
  Fe  Fe81  1  0.62459048  0.62651202  0.37449718  1
  Fe  Fe82  1  0.12147463  0.87512523  0.62487724  1
  Fe  Fe83  1  0.24737058  0.25275809  0.50034678  1
  Fe  Fe84  1  0.87308636  0.37358877  0.12613001  1
  Fe  Fe85  1  0.50138553  -0.00290164  0.25092740  1
  Fe  Fe86  1  0.75237924  0.49774878  0.74744410  1
  Fe  Fe87  1  0.37118788  0.12545915  0.87097512  1
  Fe  Fe88  1  0.62514012  0.62710781  0.12723204  1
  Fe  Fe89  1  0.37584967  0.87551479  0.62304557  1
  Co  Co90  1  0.37670181  0.62798961  0.12695851  1
  Co  Co91  1  0.24905431  0.25442613  0.75075214  1
  Co  Co92  1  0.12804005  0.37819055  0.37483793  1
  Co  Co93  1  0.87294812  0.62075708  0.87630571  1
  Co  Co94  1  0.49960446  0.00374387  -0.00160394  1
  Co  Co95  1  0.87409753  0.37128158  0.62521506  1
  Co  Co96  1  -0.00338856  0.74671025  -0.00125086  1
  Co  Co97  1  0.25112045  0.74861300  -0.00146509  1
  Co  Co98  1  0.49999580  0.74749853  0.50143654  1
  Co  Co99  1  0.63040240  0.12618785  0.62553330  1
  Co  Co100  1  0.12746238  0.12418655  0.87392801  1
  Co  Co101  1  0.74548557  0.25312454  0.24981084  1
  Co  Co102  1  0.87426962  0.12632696  0.87654098  1
  Co  Co103  1  0.74865586  0.25226249  0.75447453  1
  Co  Co104  1  0.00192293  0.25333001  0.24977846  1
  Co  Co105  1  0.87696991  0.87731570  0.87578890  1
  Co  Co106  1  0.37407869  0.62624522  0.86978151  1
  Co  Co107  1  0.87406391  0.62638853  0.62464183  1
  Co  Co108  1  -0.00098283  0.00382949  0.50350183  1
  Co  Co109  1  0.25115671  0.50106196  0.24705912  1
  Co  Co110  1  0.75067252  0.24933148  0.49623172  1
  Co  Co111  1  0.50243300  0.74429384  -0.00373443  1
  Co  Co112  1  0.87328959  0.62160222  0.37249281  1
  Co  Co113  1  0.62325132  0.37592153  0.37967063  1
  Co  Co114  1  0.50103463  0.50031875  0.74683268  1
  Co  Co115  1  0.62480699  0.87450470  0.37881911  1
  Co  Co116  1  0.36839312  0.12488818  0.62512306  1
  Co  Co117  1  0.50028333  0.24602983  0.74779301  1
  Co  Co118  1  0.75066167  0.75319417  0.25147508  1
  Co  Co119  1  0.37775662  0.37527478  0.87413880  1
  Co  Co120  1  0.25299333  0.49898837  0.50433645  1
  Co  Co121  1  0.50030386  0.75254906  0.25162014  1
  Co  Co122  1  -0.00041437  -0.00107939  0.24675641  1
  Co  Co123  1  0.25045548  -0.00561225  0.75133936  1
  Co  Co124  1  0.75139696  0.75100281  0.75259169  1
  Co  Co125  1  0.62098104  0.37509106  0.12024812  1
  Co  Co126  1  0.12322721  0.37789316  0.62643005  1
  Co  Co127  1  0.25001499  0.24908595  0.25095617  1
