# generated using pymatgen
data_Fe45Co19
_symmetry_space_group_name_H-M   'P 1'
_cell_length_a   11.41444701
_cell_length_b   11.41237872
_cell_length_c   11.41431576
_cell_angle_alpha   89.98190335
_cell_angle_beta   89.99702635
_cell_angle_gamma   90.00781368
_symmetry_Int_Tables_number   1
_chemical_formula_structural   Fe45Co19
_chemical_formula_sum   'Fe90 Co38'
_cell_volume   1486.89707632
_cell_formula_units_Z   2
loop_
 _symmetry_equiv_pos_site_id
 _symmetry_equiv_pos_as_xyz
  1  'x, y, z'
loop_
 _atom_site_type_symbol
 _atom_site_label
 _atom_site_symmetry_multiplicity
 _atom_site_fract_x
 _atom_site_fract_y
 _atom_site_fract_z
 _atom_site_occupancy
  Fe  Fe0  1  0.00164162  0.75269782  0.49934890  1
  Fe  Fe1  1  0.49860325  0.49832689  -0.00197968  1
  Fe  Fe2  1  0.87414770  0.62564673  0.87531467  1
  Fe  Fe3  1  0.00053808  0.75234178  0.24695963  1
  Fe  Fe4  1  -0.00073858  0.24677379  0.49719667  1
  Fe  Fe5  1  0.50042844  0.00180689  0.74788797  1
  Fe  Fe6  1  0.74841401  0.00455327  0.74762848  1
  Fe  Fe7  1  0.49820078  0.00213969  0.24925234  1
  Fe  Fe8  1  0.37281478  0.12585238  0.87444105  1
  Fe  Fe9  1  0.62427600  0.12376233  0.12196952  1
  Fe  Fe10  1  0.87805097  0.37320443  0.62456786  1
  Fe  Fe11  1  0.75165274  0.49971514  0.49944789  1
  Fe  Fe12  1  0.75011254  0.24889801  0.25226916  1
  Fe  Fe13  1  0.74981755  0.49990178  0.25250487  1
  Fe  Fe14  1  0.50131263  0.50039240  0.25361139  1
  Fe  Fe15  1  0.74802557  -0.00082161  0.24974828  1
  Fe  Fe16  1  0.62657885  0.62580386  0.87435726  1
  Fe  Fe17  1  0.75056318  0.24965723  -0.00147834  1
  Fe  Fe18  1  0.75168087  0.75299566  0.49969140  1
  Fe  Fe19  1  0.25047697  -0.00130195  0.00123687  1
  Fe  Fe20  1  0.75062009  0.49846836  0.74953047  1
  Fe  Fe21  1  0.87463431  0.12228063  0.12629056  1
  Fe  Fe22  1  0.37477314  0.87684302  0.37355494  1
  Fe  Fe23  1  0.12578726  0.62618338  0.87751508  1
  Fe  Fe24  1  0.24708566  0.50019706  0.49965176  1
  Fe  Fe25  1  0.24787749  0.49980488  0.74843831  1
  Fe  Fe26  1  0.49936081  0.50104109  0.50031134  1
  Fe  Fe27  1  0.62631287  0.62399614  0.12493412  1
  Fe  Fe28  1  0.87752156  0.62471166  0.37569697  1
  Fe  Fe29  1  0.62436093  0.37570501  0.12508820  1
  Fe  Fe30  1  0.49727679  0.25102039  -0.00019412  1
  Fe  Fe31  1  0.87434302  0.37541140  0.12502327  1
  Fe  Fe32  1  0.62265443  0.87709173  0.37730590  1
  Fe  Fe33  1  0.24867426  0.75030001  0.25017910  1
  Fe  Fe34  1  0.00084032  0.00057896  -0.00000527  1
  Fe  Fe35  1  0.87424199  0.87636811  0.87541463  1
  Fe  Fe36  1  0.62664652  0.37098217  0.62385345  1
  Fe  Fe37  1  0.62411209  0.87741433  0.62229882  1
  Fe  Fe38  1  0.00110368  0.24827561  0.75259352  1
  Fe  Fe39  1  0.50113408  0.74869056  0.25013890  1
  Fe  Fe40  1  0.37432859  0.87489142  0.12589685  1
  Fe  Fe41  1  0.12597673  0.87759059  0.37395293  1
  Fe  Fe42  1  -0.00070335  0.49948946  0.00171865  1
  Fe  Fe43  1  0.12608514  0.62858073  0.62230345  1
  Fe  Fe44  1  0.49997275  0.24750378  0.74843059  1
  Fe  Fe45  1  0.37363044  0.62262215  0.12631598  1
  Fe  Fe46  1  0.25238562  0.25372616  0.00291519  1
  Fe  Fe47  1  0.25210273  0.49663175  0.00127591  1
  Fe  Fe48  1  0.49933356  0.24721029  0.25057243  1
  Fe  Fe49  1  0.62542208  0.37276004  0.37755585  1
  Fe  Fe50  1  0.12805805  0.12392929  0.37211661  1
  Fe  Fe51  1  0.88023326  0.88132301  0.62579651  1
  Fe  Fe52  1  0.49821554  0.74927493  0.50041745  1
  Fe  Fe53  1  0.37236458  0.62469675  0.37599647  1
  Fe  Fe54  1  0.49945593  -0.00098672  -0.00058663  1
  Fe  Fe55  1  0.12592910  0.87186544  0.87879300  1
  Fe  Fe56  1  0.75549607  0.24511140  0.50000140  1
  Fe  Fe57  1  -0.00157376  0.24914576  0.25019631  1
  Fe  Fe58  1  0.49964252  0.75084838  -0.00026949  1
  Fe  Fe59  1  -0.00178371  0.75034845  0.00396219  1
  Fe  Fe60  1  0.62550591  0.37305646  0.87325639  1
  Fe  Fe61  1  0.37231006  0.87104434  0.62731236  1
  Fe  Fe62  1  0.12441972  0.37456527  0.37473659  1
  Fe  Fe63  1  0.87678198  0.62590916  0.62424727  1
  Fe  Fe64  1  0.87709248  0.87950759  0.37359367  1
  Fe  Fe65  1  0.12690945  0.62432461  0.12540733  1
  Fe  Fe66  1  0.37156754  0.37382043  0.62434810  1
  Fe  Fe67  1  0.37383723  0.87231281  0.87257917  1
  Fe  Fe68  1  0.49940770  0.50015330  0.74789736  1
  Fe  Fe69  1  0.37390828  0.62716085  0.87116110  1
  Fe  Fe70  1  0.75071235  0.75149668  0.24873349  1
  Fe  Fe71  1  0.75087187  0.75174465  0.00356195  1
  Fe  Fe72  1  0.00202375  0.50088103  0.74838202  1
  Fe  Fe73  1  0.62521946  0.62607436  0.62388531  1
  Fe  Fe74  1  0.24568172  -0.00176547  0.75163683  1
  Fe  Fe75  1  0.00267899  0.75228663  0.74975444  1
  Fe  Fe76  1  0.00050035  0.49957961  0.25018542  1
  Fe  Fe77  1  0.49510900  0.24575764  0.50078490  1
  Fe  Fe78  1  0.37342225  0.37298681  0.37526714  1
  Fe  Fe79  1  0.62651546  0.87636513  0.87504454  1
  Fe  Fe80  1  0.87511973  0.12395163  0.87416550  1
  Fe  Fe81  1  0.75018443  0.75181337  0.74778744  1
  Fe  Fe82  1  0.24702244  0.25052605  0.74946518  1
  Fe  Fe83  1  0.25192086  0.00126389  0.50004620  1
  Fe  Fe84  1  0.62382753  0.12162120  0.38000041  1
  Fe  Fe85  1  0.12581680  0.12562705  0.12358510  1
  Fe  Fe86  1  0.12428718  0.37351446  0.87732604  1
  Fe  Fe87  1  0.12324888  0.12274872  0.62583576  1
  Fe  Fe88  1  0.87587895  0.37492936  0.87486143  1
  Fe  Fe89  1  0.25236462  0.25091817  0.24741079  1
  Co  Co90  1  0.24951880  0.75183209  0.49736940  1
  Co  Co91  1  0.74979197  0.49838229  -0.00159043  1
  Co  Co92  1  0.24496487  0.75041683  0.75027827  1
  Co  Co93  1  0.12270416  0.62597889  0.37427858  1
  Co  Co94  1  0.87638094  0.37681268  0.37575279  1
  Co  Co95  1  0.12300371  0.37230008  0.62402946  1
  Co  Co96  1  0.62462745  0.12575490  0.62116627  1
  Co  Co97  1  0.00490562  -0.00078549  0.75634654  1
  Co  Co98  1  0.75324012  0.00108229  0.50139736  1
  Co  Co99  1  0.49332914  0.00099984  0.50320451  1
  Co  Co100  1  0.37831330  0.37689014  0.12907975  1
  Co  Co101  1  0.00242120  0.49996745  0.50123661  1
  Co  Co102  1  0.25252758  0.74944745  0.00156211  1
  Co  Co103  1  0.00145173  0.00356881  0.49575718  1
  Co  Co104  1  0.75144533  0.24715241  0.75001650  1
  Co  Co105  1  0.12618988  0.87534987  0.12370165  1
  Co  Co106  1  0.87474480  0.12057669  0.37119264  1
  Co  Co107  1  0.37377491  0.37339104  0.87086514  1
  Co  Co108  1  0.62377989  0.87575223  0.12554636  1
  Co  Co109  1  0.62292800  0.12565967  0.87593438  1
  Co  Co110  1  0.37291250  0.12486824  0.37360643  1
  Co  Co111  1  0.74975482  0.00117172  -0.00038409  1
  Co  Co112  1  -0.00222986  0.24859928  0.00097571  1
  Co  Co113  1  0.00353437  0.00021308  0.24823443  1
  Co  Co114  1  0.25076172  0.00035400  0.24749174  1
  Co  Co115  1  0.12809863  0.12786005  0.87843405  1
  Co  Co116  1  0.62718868  0.62714717  0.37688586  1
  Co  Co117  1  0.37471073  0.12473839  0.12306952  1
  Co  Co118  1  0.12406883  0.87759561  0.62228982  1
  Co  Co119  1  0.37052660  0.12565871  0.62877658  1
  Co  Co120  1  0.24849316  0.49840484  0.25192713  1
  Co  Co121  1  0.12305940  0.37424417  0.12551270  1
  Co  Co122  1  0.87422796  0.62295289  0.12620065  1
  Co  Co123  1  0.87540540  0.87961171  0.12525946  1
  Co  Co124  1  0.24775360  0.24783369  0.50014942  1
  Co  Co125  1  0.50281399  0.75042188  0.74970217  1
  Co  Co126  1  0.37288405  0.62696355  0.62586179  1
  Co  Co127  1  0.88131385  0.12238096  0.62766460  1
