# generated using pymatgen
data_Fe45Co19
_symmetry_space_group_name_H-M   'P 1'
_cell_length_a   11.41571835
_cell_length_b   11.41703471
_cell_length_c   11.41601134
_cell_angle_alpha   89.99302241
_cell_angle_beta   90.00194952
_cell_angle_gamma   89.99886965
_symmetry_Int_Tables_number   1
_chemical_formula_structural   Fe45Co19
_chemical_formula_sum   'Fe90 Co38'
_cell_volume   1487.89044478
_cell_formula_units_Z   2
loop_
 _symmetry_equiv_pos_site_id
 _symmetry_equiv_pos_as_xyz
  1  'x, y, z'
loop_
 _atom_site_type_symbol
 _atom_site_label
 _atom_site_symmetry_multiplicity
 _atom_site_fract_x
 _atom_site_fract_y
 _atom_site_fract_z
 _atom_site_occupancy
  Fe  Fe0  1  0.49848524  -0.00038037  0.75242568  1
  Fe  Fe1  1  0.37229644  0.12746058  0.87365519  1
  Fe  Fe2  1  0.87728190  0.87481431  0.12394674  1
  Fe  Fe3  1  0.37173360  0.62735838  0.12334323  1
  Fe  Fe4  1  0.12069608  0.87613295  0.87557512  1
  Fe  Fe5  1  0.12636998  0.12061623  0.12762619  1
  Fe  Fe6  1  0.74720425  0.75109162  0.50512874  1
  Fe  Fe7  1  0.24672091  0.50184002  0.49796267  1
  Fe  Fe8  1  0.62637964  0.37601354  0.12282415  1
  Fe  Fe9  1  -0.00033058  0.24625462  0.75198173  1
  Fe  Fe10  1  0.87686398  0.37447857  0.37640434  1
  Fe  Fe11  1  0.75045464  -0.00106812  0.25132707  1
  Fe  Fe12  1  0.49919057  0.74982565  0.24924598  1
  Fe  Fe13  1  0.75364217  0.49621173  0.74765786  1
  Fe  Fe14  1  0.62473935  0.37350093  0.37614812  1
  Fe  Fe15  1  0.62638742  0.12735757  0.87332752  1
  Fe  Fe16  1  0.62286581  0.87547531  0.37692278  1
  Fe  Fe17  1  0.00010447  0.74778444  0.24817269  1
  Fe  Fe18  1  0.74897838  0.75300286  0.74473466  1
  Fe  Fe19  1  0.24905081  0.75203552  0.75064899  1
  Fe  Fe20  1  0.37428965  0.62802301  0.87540551  1
  Fe  Fe21  1  0.12317756  0.37530039  0.62360623  1
  Fe  Fe22  1  0.62642851  0.62450238  0.87081849  1
  Fe  Fe23  1  0.25035487  0.49698248  0.75108318  1
  Fe  Fe24  1  0.12451697  0.62418296  0.87293932  1
  Fe  Fe25  1  0.25055444  0.00307184  0.49506557  1
  Fe  Fe26  1  0.49967020  0.25217496  0.24823552  1
  Fe  Fe27  1  0.12315492  0.87718380  0.62505603  1
  Fe  Fe28  1  0.75102846  -0.00093532  0.50063392  1
  Fe  Fe29  1  0.49624307  0.00370914  0.49798560  1
  Fe  Fe30  1  0.24801066  0.50096659  -0.00175979  1
  Fe  Fe31  1  0.62157633  0.87415108  0.87524491  1
  Fe  Fe32  1  0.62810643  0.62376744  0.12634245  1
  Fe  Fe33  1  -0.00039388  0.00106147  0.25358316  1
  Fe  Fe34  1  0.00277773  0.74602458  0.50397435  1
  Fe  Fe35  1  0.25020505  0.49889444  0.25183788  1
  Fe  Fe36  1  0.00028607  0.24786751  0.24985278  1
  Fe  Fe37  1  -0.00194339  0.50251755  0.74524229  1
  Fe  Fe38  1  0.75240592  0.49830374  0.25045225  1
  Fe  Fe39  1  0.37259780  0.37141560  0.37672604  1
  Fe  Fe40  1  0.25151164  0.75417578  0.24922423  1
  Fe  Fe41  1  0.12665501  0.12267326  0.62507293  1
  Fe  Fe42  1  0.37372318  0.62313698  0.62662635  1
  Fe  Fe43  1  0.87938143  0.87510763  0.87322085  1
  Fe  Fe44  1  0.37465479  0.87671790  0.62380349  1
  Fe  Fe45  1  0.49943366  0.50131748  0.49842059  1
  Fe  Fe46  1  0.75072005  0.25073359  0.25009508  1
  Fe  Fe47  1  0.50019655  0.24961106  -0.00213058  1
  Fe  Fe48  1  0.75072074  -0.00147266  -0.00124799  1
  Fe  Fe49  1  0.75232514  -0.00259927  0.74917470  1
  Fe  Fe50  1  0.87660653  0.87441863  0.37893299  1
  Fe  Fe51  1  0.74965533  0.75223543  0.25075354  1
  Fe  Fe52  1  0.62574510  0.62487349  0.37505318  1
  Fe  Fe53  1  0.12030016  0.37782784  0.12225188  1
  Fe  Fe54  1  0.00265780  0.74656463  0.00233990  1
  Fe  Fe55  1  0.75496450  0.25304041  -0.00208841  1
  Fe  Fe56  1  0.75053939  0.24922997  0.50051149  1
  Fe  Fe57  1  0.87632629  0.12293599  0.62449284  1
  Fe  Fe58  1  0.75362909  0.25283267  0.75099476  1
  Fe  Fe59  1  0.62447241  0.12560119  0.37399838  1
  Fe  Fe60  1  0.25163214  0.25295464  0.74738364  1
  Fe  Fe61  1  0.12044534  0.37596051  0.87634554  1
  Fe  Fe62  1  0.49546356  0.24720730  0.50373119  1
  Fe  Fe63  1  0.87526646  0.62628082  0.87258636  1
  Fe  Fe64  1  0.62306757  0.37431070  0.62605864  1
  Fe  Fe65  1  0.37276565  0.12422476  0.12662265  1
  Fe  Fe66  1  0.25028221  -0.00358267  0.00180298  1
  Fe  Fe67  1  0.12502047  0.37303028  0.37590857  1
  Fe  Fe68  1  0.62325649  0.12434285  0.62841890  1
  Fe  Fe69  1  0.87466535  0.62583074  0.37789190  1
  Fe  Fe70  1  0.87476891  0.12437151  0.12417751  1
  Fe  Fe71  1  0.12438198  0.87447198  0.37498928  1
  Fe  Fe72  1  0.12593884  0.12356497  0.87639067  1
  Fe  Fe73  1  0.49524593  -0.00117839  0.25151241  1
  Fe  Fe74  1  -0.00131790  0.50376152  0.24903989  1
  Fe  Fe75  1  0.37458538  0.37616741  0.12123455  1
  Fe  Fe76  1  0.49848630  0.49971895  0.25080061  1
  Fe  Fe77  1  0.62559039  0.12435781  0.12392929  1
  Fe  Fe78  1  0.62118307  0.87657026  0.12318619  1
  Fe  Fe79  1  0.75170810  0.49887717  0.50257654  1
  Fe  Fe80  1  0.00131216  0.24584718  0.49778757  1
  Fe  Fe81  1  0.49795701  0.49555039  0.75309343  1
  Fe  Fe82  1  0.24681074  0.25141460  0.00195285  1
  Fe  Fe83  1  0.24931043  -0.00291410  0.75260670  1
  Fe  Fe84  1  0.50160651  0.74740440  0.50436235  1
  Fe  Fe85  1  0.74878351  0.75109298  -0.00050034  1
  Fe  Fe86  1  0.37845029  0.87152183  0.87975085  1
  Fe  Fe87  1  0.75459822  0.49820677  -0.00047258  1
  Fe  Fe88  1  0.24845769  0.74713864  0.50076572  1
  Fe  Fe89  1  0.50050951  0.50162439  -0.00195256  1
  Co  Co90  1  -0.00163333  0.50650656  0.00257949  1
  Co  Co91  1  0.37823666  0.87254696  0.11913099  1
  Co  Co92  1  0.37270608  0.12077955  0.62996207  1
  Co  Co93  1  0.88058455  0.87635206  0.62433603  1
  Co  Co94  1  0.12861575  0.62394589  0.62822128  1
  Co  Co95  1  0.49946153  0.00480485  -0.00252225  1
  Co  Co96  1  0.37422993  0.62681137  0.37513260  1
  Co  Co97  1  0.50463633  0.74449439  0.00062563  1
  Co  Co98  1  0.37008152  0.13120094  0.36984845  1
  Co  Co99  1  0.49938315  0.75107693  0.74712832  1
  Co  Co100  1  0.25126042  0.24857096  0.50496108  1
  Co  Co101  1  0.12287864  0.87681382  0.12667375  1
  Co  Co102  1  -0.00044904  0.00148709  -0.00023138  1
  Co  Co103  1  0.00217706  0.74901443  0.74815868  1
  Co  Co104  1  0.62646739  0.37422428  0.87530301  1
  Co  Co105  1  0.00063210  0.00250879  0.75006755  1
  Co  Co106  1  0.87404545  0.62700426  0.62432666  1
  Co  Co107  1  0.13206649  0.12749661  0.37108230  1
  Co  Co108  1  0.87386185  0.12257422  0.87484696  1
  Co  Co109  1  0.87917797  0.37200985  0.62338305  1
  Co  Co110  1  0.12991416  0.62487650  0.12720130  1
  Co  Co111  1  0.24418025  0.75203636  -0.00161061  1
  Co  Co112  1  0.12531905  0.62679806  0.37169112  1
  Co  Co113  1  0.87868681  0.37402563  0.12530933  1
  Co  Co114  1  0.87260754  0.12469735  0.37511729  1
  Co  Co115  1  0.00194509  0.50276236  0.50075856  1
  Co  Co116  1  0.49625055  0.25256837  0.74969381  1
  Co  Co117  1  0.24794550  0.25516074  0.24433785  1
  Co  Co118  1  0.62138213  0.87969874  0.62460012  1
  Co  Co119  1  0.25404652  -0.00685470  0.25171156  1
  Co  Co120  1  0.37239340  0.37258421  0.87850330  1
  Co  Co121  1  0.88210748  0.37697386  0.87486996  1
  Co  Co122  1  0.62427139  0.62051186  0.62827077  1
  Co  Co123  1  0.37417563  0.37943592  0.62251645  1
  Co  Co124  1  0.87136028  0.62773045  0.12521408  1
  Co  Co125  1  0.37581961  0.87094366  0.37970110  1
  Co  Co126  1  0.00264330  0.00377173  0.49695574  1
  Co  Co127  1  -0.00008277  0.24599093  -0.00072266  1
