# generated using pymatgen
data_Fe45Co19
_symmetry_space_group_name_H-M   'P 1'
_cell_length_a   11.41507401
_cell_length_b   11.41526548
_cell_length_c   11.41481759
_cell_angle_alpha   90.00769868
_cell_angle_beta   90.00094957
_cell_angle_gamma   90.00552194
_symmetry_Int_Tables_number   1
_chemical_formula_structural   Fe45Co19
_chemical_formula_sum   'Fe90 Co38'
_cell_volume   1487.42034564
_cell_formula_units_Z   2
loop_
 _symmetry_equiv_pos_site_id
 _symmetry_equiv_pos_as_xyz
  1  'x, y, z'
loop_
 _atom_site_type_symbol
 _atom_site_label
 _atom_site_symmetry_multiplicity
 _atom_site_fract_x
 _atom_site_fract_y
 _atom_site_fract_z
 _atom_site_occupancy
  Fe  Fe0  1  0.37409592  0.62263774  0.37073642  1
  Fe  Fe1  1  0.37684718  0.12250079  0.62374851  1
  Fe  Fe2  1  0.37372719  0.12462668  0.87526926  1
  Fe  Fe3  1  0.24734332  0.00171322  -0.00009047  1
  Fe  Fe4  1  0.24753114  0.50182903  0.00259646  1
  Fe  Fe5  1  0.12736433  0.37261519  0.37328025  1
  Fe  Fe6  1  0.74879080  0.49936702  -0.00127408  1
  Fe  Fe7  1  0.24834265  0.75014266  0.74931472  1
  Fe  Fe8  1  -0.00353671  -0.00065208  0.25113118  1
  Fe  Fe9  1  0.24962782  0.49956077  0.74905176  1
  Fe  Fe10  1  0.12395328  0.62692869  0.37227846  1
  Fe  Fe11  1  0.87505631  0.62510188  0.87561620  1
  Fe  Fe12  1  0.37540046  0.37790448  0.12814446  1
  Fe  Fe13  1  -0.00500619  0.00000047  0.75307394  1
  Fe  Fe14  1  0.12564844  0.37089236  0.87391801  1
  Fe  Fe15  1  0.87630224  0.37448104  0.87563843  1
  Fe  Fe16  1  0.62546343  0.87411292  0.62263814  1
  Fe  Fe17  1  -0.00129453  0.25095429  0.25001548  1
  Fe  Fe18  1  0.37580394  0.87820715  0.37631064  1
  Fe  Fe19  1  0.87870649  0.37778871  0.12307607  1
  Fe  Fe20  1  0.37358210  0.37412248  0.87627821  1
  Fe  Fe21  1  0.37350851  0.87390747  0.87681862  1
  Fe  Fe22  1  0.24781095  -0.00003152  0.50136123  1
  Fe  Fe23  1  0.62545745  0.62469320  0.62591413  1
  Fe  Fe24  1  0.12490941  0.37287880  0.62597670  1
  Fe  Fe25  1  0.00157871  0.49918324  0.49933695  1
  Fe  Fe26  1  0.87513488  0.37467764  0.37669882  1
  Fe  Fe27  1  0.12251753  0.62637783  0.12981185  1
  Fe  Fe28  1  0.62258183  0.37468879  0.12472238  1
  Fe  Fe29  1  0.12374135  0.62721788  0.87359050  1
  Fe  Fe30  1  0.74773284  0.49742246  0.75141448  1
  Fe  Fe31  1  0.74970498  0.25178786  0.50300224  1
  Fe  Fe32  1  0.49982615  0.74960122  0.49888661  1
  Fe  Fe33  1  0.87579636  0.62478082  0.37277800  1
  Fe  Fe34  1  0.87005095  0.12730103  0.37152144  1
  Fe  Fe35  1  0.75440246  0.75360654  0.74859465  1
  Fe  Fe36  1  0.25048784  0.49860074  0.49892357  1
  Fe  Fe37  1  -0.00260967  0.00517540  -0.00128104  1
  Fe  Fe38  1  0.24957225  -0.00014840  0.75079010  1
  Fe  Fe39  1  0.50284212  -0.00061055  0.75016213  1
  Fe  Fe40  1  0.25319479  0.25072376  0.50083552  1
  Fe  Fe41  1  0.50225938  0.49864967  0.75352698  1
  Fe  Fe42  1  0.12361824  0.37378861  0.12630828  1
  Fe  Fe43  1  0.87152503  0.12263468  0.62673002  1
  Fe  Fe44  1  0.49886066  0.24902081  0.49981492  1
  Fe  Fe45  1  0.37486558  0.62363883  0.62530551  1
  Fe  Fe46  1  0.12500020  0.87418625  0.37306509  1
  Fe  Fe47  1  0.49810747  0.74949888  0.24814023  1
  Fe  Fe48  1  0.62838253  0.12650881  0.87319963  1
  Fe  Fe49  1  0.74483190  -0.00020266  0.49730483  1
  Fe  Fe50  1  0.49971618  0.49977481  0.49760192  1
  Fe  Fe51  1  0.75210482  0.00320669  0.00116054  1
  Fe  Fe52  1  0.62785029  0.87403039  0.87677720  1
  Fe  Fe53  1  0.50031016  0.74949849  0.00055154  1
  Fe  Fe54  1  0.49789980  0.24660827  0.25053344  1
  Fe  Fe55  1  0.50072012  0.75078799  0.75147649  1
  Fe  Fe56  1  0.00119959  0.49856909  0.75024414  1
  Fe  Fe57  1  0.75359774  0.75198945  0.24745696  1
  Fe  Fe58  1  0.87365206  0.87411716  0.37782473  1
  Fe  Fe59  1  0.62671149  0.62772247  0.37335520  1
  Fe  Fe60  1  -0.00166422  0.74763763  0.00297195  1
  Fe  Fe61  1  0.50293361  0.00329625  0.25324896  1
  Fe  Fe62  1  0.50021991  0.24735630  0.00137497  1
  Fe  Fe63  1  0.74937641  0.25411111  0.74692483  1
  Fe  Fe64  1  0.50217976  0.50157860  -0.00167899  1
  Fe  Fe65  1  0.37423204  0.87609576  0.12371810  1
  Fe  Fe66  1  0.12403318  0.12620423  0.62880573  1
  Fe  Fe67  1  -0.00177185  0.24892642  0.50219877  1
  Fe  Fe68  1  0.25083943  0.00264477  0.24899970  1
  Fe  Fe69  1  0.12178340  0.87359587  0.87587926  1
  Fe  Fe70  1  0.24992318  0.75033394  0.49914062  1
  Fe  Fe71  1  -0.00021028  0.74912801  0.50088078  1
  Fe  Fe72  1  0.12694903  0.12697476  0.37253525  1
  Fe  Fe73  1  -0.00045592  0.24542193  -0.00185726  1
  Fe  Fe74  1  0.12335046  0.87504596  0.12642328  1
  Fe  Fe75  1  0.75180366  0.74890587  0.00301272  1
  Fe  Fe76  1  0.62602068  0.62390437  0.12529523  1
  Fe  Fe77  1  0.12135555  0.87442607  0.62569451  1
  Fe  Fe78  1  0.75090336  0.24941766  0.00345463  1
  Fe  Fe79  1  0.74940425  0.50028103  0.49920250  1
  Fe  Fe80  1  0.37423854  0.62650730  0.87761286  1
  Fe  Fe81  1  0.24920924  0.24602337  0.00323572  1
  Fe  Fe82  1  0.62416535  0.37303192  0.37534195  1
  Fe  Fe83  1  0.50233593  0.00194928  -0.00101444  1
  Fe  Fe84  1  0.62601953  0.87729876  0.12603462  1
  Fe  Fe85  1  0.75016605  0.49678982  0.24984267  1
  Fe  Fe86  1  0.00008494  0.00310401  0.49806922  1
  Fe  Fe87  1  0.87608437  0.62306337  0.62490224  1
  Fe  Fe88  1  0.50060364  0.25139077  0.74886678  1
  Fe  Fe89  1  0.37611576  0.87577024  0.62356283  1
  Co  Co90  1  0.24690375  0.50021063  0.24875958  1
  Co  Co91  1  0.62879739  0.12984828  0.37245670  1
  Co  Co92  1  0.12496912  0.62497598  0.62369616  1
  Co  Co93  1  0.37627452  0.62298621  0.12389555  1
  Co  Co94  1  0.00011420  0.49729239  0.25240447  1
  Co  Co95  1  0.50376346  0.50100338  0.25032283  1
  Co  Co96  1  0.50581844  0.00082802  0.49812249  1
  Co  Co97  1  0.87437632  0.12519617  0.12953140  1
  Co  Co98  1  0.25304478  0.75059090  0.24971590  1
  Co  Co99  1  0.25363126  0.24921209  0.74840414  1
  Co  Co100  1  -0.00318601  0.75077611  0.74794023  1
  Co  Co101  1  0.62494782  0.87048972  0.37371950  1
  Co  Co102  1  0.12616849  0.12631180  0.87213917  1
  Co  Co103  1  0.87568823  0.87808601  0.12205815  1
  Co  Co104  1  0.62674155  0.12506791  0.62672359  1
  Co  Co105  1  0.75089463  0.74871293  0.50123938  1
  Co  Co106  1  0.87594196  0.87278577  0.88035477  1
  Co  Co107  1  0.25261055  0.24759315  0.24753336  1
  Co  Co108  1  0.37614372  0.12190562  0.12371607  1
  Co  Co109  1  0.00295849  0.50127174  -0.00196251  1
  Co  Co110  1  0.12165807  0.12391270  0.12815265  1
  Co  Co111  1  0.24787141  0.74923934  0.00213380  1
  Co  Co112  1  0.62729390  0.62821803  0.87463097  1
  Co  Co113  1  0.62288964  0.37793481  0.62214613  1
  Co  Co114  1  0.75092432  -0.00552637  0.75078109  1
  Co  Co115  1  0.87565437  0.61971861  0.12597200  1
  Co  Co116  1  -0.00451711  0.75233190  0.24953090  1
  Co  Co117  1  0.62777466  0.12458717  0.12767493  1
  Co  Co118  1  -0.00303889  0.24945576  0.74940307  1
  Co  Co119  1  0.75089695  0.25630972  0.24651408  1
  Co  Co120  1  0.86950994  0.12782856  0.87199955  1
  Co  Co121  1  0.62531519  0.37121333  0.87716524  1
  Co  Co122  1  0.87618974  0.37795080  0.62422067  1
  Co  Co123  1  0.37308410  0.12246062  0.37817044  1
  Co  Co124  1  0.74999395  -0.00340667  0.25185491  1
  Co  Co125  1  0.37516702  0.37584642  0.37081016  1
  Co  Co126  1  0.87660597  0.87836777  0.61907355  1
  Co  Co127  1  0.37669054  0.37749891  0.62532631  1
