# generated using pymatgen
data_Fe45Co19
_symmetry_space_group_name_H-M   'P 1'
_cell_length_a   11.41571552
_cell_length_b   11.41434845
_cell_length_c   11.41484224
_cell_angle_alpha   89.99898928
_cell_angle_beta   89.99308533
_cell_angle_gamma   90.00601072
_symmetry_Int_Tables_number   1
_chemical_formula_structural   Fe45Co19
_chemical_formula_sum   'Fe90 Co38'
_cell_volume   1487.38765340
_cell_formula_units_Z   2
loop_
 _symmetry_equiv_pos_site_id
 _symmetry_equiv_pos_as_xyz
  1  'x, y, z'
loop_
 _atom_site_type_symbol
 _atom_site_label
 _atom_site_symmetry_multiplicity
 _atom_site_fract_x
 _atom_site_fract_y
 _atom_site_fract_z
 _atom_site_occupancy
  Fe  Fe0  1  0.62640602  0.12554335  0.37415032  1
  Fe  Fe1  1  0.75179958  0.24803500  0.49999210  1
  Fe  Fe2  1  0.62676392  0.37490494  0.12185733  1
  Fe  Fe3  1  0.87568803  0.12462782  0.62419100  1
  Fe  Fe4  1  0.50095229  0.25171697  0.75161476  1
  Fe  Fe5  1  0.87332828  0.37421632  0.87741654  1
  Fe  Fe6  1  -0.00042391  0.75126865  0.49908751  1
  Fe  Fe7  1  0.62436876  0.12557861  0.62522069  1
  Fe  Fe8  1  0.12330290  0.87959187  0.87775889  1
  Fe  Fe9  1  0.12325188  0.12252861  0.37543504  1
  Fe  Fe10  1  0.00062853  0.50204138  0.49954208  1
  Fe  Fe11  1  0.87900700  0.62452269  0.12514747  1
  Fe  Fe12  1  0.62755444  0.87339267  0.37710186  1
  Fe  Fe13  1  0.50100446  -0.00275869  0.75171189  1
  Fe  Fe14  1  0.37410686  0.62655477  0.12285291  1
  Fe  Fe15  1  0.25064662  -0.00216639  0.24648763  1
  Fe  Fe16  1  0.75244782  0.74955028  0.75023945  1
  Fe  Fe17  1  0.62473182  0.37694795  0.37658452  1
  Fe  Fe18  1  0.00028940  0.25078803  0.25030251  1
  Fe  Fe19  1  0.37900897  0.12714258  0.12571664  1
  Fe  Fe20  1  0.12446582  0.37478180  0.62655219  1
  Fe  Fe21  1  0.75007879  0.50546243  0.49988487  1
  Fe  Fe22  1  0.75025258  -0.00012937  0.00026734  1
  Fe  Fe23  1  0.24866381  0.50121465  0.25075027  1
  Fe  Fe24  1  0.87559385  0.37584872  0.62405461  1
  Fe  Fe25  1  0.75171395  0.74517529  0.50048803  1
  Fe  Fe26  1  0.12309619  0.62585032  0.62762792  1
  Fe  Fe27  1  0.00218922  0.75247617  0.25041546  1
  Fe  Fe28  1  0.62471550  0.37621183  0.62404460  1
  Fe  Fe29  1  0.49885620  0.50234649  0.74989818  1
  Fe  Fe30  1  0.49887626  0.49952468  -0.00102614  1
  Fe  Fe31  1  0.87362797  0.12578491  0.87365740  1
  Fe  Fe32  1  0.87584600  0.37397531  0.37586118  1
  Fe  Fe33  1  0.24936970  0.24784993  0.74915638  1
  Fe  Fe34  1  0.75177494  0.50071704  0.24883744  1
  Fe  Fe35  1  0.62576009  0.12690366  0.87654285  1
  Fe  Fe36  1  0.75021952  -0.00038521  0.74825166  1
  Fe  Fe37  1  0.24556435  0.74993908  0.00095174  1
  Fe  Fe38  1  0.75138665  -0.00161885  0.25207123  1
  Fe  Fe39  1  0.24679761  0.75118742  0.24846197  1
  Fe  Fe40  1  0.24703672  0.50229786  -0.00228041  1
  Fe  Fe41  1  0.24810175  0.75199758  0.50243971  1
  Fe  Fe42  1  0.50170689  0.75212413  -0.00061071  1
  Fe  Fe43  1  0.62313773  0.12590835  0.12327216  1
  Fe  Fe44  1  0.12307871  0.12231044  0.12430102  1
  Fe  Fe45  1  0.25018087  0.24780231  0.00095218  1
  Fe  Fe46  1  0.37255969  0.37478946  0.87484787  1
  Fe  Fe47  1  0.75132199  0.74727594  -0.00016398  1
  Fe  Fe48  1  0.62402868  0.62404811  0.12494888  1
  Fe  Fe49  1  0.62672356  0.87519205  0.12378971  1
  Fe  Fe50  1  0.24919421  0.24898608  0.50024133  1
  Fe  Fe51  1  0.49749667  0.74960434  0.74949007  1
  Fe  Fe52  1  0.24705949  0.50181907  0.75279048  1
  Fe  Fe53  1  0.75166693  0.50088060  0.74978685  1
  Fe  Fe54  1  0.37555702  0.12279648  0.87585308  1
  Fe  Fe55  1  -0.00260264  -0.00465702  0.25026794  1
  Fe  Fe56  1  0.87864191  0.62424647  0.87366125  1
  Fe  Fe57  1  0.62881374  0.37436645  0.87689397  1
  Fe  Fe58  1  0.37379505  0.12755626  0.37199110  1
  Fe  Fe59  1  0.37331768  0.37205351  0.12720550  1
  Fe  Fe60  1  0.25107112  -0.00176236  0.50244344  1
  Fe  Fe61  1  0.49869420  0.49893015  0.25143468  1
  Fe  Fe62  1  0.62421357  0.62515682  0.87413167  1
  Fe  Fe63  1  -0.00079690  0.25099466  0.74935166  1
  Fe  Fe64  1  0.49812932  0.25143044  0.49772741  1
  Fe  Fe65  1  0.37545130  0.37690185  0.62474773  1
  Fe  Fe66  1  0.49972272  -0.00250336  0.24962668  1
  Fe  Fe67  1  0.50008910  0.75044623  0.24983662  1
  Fe  Fe68  1  0.37441017  0.62448754  0.37613659  1
  Fe  Fe69  1  0.50063754  0.74512158  0.50190701  1
  Fe  Fe70  1  0.12509393  0.12220605  0.87464003  1
  Fe  Fe71  1  0.12568663  0.37304794  0.37534678  1
  Fe  Fe72  1  0.12310772  0.12153999  0.62625590  1
  Fe  Fe73  1  0.87427437  0.12458115  0.12720024  1
  Fe  Fe74  1  0.37429636  0.87680033  0.87800879  1
  Fe  Fe75  1  0.75089357  0.74831724  0.24903660  1
  Fe  Fe76  1  0.25072882  0.75393688  0.74858754  1
  Fe  Fe77  1  0.00180034  0.50013431  0.25175536  1
  Fe  Fe78  1  0.62667306  0.87387010  0.62433710  1
  Fe  Fe79  1  0.50063421  0.00032626  0.49837009  1
  Fe  Fe80  1  0.12474791  0.37529139  0.12333307  1
  Fe  Fe81  1  -0.00371394  -0.00355438  0.49946179  1
  Fe  Fe82  1  0.24985345  0.49957068  0.49901799  1
  Fe  Fe83  1  -0.00087153  0.75434684  0.74924085  1
  Fe  Fe84  1  0.87520554  0.87654290  0.87780531  1
  Fe  Fe85  1  0.37419085  0.87393132  0.37563503  1
  Fe  Fe86  1  -0.00181420  0.24875434  0.00059991  1
  Fe  Fe87  1  0.75118059  0.25206693  0.24865611  1
  Fe  Fe88  1  0.37670379  0.12330109  0.62683809  1
  Fe  Fe89  1  0.00311618  0.50196881  -0.00406445  1
  Co  Co90  1  0.87648818  0.12579650  0.37417551  1
  Co  Co91  1  0.00109227  0.25003712  0.50096537  1
  Co  Co92  1  0.87882217  0.62398229  0.62700490  1
  Co  Co93  1  0.62726508  0.87385869  0.87404960  1
  Co  Co94  1  0.49956482  0.25246542  -0.00154589  1
  Co  Co95  1  0.50105257  -0.00258713  0.00043251  1
  Co  Co96  1  0.87676378  0.62582515  0.37249436  1
  Co  Co97  1  0.00118478  0.49621481  0.75268565  1
  Co  Co98  1  0.12359199  0.62895914  0.87074028  1
  Co  Co99  1  0.37422208  0.62683343  0.87664349  1
  Co  Co100  1  0.87385449  0.87330984  0.12346590  1
  Co  Co101  1  -0.00364538  0.00148841  0.00064088  1
  Co  Co102  1  0.75131338  0.00241081  0.50016431  1
  Co  Co103  1  0.62584146  0.62577142  0.62904901  1
  Co  Co104  1  0.37314379  0.37322658  0.37336408  1
  Co  Co105  1  0.24515123  0.24783790  0.24943325  1
  Co  Co106  1  -0.00277857  -0.00085677  0.75006829  1
  Co  Co107  1  0.87187967  0.87289340  0.37554851  1
  Co  Co108  1  0.00094879  0.74938495  0.00013669  1
  Co  Co109  1  0.12617349  0.87712287  0.37516061  1
  Co  Co110  1  0.87203932  0.87474647  0.62311271  1
  Co  Co111  1  0.37487923  0.87233049  0.12361388  1
  Co  Co112  1  0.75131099  0.50458313  -0.00000465  1
  Co  Co113  1  0.50371375  0.25215066  0.25100479  1
  Co  Co114  1  0.37858741  0.87642095  0.62352114  1
  Co  Co115  1  0.12566056  0.62625106  0.37611827  1
  Co  Co116  1  0.12590182  0.36995113  0.87587830  1
  Co  Co117  1  0.37138944  0.62348802  0.62546947  1
  Co  Co118  1  0.25061299  -0.00240313  0.74874317  1
  Co  Co119  1  0.25180963  0.00117915  0.00354324  1
  Co  Co120  1  0.12246201  0.87712809  0.12192594  1
  Co  Co121  1  0.75193530  0.24885924  0.00287914  1
  Co  Co122  1  0.12267922  0.87689090  0.62550623  1
  Co  Co123  1  0.50028718  0.50255102  0.49979862  1
  Co  Co124  1  0.87793286  0.37798820  0.12289322  1
  Co  Co125  1  0.62491883  0.62433905  0.37188726  1
  Co  Co126  1  0.12313449  0.62408372  0.12541935  1
  Co  Co127  1  0.75087584  0.25076113  0.74776865  1
