# generated using pymatgen
data_Fe45Co19
_symmetry_space_group_name_H-M   'P 1'
_cell_length_a   11.41431797
_cell_length_b   11.41459577
_cell_length_c   11.41564435
_cell_angle_alpha   89.99863709
_cell_angle_beta   89.98698095
_cell_angle_gamma   90.00126137
_symmetry_Int_Tables_number   1
_chemical_formula_structural   Fe45Co19
_chemical_formula_sum   'Fe90 Co38'
_cell_volume   1487.34227287
_cell_formula_units_Z   2
loop_
 _symmetry_equiv_pos_site_id
 _symmetry_equiv_pos_as_xyz
  1  'x, y, z'
loop_
 _atom_site_type_symbol
 _atom_site_label
 _atom_site_symmetry_multiplicity
 _atom_site_fract_x
 _atom_site_fract_y
 _atom_site_fract_z
 _atom_site_occupancy
  Fe  Fe0  1  0.00155492  0.25366869  0.50074604  1
  Fe  Fe1  1  0.87448537  0.12294003  0.62421547  1
  Fe  Fe2  1  0.37646274  0.37499847  0.87548548  1
  Fe  Fe3  1  0.87535851  0.87256317  0.37603760  1
  Fe  Fe4  1  0.25038158  0.00115503  0.49907344  1
  Fe  Fe5  1  0.12093939  0.63023899  0.37417348  1
  Fe  Fe6  1  0.24707770  0.50319954  0.25038716  1
  Fe  Fe7  1  0.87292510  0.37810277  0.62475530  1
  Fe  Fe8  1  -0.00269756  0.75014224  0.74730419  1
  Fe  Fe9  1  0.37723619  0.62680247  0.87535237  1
  Fe  Fe10  1  0.49741163  0.74907112  0.25007002  1
  Fe  Fe11  1  0.25004937  0.24967641  0.50060808  1
  Fe  Fe12  1  0.12544532  0.12365355  0.87535037  1
  Fe  Fe13  1  0.37512649  0.87438648  0.12567211  1
  Fe  Fe14  1  0.12351962  0.12667481  0.37247267  1
  Fe  Fe15  1  -0.00082410  -0.00172269  0.75001063  1
  Fe  Fe16  1  0.62331324  0.12868633  0.37458623  1
  Fe  Fe17  1  0.50207107  0.25262834  0.00382878  1
  Fe  Fe18  1  0.62544358  0.62653966  0.62394309  1
  Fe  Fe19  1  0.87344440  0.12383241  0.87459291  1
  Fe  Fe20  1  0.50096107  -0.00072285  0.25243188  1
  Fe  Fe21  1  0.86860978  0.87903103  0.12469466  1
  Fe  Fe22  1  0.62610345  0.12172758  0.12692330  1
  Fe  Fe23  1  0.12625395  0.87301811  0.12686126  1
  Fe  Fe24  1  0.87431917  0.37627718  0.87388419  1
  Fe  Fe25  1  0.75195734  0.74695127  0.25130650  1
  Fe  Fe26  1  0.87581762  0.37658341  0.37582803  1
  Fe  Fe27  1  0.86986669  0.87329033  0.87641319  1
  Fe  Fe28  1  0.74817483  0.25097460  0.50200549  1
  Fe  Fe29  1  0.37642687  0.12717317  0.37478128  1
  Fe  Fe30  1  0.37407139  0.87343775  0.37474913  1
  Fe  Fe31  1  -0.00228675  0.75032108  0.00250771  1
  Fe  Fe32  1  0.37713641  0.12254764  0.12332397  1
  Fe  Fe33  1  0.74924260  0.25007362  0.74782598  1
  Fe  Fe34  1  0.50189272  0.49908700  0.25301601  1
  Fe  Fe35  1  0.87517712  0.37538541  0.12449996  1
  Fe  Fe36  1  0.50212719  0.75443264  0.75077260  1
  Fe  Fe37  1  0.37620622  0.37824986  0.12531681  1
  Fe  Fe38  1  0.00000886  0.24770801  0.00353642  1
  Fe  Fe39  1  0.74782865  0.50098642  0.25263193  1
  Fe  Fe40  1  0.25199222  0.74964863  0.74826232  1
  Fe  Fe41  1  -0.00191241  0.00099621  0.24846883  1
  Fe  Fe42  1  0.12646718  0.87425128  0.87353535  1
  Fe  Fe43  1  0.37582960  0.37769175  0.37537226  1
  Fe  Fe44  1  0.62402872  0.12639059  0.87513010  1
  Fe  Fe45  1  -0.00162792  0.25013862  0.74907978  1
  Fe  Fe46  1  0.37517025  0.62257470  0.62370726  1
  Fe  Fe47  1  0.12639506  0.87552832  0.62613481  1
  Fe  Fe48  1  0.74825958  0.50061418  -0.00048456  1
  Fe  Fe49  1  0.12420405  0.87232957  0.37265031  1
  Fe  Fe50  1  0.25426012  0.24546437  0.74972678  1
  Fe  Fe51  1  0.49812843  0.24859694  0.74829061  1
  Fe  Fe52  1  0.12501639  0.62705278  0.87340448  1
  Fe  Fe53  1  0.50129868  0.50033693  0.75041354  1
  Fe  Fe54  1  -0.00163354  0.00109870  0.00174197  1
  Fe  Fe55  1  0.12569778  0.37487230  0.87292477  1
  Fe  Fe56  1  0.25050591  -0.00093290  -0.00128435  1
  Fe  Fe57  1  0.25143054  0.74842714  0.00208053  1
  Fe  Fe58  1  0.50324107  -0.00637082  -0.00378925  1
  Fe  Fe59  1  0.12471221  0.12485955  0.62535367  1
  Fe  Fe60  1  0.87310991  0.62596436  0.87377617  1
  Fe  Fe61  1  0.87421677  0.62337611  0.62034263  1
  Fe  Fe62  1  0.00262901  0.50071174  -0.00015251  1
  Fe  Fe63  1  0.62570316  0.37571081  0.87387983  1
  Fe  Fe64  1  0.00197492  0.50093467  0.74655197  1
  Fe  Fe65  1  0.87690045  0.62218767  0.12686662  1
  Fe  Fe66  1  0.25095846  0.74997171  0.49943036  1
  Fe  Fe67  1  0.74971125  0.25041738  0.00136994  1
  Fe  Fe68  1  0.74488560  0.50056842  0.49682362  1
  Fe  Fe69  1  0.74748586  -0.00062285  0.49670381  1
  Fe  Fe70  1  0.00088186  -0.00117837  0.49943771  1
  Fe  Fe71  1  0.62618286  0.62916531  0.87651600  1
  Fe  Fe72  1  0.37662047  0.62406075  0.12481041  1
  Fe  Fe73  1  0.37806963  0.88120601  0.62598751  1
  Fe  Fe74  1  0.25046034  0.25031569  0.24765448  1
  Fe  Fe75  1  0.37408509  0.37844509  0.62475421  1
  Fe  Fe76  1  0.62020510  0.12048820  0.62406418  1
  Fe  Fe77  1  0.74553904  -0.00273196  0.75044118  1
  Fe  Fe78  1  0.62238395  0.62549518  0.12418166  1
  Fe  Fe79  1  0.74953131  0.25096131  0.24859408  1
  Fe  Fe80  1  0.49842143  0.74885548  0.49916919  1
  Fe  Fe81  1  0.24969272  0.25046199  0.00222308  1
  Fe  Fe82  1  0.87168472  0.87525104  0.62250246  1
  Fe  Fe83  1  0.62471472  0.87067664  0.37498379  1
  Fe  Fe84  1  0.24970171  0.50150229  -0.00111592  1
  Fe  Fe85  1  0.49956658  0.25291127  0.50104126  1
  Fe  Fe86  1  0.87632056  0.12718988  0.37460697  1
  Fe  Fe87  1  0.25105183  0.00017726  0.25090666  1
  Fe  Fe88  1  0.00271578  0.49834281  0.25062510  1
  Fe  Fe89  1  0.24489419  0.50085050  0.50056870  1
  Co  Co90  1  0.49841252  0.75337392  0.00060683  1
  Co  Co91  1  0.74737377  0.00244448  -0.00271115  1
  Co  Co92  1  0.49885375  0.25066978  0.24712498  1
  Co  Co93  1  0.12394842  0.62719646  0.12564687  1
  Co  Co94  1  0.00592743  0.49771763  0.50215760  1
  Co  Co95  1  0.37955594  0.12025384  0.62258210  1
  Co  Co96  1  0.74865251  -0.00001264  0.25644883  1
  Co  Co97  1  0.12806356  0.37223318  0.62956544  1
  Co  Co98  1  0.37122112  0.87310192  0.87350933  1
  Co  Co99  1  0.37508677  0.62139722  0.37709529  1
  Co  Co100  1  -0.00423058  0.75250730  0.24623472  1
  Co  Co101  1  0.62240117  0.62735535  0.37461932  1
  Co  Co102  1  0.62507433  0.37568534  0.62702980  1
  Co  Co103  1  0.62741133  0.87453216  0.12700603  1
  Co  Co104  1  -0.00030972  0.75143023  0.50263882  1
  Co  Co105  1  0.50032587  -0.00066768  0.49264439  1
  Co  Co106  1  0.87950951  0.62277389  0.37716790  1
  Co  Co107  1  0.74987293  0.74873820  0.49758421  1
  Co  Co108  1  0.25276802  0.00443499  0.75024319  1
  Co  Co109  1  0.12674870  0.12337359  0.12615360  1
  Co  Co110  1  0.62377635  0.37236670  0.37398803  1
  Co  Co111  1  0.50185852  -0.00342166  0.75777567  1
  Co  Co112  1  0.75289117  0.74502302  0.00542448  1
  Co  Co113  1  0.25126581  0.50165152  0.75178446  1
  Co  Co114  1  0.25304451  0.74745604  0.25032723  1
  Co  Co115  1  0.63186746  0.86749369  0.87866540  1
  Co  Co116  1  0.62579070  0.37789775  0.12603786  1
  Co  Co117  1  0.74871834  0.50185355  0.75057802  1
  Co  Co118  1  0.12550600  0.37313852  0.37261601  1
  Co  Co119  1  -0.00027218  0.25025225  0.24727777  1
  Co  Co120  1  0.75071583  0.75025498  0.74539951  1
  Co  Co121  1  0.12543641  0.37584605  0.12425370  1
  Co  Co122  1  0.12643035  0.62798597  0.62584914  1
  Co  Co123  1  0.37726053  0.12539378  0.88025360  1
  Co  Co124  1  0.62240616  0.87640383  0.62120249  1
  Co  Co125  1  0.50392246  0.49904199  0.50040416  1
  Co  Co126  1  0.50127763  0.49983453  -0.00205184  1
  Co  Co127  1  0.87105373  0.12398196  0.12662609  1
