# generated using pymatgen
data_Fe45Co19
_symmetry_space_group_name_H-M   'P 1'
_cell_length_a   11.41478001
_cell_length_b   11.41537199
_cell_length_c   11.41610446
_cell_angle_alpha   90.00236247
_cell_angle_beta   89.99027709
_cell_angle_gamma   89.99056116
_symmetry_Int_Tables_number   1
_chemical_formula_structural   Fe45Co19
_chemical_formula_sum   'Fe90 Co38'
_cell_volume   1487.56357654
_cell_formula_units_Z   2
loop_
 _symmetry_equiv_pos_site_id
 _symmetry_equiv_pos_as_xyz
  1  'x, y, z'
loop_
 _atom_site_type_symbol
 _atom_site_label
 _atom_site_symmetry_multiplicity
 _atom_site_fract_x
 _atom_site_fract_y
 _atom_site_fract_z
 _atom_site_occupancy
  Fe  Fe0  1  0.24975055  0.24567402  0.74812654  1
  Fe  Fe1  1  0.37038476  0.62229082  0.87483680  1
  Fe  Fe2  1  0.62450199  0.62515035  0.87389965  1
  Fe  Fe3  1  0.87344204  0.87438491  0.37426617  1
  Fe  Fe4  1  0.49890139  0.49959015  0.00037941  1
  Fe  Fe5  1  0.37295455  0.62393866  0.37535769  1
  Fe  Fe6  1  0.87886608  0.12207589  0.62354551  1
  Fe  Fe7  1  0.24787716  0.75044704  0.24908241  1
  Fe  Fe8  1  -0.00014593  0.74756239  0.25243006  1
  Fe  Fe9  1  0.75758148  0.25072880  0.50059496  1
  Fe  Fe10  1  0.62656949  0.37510545  0.37825439  1
  Fe  Fe11  1  0.87494732  0.12597250  0.12670001  1
  Fe  Fe12  1  0.50095884  0.49981059  0.25250876  1
  Fe  Fe13  1  0.12453534  0.62618528  0.12297677  1
  Fe  Fe14  1  0.49740988  0.25091822  0.49802627  1
  Fe  Fe15  1  0.24927218  0.25000188  0.00094067  1
  Fe  Fe16  1  0.24623413  0.49977308  0.24781237  1
  Fe  Fe17  1  0.12809512  0.37691780  0.87307504  1
  Fe  Fe18  1  -0.00200443  0.25171322  0.25199588  1
  Fe  Fe19  1  0.12429901  0.87488182  0.12048698  1
  Fe  Fe20  1  0.75081683  0.49959544  -0.00073362  1
  Fe  Fe21  1  0.62750162  0.37508780  0.12585341  1
  Fe  Fe22  1  0.87649537  0.37666648  0.87109213  1
  Fe  Fe23  1  -0.00107476  0.75086084  -0.00841902  1
  Fe  Fe24  1  0.87671320  0.12266782  0.87284455  1
  Fe  Fe25  1  0.00246465  0.24907395  0.74828890  1
  Fe  Fe26  1  0.87562546  0.62644944  0.12383121  1
  Fe  Fe27  1  0.62188850  0.62706614  0.62286948  1
  Fe  Fe28  1  0.24829652  0.24739638  0.49821233  1
  Fe  Fe29  1  0.50294007  0.24945802  0.25193689  1
  Fe  Fe30  1  0.37428916  0.12580649  0.12901741  1
  Fe  Fe31  1  0.75169068  0.74974336  0.75192386  1
  Fe  Fe32  1  0.62427080  0.12470725  0.87510330  1
  Fe  Fe33  1  0.74809369  0.00121290  0.25316794  1
  Fe  Fe34  1  0.00146663  0.49630200  0.00256830  1
  Fe  Fe35  1  0.37435156  0.87591103  0.12691331  1
  Fe  Fe36  1  0.75444351  0.50158263  0.25151756  1
  Fe  Fe37  1  0.75109767  0.24998839  0.74739286  1
  Fe  Fe38  1  0.37385052  0.37393652  0.12732087  1
  Fe  Fe39  1  0.75183185  0.24972695  -0.00180001  1
  Fe  Fe40  1  0.00555799  0.50145660  0.74493039  1
  Fe  Fe41  1  0.62253541  0.87467678  0.62429417  1
  Fe  Fe42  1  0.24969447  0.75121966  0.49834575  1
  Fe  Fe43  1  0.12246948  0.12165387  0.37620544  1
  Fe  Fe44  1  0.11860452  0.37947315  0.37692328  1
  Fe  Fe45  1  0.49939437  0.24949530  0.74841680  1
  Fe  Fe46  1  0.37301074  0.37658016  0.37532079  1
  Fe  Fe47  1  0.12431063  0.12073261  0.62065415  1
  Fe  Fe48  1  0.37368562  0.87700853  0.37229874  1
  Fe  Fe49  1  0.24373933  0.75101285  0.75286964  1
  Fe  Fe50  1  0.37232556  0.37522069  0.87381171  1
  Fe  Fe51  1  -0.00068538  0.25118016  -0.00057599  1
  Fe  Fe52  1  0.12606179  0.12047801  0.87726911  1
  Fe  Fe53  1  0.49795103  0.75027265  -0.00127262  1
  Fe  Fe54  1  0.49713174  0.00238023  0.75029177  1
  Fe  Fe55  1  0.49845855  0.00075113  -0.00026260  1
  Fe  Fe56  1  0.62410201  0.12600870  0.62090322  1
  Fe  Fe57  1  0.75112294  0.24969112  0.25322214  1
  Fe  Fe58  1  0.74862306  0.49904693  0.74639837  1
  Fe  Fe59  1  0.12371490  0.12569268  0.12541767  1
  Fe  Fe60  1  0.62575424  0.87353181  0.12594366  1
  Fe  Fe61  1  0.49971881  0.49876015  0.74647407  1
  Fe  Fe62  1  0.00346984  -0.00503806  0.75049717  1
  Fe  Fe63  1  0.50407676  0.00319583  0.25257206  1
  Fe  Fe64  1  0.87498652  0.87380301  0.12519775  1
  Fe  Fe65  1  0.24609214  0.50102978  0.50346102  1
  Fe  Fe66  1  0.37420798  0.62486959  0.12598367  1
  Fe  Fe67  1  0.62491255  0.37455714  0.87332400  1
  Fe  Fe68  1  0.12664958  0.87640104  0.37629492  1
  Fe  Fe69  1  0.62556350  0.62678486  0.37789966  1
  Fe  Fe70  1  0.49788256  -0.00053727  0.49813480  1
  Fe  Fe71  1  0.74991322  0.00024610  0.74644008  1
  Fe  Fe72  1  0.49807981  0.75012106  0.75081844  1
  Fe  Fe73  1  0.75205594  0.74966349  -0.00355761  1
  Fe  Fe74  1  0.37404521  0.62653335  0.62431647  1
  Fe  Fe75  1  0.36949597  0.87764864  0.87524940  1
  Fe  Fe76  1  0.00058574  -0.00143106  0.24971990  1
  Fe  Fe77  1  0.62536904  0.62659126  0.12549154  1
  Fe  Fe78  1  0.37279534  0.37370329  0.62448105  1
  Fe  Fe79  1  0.50067429  0.24978496  0.00148549  1
  Fe  Fe80  1  0.87890417  0.87276548  0.62632323  1
  Fe  Fe81  1  0.37188569  0.87597386  0.62619909  1
  Fe  Fe82  1  0.62614475  0.87580588  0.87379257  1
  Fe  Fe83  1  0.75189031  0.00085171  0.00040284  1
  Fe  Fe84  1  0.87837915  0.62828493  0.62678074  1
  Fe  Fe85  1  0.24695325  0.25002419  0.25316219  1
  Fe  Fe86  1  0.00255535  0.74886104  0.49788794  1
  Fe  Fe87  1  0.74939955  0.75245773  0.49997318  1
  Fe  Fe88  1  0.50096428  0.74906837  0.25268910  1
  Fe  Fe89  1  0.75315683  0.49826788  0.50243375  1
  Co  Co90  1  0.87689195  0.61939979  0.87235118  1
  Co  Co91  1  0.12676908  0.62003784  0.87692862  1
  Co  Co92  1  0.12552798  0.87473799  0.62296650  1
  Co  Co93  1  -0.00138380  0.24847851  0.50028873  1
  Co  Co94  1  0.88091464  0.37867105  0.37649431  1
  Co  Co95  1  0.24931313  0.00306653  0.74801753  1
  Co  Co96  1  0.25066481  0.74914649  0.00038442  1
  Co  Co97  1  0.00134676  0.50368475  0.50556854  1
  Co  Co98  1  0.25191314  0.00323704  0.00422379  1
  Co  Co99  1  0.24599204  -0.00045716  0.24866092  1
  Co  Co100  1  0.62435766  0.37205907  0.62235566  1
  Co  Co101  1  0.12469268  0.63166124  0.62533011  1
  Co  Co102  1  0.88014468  0.37514051  0.62678965  1
  Co  Co103  1  0.87569579  0.62466648  0.37802728  1
  Co  Co104  1  0.37485721  0.12645430  0.87611099  1
  Co  Co105  1  0.12549536  0.62262603  0.37461591  1
  Co  Co106  1  0.75190049  -0.00201250  0.50070279  1
  Co  Co107  1  0.12908969  0.88034493  0.87946565  1
  Co  Co108  1  0.24859794  0.50030319  0.74493271  1
  Co  Co109  1  -0.00200752  -0.00336043  0.49810114  1
  Co  Co110  1  -0.00149158  0.50291390  0.24680426  1
  Co  Co111  1  0.75097368  0.74860908  0.25106854  1
  Co  Co112  1  0.37395260  0.12452363  0.37201295  1
  Co  Co113  1  0.00356897  0.75238547  0.75740149  1
  Co  Co114  1  0.24987394  0.49781308  0.00440136  1
  Co  Co115  1  0.12573136  0.37086244  0.62322158  1
  Co  Co116  1  0.62549849  0.87372634  0.37552201  1
  Co  Co117  1  0.87692614  0.12285009  0.37467137  1
  Co  Co118  1  0.87307480  0.87861379  0.87317180  1
  Co  Co119  1  -0.00269744  0.00124490  0.00137075  1
  Co  Co120  1  0.62665297  0.12714153  0.38067281  1
  Co  Co121  1  0.87394675  0.37319980  0.12605782  1
  Co  Co122  1  0.49698257  0.75168574  0.49835674  1
  Co  Co123  1  0.49862466  0.49984426  0.50046320  1
  Co  Co124  1  0.25187096  0.00028062  0.49896518  1
  Co  Co125  1  0.37568751  0.12582024  0.62240101  1
  Co  Co126  1  0.12406000  0.37234563  0.12782345  1
  Co  Co127  1  0.62613432  0.12527922  0.12376516  1
