# generated using pymatgen
data_Fe45Co19
_symmetry_space_group_name_H-M   'P 1'
_cell_length_a   11.41502646
_cell_length_b   11.41619466
_cell_length_c   11.41522731
_cell_angle_alpha   89.99697130
_cell_angle_beta   89.99882099
_cell_angle_gamma   90.00087440
_symmetry_Int_Tables_number   1
_chemical_formula_structural   Fe45Co19
_chemical_formula_sum   'Fe90 Co38'
_cell_volume   1487.58863304
_cell_formula_units_Z   2
loop_
 _symmetry_equiv_pos_site_id
 _symmetry_equiv_pos_as_xyz
  1  'x, y, z'
loop_
 _atom_site_type_symbol
 _atom_site_label
 _atom_site_symmetry_multiplicity
 _atom_site_fract_x
 _atom_site_fract_y
 _atom_site_fract_z
 _atom_site_occupancy
  Fe  Fe0  1  0.74699045  0.50136838  0.24831821  1
  Fe  Fe1  1  0.12669117  0.62527600  0.12452210  1
  Fe  Fe2  1  0.37259876  0.37228436  0.62807141  1
  Fe  Fe3  1  0.24979129  0.75309143  -0.00216608  1
  Fe  Fe4  1  0.62294766  0.37679673  0.37587235  1
  Fe  Fe5  1  0.74842817  0.25121323  0.24801608  1
  Fe  Fe6  1  0.74929415  0.74840600  -0.00076773  1
  Fe  Fe7  1  0.37495302  0.87504844  0.12527706  1
  Fe  Fe8  1  0.24810015  0.24934858  0.24836420  1
  Fe  Fe9  1  0.25052925  -0.00172811  -0.00150816  1
  Fe  Fe10  1  0.37709852  0.37695376  0.12412268  1
  Fe  Fe11  1  0.87552558  0.12624510  0.62531133  1
  Fe  Fe12  1  0.50194994  0.74830020  0.00253811  1
  Fe  Fe13  1  0.62273392  0.37738902  0.87966072  1
  Fe  Fe14  1  0.37568869  0.12369257  0.62521245  1
  Fe  Fe15  1  0.74931056  -0.00264159  0.74979513  1
  Fe  Fe16  1  0.74910407  0.25181248  0.75051693  1
  Fe  Fe17  1  0.37619220  0.87730487  0.37723819  1
  Fe  Fe18  1  0.62499144  0.12599807  0.37504870  1
  Fe  Fe19  1  0.63103238  0.87517481  0.12915948  1
  Fe  Fe20  1  0.62478117  0.12534051  0.87478259  1
  Fe  Fe21  1  0.00000521  0.75010615  -0.00017172  1
  Fe  Fe22  1  0.62567779  0.12549534  0.62472575  1
  Fe  Fe23  1  0.37517799  0.12537024  0.37506003  1
  Fe  Fe24  1  0.24708030  -0.00100046  0.49929030  1
  Fe  Fe25  1  0.49893368  0.75174856  0.74699502  1
  Fe  Fe26  1  0.50063081  0.00005891  0.25080333  1
  Fe  Fe27  1  0.87443412  0.37727452  0.12448070  1
  Fe  Fe28  1  0.50045087  0.74665120  0.25209600  1
  Fe  Fe29  1  0.24989300  0.24924490  -0.00129658  1
  Fe  Fe30  1  0.62125737  0.62178332  0.37931501  1
  Fe  Fe31  1  -0.00121380  -0.00142384  0.24793472  1
  Fe  Fe32  1  0.87489302  0.87311982  0.87433464  1
  Fe  Fe33  1  0.37589178  0.37610482  0.37417000  1
  Fe  Fe34  1  0.00008687  0.50273833  -0.00171286  1
  Fe  Fe35  1  0.74754317  0.25052271  0.00144613  1
  Fe  Fe36  1  0.49992362  -0.00190235  0.74775434  1
  Fe  Fe37  1  0.87539997  0.37679850  0.87437199  1
  Fe  Fe38  1  0.12324481  0.12657131  0.62721909  1
  Fe  Fe39  1  0.24737505  0.49824975  0.50295895  1
  Fe  Fe40  1  0.87320862  0.12441066  0.87458699  1
  Fe  Fe41  1  0.50275360  0.25145642  0.24588119  1
  Fe  Fe42  1  0.87136906  0.12280413  0.12450861  1
  Fe  Fe43  1  0.87594770  0.87141940  0.62467823  1
  Fe  Fe44  1  0.49925101  0.25040797  0.50181983  1
  Fe  Fe45  1  0.12181185  0.37382878  0.37488594  1
  Fe  Fe46  1  0.87809010  0.12604981  0.37658599  1
  Fe  Fe47  1  0.37614278  0.37271314  0.87362246  1
  Fe  Fe48  1  0.49959863  0.50098713  0.74998591  1
  Fe  Fe49  1  0.87787081  0.37548834  0.37514119  1
  Fe  Fe50  1  0.12326789  0.87042507  0.62603489  1
  Fe  Fe51  1  0.37483148  0.62811055  0.87402790  1
  Fe  Fe52  1  0.62411343  0.87334848  0.87474802  1
  Fe  Fe53  1  0.24763641  0.24956644  0.50086915  1
  Fe  Fe54  1  0.37835465  0.12433197  0.87410571  1
  Fe  Fe55  1  0.87586507  0.87424903  0.37580138  1
  Fe  Fe56  1  0.62318910  0.87420652  0.62080908  1
  Fe  Fe57  1  0.00388824  0.50418952  0.74555335  1
  Fe  Fe58  1  0.00125223  0.50092003  0.24914955  1
  Fe  Fe59  1  0.50341822  0.00015850  0.00251308  1
  Fe  Fe60  1  -0.00189200  -0.00241671  0.00193059  1
  Fe  Fe61  1  0.87398969  0.62645803  0.12628310  1
  Fe  Fe62  1  0.12572179  0.37482461  0.87073767  1
  Fe  Fe63  1  0.00033825  0.24951796  0.00023992  1
  Fe  Fe64  1  0.87832339  0.37494913  0.62501911  1
  Fe  Fe65  1  0.25095164  0.75147967  0.25265103  1
  Fe  Fe66  1  0.12409584  0.37526559  0.12393610  1
  Fe  Fe67  1  0.12259706  0.12396413  0.37261679  1
  Fe  Fe68  1  0.12356810  0.12314255  0.87447876  1
  Fe  Fe69  1  0.37405703  0.12381326  0.12555082  1
  Fe  Fe70  1  0.87248277  0.62636366  0.87044663  1
  Fe  Fe71  1  -0.00147019  -0.00164938  0.74960298  1
  Fe  Fe72  1  0.25195031  -0.00523658  0.75126654  1
  Fe  Fe73  1  0.12871845  0.62821867  0.87154940  1
  Fe  Fe74  1  0.12542602  0.62494617  0.37684632  1
  Fe  Fe75  1  0.37346363  0.62683785  0.62336961  1
  Fe  Fe76  1  0.00004857  0.75069752  0.25055338  1
  Fe  Fe77  1  0.75148104  0.25064321  0.50000573  1
  Fe  Fe78  1  0.24982219  0.50001353  0.25033899  1
  Fe  Fe79  1  0.62381815  0.37591085  0.62396508  1
  Fe  Fe80  1  0.75117609  0.50091857  0.50274563  1
  Fe  Fe81  1  0.37353844  0.62474625  0.12621844  1
  Fe  Fe82  1  0.12659113  0.87575929  0.12562154  1
  Fe  Fe83  1  0.25147055  0.75242338  0.49723423  1
  Fe  Fe84  1  0.25126423  0.49966614  -0.00263966  1
  Fe  Fe85  1  0.87680748  0.62249520  0.37682686  1
  Fe  Fe86  1  0.75085807  0.00073400  0.49956844  1
  Fe  Fe87  1  0.74781278  0.50155853  0.74918708  1
  Fe  Fe88  1  0.75010171  0.74739565  0.50039276  1
  Fe  Fe89  1  0.62530341  0.87508334  0.37629389  1
  Co  Co90  1  0.25525662  0.75642363  0.75143096  1
  Co  Co91  1  0.74901992  -0.00254842  -0.00338843  1
  Co  Co92  1  0.25058113  0.24626334  0.75203901  1
  Co  Co93  1  0.87042404  0.87300882  0.12639184  1
  Co  Co94  1  -0.00178019  0.24913255  0.75172299  1
  Co  Co95  1  0.50018883  0.50245284  0.24977409  1
  Co  Co96  1  0.50193274  0.25024211  0.74914831  1
  Co  Co97  1  0.50157823  0.00318965  0.49867440  1
  Co  Co98  1  0.62481242  0.62579875  0.87288148  1
  Co  Co99  1  0.12309713  0.87542858  0.37420734  1
  Co  Co100  1  -0.00153226  0.74762914  0.49842519  1
  Co  Co101  1  0.37350393  0.62187597  0.37633751  1
  Co  Co102  1  0.12265745  0.87495166  0.87449600  1
  Co  Co103  1  0.37953124  0.87552608  0.87856132  1
  Co  Co104  1  0.87364105  0.62671398  0.62628662  1
  Co  Co105  1  0.75217203  0.00106761  0.25522877  1
  Co  Co106  1  0.62567829  0.62331994  0.12376422  1
  Co  Co107  1  0.00096519  -0.00091159  0.50196150  1
  Co  Co108  1  0.62333009  0.62490618  0.62420291  1
  Co  Co109  1  0.49595187  0.49790577  0.50276069  1
  Co  Co110  1  0.37651991  0.87681732  0.61947684  1
  Co  Co111  1  0.25037767  0.50174192  0.74844365  1
  Co  Co112  1  0.00317547  0.50102475  0.50410430  1
  Co  Co113  1  -0.00078468  0.24901107  0.24697030  1
  Co  Co114  1  0.62828390  0.12105164  0.12647040  1
  Co  Co115  1  0.62377858  0.38053607  0.12098898  1
  Co  Co116  1  -0.00005355  0.74797866  0.75127339  1
  Co  Co117  1  0.12525204  0.37114637  0.62875750  1
  Co  Co118  1  0.00125105  0.25094805  0.50107244  1
  Co  Co119  1  0.49888005  0.74821550  0.49800072  1
  Co  Co120  1  0.50093905  0.24771454  0.00283456  1
  Co  Co121  1  0.74887180  0.74569713  0.25467865  1
  Co  Co122  1  0.49660758  0.50432178  -0.00156569  1
  Co  Co123  1  0.75257670  0.50430512  -0.00075268  1
  Co  Co124  1  0.12910436  0.63210486  0.62481752  1
  Co  Co125  1  0.12656323  0.12272526  0.12469075  1
  Co  Co126  1  0.25110881  -0.00115373  0.25186925  1
  Co  Co127  1  0.74684365  0.75165449  0.74765563  1
