# generated using pymatgen
data_Fe45Co19
_symmetry_space_group_name_H-M   'P 1'
_cell_length_a   11.41788367
_cell_length_b   11.41554269
_cell_length_c   11.41511162
_cell_angle_alpha   89.99102633
_cell_angle_beta   90.00000692
_cell_angle_gamma   90.00552890
_symmetry_Int_Tables_number   1
_chemical_formula_structural   Fe45Co19
_chemical_formula_sum   'Fe90 Co38'
_cell_volume   1487.86090230
_cell_formula_units_Z   2
loop_
 _symmetry_equiv_pos_site_id
 _symmetry_equiv_pos_as_xyz
  1  'x, y, z'
loop_
 _atom_site_type_symbol
 _atom_site_label
 _atom_site_symmetry_multiplicity
 _atom_site_fract_x
 _atom_site_fract_y
 _atom_site_fract_z
 _atom_site_occupancy
  Fe  Fe0  1  -0.00228848  0.75026377  0.75085271  1
  Fe  Fe1  1  0.37519328  0.37568971  0.62294393  1
  Fe  Fe2  1  0.24885211  0.50253292  0.00140369  1
  Fe  Fe3  1  0.24970761  0.74846098  0.50045580  1
  Fe  Fe4  1  0.12445087  0.37349959  0.87429147  1
  Fe  Fe5  1  0.12408625  0.87347019  0.87602011  1
  Fe  Fe6  1  0.37797996  0.62057158  0.37722889  1
  Fe  Fe7  1  0.37606924  0.62427049  0.62347900  1
  Fe  Fe8  1  0.00135028  0.50356801  0.00253085  1
  Fe  Fe9  1  0.49891228  0.24863335  -0.00214594  1
  Fe  Fe10  1  0.87614414  0.12178935  0.37457810  1
  Fe  Fe11  1  0.62526859  0.62642878  0.87454009  1
  Fe  Fe12  1  0.62629835  0.12687713  0.12776644  1
  Fe  Fe13  1  0.87501123  0.12294469  0.87699869  1
  Fe  Fe14  1  0.12645698  0.62491045  0.37334572  1
  Fe  Fe15  1  -0.00154862  0.50076321  0.24846823  1
  Fe  Fe16  1  0.37349623  0.12346580  0.37653836  1
  Fe  Fe17  1  0.37408829  0.88069822  0.62356962  1
  Fe  Fe18  1  0.12573246  0.87051326  0.12400924  1
  Fe  Fe19  1  0.37610085  0.62424597  0.87614805  1
  Fe  Fe20  1  0.75351593  0.24987825  0.74923993  1
  Fe  Fe21  1  0.12388959  0.12413764  0.37412918  1
  Fe  Fe22  1  0.24958150  -0.00117553  0.24926952  1
  Fe  Fe23  1  0.87564937  0.37599320  0.87647510  1
  Fe  Fe24  1  0.12148347  0.37431000  0.62361698  1
  Fe  Fe25  1  0.75100158  0.24991574  0.00171323  1
  Fe  Fe26  1  0.24935266  0.49985337  0.74844348  1
  Fe  Fe27  1  0.50045321  0.24667791  0.50094786  1
  Fe  Fe28  1  0.12395118  0.37710340  0.37678461  1
  Fe  Fe29  1  0.12533449  0.62751239  0.87328136  1
  Fe  Fe30  1  0.62565078  0.87953419  0.62534526  1
  Fe  Fe31  1  0.37482021  0.12298497  0.12413667  1
  Fe  Fe32  1  0.37451085  0.87757586  0.37735473  1
  Fe  Fe33  1  0.87373884  0.87648394  0.87884311  1
  Fe  Fe34  1  -0.00087967  0.25031501  0.25021014  1
  Fe  Fe35  1  0.25062129  0.24855003  -0.00243181  1
  Fe  Fe36  1  0.74649288  0.49926447  0.00658235  1
  Fe  Fe37  1  -0.00408939  0.75004628  0.24726396  1
  Fe  Fe38  1  0.00045406  0.00087775  0.74985217  1
  Fe  Fe39  1  0.12449962  0.37456110  0.12559467  1
  Fe  Fe40  1  0.37506340  0.87769273  0.87713761  1
  Fe  Fe41  1  0.87573248  0.12426168  0.62242392  1
  Fe  Fe42  1  0.75321058  -0.00391067  0.24806471  1
  Fe  Fe43  1  0.87308188  0.62443969  0.87666854  1
  Fe  Fe44  1  -0.00070147  0.49996985  0.74852725  1
  Fe  Fe45  1  0.62446240  0.62425584  0.36773456  1
  Fe  Fe46  1  0.74875092  0.75088805  0.49788040  1
  Fe  Fe47  1  0.50130119  0.75089663  0.49911770  1
  Fe  Fe48  1  0.87473010  0.87643577  0.62109125  1
  Fe  Fe49  1  0.24954227  0.25060395  0.49795252  1
  Fe  Fe50  1  0.75118226  0.75163031  0.74971465  1
  Fe  Fe51  1  -0.00113934  -0.00233819  0.24823440  1
  Fe  Fe52  1  0.62733787  0.87691970  0.87247474  1
  Fe  Fe53  1  0.49962118  0.75228227  0.75047352  1
  Fe  Fe54  1  0.74867036  0.74952710  0.00262776  1
  Fe  Fe55  1  0.87654087  0.37675361  0.37804701  1
  Fe  Fe56  1  0.25268521  0.24710241  0.75362833  1
  Fe  Fe57  1  0.87385590  0.62418414  0.62465344  1
  Fe  Fe58  1  0.25169404  0.75094892  0.75052815  1
  Fe  Fe59  1  0.12622520  0.12516019  0.62560394  1
  Fe  Fe60  1  0.87132541  0.62481553  0.37201441  1
  Fe  Fe61  1  0.74990170  0.24891635  0.50055526  1
  Fe  Fe62  1  0.62671451  0.12387936  0.37311347  1
  Fe  Fe63  1  0.62656359  0.12381609  0.87208611  1
  Fe  Fe64  1  0.62230786  0.37612637  0.37342259  1
  Fe  Fe65  1  0.25122904  0.25173081  0.25129730  1
  Fe  Fe66  1  0.50103463  0.50006916  0.74976181  1
  Fe  Fe67  1  0.62535351  0.37308920  0.62628071  1
  Fe  Fe68  1  0.74771377  0.50022658  0.49952519  1
  Fe  Fe69  1  0.25397798  0.49944203  0.24883430  1
  Fe  Fe70  1  0.49587640  0.24633455  0.75042047  1
  Fe  Fe71  1  0.12523772  0.12658952  0.12605988  1
  Fe  Fe72  1  0.00053156  0.74724783  0.50004892  1
  Fe  Fe73  1  0.62521106  0.87547650  0.37461104  1
  Fe  Fe74  1  0.25554737  0.74950904  0.24717671  1
  Fe  Fe75  1  0.75313584  0.25348893  0.24883791  1
  Fe  Fe76  1  0.62244606  0.87114672  0.12751200  1
  Fe  Fe77  1  -0.00035500  0.24905115  0.00062584  1
  Fe  Fe78  1  0.37543076  0.37376310  0.12259898  1
  Fe  Fe79  1  0.49845453  -0.00070970  0.25033673  1
  Fe  Fe80  1  0.62506841  0.62619272  0.62603363  1
  Fe  Fe81  1  0.62433762  0.37338187  0.87440530  1
  Fe  Fe82  1  0.50393527  -0.00022503  0.00045576  1
  Fe  Fe83  1  0.12634045  0.87500613  0.62514894  1
  Fe  Fe84  1  0.74990876  0.49865835  0.74970074  1
  Fe  Fe85  1  0.00041874  0.00090058  0.00291525  1
  Fe  Fe86  1  0.49656595  0.25109390  0.25112593  1
  Fe  Fe87  1  0.12402877  0.87279309  0.37435175  1
  Fe  Fe88  1  0.24726481  0.00030032  -0.00016706  1
  Fe  Fe89  1  0.50362536  0.50103703  0.00336152  1
  Co  Co90  1  0.50120070  0.75107314  -0.00267314  1
  Co  Co91  1  0.12236600  0.12625498  0.87568181  1
  Co  Co92  1  0.87597477  0.37677714  0.62236166  1
  Co  Co93  1  0.74911665  0.00120624  0.49863835  1
  Co  Co94  1  0.62412064  0.63007226  0.13169854  1
  Co  Co95  1  0.00002670  0.24793694  0.49866452  1
  Co  Co96  1  0.12468021  0.62688343  0.62731995  1
  Co  Co97  1  0.75329435  0.00090075  0.74889259  1
  Co  Co98  1  0.62572724  0.12380401  0.62739112  1
  Co  Co99  1  0.00333474  0.00046228  0.50003632  1
  Co  Co100  1  0.37564636  0.37838679  0.87598677  1
  Co  Co101  1  0.49404040  0.75186869  0.25235001  1
  Co  Co102  1  -0.00228700  0.24949271  0.74998416  1
  Co  Co103  1  0.37189733  0.12138029  0.62170838  1
  Co  Co104  1  0.24573911  -0.00056391  0.49671592  1
  Co  Co105  1  -0.00015357  0.74615008  0.00040911  1
  Co  Co106  1  0.12605877  0.62702684  0.12779314  1
  Co  Co107  1  0.62245479  0.36921217  0.12570932  1
  Co  Co108  1  0.87431283  0.12552703  0.12627885  1
  Co  Co109  1  0.74912300  0.49445903  0.24595904  1
  Co  Co110  1  0.87716091  0.87545792  0.37907133  1
  Co  Co111  1  0.37691365  0.37680264  0.37863485  1
  Co  Co112  1  0.37525452  0.87673797  0.12199154  1
  Co  Co113  1  0.37873890  0.62674001  0.12308976  1
  Co  Co114  1  0.24855903  0.00208089  0.75340269  1
  Co  Co115  1  0.74644629  0.00056411  0.00377479  1
  Co  Co116  1  0.49906094  0.00160849  0.74989391  1
  Co  Co117  1  0.25066139  0.74852171  -0.00043060  1
  Co  Co118  1  0.87596728  0.87398185  0.12057543  1
  Co  Co119  1  0.75367077  0.75587834  0.25020879  1
  Co  Co120  1  0.37584507  0.12020944  0.87811243  1
  Co  Co121  1  0.87841449  0.37430327  0.12338807  1
  Co  Co122  1  0.24701276  0.50066287  0.50100695  1
  Co  Co123  1  0.49835228  0.49706849  0.24594310  1
  Co  Co124  1  0.87171470  0.62521463  0.12659098  1
  Co  Co125  1  0.50409418  0.50030740  0.50142979  1
  Co  Co126  1  0.50251405  0.00215813  0.49822229  1
  Co  Co127  1  0.00057070  0.50454145  0.49947611  1
