# generated using pymatgen
data_Fe45Co19
_symmetry_space_group_name_H-M   'P 1'
_cell_length_a   11.41473035
_cell_length_b   11.41467325
_cell_length_c   11.41486532
_cell_angle_alpha   89.99551942
_cell_angle_beta   90.00360732
_cell_angle_gamma   89.99959701
_symmetry_Int_Tables_number   1
_chemical_formula_structural   Fe45Co19
_chemical_formula_sum   'Fe90 Co38'
_cell_volume   1487.30463117
_cell_formula_units_Z   2
loop_
 _symmetry_equiv_pos_site_id
 _symmetry_equiv_pos_as_xyz
  1  'x, y, z'
loop_
 _atom_site_type_symbol
 _atom_site_label
 _atom_site_symmetry_multiplicity
 _atom_site_fract_x
 _atom_site_fract_y
 _atom_site_fract_z
 _atom_site_occupancy
  Fe  Fe0  1  0.25173852  -0.00552609  0.00123774  1
  Fe  Fe1  1  0.74827686  0.49878602  -0.00013271  1
  Fe  Fe2  1  0.37389413  0.12414253  0.87577190  1
  Fe  Fe3  1  0.12995867  0.87202920  0.87134410  1
  Fe  Fe4  1  0.87732918  0.12397539  0.62378315  1
  Fe  Fe5  1  0.49730901  0.50186808  0.74918926  1
  Fe  Fe6  1  0.00321133  -0.00065448  0.74847072  1
  Fe  Fe7  1  0.62283195  0.87745316  0.12734186  1
  Fe  Fe8  1  0.75041823  0.50084715  0.49909484  1
  Fe  Fe9  1  0.37471293  0.37615420  0.87260151  1
  Fe  Fe10  1  0.74849899  -0.00078540  0.50112253  1
  Fe  Fe11  1  0.87764620  0.12645777  0.12345769  1
  Fe  Fe12  1  0.62567502  0.12649073  0.87700461  1
  Fe  Fe13  1  0.62353716  0.12421353  0.12326962  1
  Fe  Fe14  1  0.25244657  0.00206841  0.74320872  1
  Fe  Fe15  1  0.61945461  0.87506368  0.62797784  1
  Fe  Fe16  1  0.87639957  0.37486102  0.37326333  1
  Fe  Fe17  1  0.00073930  0.25030000  0.49848159  1
  Fe  Fe18  1  0.12862362  0.37411840  0.87336452  1
  Fe  Fe19  1  0.87669445  0.87503864  0.12323246  1
  Fe  Fe20  1  0.87565571  0.87502378  0.62690435  1
  Fe  Fe21  1  0.12760248  0.37607705  0.37495302  1
  Fe  Fe22  1  0.12504879  0.12718553  0.12099034  1
  Fe  Fe23  1  0.12489645  0.62540154  0.63005786  1
  Fe  Fe24  1  0.62423844  0.87551511  0.37359180  1
  Fe  Fe25  1  0.87680995  0.87646986  0.37662976  1
  Fe  Fe26  1  0.25211866  0.24763649  0.74629369  1
  Fe  Fe27  1  0.87647180  0.62584903  0.37597256  1
  Fe  Fe28  1  0.87831354  0.37358135  0.12639958  1
  Fe  Fe29  1  0.24905868  0.75113830  0.24704778  1
  Fe  Fe30  1  0.12437317  0.37211583  0.12296182  1
  Fe  Fe31  1  0.00123938  0.74974079  0.25099155  1
  Fe  Fe32  1  0.00111192  0.50075803  0.50270324  1
  Fe  Fe33  1  0.37167212  0.12195521  0.38036128  1
  Fe  Fe34  1  0.25880956  0.74500910  0.75042303  1
  Fe  Fe35  1  0.75127185  0.24802386  0.25090915  1
  Fe  Fe36  1  0.75062981  0.25050811  0.00008521  1
  Fe  Fe37  1  0.12822516  0.12613208  0.87588304  1
  Fe  Fe38  1  0.37317210  0.62273810  0.37412814  1
  Fe  Fe39  1  0.49710980  0.25270027  0.00007910  1
  Fe  Fe40  1  0.37337498  0.87874994  0.37482369  1
  Fe  Fe41  1  0.00200749  -0.00023178  -0.00314494  1
  Fe  Fe42  1  0.25000758  0.50106445  -0.00180415  1
  Fe  Fe43  1  0.12712117  0.37485685  0.62803433  1
  Fe  Fe44  1  0.37352139  0.37683446  0.12904495  1
  Fe  Fe45  1  0.62026424  0.62411042  0.87828947  1
  Fe  Fe46  1  0.25098924  0.49784108  0.50236478  1
  Fe  Fe47  1  0.87528834  0.62498632  0.12292769  1
  Fe  Fe48  1  0.74714307  0.00183078  0.74914430  1
  Fe  Fe49  1  0.87149429  0.37472977  0.87296378  1
  Fe  Fe50  1  0.62131579  0.87546106  0.87196650  1
  Fe  Fe51  1  0.74935072  0.75033105  0.50092529  1
  Fe  Fe52  1  0.24825549  -0.00176690  0.24734094  1
  Fe  Fe53  1  0.12495383  0.62769195  0.12131637  1
  Fe  Fe54  1  0.74714177  0.50040313  0.74971606  1
  Fe  Fe55  1  0.49949321  0.74850427  0.25100681  1
  Fe  Fe56  1  0.87305114  0.12456049  0.87444292  1
  Fe  Fe57  1  0.62243029  0.62398506  0.62194921  1
  Fe  Fe58  1  0.49737278  0.49729353  0.49828486  1
  Fe  Fe59  1  0.12693075  0.62591622  0.37612175  1
  Fe  Fe60  1  0.00074974  0.50058749  -0.00539569  1
  Fe  Fe61  1  0.75099902  0.00170150  0.24987030  1
  Fe  Fe62  1  0.49718529  0.24834393  0.25157268  1
  Fe  Fe63  1  0.25096331  0.75404118  0.50251676  1
  Fe  Fe64  1  0.50062041  0.24950501  0.74944215  1
  Fe  Fe65  1  0.00232450  0.75215663  0.50224405  1
  Fe  Fe66  1  0.37668179  0.62538809  0.12140692  1
  Fe  Fe67  1  0.49823970  -0.00270179  -0.00104826  1
  Fe  Fe68  1  0.62363006  0.37431112  0.12677501  1
  Fe  Fe69  1  0.62369036  0.37615286  0.37406182  1
  Fe  Fe70  1  0.00326596  0.50086633  0.24969658  1
  Fe  Fe71  1  0.00107209  0.00177845  0.25143345  1
  Fe  Fe72  1  0.75003271  0.25007898  0.50083777  1
  Fe  Fe73  1  0.37436298  0.12334509  0.12423803  1
  Fe  Fe74  1  0.62173189  0.62471933  0.12301080  1
  Fe  Fe75  1  0.49839979  0.75140789  0.49951826  1
  Fe  Fe76  1  0.74744345  0.74814850  0.75031738  1
  Fe  Fe77  1  0.62441336  0.12460173  0.37606611  1
  Fe  Fe78  1  -0.00022616  0.24986844  0.75175471  1
  Fe  Fe79  1  0.87351459  0.37467790  0.62650186  1
  Fe  Fe80  1  0.87665329  0.62509963  0.62871275  1
  Fe  Fe81  1  0.12710398  0.12168603  0.38080542  1
  Fe  Fe82  1  0.49663962  0.25371624  0.49896941  1
  Fe  Fe83  1  0.24864381  0.24923609  0.25093891  1
  Fe  Fe84  1  0.74855475  0.50228443  0.25134433  1
  Fe  Fe85  1  0.87223954  0.87584997  0.87419436  1
  Fe  Fe86  1  0.74963598  0.74854056  0.25071622  1
  Fe  Fe87  1  0.74786348  0.75100602  -0.00104042  1
  Fe  Fe88  1  0.62195283  0.12602331  0.62392115  1
  Fe  Fe89  1  0.00074672  0.74918223  -0.00616248  1
  Co  Co90  1  0.25189919  0.25306463  0.50079228  1
  Co  Co91  1  0.12669507  0.87572609  0.37326248  1
  Co  Co92  1  0.37762677  0.12536403  0.62029375  1
  Co  Co93  1  0.00028685  0.49792119  0.75243206  1
  Co  Co94  1  0.49715964  0.74382599  0.74915908  1
  Co  Co95  1  0.49937638  0.49381338  0.00097147  1
  Co  Co96  1  0.50102205  -0.00178863  0.49967608  1
  Co  Co97  1  0.37255731  0.37743389  0.37091482  1
  Co  Co98  1  0.87574112  0.12336742  0.37817038  1
  Co  Co99  1  0.62392941  0.62506038  0.37767475  1
  Co  Co100  1  0.37741613  0.87566668  0.12838829  1
  Co  Co101  1  0.12676955  0.86871148  0.63151519  1
  Co  Co102  1  0.12726450  0.62710331  0.87123389  1
  Co  Co103  1  0.62393803  0.37601472  0.62443887  1
  Co  Co104  1  0.12124107  0.87412689  0.12411231  1
  Co  Co105  1  -0.00100456  0.25017030  -0.00501762  1
  Co  Co106  1  0.50080389  0.50252618  0.25055346  1
  Co  Co107  1  0.87182105  0.62394710  0.87344663  1
  Co  Co108  1  0.25149702  0.75309029  0.00082495  1
  Co  Co109  1  0.37876527  0.62507140  0.88251827  1
  Co  Co110  1  0.25417417  0.50386710  0.75084948  1
  Co  Co111  1  0.37443113  0.37417010  0.62784119  1
  Co  Co112  1  0.49908225  0.75633618  0.00029110  1
  Co  Co113  1  0.74888243  -0.00087012  0.00053074  1
  Co  Co114  1  0.38024474  0.87680940  0.62785434  1
  Co  Co115  1  0.74867562  0.24768874  0.74842533  1
  Co  Co116  1  0.62461643  0.37383017  0.87298950  1
  Co  Co117  1  0.49899402  0.00317509  0.25196823  1
  Co  Co118  1  0.37552737  0.62336623  0.61977050  1
  Co  Co119  1  0.24689626  0.50226906  0.24672719  1
  Co  Co120  1  -0.00292402  0.75047212  0.75324402  1
  Co  Co121  1  0.49922561  0.00508365  0.75151562  1
  Co  Co122  1  0.24748177  -0.00525057  0.50852725  1
  Co  Co123  1  0.25383088  0.25179172  0.00012548  1
  Co  Co124  1  0.00468311  -0.00451941  0.50406841  1
  Co  Co125  1  0.12397166  0.12881453  0.62312368  1
  Co  Co126  1  0.00399478  0.24799498  0.25337514  1
  Co  Co127  1  0.37554397  0.87553765  0.87002490  1
