# generated using pymatgen
data_Fe45Co19
_symmetry_space_group_name_H-M   'P 1'
_cell_length_a   11.41481139
_cell_length_b   11.41591552
_cell_length_c   11.41507221
_cell_angle_alpha   89.99337069
_cell_angle_beta   89.99874836
_cell_angle_gamma   89.99355192
_symmetry_Int_Tables_number   1
_chemical_formula_structural   Fe45Co19
_chemical_formula_sum   'Fe90 Co38'
_cell_volume   1487.50400483
_cell_formula_units_Z   2
loop_
 _symmetry_equiv_pos_site_id
 _symmetry_equiv_pos_as_xyz
  1  'x, y, z'
loop_
 _atom_site_type_symbol
 _atom_site_label
 _atom_site_symmetry_multiplicity
 _atom_site_fract_x
 _atom_site_fract_y
 _atom_site_fract_z
 _atom_site_occupancy
  Fe  Fe0  1  0.37608270  0.87471661  0.37643039  1
  Fe  Fe1  1  0.37316549  0.87196791  0.62586998  1
  Fe  Fe2  1  0.00142240  0.25284856  0.25267238  1
  Fe  Fe3  1  0.25061929  0.74592376  0.49900680  1
  Fe  Fe4  1  0.24849717  0.00000123  -0.00053381  1
  Fe  Fe5  1  0.75448487  -0.00393708  0.74979469  1
  Fe  Fe6  1  0.62556443  0.37614010  0.87809940  1
  Fe  Fe7  1  0.12544718  0.62741666  0.62963869  1
  Fe  Fe8  1  0.49814527  0.74774719  0.75103572  1
  Fe  Fe9  1  0.11918535  0.12077101  0.87192344  1
  Fe  Fe10  1  0.49913920  -0.00210090  0.24818018  1
  Fe  Fe11  1  0.75154064  0.25164077  0.75428967  1
  Fe  Fe12  1  0.00090613  0.74829936  0.49699086  1
  Fe  Fe13  1  0.62753020  0.87101997  0.62634103  1
  Fe  Fe14  1  0.87766647  0.12347212  0.37351612  1
  Fe  Fe15  1  0.37594679  0.12494635  0.87288448  1
  Fe  Fe16  1  0.12477413  0.62820771  0.12658427  1
  Fe  Fe17  1  0.24584515  0.24986073  0.49599525  1
  Fe  Fe18  1  0.24903965  0.25212764  0.75255519  1
  Fe  Fe19  1  0.62380078  0.62100674  0.37079882  1
  Fe  Fe20  1  0.25026984  0.00189162  0.50012111  1
  Fe  Fe21  1  0.49955736  0.74744212  0.00230194  1
  Fe  Fe22  1  0.75149682  0.74748968  -0.00221649  1
  Fe  Fe23  1  0.62591004  0.12713570  0.62916991  1
  Fe  Fe24  1  -0.00009505  -0.00036933  0.50320173  1
  Fe  Fe25  1  0.62815594  0.37502410  0.62364450  1
  Fe  Fe26  1  0.50114884  0.74794808  0.49966347  1
  Fe  Fe27  1  0.12370331  0.37412495  0.12374247  1
  Fe  Fe28  1  0.12203726  0.38027076  0.87383823  1
  Fe  Fe29  1  0.75032879  0.50138208  0.74873313  1
  Fe  Fe30  1  0.74735591  0.74616465  0.49807710  1
  Fe  Fe31  1  0.50188358  0.24735609  -0.00202732  1
  Fe  Fe32  1  0.74939510  0.00179894  0.50214754  1
  Fe  Fe33  1  0.37562087  0.12617950  0.37446299  1
  Fe  Fe34  1  0.62578805  0.87378748  0.12390367  1
  Fe  Fe35  1  0.50092964  0.00238535  0.00026241  1
  Fe  Fe36  1  0.75073438  -0.00042210  0.24750002  1
  Fe  Fe37  1  0.87748226  0.62222458  0.87368236  1
  Fe  Fe38  1  0.37180582  0.37517120  0.62235745  1
  Fe  Fe39  1  0.62490354  0.87578969  0.37508996  1
  Fe  Fe40  1  0.75168585  0.50118899  0.00195547  1
  Fe  Fe41  1  0.24927931  0.50241759  0.00073988  1
  Fe  Fe42  1  -0.00258528  0.25026096  -0.00391134  1
  Fe  Fe43  1  0.87589827  0.62631304  0.12757891  1
  Fe  Fe44  1  0.50111150  0.00097321  0.50236529  1
  Fe  Fe45  1  0.87574763  0.37384938  0.62570114  1
  Fe  Fe46  1  0.24775865  0.74845809  -0.00801522  1
  Fe  Fe47  1  0.24801004  0.25257367  0.25321415  1
  Fe  Fe48  1  0.49964890  0.49827997  0.74788012  1
  Fe  Fe49  1  0.75102849  0.00560373  0.00158276  1
  Fe  Fe50  1  0.87809792  0.12803184  0.62725688  1
  Fe  Fe51  1  0.12240196  0.12663935  0.62685583  1
  Fe  Fe52  1  0.49991994  -0.00024273  0.74980110  1
  Fe  Fe53  1  0.74795597  0.49639064  0.24657706  1
  Fe  Fe54  1  0.50094160  0.25055619  0.50113924  1
  Fe  Fe55  1  0.12513008  0.87656248  0.37648520  1
  Fe  Fe56  1  0.75067792  0.75180447  0.25056918  1
  Fe  Fe57  1  0.50077667  0.25688578  0.24938237  1
  Fe  Fe58  1  0.12436893  0.37547392  0.62447367  1
  Fe  Fe59  1  0.75161765  0.24961051  0.49804803  1
  Fe  Fe60  1  0.37724211  0.62134601  0.37195039  1
  Fe  Fe61  1  0.00147795  -0.00435781  0.24684385  1
  Fe  Fe62  1  0.87533712  0.62294083  0.37237265  1
  Fe  Fe63  1  0.24901837  -0.00063703  0.24848782  1
  Fe  Fe64  1  0.24726330  0.24901141  -0.00369775  1
  Fe  Fe65  1  0.12356350  0.12675475  0.12603449  1
  Fe  Fe66  1  0.87374037  0.62859631  0.62629908  1
  Fe  Fe67  1  0.50115454  0.49981749  0.50122410  1
  Fe  Fe68  1  0.87806228  0.87247119  0.12141798  1
  Fe  Fe69  1  0.62390303  0.62351946  0.87476260  1
  Fe  Fe70  1  0.62461639  0.12555232  0.37302689  1
  Fe  Fe71  1  0.37570761  0.37716467  0.87791844  1
  Fe  Fe72  1  0.37272664  0.87213215  0.12277836  1
  Fe  Fe73  1  -0.00071306  0.50081892  0.50225888  1
  Fe  Fe74  1  0.75310327  0.24592679  -0.00088653  1
  Fe  Fe75  1  0.12727667  0.87129758  0.62673592  1
  Fe  Fe76  1  0.25179141  0.49614160  0.24817055  1
  Fe  Fe77  1  -0.00292958  0.75420377  0.75449427  1
  Fe  Fe78  1  0.37379342  0.12758304  0.62690967  1
  Fe  Fe79  1  0.24964438  -0.00265991  0.75181968  1
  Fe  Fe80  1  0.37422228  0.12786201  0.12546971  1
  Fe  Fe81  1  0.62634889  0.87510788  0.87578880  1
  Fe  Fe82  1  0.74935755  0.25204619  0.24907840  1
  Fe  Fe83  1  0.24909046  0.75189028  0.25207293  1
  Fe  Fe84  1  0.87484144  0.87548536  0.37819831  1
  Fe  Fe85  1  -0.00120046  0.50141959  0.00232806  1
  Fe  Fe86  1  0.12337572  0.62154921  0.37221597  1
  Fe  Fe87  1  0.25184826  0.50270813  0.75015839  1
  Fe  Fe88  1  0.87612090  0.37766880  0.37516461  1
  Fe  Fe89  1  0.49865869  0.50298022  0.00837678  1
  Co  Co90  1  0.24687008  0.50380263  0.50084836  1
  Co  Co91  1  0.12596490  0.87058664  0.12169262  1
  Co  Co92  1  0.87876259  0.12102423  0.87185160  1
  Co  Co93  1  0.25172213  0.74901421  0.75593042  1
  Co  Co94  1  0.00040678  0.49958609  0.24616084  1
  Co  Co95  1  -0.00234765  0.49910738  0.74663667  1
  Co  Co96  1  0.37430331  0.37743587  0.37811158  1
  Co  Co97  1  0.87424475  0.37835153  0.87571315  1
  Co  Co98  1  0.87829100  0.12740318  0.12823612  1
  Co  Co99  1  0.37227025  0.37079057  0.12050650  1
  Co  Co100  1  0.12159429  0.62187100  0.87132211  1
  Co  Co101  1  0.62642974  0.37755141  0.37734365  1
  Co  Co102  1  0.12251319  0.12158022  0.37412039  1
  Co  Co103  1  0.50083668  0.75053588  0.24857274  1
  Co  Co104  1  0.36982560  0.62882382  0.12692912  1
  Co  Co105  1  0.00082060  0.25161518  0.49795944  1
  Co  Co106  1  0.12290851  0.38026562  0.37626940  1
  Co  Co107  1  0.62582696  0.62589824  0.62695385  1
  Co  Co108  1  0.87537487  0.37346131  0.12419196  1
  Co  Co109  1  0.87714211  0.87878432  0.88172049  1
  Co  Co110  1  0.49923073  0.25428042  0.75057675  1
  Co  Co111  1  0.62836219  0.62665710  0.12751287  1
  Co  Co112  1  0.12034898  0.87819424  0.87634842  1
  Co  Co113  1  0.00104194  0.00254597  0.00533862  1
  Co  Co114  1  0.37461598  0.62539022  0.62488947  1
  Co  Co115  1  0.62624464  0.12424525  0.87090477  1
  Co  Co116  1  0.37734648  0.87564364  0.87609360  1
  Co  Co117  1  0.87271875  0.86910467  0.61981063  1
  Co  Co118  1  -0.00044902  0.75194717  0.25116829  1
  Co  Co119  1  0.62367604  0.12666066  0.12820866  1
  Co  Co120  1  0.00084670  0.74497502  -0.00218233  1
  Co  Co121  1  0.62734048  0.37236010  0.11938161  1
  Co  Co122  1  0.00060078  0.25350085  0.75357546  1
  Co  Co123  1  0.37755281  0.62180928  0.87583617  1
  Co  Co124  1  0.75287725  0.50187598  0.50203761  1
  Co  Co125  1  -0.00317570  -0.00594921  0.74392790  1
  Co  Co126  1  0.49928159  0.49656396  0.24357305  1
  Co  Co127  1  0.75264764  0.74988148  0.75474473  1
