# generated using pymatgen
data_Fe45Co19
_symmetry_space_group_name_H-M   'P 1'
_cell_length_a   11.41429695
_cell_length_b   11.41608762
_cell_length_c   11.41558072
_cell_angle_alpha   90.00111291
_cell_angle_beta   90.00528615
_cell_angle_gamma   90.00427411
_symmetry_Int_Tables_number   1
_chemical_formula_structural   Fe45Co19
_chemical_formula_sum   'Fe90 Co38'
_cell_volume   1487.52566105
_cell_formula_units_Z   2
loop_
 _symmetry_equiv_pos_site_id
 _symmetry_equiv_pos_as_xyz
  1  'x, y, z'
loop_
 _atom_site_type_symbol
 _atom_site_label
 _atom_site_symmetry_multiplicity
 _atom_site_fract_x
 _atom_site_fract_y
 _atom_site_fract_z
 _atom_site_occupancy
  Fe  Fe0  1  0.12471859  0.87638024  0.12305636  1
  Fe  Fe1  1  0.37786587  0.87373698  0.12160971  1
  Fe  Fe2  1  0.37822699  0.12196237  0.87687940  1
  Fe  Fe3  1  0.74988986  0.00047513  0.74916622  1
  Fe  Fe4  1  0.74752309  0.75008188  0.25002783  1
  Fe  Fe5  1  0.00055594  0.49811723  0.00018961  1
  Fe  Fe6  1  0.25350769  0.00287521  0.24680789  1
  Fe  Fe7  1  0.62216392  0.62682372  0.62797421  1
  Fe  Fe8  1  0.37657389  0.13069353  0.11865391  1
  Fe  Fe9  1  0.12833426  0.87621371  0.37520889  1
  Fe  Fe10  1  0.62149874  0.87786021  0.12738526  1
  Fe  Fe11  1  0.37392183  0.62608016  0.37730090  1
  Fe  Fe12  1  0.87549325  0.62717053  0.62489368  1
  Fe  Fe13  1  0.61966846  0.12519849  0.62683640  1
  Fe  Fe14  1  0.74662400  0.24798050  0.25029836  1
  Fe  Fe15  1  0.00060545  0.49900840  0.24843422  1
  Fe  Fe16  1  0.00111331  0.00146104  0.50155701  1
  Fe  Fe17  1  0.12607272  0.62193018  0.87534591  1
  Fe  Fe18  1  0.74680310  0.50169060  -0.00097222  1
  Fe  Fe19  1  0.00241545  0.25042807  -0.00192992  1
  Fe  Fe20  1  0.87566587  0.12687200  0.37467952  1
  Fe  Fe21  1  -0.00139805  0.00105268  0.24705484  1
  Fe  Fe22  1  0.12584280  0.37232661  0.37422114  1
  Fe  Fe23  1  0.62363236  0.37613363  0.37468467  1
  Fe  Fe24  1  0.87307570  0.87583502  0.87689653  1
  Fe  Fe25  1  0.62566743  0.87496561  0.62752224  1
  Fe  Fe26  1  0.74691353  0.24915692  0.75116837  1
  Fe  Fe27  1  0.37852336  0.12311948  0.37875185  1
  Fe  Fe28  1  -0.00001553  0.24966359  0.75156249  1
  Fe  Fe29  1  0.00402706  0.75111088  0.50200444  1
  Fe  Fe30  1  0.38024089  0.12805333  0.62574308  1
  Fe  Fe31  1  0.62198229  0.88088457  0.37034353  1
  Fe  Fe32  1  0.25038311  0.24970191  0.50017592  1
  Fe  Fe33  1  0.87383000  0.62657327  0.87567782  1
  Fe  Fe34  1  0.25233914  0.24904961  0.75423313  1
  Fe  Fe35  1  0.25214195  0.75006799  0.24821658  1
  Fe  Fe36  1  0.00127205  0.49781510  0.50014597  1
  Fe  Fe37  1  0.74741333  0.00135676  0.49900153  1
  Fe  Fe38  1  0.87560390  0.87284709  0.12272096  1
  Fe  Fe39  1  0.87587447  0.37223768  0.37517357  1
  Fe  Fe40  1  0.49752741  0.49724237  0.75179085  1
  Fe  Fe41  1  0.12393368  0.12566186  0.37343370  1
  Fe  Fe42  1  0.49674600  0.49845636  0.50279556  1
  Fe  Fe43  1  0.75013139  0.50056933  0.74914466  1
  Fe  Fe44  1  0.49934749  0.75290507  0.49892723  1
  Fe  Fe45  1  0.74236745  0.24826639  -0.00105415  1
  Fe  Fe46  1  0.37442447  0.37457933  0.37557270  1
  Fe  Fe47  1  0.61912488  0.62405427  0.12527727  1
  Fe  Fe48  1  0.87473318  0.62545578  0.37501963  1
  Fe  Fe49  1  0.74875545  0.50036835  0.50168284  1
  Fe  Fe50  1  0.12505777  0.12350772  0.62775351  1
  Fe  Fe51  1  0.50146058  0.75475813  0.75629920  1
  Fe  Fe52  1  0.74720561  0.74989962  0.49970581  1
  Fe  Fe53  1  0.87493951  0.87518257  0.62446440  1
  Fe  Fe54  1  0.87238598  0.37370161  0.87622037  1
  Fe  Fe55  1  0.74437441  0.74834242  -0.00152225  1
  Fe  Fe56  1  0.74584593  0.24813140  0.49918825  1
  Fe  Fe57  1  0.24754233  0.74939534  0.74787031  1
  Fe  Fe58  1  0.74921466  0.50050520  0.24966220  1
  Fe  Fe59  1  0.24970569  0.75086089  -0.00064963  1
  Fe  Fe60  1  0.87346146  0.37351004  0.12384034  1
  Fe  Fe61  1  0.61952114  0.37600804  0.12387801  1
  Fe  Fe62  1  0.74652485  0.00221519  0.00198008  1
  Fe  Fe63  1  0.87518328  0.12579017  0.62467032  1
  Fe  Fe64  1  0.62175865  0.37282206  0.62704031  1
  Fe  Fe65  1  0.37445359  0.87642619  0.37485756  1
  Fe  Fe66  1  0.87386570  0.12687116  0.12392289  1
  Fe  Fe67  1  0.25327309  0.49811887  0.24830861  1
  Fe  Fe68  1  0.00193356  0.74919396  0.24922966  1
  Fe  Fe69  1  0.87446980  0.37257159  0.62418230  1
  Fe  Fe70  1  0.49958552  0.24861708  0.25180271  1
  Fe  Fe71  1  0.12773074  0.12711798  0.12407463  1
  Fe  Fe72  1  0.37893326  0.62501190  0.12299602  1
  Fe  Fe73  1  0.12944148  0.37044160  0.12549625  1
  Fe  Fe74  1  0.37360224  0.87385490  0.62762945  1
  Fe  Fe75  1  0.87576005  0.62709149  0.12350503  1
  Fe  Fe76  1  0.12550636  0.12069567  0.87498673  1
  Fe  Fe77  1  0.25355296  0.49599336  0.00049268  1
  Fe  Fe78  1  0.00208121  0.75188064  0.75103434  1
  Fe  Fe79  1  0.62209836  0.62404484  0.37456760  1
  Fe  Fe80  1  0.87347943  0.12503864  0.87617050  1
  Fe  Fe81  1  0.25161980  0.00004831  0.50364512  1
  Fe  Fe82  1  0.12918731  0.62481171  0.37758380  1
  Fe  Fe83  1  0.37610568  0.62703985  0.87559804  1
  Fe  Fe84  1  -0.00123043  0.49935658  0.75030662  1
  Fe  Fe85  1  0.87492153  0.87488473  0.37504181  1
  Fe  Fe86  1  0.25453017  0.49972256  0.74753610  1
  Fe  Fe87  1  0.12795998  0.37451655  0.62692956  1
  Fe  Fe88  1  0.12768716  0.88074904  0.87450309  1
  Fe  Fe89  1  0.12590632  0.62499685  0.12329266  1
  Co  Co90  1  0.50123158  -0.00232667  -0.00194220  1
  Co  Co91  1  0.12624357  0.87946408  0.62716323  1
  Co  Co92  1  0.62183251  0.12012556  0.37349955  1
  Co  Co93  1  0.12622874  0.37792009  0.87251393  1
  Co  Co94  1  0.62698009  0.37769361  0.87396962  1
  Co  Co95  1  0.49854370  -0.00370108  0.75151613  1
  Co  Co96  1  0.37541273  0.37402793  0.87748025  1
  Co  Co97  1  0.36968599  0.87605211  0.87572755  1
  Co  Co98  1  0.49834490  0.49985942  -0.00369381  1
  Co  Co99  1  0.37530035  0.36914027  0.62663600  1
  Co  Co100  1  0.75363061  0.00098957  0.24897540  1
  Co  Co101  1  0.00306310  0.75060787  -0.00388077  1
  Co  Co102  1  0.00191845  0.24967479  0.50311239  1
  Co  Co103  1  0.25494323  0.24710780  0.25316708  1
  Co  Co104  1  0.37701330  0.36976176  0.12262852  1
  Co  Co105  1  0.62197086  0.12300588  0.12697970  1
  Co  Co106  1  0.62406187  0.62310886  0.87177008  1
  Co  Co107  1  0.25536571  0.00277637  0.74785268  1
  Co  Co108  1  0.49287317  0.00344890  0.24634866  1
  Co  Co109  1  -0.00030869  0.00167595  0.00088350  1
  Co  Co110  1  0.49999963  -0.00351534  0.50431968  1
  Co  Co111  1  0.62321888  0.12118793  0.87166751  1
  Co  Co112  1  0.12526120  0.62213846  0.62414188  1
  Co  Co113  1  0.25058997  0.75150850  0.50425735  1
  Co  Co114  1  0.24830481  0.25120319  -0.00656471  1
  Co  Co115  1  0.50506776  0.25023255  -0.00569111  1
  Co  Co116  1  0.50219434  0.75216390  -0.00454631  1
  Co  Co117  1  0.49673123  0.49903105  0.25108509  1
  Co  Co118  1  0.25411623  0.49811870  0.50311044  1
  Co  Co119  1  0.62901367  0.87913445  0.87509588  1
  Co  Co120  1  0.50144058  0.25189008  0.49769444  1
  Co  Co121  1  0.75060966  0.75038134  0.75063267  1
  Co  Co122  1  0.25223093  0.00043479  0.00253529  1
  Co  Co123  1  0.49839525  0.74955522  0.25158503  1
  Co  Co124  1  0.37842057  0.62913312  0.62674151  1
  Co  Co125  1  -0.00365053  0.00000248  0.75103822  1
  Co  Co126  1  0.50017221  0.25108436  0.75611303  1
  Co  Co127  1  -0.00077235  0.24962469  0.24668951  1
