# generated using pymatgen
data_Fe45Co19
_symmetry_space_group_name_H-M   'P 1'
_cell_length_a   11.41540885
_cell_length_b   11.41550093
_cell_length_c   11.41568292
_cell_angle_alpha   89.99382853
_cell_angle_beta   89.99234027
_cell_angle_gamma   89.99798026
_symmetry_Int_Tables_number   1
_chemical_formula_structural   Fe45Co19
_chemical_formula_sum   'Fe90 Co38'
_cell_volume   1487.60741727
_cell_formula_units_Z   2
loop_
 _symmetry_equiv_pos_site_id
 _symmetry_equiv_pos_as_xyz
  1  'x, y, z'
loop_
 _atom_site_type_symbol
 _atom_site_label
 _atom_site_symmetry_multiplicity
 _atom_site_fract_x
 _atom_site_fract_y
 _atom_site_fract_z
 _atom_site_occupancy
  Fe  Fe0  1  0.50148844  0.25079276  0.24714340  1
  Fe  Fe1  1  0.12605801  0.37690734  0.12383940  1
  Fe  Fe2  1  0.74615628  0.25706627  -0.00385435  1
  Fe  Fe3  1  0.24643100  0.50070150  0.25347947  1
  Fe  Fe4  1  0.87538919  0.87446497  0.12558793  1
  Fe  Fe5  1  -0.00143338  0.50279281  0.75275837  1
  Fe  Fe6  1  0.75030248  0.25092803  0.49900937  1
  Fe  Fe7  1  0.37363388  0.62665863  0.37517400  1
  Fe  Fe8  1  0.49991783  0.74880450  0.50364650  1
  Fe  Fe9  1  0.00281906  0.74829741  0.75033019  1
  Fe  Fe10  1  0.87698973  0.12994625  0.87723581  1
  Fe  Fe11  1  0.37471106  0.87478715  0.62812794  1
  Fe  Fe12  1  0.87479472  0.12642087  0.12083186  1
  Fe  Fe13  1  0.00096624  0.74620627  0.24700698  1
  Fe  Fe14  1  0.00006692  0.00079249  0.75334675  1
  Fe  Fe15  1  0.49974789  0.49586313  0.00266214  1
  Fe  Fe16  1  0.12677383  0.37795470  0.62483174  1
  Fe  Fe17  1  0.49806995  0.50412794  0.74727576  1
  Fe  Fe18  1  0.75135896  -0.00135443  -0.00298071  1
  Fe  Fe19  1  0.74945716  0.74760875  0.24906536  1
  Fe  Fe20  1  0.37260565  0.12412810  0.62563162  1
  Fe  Fe21  1  0.12240239  0.87177926  0.37409250  1
  Fe  Fe22  1  0.50091111  0.74756304  -0.00019047  1
  Fe  Fe23  1  0.87933929  0.62356764  0.37592772  1
  Fe  Fe24  1  0.75223349  0.49888596  0.49935715  1
  Fe  Fe25  1  0.62674233  0.12603335  0.12323782  1
  Fe  Fe26  1  0.74931079  0.00153172  0.25135114  1
  Fe  Fe27  1  0.75048565  0.75114148  0.50159860  1
  Fe  Fe28  1  0.37214008  0.62305744  0.12282470  1
  Fe  Fe29  1  0.12148061  0.12187496  0.11895504  1
  Fe  Fe30  1  0.25090945  0.25021989  -0.00089864  1
  Fe  Fe31  1  0.12601893  0.12241212  0.62634393  1
  Fe  Fe32  1  0.49859814  0.00193176  -0.00140270  1
  Fe  Fe33  1  0.50157553  0.74660941  0.74944901  1
  Fe  Fe34  1  0.87078467  0.62220419  0.12074182  1
  Fe  Fe35  1  0.12865181  0.62263338  0.62426876  1
  Fe  Fe36  1  0.62955061  0.62008288  0.12275592  1
  Fe  Fe37  1  0.62391966  0.37560670  0.37436560  1
  Fe  Fe38  1  -0.00029971  0.00054777  0.24830978  1
  Fe  Fe39  1  0.49624734  0.50202901  0.50155717  1
  Fe  Fe40  1  0.88060969  0.37740403  0.37333292  1
  Fe  Fe41  1  0.87341948  0.12397968  0.62560235  1
  Fe  Fe42  1  0.62874005  0.12245151  0.62575953  1
  Fe  Fe43  1  -0.00000263  0.74946672  -0.00140565  1
  Fe  Fe44  1  0.62522161  0.37830588  0.62738959  1
  Fe  Fe45  1  0.87630414  0.87417557  0.37480235  1
  Fe  Fe46  1  0.00096022  -0.00158983  0.50079463  1
  Fe  Fe47  1  0.50008280  0.24930716  0.50209336  1
  Fe  Fe48  1  0.50151326  0.00106159  0.49907539  1
  Fe  Fe49  1  0.62620724  0.87484258  0.87401459  1
  Fe  Fe50  1  0.37719101  0.87563573  0.37252138  1
  Fe  Fe51  1  0.12302180  0.37529813  0.87506934  1
  Fe  Fe52  1  0.37994305  0.37119646  0.87375376  1
  Fe  Fe53  1  0.87391148  0.87709023  0.62666534  1
  Fe  Fe54  1  0.00314584  0.24794900  0.75014218  1
  Fe  Fe55  1  0.37440206  0.37343112  0.37294664  1
  Fe  Fe56  1  0.24953004  0.75167575  0.24562628  1
  Fe  Fe57  1  0.24878120  0.74929777  0.75204403  1
  Fe  Fe58  1  0.62447586  0.62468236  0.37718102  1
  Fe  Fe59  1  0.49861537  0.00319118  0.75201352  1
  Fe  Fe60  1  0.87217642  0.86965956  0.87299076  1
  Fe  Fe61  1  0.24715579  0.24957605  0.24919843  1
  Fe  Fe62  1  -0.00304061  0.49966270  -0.00290914  1
  Fe  Fe63  1  0.87316437  0.37731737  0.12652816  1
  Fe  Fe64  1  0.24873752  -0.00263121  0.50071365  1
  Fe  Fe65  1  0.00159443  0.25055635  0.50137099  1
  Fe  Fe66  1  0.87548886  0.37445480  0.62778785  1
  Fe  Fe67  1  0.24872315  0.25158831  0.49889428  1
  Fe  Fe68  1  0.00072859  0.24990526  0.24744625  1
  Fe  Fe69  1  0.24956740  0.75136969  0.50066929  1
  Fe  Fe70  1  0.87292779  0.62483283  0.62724946  1
  Fe  Fe71  1  0.87597620  0.12462866  0.37665864  1
  Fe  Fe72  1  0.62417149  0.87505314  0.37369232  1
  Fe  Fe73  1  0.74689585  0.25121357  0.75279124  1
  Fe  Fe74  1  0.62693276  0.87764588  0.62737903  1
  Fe  Fe75  1  0.63021293  0.62298599  0.87534618  1
  Fe  Fe76  1  0.37604763  0.12546707  0.12475549  1
  Fe  Fe77  1  0.12789122  0.62419957  0.11920599  1
  Fe  Fe78  1  0.75075502  0.25038661  0.25221572  1
  Fe  Fe79  1  0.12451416  0.12472213  0.37479451  1
  Fe  Fe80  1  0.37301697  0.37640811  0.62632572  1
  Fe  Fe81  1  0.50023002  0.74777957  0.24716835  1
  Fe  Fe82  1  0.49976653  0.49988979  0.24851931  1
  Fe  Fe83  1  0.37364428  0.87506428  0.87609712  1
  Fe  Fe84  1  0.24961693  -0.00354775  0.24541809  1
  Fe  Fe85  1  0.62285379  0.87563294  0.12539990  1
  Fe  Fe86  1  0.24953246  0.24845873  0.75226219  1
  Fe  Fe87  1  0.37170419  0.62426650  0.87673865  1
  Fe  Fe88  1  0.37501425  0.12404022  0.37368779  1
  Fe  Fe89  1  0.12778084  0.87805686  0.87794771  1
  Co  Co90  1  0.37087683  0.37623787  0.12757379  1
  Co  Co91  1  0.00090134  0.25475372  0.00188184  1
  Co  Co92  1  0.25096357  0.49821336  0.75393558  1
  Co  Co93  1  0.50148105  0.00228070  0.24969479  1
  Co  Co94  1  0.62236922  0.12762743  0.87727507  1
  Co  Co95  1  0.12673791  0.62410786  0.87767605  1
  Co  Co96  1  0.25202773  0.49518687  -0.00406069  1
  Co  Co97  1  0.75218635  0.00254986  0.75598042  1
  Co  Co98  1  0.74779634  0.75301286  0.00288100  1
  Co  Co99  1  0.37687661  0.12916061  0.87605507  1
  Co  Co100  1  0.25383688  0.00052001  0.00227674  1
  Co  Co101  1  0.50137249  0.25406873  0.00633572  1
  Co  Co102  1  0.25143950  0.75290008  0.00127033  1
  Co  Co103  1  0.50114588  0.24579969  0.74450895  1
  Co  Co104  1  0.12312173  0.62800913  0.37773613  1
  Co  Co105  1  0.12508434  0.87563176  0.62766710  1
  Co  Co106  1  0.62955902  0.37780858  0.12872316  1
  Co  Co107  1  -0.00530632  -0.00333498  -0.00342326  1
  Co  Co108  1  0.61672379  0.37581611  0.86996679  1
  Co  Co109  1  0.75167593  0.49264860  -0.00739623  1
  Co  Co110  1  0.00051609  0.49934369  0.50337343  1
  Co  Co111  1  0.25064610  0.49873796  0.49590859  1
  Co  Co112  1  0.74664701  0.74959389  0.74661350  1
  Co  Co113  1  0.00299908  0.50268010  0.24600708  1
  Co  Co114  1  0.87084250  0.62982601  0.87573971  1
  Co  Co115  1  0.12401468  0.12340773  0.87926429  1
  Co  Co116  1  0.75259066  0.49761664  0.75444005  1
  Co  Co117  1  0.87909221  0.37112623  0.87157845  1
  Co  Co118  1  0.36941137  0.62600911  0.62551692  1
  Co  Co119  1  0.62795121  0.62215688  0.62433034  1
  Co  Co120  1  0.38050020  0.87369579  0.12301411  1
  Co  Co121  1  0.12102132  0.37467100  0.37479768  1
  Co  Co122  1  0.25069094  0.00245653  0.75184702  1
  Co  Co123  1  -0.00099957  0.75002085  0.50426712  1
  Co  Co124  1  0.74980052  -0.00065437  0.49739240  1
  Co  Co125  1  0.62412912  0.12763071  0.37509952  1
  Co  Co126  1  0.75098472  0.50211049  0.25408654  1
  Co  Co127  1  0.12112984  0.87546834  0.12160410  1
