# generated using pymatgen
data_Fe45Co19
_symmetry_space_group_name_H-M   'P 1'
_cell_length_a   11.41641920
_cell_length_b   11.41616958
_cell_length_c   11.41567027
_cell_angle_alpha   90.00169029
_cell_angle_beta   89.99573525
_cell_angle_gamma   89.99517493
_symmetry_Int_Tables_number   1
_chemical_formula_structural   Fe45Co19
_chemical_formula_sum   'Fe90 Co38'
_cell_volume   1487.82458786
_cell_formula_units_Z   2
loop_
 _symmetry_equiv_pos_site_id
 _symmetry_equiv_pos_as_xyz
  1  'x, y, z'
loop_
 _atom_site_type_symbol
 _atom_site_label
 _atom_site_symmetry_multiplicity
 _atom_site_fract_x
 _atom_site_fract_y
 _atom_site_fract_z
 _atom_site_occupancy
  Fe  Fe0  1  0.62372938  0.62587753  0.12503450  1
  Fe  Fe1  1  0.62410597  0.62264210  0.62539948  1
  Fe  Fe2  1  0.37384269  0.37360611  0.37199843  1
  Fe  Fe3  1  0.62494134  0.87516597  0.87556981  1
  Fe  Fe4  1  0.87775964  0.12640266  0.37365535  1
  Fe  Fe5  1  0.74988405  0.25021339  -0.00145996  1
  Fe  Fe6  1  0.37667111  0.62230795  0.87902702  1
  Fe  Fe7  1  0.87526815  0.62387869  0.12382662  1
  Fe  Fe8  1  0.12764187  0.37546879  0.62544399  1
  Fe  Fe9  1  0.75313694  0.00130342  -0.00244165  1
  Fe  Fe10  1  0.37418723  0.62490836  0.62274221  1
  Fe  Fe11  1  0.87632705  0.62471926  0.87688169  1
  Fe  Fe12  1  0.25144298  0.24727259  0.49973450  1
  Fe  Fe13  1  0.25181759  0.74950695  0.75246498  1
  Fe  Fe14  1  0.87579427  0.12763905  0.62720536  1
  Fe  Fe15  1  0.49752842  0.25332688  0.00313567  1
  Fe  Fe16  1  0.37795787  0.12536652  0.87564341  1
  Fe  Fe17  1  0.12329916  0.62385370  0.62231123  1
  Fe  Fe18  1  0.12683336  0.37458475  0.87344511  1
  Fe  Fe19  1  0.62311120  0.12527731  0.12595570  1
  Fe  Fe20  1  0.74826573  0.24950213  0.49931084  1
  Fe  Fe21  1  0.49921525  0.25043282  0.49964170  1
  Fe  Fe22  1  0.62252770  0.62734790  0.37485098  1
  Fe  Fe23  1  0.25239072  0.50124926  0.75158203  1
  Fe  Fe24  1  0.37306773  0.62459126  0.12410884  1
  Fe  Fe25  1  0.62148212  0.37665351  0.87204235  1
  Fe  Fe26  1  -0.00028698  -0.00166518  0.50034989  1
  Fe  Fe27  1  0.12454970  0.62585284  0.87595283  1
  Fe  Fe28  1  0.87593367  0.87551090  0.37283762  1
  Fe  Fe29  1  -0.00107026  0.49997410  0.74833980  1
  Fe  Fe30  1  0.75012807  0.75021214  0.25021625  1
  Fe  Fe31  1  0.62547767  0.87586101  0.62380100  1
  Fe  Fe32  1  0.00127450  0.75341237  0.00050458  1
  Fe  Fe33  1  0.00244627  0.49631496  0.00089380  1
  Fe  Fe34  1  0.12139368  0.62741575  0.37738988  1
  Fe  Fe35  1  0.49973235  0.49913658  0.49967516  1
  Fe  Fe36  1  0.62179448  0.12494051  0.62626113  1
  Fe  Fe37  1  0.24951467  0.75158075  0.49926786  1
  Fe  Fe38  1  0.37583702  0.12228491  0.37141605  1
  Fe  Fe39  1  0.49900971  -0.00418997  0.00205859  1
  Fe  Fe40  1  0.74973611  0.74934438  0.00010731  1
  Fe  Fe41  1  0.24984635  0.50073174  0.49672358  1
  Fe  Fe42  1  0.37365510  0.37393581  0.62608216  1
  Fe  Fe43  1  0.87455649  0.37208999  0.37215362  1
  Fe  Fe44  1  0.49913507  0.75833593  0.24910310  1
  Fe  Fe45  1  0.37777230  0.62786044  0.37567842  1
  Fe  Fe46  1  0.87523777  0.37168779  0.87180039  1
  Fe  Fe47  1  0.00158445  0.50083333  0.25048284  1
  Fe  Fe48  1  0.12457253  0.12421793  0.62404939  1
  Fe  Fe49  1  0.00070972  0.25160990  0.50086459  1
  Fe  Fe50  1  0.62226344  0.12750423  0.37091135  1
  Fe  Fe51  1  0.25246975  0.00223683  0.75176607  1
  Fe  Fe52  1  0.12509177  0.87377371  0.37309113  1
  Fe  Fe53  1  0.25004333  -0.00322257  -0.00312204  1
  Fe  Fe54  1  0.24939938  0.25180399  0.00159366  1
  Fe  Fe55  1  0.12042753  0.12475882  0.87890461  1
  Fe  Fe56  1  0.62448554  0.37659159  0.62750471  1
  Fe  Fe57  1  -0.00272340  0.00074150  0.75369552  1
  Fe  Fe58  1  0.87517542  0.37384906  0.12776617  1
  Fe  Fe59  1  0.37512768  0.87715779  0.62462678  1
  Fe  Fe60  1  0.62120581  0.12573468  0.87519329  1
  Fe  Fe61  1  0.49720924  0.75418861  0.00299200  1
  Fe  Fe62  1  0.87345509  0.87498215  0.62676474  1
  Fe  Fe63  1  0.62688014  0.37396394  0.12847539  1
  Fe  Fe64  1  0.25165255  0.24636361  0.75044139  1
  Fe  Fe65  1  0.50051059  -0.00183328  0.49773234  1
  Fe  Fe66  1  0.12809219  0.62512552  0.12425688  1
  Fe  Fe67  1  0.00463275  0.00310930  0.24774187  1
  Fe  Fe68  1  0.24932036  0.00041027  0.49893452  1
  Fe  Fe69  1  0.49890493  0.75053049  0.74913293  1
  Fe  Fe70  1  0.75161595  0.74911181  0.50033337  1
  Fe  Fe71  1  0.74868005  0.49841471  -0.00069481  1
  Fe  Fe72  1  0.75064884  0.00235172  0.49875493  1
  Fe  Fe73  1  0.50016930  0.49842021  0.24954593  1
  Fe  Fe74  1  0.74770671  0.00139068  0.24945906  1
  Fe  Fe75  1  0.87366252  0.37384813  0.62753327  1
  Fe  Fe76  1  -0.00099043  0.74972443  0.74907902  1
  Fe  Fe77  1  0.13000100  0.87408171  0.12501916  1
  Fe  Fe78  1  0.87351968  0.87504943  0.12553947  1
  Fe  Fe79  1  0.62184666  0.62198448  0.87637256  1
  Fe  Fe80  1  0.75072878  0.74635962  0.74991567  1
  Fe  Fe81  1  0.75061233  0.49993737  0.49851393  1
  Fe  Fe82  1  0.75048629  0.00326110  0.75296265  1
  Fe  Fe83  1  0.12712721  0.37224464  0.37111036  1
  Fe  Fe84  1  0.12610543  0.87626539  0.62892241  1
  Fe  Fe85  1  0.87879403  0.12673666  0.12169220  1
  Fe  Fe86  1  0.37466861  0.12011454  0.12799327  1
  Fe  Fe87  1  0.74913977  0.50143163  0.25181552  1
  Fe  Fe88  1  0.36837338  0.37821709  0.12740829  1
  Fe  Fe89  1  0.87952731  0.62679046  0.37735431  1
  Co  Co90  1  0.24744885  0.49978373  -0.00161101  1
  Co  Co91  1  0.00049203  0.49448272  0.49903650  1
  Co  Co92  1  0.75232386  0.50209936  0.75117992  1
  Co  Co93  1  0.62488190  0.37328092  0.37345417  1
  Co  Co94  1  0.24932672  0.50546171  0.25448520  1
  Co  Co95  1  0.00388544  0.24915259  0.74882444  1
  Co  Co96  1  0.37640494  0.12331269  0.62327514  1
  Co  Co97  1  0.87295971  0.87228309  0.87448902  1
  Co  Co98  1  0.00450760  0.24636007  0.24748288  1
  Co  Co99  1  0.37648491  0.87582043  0.87373040  1
  Co  Co100  1  0.37213521  0.87739820  0.37469585  1
  Co  Co101  1  0.25115353  0.75102449  -0.00293692  1
  Co  Co102  1  0.62832078  0.87407219  0.37769069  1
  Co  Co103  1  0.87912691  0.12944307  0.87702713  1
  Co  Co104  1  0.12429252  0.12678207  0.37981700  1
  Co  Co105  1  0.49674790  0.25180377  0.24655399  1
  Co  Co106  1  0.37450935  0.37496749  0.87550824  1
  Co  Co107  1  0.00207369  0.25625683  0.00249729  1
  Co  Co108  1  0.00077249  0.74999069  0.24658047  1
  Co  Co109  1  0.49977293  -0.00088492  0.74983441  1
  Co  Co110  1  0.12568820  0.87470894  0.87241053  1
  Co  Co111  1  0.24776453  0.24315940  0.24768604  1
  Co  Co112  1  0.50343438  -0.00665369  0.24946838  1
  Co  Co113  1  0.24413450  0.00424955  0.25163537  1
  Co  Co114  1  0.49942250  0.75174510  0.50164375  1
  Co  Co115  1  0.50045588  0.49642488  0.00395181  1
  Co  Co116  1  0.62946194  0.87564239  0.12215228  1
  Co  Co117  1  0.12907966  0.37751180  0.12983017  1
  Co  Co118  1  0.74627759  0.24723960  0.75124856  1
  Co  Co119  1  0.25155398  0.74740193  0.25240425  1
  Co  Co120  1  -0.00120605  -0.00629737  -0.00058019  1
  Co  Co121  1  0.49763655  0.24997591  0.74944940  1
  Co  Co122  1  0.87842214  0.62395530  0.62143806  1
  Co  Co123  1  0.12434943  0.12315826  0.11682086  1
  Co  Co124  1  0.75074119  0.24680534  0.24895954  1
  Co  Co125  1  0.36802768  0.87810159  0.12817327  1
  Co  Co126  1  0.49551797  0.50048848  0.74900073  1
  Co  Co127  1  0.00079930  0.75559757  0.50253853  1
