# generated using pymatgen
data_Fe45Co19
_symmetry_space_group_name_H-M   'P 1'
_cell_length_a   11.41555311
_cell_length_b   11.41381141
_cell_length_c   11.41371011
_cell_angle_alpha   90.00613556
_cell_angle_beta   90.00146987
_cell_angle_gamma   89.99864539
_symmetry_Int_Tables_number   1
_chemical_formula_structural   Fe45Co19
_chemical_formula_sum   'Fe90 Co38'
_cell_volume   1487.14901054
_cell_formula_units_Z   2
loop_
 _symmetry_equiv_pos_site_id
 _symmetry_equiv_pos_as_xyz
  1  'x, y, z'
loop_
 _atom_site_type_symbol
 _atom_site_label
 _atom_site_symmetry_multiplicity
 _atom_site_fract_x
 _atom_site_fract_y
 _atom_site_fract_z
 _atom_site_occupancy
  Fe  Fe0  1  -0.00161095  0.74703982  0.50161511  1
  Fe  Fe1  1  0.75424711  0.49511360  0.50180692  1
  Fe  Fe2  1  0.37403229  0.37590418  0.12508796  1
  Fe  Fe3  1  0.25323726  0.25016706  0.50040417  1
  Fe  Fe4  1  0.74909904  0.00058528  0.74730133  1
  Fe  Fe5  1  0.49884331  0.74955711  0.25205444  1
  Fe  Fe6  1  0.49760366  0.25216479  0.25268088  1
  Fe  Fe7  1  0.75090115  0.49912214  0.00153004  1
  Fe  Fe8  1  0.62338883  0.87573689  0.12447362  1
  Fe  Fe9  1  0.00091109  0.49859181  -0.00024108  1
  Fe  Fe10  1  0.87510194  0.87647302  0.87584056  1
  Fe  Fe11  1  0.50535821  0.00257319  0.49704976  1
  Fe  Fe12  1  0.37859451  0.12473983  0.62501917  1
  Fe  Fe13  1  0.87227981  0.12494694  0.62381321  1
  Fe  Fe14  1  0.74923392  0.74772030  -0.00007677  1
  Fe  Fe15  1  0.87757046  0.37455624  0.12765925  1
  Fe  Fe16  1  0.75057593  0.25023449  0.00134577  1
  Fe  Fe17  1  0.12548634  0.62715824  0.12709119  1
  Fe  Fe18  1  0.74658691  0.25163172  0.74822536  1
  Fe  Fe19  1  0.37717306  0.87328485  0.87773338  1
  Fe  Fe20  1  0.75034549  0.74926560  0.25035522  1
  Fe  Fe21  1  0.12514315  0.12579878  0.37657279  1
  Fe  Fe22  1  0.12432469  0.62566379  0.87256005  1
  Fe  Fe23  1  0.62421834  0.62283780  0.12705826  1
  Fe  Fe24  1  0.12492023  0.12795820  0.62378828  1
  Fe  Fe25  1  0.75128926  0.25016611  0.24900815  1
  Fe  Fe26  1  0.12362662  0.87263998  0.62526964  1
  Fe  Fe27  1  0.25082637  0.49893815  0.74769100  1
  Fe  Fe28  1  0.50229832  0.00087636  0.25169527  1
  Fe  Fe29  1  -0.00453819  0.25360716  0.49909000  1
  Fe  Fe30  1  0.49907384  0.50018953  0.49975840  1
  Fe  Fe31  1  0.62711724  0.62329852  0.37542610  1
  Fe  Fe32  1  0.24855542  0.50036730  -0.00020960  1
  Fe  Fe33  1  0.25146043  0.00144842  -0.00058887  1
  Fe  Fe34  1  0.24968290  0.00004745  0.50068302  1
  Fe  Fe35  1  0.24910772  0.49950091  0.25064071  1
  Fe  Fe36  1  0.12363726  0.37531674  0.37653205  1
  Fe  Fe37  1  0.37478308  0.62531893  0.12509472  1
  Fe  Fe38  1  0.24932207  0.25132301  0.25118678  1
  Fe  Fe39  1  0.24984742  0.24978647  0.00087666  1
  Fe  Fe40  1  0.74917133  0.00296579  0.00325561  1
  Fe  Fe41  1  0.87081789  0.12429582  0.37487514  1
  Fe  Fe42  1  0.75196136  0.75058268  0.50140792  1
  Fe  Fe43  1  0.37451049  0.12396080  0.37402832  1
  Fe  Fe44  1  0.62421122  0.37557726  0.12542193  1
  Fe  Fe45  1  0.37308135  0.62367009  0.37426187  1
  Fe  Fe46  1  0.75115410  0.75015046  0.74786471  1
  Fe  Fe47  1  -0.00146492  0.74964502  0.25181465  1
  Fe  Fe48  1  0.12341070  0.12539959  0.12473364  1
  Fe  Fe49  1  0.24969936  0.00184114  0.74934409  1
  Fe  Fe50  1  0.00297574  0.49922159  0.74445248  1
  Fe  Fe51  1  0.87596613  0.62366242  0.12570687  1
  Fe  Fe52  1  0.87559462  0.62079933  0.37540172  1
  Fe  Fe53  1  0.12597384  0.87314831  0.12552938  1
  Fe  Fe54  1  0.87441269  0.62271127  0.87165864  1
  Fe  Fe55  1  0.87461751  0.87577520  0.12415902  1
  Fe  Fe56  1  0.87561930  0.12472045  0.87706985  1
  Fe  Fe57  1  0.50079130  0.25486571  0.75092703  1
  Fe  Fe58  1  0.37465819  0.12698139  0.87421557  1
  Fe  Fe59  1  0.00104774  0.25106292  -0.00054787  1
  Fe  Fe60  1  0.25038612  0.74986134  0.49750345  1
  Fe  Fe61  1  0.62452482  0.12565923  0.87602121  1
  Fe  Fe62  1  0.25154292  0.75029211  0.74996624  1
  Fe  Fe63  1  0.12409600  0.87566017  0.87480431  1
  Fe  Fe64  1  0.87408227  0.37562454  0.87216910  1
  Fe  Fe65  1  0.50110608  -0.00054126  0.75105063  1
  Fe  Fe66  1  0.24678858  0.50096776  0.50188680  1
  Fe  Fe67  1  0.12808329  0.37268719  0.87271563  1
  Fe  Fe68  1  0.74464016  0.49686920  0.74641374  1
  Fe  Fe69  1  0.50014874  0.49924064  -0.00126525  1
  Fe  Fe70  1  0.62531775  0.87457038  0.62331377  1
  Fe  Fe71  1  0.49916261  0.24985561  0.00040317  1
  Fe  Fe72  1  0.12454202  0.87396578  0.37463288  1
  Fe  Fe73  1  0.37677110  0.62441290  0.87428439  1
  Fe  Fe74  1  0.87174869  0.87830382  0.37635092  1
  Fe  Fe75  1  0.37649222  0.87552507  0.62248182  1
  Fe  Fe76  1  -0.00164176  0.00157811  0.24974305  1
  Fe  Fe77  1  0.00125754  0.49896580  0.25086017  1
  Fe  Fe78  1  0.37631269  0.37566744  0.62452418  1
  Fe  Fe79  1  0.49974847  0.74886019  0.49859551  1
  Fe  Fe80  1  0.00178996  0.24865370  0.74988376  1
  Fe  Fe81  1  0.37638295  0.87369160  0.12278407  1
  Fe  Fe82  1  0.62545869  0.37396086  0.37642277  1
  Fe  Fe83  1  0.00054184  0.00118678  0.74959290  1
  Fe  Fe84  1  0.62483719  0.62342195  0.87396030  1
  Fe  Fe85  1  0.50083801  0.74732738  0.74764918  1
  Fe  Fe86  1  0.00046723  0.74928588  -0.00202880  1
  Fe  Fe87  1  0.62435010  0.87491183  0.87735688  1
  Fe  Fe88  1  0.25044527  -0.00164659  0.25092484  1
  Fe  Fe89  1  -0.00077925  0.00043677  0.50077975  1
  Co  Co90  1  0.87575939  0.37571850  0.37097007  1
  Co  Co91  1  0.50162685  0.49847355  0.74978640  1
  Co  Co92  1  0.49759178  0.24895960  0.49696925  1
  Co  Co93  1  0.62282670  0.12797755  0.62562130  1
  Co  Co94  1  0.74590259  0.00168559  0.50169764  1
  Co  Co95  1  0.87385433  0.62273526  0.62680187  1
  Co  Co96  1  0.87756532  0.12651789  0.12489146  1
  Co  Co97  1  0.62138325  0.37394592  0.62017867  1
  Co  Co98  1  0.37471565  0.12573483  0.12779830  1
  Co  Co99  1  0.37610427  0.87757959  0.37719532  1
  Co  Co100  1  0.00141303  0.24814685  0.25247808  1
  Co  Co101  1  0.37435598  0.62456552  0.62426210  1
  Co  Co102  1  0.37280880  0.37503941  0.87548911  1
  Co  Co103  1  0.50196145  0.74681489  0.00009355  1
  Co  Co104  1  0.62573506  0.37563538  0.87826179  1
  Co  Co105  1  0.12421053  0.62456673  0.37434519  1
  Co  Co106  1  0.25337107  0.75139027  0.25228832  1
  Co  Co107  1  0.12536250  0.62867402  0.62560890  1
  Co  Co108  1  0.87536565  0.37417882  0.62948017  1
  Co  Co109  1  0.75222931  0.25238682  0.50166646  1
  Co  Co110  1  0.62814621  0.12902383  0.37421543  1
  Co  Co111  1  0.74907976  0.00079743  0.24746069  1
  Co  Co112  1  0.00091502  -0.00058622  0.00088385  1
  Co  Co113  1  -0.00258384  0.75110338  0.75060647  1
  Co  Co114  1  0.12571405  0.12597373  0.87629277  1
  Co  Co115  1  0.62611477  0.62387229  0.62214940  1
  Co  Co116  1  0.49925923  0.00349223  -0.00061378  1
  Co  Co117  1  0.62285838  0.12682298  0.12637395  1
  Co  Co118  1  0.74937071  0.49906187  0.24947781  1
  Co  Co119  1  0.49946886  0.49877493  0.25189240  1
  Co  Co120  1  0.87532799  0.87644270  0.62373462  1
  Co  Co121  1  0.62759044  0.87357776  0.37442166  1
  Co  Co122  1  0.25189861  0.24849781  0.74730881  1
  Co  Co123  1  0.12450332  0.37458020  0.12607901  1
  Co  Co124  1  0.24867448  0.74870080  -0.00128897  1
  Co  Co125  1  0.37254384  0.37741729  0.37617860  1
  Co  Co126  1  -0.00027602  0.49862992  0.50270147  1
  Co  Co127  1  0.12594294  0.37114600  0.62397698  1
