# generated using pymatgen
data_Fe45Co19
_symmetry_space_group_name_H-M   'P 1'
_cell_length_a   11.41661734
_cell_length_b   11.41448864
_cell_length_c   11.41611294
_cell_angle_alpha   89.98769176
_cell_angle_beta   89.99802825
_cell_angle_gamma   90.01183247
_symmetry_Int_Tables_number   1
_chemical_formula_structural   Fe45Co19
_chemical_formula_sum   'Fe90 Co38'
_cell_volume   1487.68896529
_cell_formula_units_Z   2
loop_
 _symmetry_equiv_pos_site_id
 _symmetry_equiv_pos_as_xyz
  1  'x, y, z'
loop_
 _atom_site_type_symbol
 _atom_site_label
 _atom_site_symmetry_multiplicity
 _atom_site_fract_x
 _atom_site_fract_y
 _atom_site_fract_z
 _atom_site_occupancy
  Fe  Fe0  1  -0.00320818  0.74741504  0.74913965  1
  Fe  Fe1  1  0.74981787  0.25030348  0.24873685  1
  Fe  Fe2  1  0.87483226  0.12559961  0.37490466  1
  Fe  Fe3  1  0.87545816  0.37620773  0.87523522  1
  Fe  Fe4  1  0.62579056  0.62739250  0.37631673  1
  Fe  Fe5  1  0.00187414  0.00077752  -0.00261161  1
  Fe  Fe6  1  0.75062197  0.00078201  -0.00136416  1
  Fe  Fe7  1  0.37567239  0.37773095  0.37429433  1
  Fe  Fe8  1  0.74984400  -0.00056540  0.50112453  1
  Fe  Fe9  1  0.87522336  0.37726898  0.37350982  1
  Fe  Fe10  1  0.62692207  0.62810518  0.87803428  1
  Fe  Fe11  1  -0.00414020  0.75019758  0.24959970  1
  Fe  Fe12  1  0.24739202  0.24736837  -0.00164088  1
  Fe  Fe13  1  0.49982953  0.74877918  0.75075248  1
  Fe  Fe14  1  0.25072849  0.50264540  0.50120597  1
  Fe  Fe15  1  0.49517287  0.74499172  0.50207675  1
  Fe  Fe16  1  0.37273128  0.12393841  0.62892343  1
  Fe  Fe17  1  0.50023178  0.25070080  0.24996064  1
  Fe  Fe18  1  0.87831476  0.12330434  0.12445459  1
  Fe  Fe19  1  -0.00276428  0.75110996  -0.00006105  1
  Fe  Fe20  1  0.62529505  0.12497460  0.37420082  1
  Fe  Fe21  1  0.87504574  0.37620585  0.62480783  1
  Fe  Fe22  1  0.24985939  0.75133335  0.24986425  1
  Fe  Fe23  1  0.24658774  0.49684262  0.74958042  1
  Fe  Fe24  1  0.50169093  -0.00007035  0.75263835  1
  Fe  Fe25  1  0.24912718  -0.00336419  0.50361552  1
  Fe  Fe26  1  0.00189638  0.49992273  0.74827555  1
  Fe  Fe27  1  0.37282458  0.12253919  0.12510341  1
  Fe  Fe28  1  0.62443941  0.12494348  0.12500916  1
  Fe  Fe29  1  0.50067179  0.24911584  -0.00041972  1
  Fe  Fe30  1  0.62770937  0.86993620  0.12310642  1
  Fe  Fe31  1  0.49830865  0.25024922  0.49946148  1
  Fe  Fe32  1  0.50181159  0.50191185  0.75098971  1
  Fe  Fe33  1  0.49930557  0.75018455  0.24987019  1
  Fe  Fe34  1  0.12256841  0.62592780  0.12495554  1
  Fe  Fe35  1  0.24812196  0.50230261  -0.00037890  1
  Fe  Fe36  1  0.50184124  0.50102713  0.24817837  1
  Fe  Fe37  1  0.62639237  0.12534084  0.62625862  1
  Fe  Fe38  1  0.37340474  0.12188032  0.37403371  1
  Fe  Fe39  1  0.24742503  0.24756995  0.25115824  1
  Fe  Fe40  1  0.37518148  0.37518180  0.87675683  1
  Fe  Fe41  1  -0.00009963  0.00312064  0.74840610  1
  Fe  Fe42  1  0.37130548  0.62702174  0.87348784  1
  Fe  Fe43  1  0.50015429  -0.00133720  -0.00198849  1
  Fe  Fe44  1  0.24705140  0.50101657  0.24924835  1
  Fe  Fe45  1  0.87335339  0.87484240  0.62652595  1
  Fe  Fe46  1  0.24723683  0.00004194  -0.00314532  1
  Fe  Fe47  1  0.62600616  0.87156032  0.62558958  1
  Fe  Fe48  1  0.37310171  0.37504179  0.12465097  1
  Fe  Fe49  1  0.00060506  0.50006497  0.50038202  1
  Fe  Fe50  1  0.62606570  0.37451459  0.87585083  1
  Fe  Fe51  1  0.12560327  0.87430323  0.37736474  1
  Fe  Fe52  1  0.24904827  0.75339285  0.74298097  1
  Fe  Fe53  1  0.12404837  0.87620858  0.12572325  1
  Fe  Fe54  1  0.50042046  -0.00292307  0.24933396  1
  Fe  Fe55  1  -0.00221446  0.74866592  0.50121062  1
  Fe  Fe56  1  -0.00139009  0.00232533  0.50061692  1
  Fe  Fe57  1  0.75169718  0.24770212  0.75119473  1
  Fe  Fe58  1  0.37394306  0.87435116  0.37710517  1
  Fe  Fe59  1  0.62396548  0.37592154  0.62497443  1
  Fe  Fe60  1  0.87739863  0.37785018  0.12716145  1
  Fe  Fe61  1  0.37210575  0.87492759  0.87346189  1
  Fe  Fe62  1  0.62452864  0.37562570  0.37567646  1
  Fe  Fe63  1  0.12612792  0.37270301  0.37895900  1
  Fe  Fe64  1  0.50101908  0.00113707  0.50040550  1
  Fe  Fe65  1  0.87307719  0.87644027  0.87283626  1
  Fe  Fe66  1  0.12472608  0.62721366  0.87295842  1
  Fe  Fe67  1  0.12547281  0.62791681  0.37684990  1
  Fe  Fe68  1  0.12676610  0.12890025  0.62399907  1
  Fe  Fe69  1  0.74940020  0.50213361  0.00249196  1
  Fe  Fe70  1  0.74941600  -0.00179038  0.25020753  1
  Fe  Fe71  1  0.75017575  0.50441885  0.74935447  1
  Fe  Fe72  1  0.37511868  0.62734929  0.12403050  1
  Fe  Fe73  1  0.00374120  0.25023771  0.25055678  1
  Fe  Fe74  1  0.49906399  0.24989432  0.75218737  1
  Fe  Fe75  1  0.50013539  0.50125613  0.00059486  1
  Fe  Fe76  1  0.75194347  0.24995746  0.00042821  1
  Fe  Fe77  1  0.87324137  0.87375453  0.37466008  1
  Fe  Fe78  1  0.62634792  0.87195715  0.37654314  1
  Fe  Fe79  1  0.37298342  0.87451175  0.12284335  1
  Fe  Fe80  1  0.12353149  0.37190272  0.87582162  1
  Fe  Fe81  1  0.12454428  0.87421476  0.87155990  1
  Fe  Fe82  1  0.00252403  0.49849850  0.00023778  1
  Fe  Fe83  1  0.75178139  0.24998655  0.50022260  1
  Fe  Fe84  1  0.74940786  0.50251885  0.50170139  1
  Fe  Fe85  1  0.37571098  0.37748859  0.62471309  1
  Fe  Fe86  1  0.74789721  0.50445481  0.24740150  1
  Fe  Fe87  1  0.62951170  0.87189219  0.87501835  1
  Fe  Fe88  1  0.00232488  0.00105775  0.25244872  1
  Fe  Fe89  1  -0.00152015  0.25024519  0.74856774  1
  Co  Co90  1  0.24912029  -0.00259241  0.25133340  1
  Co  Co91  1  0.87670577  0.62378552  0.62379793  1
  Co  Co92  1  0.12529027  0.37210186  0.62158493  1
  Co  Co93  1  0.12666949  0.12375197  0.37940490  1
  Co  Co94  1  0.24723348  -0.00268841  0.74796587  1
  Co  Co95  1  0.62470505  0.37443653  0.12434331  1
  Co  Co96  1  0.00508392  0.49868187  0.25272224  1
  Co  Co97  1  0.62245048  0.63087232  0.12206520  1
  Co  Co98  1  0.49974786  0.50170067  0.49980868  1
  Co  Co99  1  0.87569370  0.62311035  0.37484371  1
  Co  Co100  1  0.12444117  0.12684743  0.87095031  1
  Co  Co101  1  0.87769929  0.62189713  0.87649317  1
  Co  Co102  1  0.37975067  0.87615053  0.62497472  1
  Co  Co103  1  0.25172774  0.75097258  0.50370567  1
  Co  Co104  1  0.88015820  0.62066294  0.12550406  1
  Co  Co105  1  0.37373211  0.12341953  0.87350646  1
  Co  Co106  1  0.24701147  0.75057071  0.00036144  1
  Co  Co107  1  0.25095499  0.25403166  0.75150275  1
  Co  Co108  1  0.37343765  0.62465386  0.37260785  1
  Co  Co109  1  0.75405905  0.74825420  0.24758807  1
  Co  Co110  1  0.25496503  0.25044676  0.49967401  1
  Co  Co111  1  0.87363365  0.12426022  0.62484093  1
  Co  Co112  1  0.75748605  0.74869923  0.00149335  1
  Co  Co113  1  0.12692983  0.37437384  0.12379274  1
  Co  Co114  1  0.87608410  0.12457007  0.87601554  1
  Co  Co115  1  0.37317153  0.62199337  0.62881460  1
  Co  Co116  1  0.87602050  0.87912683  0.12521478  1
  Co  Co117  1  -0.00022682  0.25062335  0.00168705  1
  Co  Co118  1  0.12468399  0.12191971  0.12487431  1
  Co  Co119  1  0.11928382  0.87442190  0.62402735  1
  Co  Co120  1  0.75292568  0.74617603  0.75041419  1
  Co  Co121  1  -0.00372009  0.24993807  0.49948212  1
  Co  Co122  1  0.74946573  0.00099963  0.74936806  1
  Co  Co123  1  0.49723647  0.75164315  -0.00369533  1
  Co  Co124  1  0.12490662  0.62560463  0.62498154  1
  Co  Co125  1  0.75320845  0.74928550  0.50115272  1
  Co  Co126  1  0.62561872  0.12588809  0.87553776  1
  Co  Co127  1  0.62439548  0.62690977  0.62419034  1
