# generated using pymatgen
data_Fe45Co19
_symmetry_space_group_name_H-M   'P 1'
_cell_length_a   11.41550788
_cell_length_b   11.41491917
_cell_length_c   11.41512441
_cell_angle_alpha   89.99811037
_cell_angle_beta   90.00162518
_cell_angle_gamma   90.00583089
_symmetry_Int_Tables_number   1
_chemical_formula_structural   Fe45Co19
_chemical_formula_sum   'Fe90 Co38'
_cell_volume   1487.47174678
_cell_formula_units_Z   2
loop_
 _symmetry_equiv_pos_site_id
 _symmetry_equiv_pos_as_xyz
  1  'x, y, z'
loop_
 _atom_site_type_symbol
 _atom_site_label
 _atom_site_symmetry_multiplicity
 _atom_site_fract_x
 _atom_site_fract_y
 _atom_site_fract_z
 _atom_site_occupancy
  Fe  Fe0  1  0.12606653  0.62536527  0.37769773  1
  Fe  Fe1  1  0.25305159  0.25098978  0.50035914  1
  Fe  Fe2  1  0.87206991  0.62562113  0.37808197  1
  Fe  Fe3  1  0.49922872  0.24883938  -0.00163340  1
  Fe  Fe4  1  -0.00124969  0.24981264  0.49901579  1
  Fe  Fe5  1  -0.00340005  0.74783781  0.74952673  1
  Fe  Fe6  1  0.87385694  0.62464990  0.62046977  1
  Fe  Fe7  1  0.37317081  0.62283719  0.87539948  1
  Fe  Fe8  1  0.37293257  0.12215587  0.62769604  1
  Fe  Fe9  1  0.62621577  0.87262390  0.87441288  1
  Fe  Fe10  1  0.62212903  0.37695207  0.62257133  1
  Fe  Fe11  1  -0.00045380  0.00047902  0.25062558  1
  Fe  Fe12  1  0.12233351  0.87233383  0.87706006  1
  Fe  Fe13  1  0.50121506  0.00199266  -0.00089945  1
  Fe  Fe14  1  -0.00057735  0.00010401  0.49790171  1
  Fe  Fe15  1  0.74531679  0.49916424  0.25258918  1
  Fe  Fe16  1  0.74856810  -0.00418173  0.50063515  1
  Fe  Fe17  1  0.37583325  0.87477494  0.37521285  1
  Fe  Fe18  1  0.62196366  0.86746706  0.62827668  1
  Fe  Fe19  1  -0.00154378  0.74824523  0.24962684  1
  Fe  Fe20  1  0.12442262  0.62571253  0.12392870  1
  Fe  Fe21  1  0.25090564  0.74892966  0.00072682  1
  Fe  Fe22  1  0.49999419  0.50206518  0.74871030  1
  Fe  Fe23  1  0.87503956  0.62052301  0.12402282  1
  Fe  Fe24  1  0.12228493  0.87466619  0.62478141  1
  Fe  Fe25  1  0.24845044  0.49844386  0.00051386  1
  Fe  Fe26  1  0.87572072  0.37543984  0.62395122  1
  Fe  Fe27  1  0.12441334  0.62580609  0.62366560  1
  Fe  Fe28  1  0.74909230  0.25160093  0.50029516  1
  Fe  Fe29  1  0.37758274  0.38047812  0.37403905  1
  Fe  Fe30  1  0.62536851  0.87239796  0.12522827  1
  Fe  Fe31  1  0.12362371  0.87430589  0.12387890  1
  Fe  Fe32  1  0.37546319  0.87438650  0.12490360  1
  Fe  Fe33  1  0.87098315  0.12618215  0.37136185  1
  Fe  Fe34  1  0.12340048  0.37292057  0.62488102  1
  Fe  Fe35  1  0.74994113  0.50207837  0.74786130  1
  Fe  Fe36  1  0.12593055  0.12733621  0.62559478  1
  Fe  Fe37  1  0.37709137  0.37996807  0.12715569  1
  Fe  Fe38  1  0.24912166  -0.00159733  0.50126709  1
  Fe  Fe39  1  0.50051720  0.25110761  0.25038608  1
  Fe  Fe40  1  0.24888109  0.49662621  0.74929467  1
  Fe  Fe41  1  0.50125509  0.00105357  0.75232697  1
  Fe  Fe42  1  0.75254327  0.24954340  0.00144077  1
  Fe  Fe43  1  -0.00419310  0.24892235  0.00202962  1
  Fe  Fe44  1  0.87495945  0.12367660  0.62587764  1
  Fe  Fe45  1  0.87747968  0.87565942  0.87671498  1
  Fe  Fe46  1  0.50282619  -0.00239362  0.50003467  1
  Fe  Fe47  1  0.37465309  0.37451784  0.87487472  1
  Fe  Fe48  1  0.12544864  0.87302424  0.37417108  1
  Fe  Fe49  1  0.12629801  0.12752086  0.37300382  1
  Fe  Fe50  1  0.62782861  0.12536456  0.12693815  1
  Fe  Fe51  1  0.00017237  0.49964421  0.74886124  1
  Fe  Fe52  1  0.87611369  0.37600314  0.87442556  1
  Fe  Fe53  1  0.75043031  0.00277986  -0.00035579  1
  Fe  Fe54  1  0.49811273  0.74839445  -0.00242958  1
  Fe  Fe55  1  0.00172219  0.00240270  0.75212670  1
  Fe  Fe56  1  0.24763203  0.00198381  -0.00096744  1
  Fe  Fe57  1  0.25054496  -0.00001342  0.25008948  1
  Fe  Fe58  1  0.12668556  0.37418939  0.37424085  1
  Fe  Fe59  1  0.49839210  0.24926622  0.50080926  1
  Fe  Fe60  1  0.25239264  0.75208034  0.74891079  1
  Fe  Fe61  1  0.37415010  0.87810559  0.87489843  1
  Fe  Fe62  1  0.74845670  0.49971070  -0.00299796  1
  Fe  Fe63  1  0.49884272  0.24864014  0.75021713  1
  Fe  Fe64  1  0.00178715  0.49948247  0.25247382  1
  Fe  Fe65  1  0.12733217  0.13148979  0.87388199  1
  Fe  Fe66  1  0.62304686  0.37723613  0.12401297  1
  Fe  Fe67  1  0.49852073  0.74304919  0.25162814  1
  Fe  Fe68  1  0.62557557  0.62667054  0.87189411  1
  Fe  Fe69  1  0.75039209  0.25047570  0.74923274  1
  Fe  Fe70  1  0.62569080  0.12496203  0.62531787  1
  Fe  Fe71  1  0.37432895  0.12487541  0.12525812  1
  Fe  Fe72  1  0.87651446  0.87708895  0.12319513  1
  Fe  Fe73  1  0.12561934  0.12810405  0.12781296  1
  Fe  Fe74  1  0.87362998  0.37539316  0.37448489  1
  Fe  Fe75  1  0.12403086  0.62519367  0.87474399  1
  Fe  Fe76  1  0.25100137  0.49887078  0.50306305  1
  Fe  Fe77  1  0.25300828  0.75158789  0.50244386  1
  Fe  Fe78  1  0.62343901  0.62418277  0.12200775  1
  Fe  Fe79  1  0.50206138  -0.00091997  0.24957047  1
  Fe  Fe80  1  0.74953731  -0.00126579  0.75022359  1
  Fe  Fe81  1  0.37563704  0.12278441  0.37508538  1
  Fe  Fe82  1  0.25208667  0.74709634  0.24842819  1
  Fe  Fe83  1  0.00202171  0.49928083  -0.00122244  1
  Fe  Fe84  1  0.75266452  0.74781024  -0.00121782  1
  Fe  Fe85  1  0.62724220  0.12642456  0.37328444  1
  Fe  Fe86  1  0.87325620  0.87239636  0.37424805  1
  Fe  Fe87  1  0.62532169  0.37369325  0.87389210  1
  Fe  Fe88  1  0.12527826  0.37239166  0.12614633  1
  Fe  Fe89  1  0.62571089  0.86884618  0.37307445  1
  Co  Co90  1  0.49518672  0.74861088  0.75279723  1
  Co  Co91  1  0.87465955  0.38000985  0.12491768  1
  Co  Co92  1  0.62587650  0.62883324  0.62583346  1
  Co  Co93  1  0.25422971  0.25143005  0.25118719  1
  Co  Co94  1  -0.00216643  0.74740086  0.00147729  1
  Co  Co95  1  0.12280996  0.37283750  0.87573883  1
  Co  Co96  1  -0.00084890  0.75100780  0.49976792  1
  Co  Co97  1  -0.00208512  0.25202431  0.24983518  1
  Co  Co98  1  0.37878713  0.37657845  0.62418264  1
  Co  Co99  1  0.37750265  0.87774064  0.62579295  1
  Co  Co100  1  0.87677336  0.62164738  0.87671790  1
  Co  Co101  1  0.75604007  0.74904520  0.75067285  1
  Co  Co102  1  0.74772522  0.49761741  0.50062385  1
  Co  Co103  1  0.00082865  0.49846674  0.49923259  1
  Co  Co104  1  0.74830406  -0.00350636  0.25066113  1
  Co  Co105  1  0.75205071  0.74740484  0.24549090  1
  Co  Co106  1  0.62670455  0.12678177  0.87490927  1
  Co  Co107  1  0.50096094  0.49993203  -0.00457810  1
  Co  Co108  1  0.25304395  0.25191341  0.00110503  1
  Co  Co109  1  0.87317724  0.12297915  0.12952920  1
  Co  Co110  1  0.24587804  -0.00213130  0.75119415  1
  Co  Co111  1  0.50191720  0.50662097  0.49962506  1
  Co  Co112  1  0.24716435  0.50111708  0.24733655  1
  Co  Co113  1  0.00258875  0.00579601  -0.00062903  1
  Co  Co114  1  0.37461450  0.62441480  0.62618292  1
  Co  Co115  1  0.25171649  0.25451670  0.74816744  1
  Co  Co116  1  0.36980337  0.62080359  0.37548956  1
  Co  Co117  1  0.62125339  0.37375023  0.37848975  1
  Co  Co118  1  0.50523885  0.50500433  0.25383801  1
  Co  Co119  1  0.37690033  0.62120246  0.12315451  1
  Co  Co120  1  0.75133113  0.75455757  0.50450625  1
  Co  Co121  1  -0.00131584  0.25157702  0.74878418  1
  Co  Co122  1  0.63109775  0.62929579  0.38081413  1
  Co  Co123  1  0.74861673  0.25547900  0.24827504  1
  Co  Co124  1  0.37306318  0.12432644  0.87255048  1
  Co  Co125  1  0.49583459  0.74647863  0.49814115  1
  Co  Co126  1  0.87382882  0.12582881  0.87229386  1
  Co  Co127  1  0.87846922  0.87788801  0.62661152  1
