# generated using pymatgen
data_Fe45Co19
_symmetry_space_group_name_H-M   'P 1'
_cell_length_a   11.41572351
_cell_length_b   11.41633227
_cell_length_c   11.41493826
_cell_angle_alpha   89.99616645
_cell_angle_beta   90.00463033
_cell_angle_gamma   90.00202722
_symmetry_Int_Tables_number   1
_chemical_formula_structural   Fe45Co19
_chemical_formula_sum   'Fe90 Co38'
_cell_volume   1487.65972667
_cell_formula_units_Z   2
loop_
 _symmetry_equiv_pos_site_id
 _symmetry_equiv_pos_as_xyz
  1  'x, y, z'
loop_
 _atom_site_type_symbol
 _atom_site_label
 _atom_site_symmetry_multiplicity
 _atom_site_fract_x
 _atom_site_fract_y
 _atom_site_fract_z
 _atom_site_occupancy
  Fe  Fe0  1  0.50213740  0.49948128  0.24997993  1
  Fe  Fe1  1  0.12738260  0.37639254  0.62065754  1
  Fe  Fe2  1  0.87397666  0.37498762  0.12611813  1
  Fe  Fe3  1  0.50219639  -0.00051198  0.74807885  1
  Fe  Fe4  1  0.12456904  0.62297502  0.62684831  1
  Fe  Fe5  1  0.87611763  0.87625791  0.87468114  1
  Fe  Fe6  1  0.12387596  0.87513815  0.87423525  1
  Fe  Fe7  1  0.87306716  0.87742178  0.12565207  1
  Fe  Fe8  1  0.87583913  0.61873366  0.87083912  1
  Fe  Fe9  1  0.87171577  0.38128551  0.62132771  1
  Fe  Fe10  1  0.25105830  0.24982823  0.25174191  1
  Fe  Fe11  1  0.25247876  0.24948741  0.00004419  1
  Fe  Fe12  1  -0.00181069  0.74749805  0.00106752  1
  Fe  Fe13  1  0.37503015  0.87926997  0.37658754  1
  Fe  Fe14  1  0.50004116  0.25168694  0.25081890  1
  Fe  Fe15  1  0.37281788  0.62276152  0.37273580  1
  Fe  Fe16  1  0.75336737  0.74459468  0.50092391  1
  Fe  Fe17  1  0.25074214  0.00175441  -0.00046804  1
  Fe  Fe18  1  0.37456216  0.12195281  0.62225094  1
  Fe  Fe19  1  -0.00015542  0.50297173  0.49461556  1
  Fe  Fe20  1  0.75032425  0.25299525  0.74743017  1
  Fe  Fe21  1  -0.00175998  0.75109493  0.24941958  1
  Fe  Fe22  1  -0.00313807  0.75005488  0.74935937  1
  Fe  Fe23  1  0.50403218  0.00418245  0.00092432  1
  Fe  Fe24  1  0.50254819  0.49942329  0.74813117  1
  Fe  Fe25  1  0.62429972  0.87255350  0.87384991  1
  Fe  Fe26  1  0.37889114  0.37321583  0.87546756  1
  Fe  Fe27  1  0.87305748  0.62234306  0.12749615  1
  Fe  Fe28  1  0.62163480  0.36862964  0.87552724  1
  Fe  Fe29  1  0.37631818  0.62342673  0.87559356  1
  Fe  Fe30  1  0.87505279  0.12332876  0.62326697  1
  Fe  Fe31  1  -0.00412367  0.25224711  0.49704824  1
  Fe  Fe32  1  0.24970253  0.49999903  0.00078973  1
  Fe  Fe33  1  0.49953831  0.75099389  0.24635424  1
  Fe  Fe34  1  0.49994388  0.74930533  0.00490540  1
  Fe  Fe35  1  0.00240264  0.49684805  0.25304436  1
  Fe  Fe36  1  0.37148227  0.37737238  0.37775098  1
  Fe  Fe37  1  0.87514930  0.12755760  0.87266549  1
  Fe  Fe38  1  0.37507493  0.62142478  0.62527802  1
  Fe  Fe39  1  0.62742390  0.37345857  0.37913140  1
  Fe  Fe40  1  0.87503130  0.87602488  0.62292789  1
  Fe  Fe41  1  0.74770552  0.49895771  0.25275934  1
  Fe  Fe42  1  0.75130256  0.24915755  0.25324334  1
  Fe  Fe43  1  0.37665563  0.87525651  0.87628960  1
  Fe  Fe44  1  0.12464130  0.87428145  0.62630243  1
  Fe  Fe45  1  0.62388510  0.62735491  0.37476389  1
  Fe  Fe46  1  0.62469259  0.62825879  0.87089957  1
  Fe  Fe47  1  0.12480385  0.12625300  0.12582743  1
  Fe  Fe48  1  0.00061778  0.00034566  0.25231731  1
  Fe  Fe49  1  0.37602673  0.37713640  0.12444530  1
  Fe  Fe50  1  0.12356289  0.62205431  0.87403215  1
  Fe  Fe51  1  0.25061810  0.74885380  0.50046710  1
  Fe  Fe52  1  -0.00054825  0.00161329  -0.00014883  1
  Fe  Fe53  1  0.74798504  0.49889279  -0.00139005  1
  Fe  Fe54  1  0.37327817  0.37917506  0.62181141  1
  Fe  Fe55  1  0.12485357  0.37371305  0.12553205  1
  Fe  Fe56  1  0.12385829  0.12677187  0.62493232  1
  Fe  Fe57  1  0.62513631  0.86997696  0.62441185  1
  Fe  Fe58  1  0.37961100  0.12877472  0.87265451  1
  Fe  Fe59  1  0.00191271  -0.00053115  0.49836707  1
  Fe  Fe60  1  0.12653744  0.62392312  0.12730792  1
  Fe  Fe61  1  0.74689696  0.00311848  -0.00197826  1
  Fe  Fe62  1  0.12525786  0.87182723  0.37556222  1
  Fe  Fe63  1  -0.00211656  0.25085130  0.00147658  1
  Fe  Fe64  1  -0.00285792  0.74555382  0.49939779  1
  Fe  Fe65  1  0.12321212  0.12677142  0.87263566  1
  Fe  Fe66  1  0.12399133  0.37572631  0.87595925  1
  Fe  Fe67  1  0.62627608  0.37748051  0.61913413  1
  Fe  Fe68  1  0.75171765  0.74862449  -0.00029923  1
  Fe  Fe69  1  0.49765298  0.74780922  0.50122902  1
  Fe  Fe70  1  0.74688803  -0.00169256  0.25588088  1
  Fe  Fe71  1  0.62546836  0.12659796  0.62326955  1
  Fe  Fe72  1  0.25219633  0.74838953  0.75087034  1
  Fe  Fe73  1  -0.00246837  0.25422250  0.74831020  1
  Fe  Fe74  1  0.74671397  0.00016845  0.49596735  1
  Fe  Fe75  1  0.74937018  0.75282815  0.25062237  1
  Fe  Fe76  1  0.12544736  0.87614107  0.12377576  1
  Fe  Fe77  1  0.12564012  0.12869781  0.37623459  1
  Fe  Fe78  1  0.37439824  0.87754709  0.62324297  1
  Fe  Fe79  1  0.49719690  0.24909158  0.49955614  1
  Fe  Fe80  1  0.50519239  -0.00178343  0.25372220  1
  Fe  Fe81  1  0.50401858  0.50046935  0.00321623  1
  Fe  Fe82  1  0.25172911  0.74979503  0.00231184  1
  Fe  Fe83  1  0.25153658  0.25256662  0.74822805  1
  Fe  Fe84  1  0.87404160  0.12418817  0.12822227  1
  Fe  Fe85  1  0.74922906  -0.00025947  0.75058367  1
  Fe  Fe86  1  0.74769463  0.24828115  0.00119277  1
  Fe  Fe87  1  0.24895354  0.00061619  0.74969075  1
  Fe  Fe88  1  0.37596833  0.12241800  0.12907981  1
  Fe  Fe89  1  0.25360764  0.75249375  0.24695220  1
  Co  Co90  1  0.37497666  0.62086645  0.12576271  1
  Co  Co91  1  0.87552562  0.87428948  0.37710572  1
  Co  Co92  1  0.62745947  0.62538020  0.12669777  1
  Co  Co93  1  0.62411825  0.86875996  0.37863600  1
  Co  Co94  1  0.87207015  0.37610774  0.37596952  1
  Co  Co95  1  0.87424278  0.37539530  0.87679410  1
  Co  Co96  1  0.24722054  0.50413501  0.49774742  1
  Co  Co97  1  0.50074222  0.24692964  0.00685802  1
  Co  Co98  1  0.50443654  0.00039099  0.49978802  1
  Co  Co99  1  0.62644288  0.12498284  0.13042846  1
  Co  Co100  1  0.37617277  0.12127444  0.37459297  1
  Co  Co101  1  0.62255965  0.13009445  0.87074047  1
  Co  Co102  1  -0.00062487  0.49975851  0.00336962  1
  Co  Co103  1  0.24635856  -0.00025259  0.25201350  1
  Co  Co104  1  0.62685370  0.37391723  0.12622977  1
  Co  Co105  1  0.74413082  0.49643281  0.75159483  1
  Co  Co106  1  0.87499576  0.62542228  0.37022587  1
  Co  Co107  1  -0.00118562  0.00001266  0.74935951  1
  Co  Co108  1  0.25110437  0.49861334  0.75082931  1
  Co  Co109  1  -0.00055215  0.25126124  0.25217256  1
  Co  Co110  1  0.37694332  0.88019346  0.12457242  1
  Co  Co111  1  0.87489238  0.61911504  0.62995454  1
  Co  Co112  1  0.24828534  0.49750730  0.25037747  1
  Co  Co113  1  0.12804034  0.37247159  0.37799181  1
  Co  Co114  1  0.00149690  0.49467989  0.74898803  1
  Co  Co115  1  0.87523384  0.12409010  0.37588801  1
  Co  Co116  1  0.49619371  0.75028472  0.74809026  1
  Co  Co117  1  0.62674713  0.87502905  0.12315581  1
  Co  Co118  1  0.75423744  0.75072848  0.74919701  1
  Co  Co119  1  0.62390087  0.13017646  0.37657089  1
  Co  Co120  1  0.62472429  0.62674092  0.62663093  1
  Co  Co121  1  0.75263903  0.24869335  0.50031460  1
  Co  Co122  1  0.12760076  0.62829737  0.37167620  1
  Co  Co123  1  0.74981826  0.50707518  0.49703676  1
  Co  Co124  1  0.50143069  0.50225204  0.49805716  1
  Co  Co125  1  0.24593400  0.00027351  0.49912818  1
  Co  Co126  1  0.49926420  0.25192131  0.74155750  1
  Co  Co127  1  0.25368443  0.24749149  0.49992544  1
