# generated using pymatgen
data_Fe45Co19
_symmetry_space_group_name_H-M   'P 1'
_cell_length_a   11.41463923
_cell_length_b   11.41549826
_cell_length_c   11.41611387
_cell_angle_alpha   90.00447374
_cell_angle_beta   90.00134458
_cell_angle_gamma   89.99462994
_symmetry_Int_Tables_number   1
_chemical_formula_structural   Fe45Co19
_chemical_formula_sum   'Fe90 Co38'
_cell_volume   1487.56294107
_cell_formula_units_Z   2
loop_
 _symmetry_equiv_pos_site_id
 _symmetry_equiv_pos_as_xyz
  1  'x, y, z'
loop_
 _atom_site_type_symbol
 _atom_site_label
 _atom_site_symmetry_multiplicity
 _atom_site_fract_x
 _atom_site_fract_y
 _atom_site_fract_z
 _atom_site_occupancy
  Fe  Fe0  1  0.62649793  0.12340098  0.87316836  1
  Fe  Fe1  1  0.24871016  0.75446837  0.24988358  1
  Fe  Fe2  1  0.24789948  0.24608484  0.25062150  1
  Fe  Fe3  1  0.12511407  0.62565902  0.12585852  1
  Fe  Fe4  1  -0.00089636  0.74937992  0.00003497  1
  Fe  Fe5  1  -0.00055664  0.24869634  0.50080454  1
  Fe  Fe6  1  0.62958695  0.87539716  0.87386761  1
  Fe  Fe7  1  0.12239883  0.12163002  0.62358945  1
  Fe  Fe8  1  0.24893849  0.00162719  -0.00117027  1
  Fe  Fe9  1  -0.00461385  0.00243313  -0.00563249  1
  Fe  Fe10  1  0.37238528  0.11934975  0.37282505  1
  Fe  Fe11  1  0.49676397  0.24911888  0.50003925  1
  Fe  Fe12  1  0.50106297  -0.00193655  -0.00237985  1
  Fe  Fe13  1  0.12415456  0.37383609  0.12455639  1
  Fe  Fe14  1  0.74999496  0.24866475  0.50120952  1
  Fe  Fe15  1  0.62609940  0.37354432  0.87658535  1
  Fe  Fe16  1  0.62337711  0.62476843  0.12543738  1
  Fe  Fe17  1  0.74979180  0.74876795  -0.00025959  1
  Fe  Fe18  1  0.49971687  0.75244550  0.25136002  1
  Fe  Fe19  1  0.37537912  0.12186068  0.12520842  1
  Fe  Fe20  1  0.87676941  0.87216324  0.37559059  1
  Fe  Fe21  1  0.74887575  -0.00040446  0.25130640  1
  Fe  Fe22  1  0.25129993  0.49942659  0.75219634  1
  Fe  Fe23  1  0.87777739  0.37498402  0.12838878  1
  Fe  Fe24  1  0.62494649  0.62529806  0.62590977  1
  Fe  Fe25  1  0.37583219  0.12413797  0.87270699  1
  Fe  Fe26  1  0.50013824  0.50023437  -0.00087994  1
  Fe  Fe27  1  0.87414663  0.62757150  0.87195189  1
  Fe  Fe28  1  0.62637314  0.87604199  0.12404884  1
  Fe  Fe29  1  0.62407333  0.12245423  0.37777299  1
  Fe  Fe30  1  0.75460007  0.24598252  0.00179767  1
  Fe  Fe31  1  0.62328651  0.12141233  0.62512641  1
  Fe  Fe32  1  0.62321046  0.37610231  0.62250182  1
  Fe  Fe33  1  0.49400663  -0.00255044  0.50431117  1
  Fe  Fe34  1  0.75285896  0.00033896  0.50259382  1
  Fe  Fe35  1  0.75001958  0.24823163  0.74572722  1
  Fe  Fe36  1  0.12544136  0.87739740  0.37858466  1
  Fe  Fe37  1  0.00046312  0.49952995  -0.00013222  1
  Fe  Fe38  1  0.12544588  0.87434127  0.87536136  1
  Fe  Fe39  1  0.00204972  -0.00016612  0.25306550  1
  Fe  Fe40  1  0.12592766  0.62482843  0.62466132  1
  Fe  Fe41  1  0.12782115  0.37808818  0.62302750  1
  Fe  Fe42  1  0.75307947  0.74690917  0.50231168  1
  Fe  Fe43  1  0.25089715  0.75129425  -0.00019433  1
  Fe  Fe44  1  0.62406139  0.37595699  0.37445925  1
  Fe  Fe45  1  0.49552798  0.49987017  0.49723944  1
  Fe  Fe46  1  0.24885540  0.24994176  -0.00196405  1
  Fe  Fe47  1  0.62456268  0.37522472  0.12572816  1
  Fe  Fe48  1  0.37543544  0.87783600  0.12564162  1
  Fe  Fe49  1  0.87501516  0.87570559  0.62681948  1
  Fe  Fe50  1  0.12479286  0.62526960  0.87569883  1
  Fe  Fe51  1  0.25041736  0.50071363  0.25342628  1
  Fe  Fe52  1  0.87708953  0.62461788  0.12955751  1
  Fe  Fe53  1  0.62471776  0.87569169  0.37848025  1
  Fe  Fe54  1  0.49931351  0.49887180  0.75131590  1
  Fe  Fe55  1  0.87601385  0.12503228  0.37533650  1
  Fe  Fe56  1  0.87429072  0.37646169  0.62337627  1
  Fe  Fe57  1  0.00104477  0.75099015  0.74907008  1
  Fe  Fe58  1  0.75077577  0.50074764  -0.00074061  1
  Fe  Fe59  1  0.87476704  0.37709505  0.37377151  1
  Fe  Fe60  1  0.12086857  0.12526058  0.12512284  1
  Fe  Fe61  1  0.49954184  0.25170713  0.74900443  1
  Fe  Fe62  1  0.75158420  0.50348265  0.49897852  1
  Fe  Fe63  1  0.25113186  -0.00136152  0.74855094  1
  Fe  Fe64  1  0.75006224  0.24929885  0.25024842  1
  Fe  Fe65  1  0.50187264  0.75339788  0.75087453  1
  Fe  Fe66  1  0.12267638  0.87676606  0.12160210  1
  Fe  Fe67  1  0.37596045  0.62709877  0.12602841  1
  Fe  Fe68  1  0.00053594  0.49839248  0.75023563  1
  Fe  Fe69  1  0.62665239  0.12284775  0.12464519  1
  Fe  Fe70  1  0.12674253  0.37298262  0.37651334  1
  Fe  Fe71  1  0.37463065  0.37407433  0.12609489  1
  Fe  Fe72  1  0.37626904  0.62857129  0.87573700  1
  Fe  Fe73  1  0.12218897  0.62947550  0.37467537  1
  Fe  Fe74  1  0.49772648  0.75175168  0.49899110  1
  Fe  Fe75  1  0.12122638  0.12812505  0.87193675  1
  Fe  Fe76  1  0.25146888  0.75143329  0.49978015  1
  Fe  Fe77  1  0.24922277  0.25291950  0.74943347  1
  Fe  Fe78  1  0.25064996  0.49888744  -0.00217480  1
  Fe  Fe79  1  0.75037992  0.74977723  0.25085712  1
  Fe  Fe80  1  0.49948487  0.24883234  -0.00059664  1
  Fe  Fe81  1  -0.00066393  0.50337611  0.49868045  1
  Fe  Fe82  1  0.62498250  0.62441505  0.37370404  1
  Fe  Fe83  1  0.12508205  0.87595819  0.62415771  1
  Fe  Fe84  1  0.25272737  0.24722944  0.50184767  1
  Fe  Fe85  1  0.87756343  0.37053172  0.87386855  1
  Fe  Fe86  1  0.74898490  0.50022890  0.75063302  1
  Fe  Fe87  1  0.37360611  0.62643261  0.62489169  1
  Fe  Fe88  1  0.49975694  0.24790383  0.25116461  1
  Fe  Fe89  1  0.87493755  0.87726738  0.12391558  1
  Co  Co90  1  0.87296056  0.87140852  0.87437764  1
  Co  Co91  1  0.49970779  -0.00410415  0.74982959  1
  Co  Co92  1  0.37275226  0.87045174  0.62809067  1
  Co  Co93  1  0.12641104  0.12244339  0.37980705  1
  Co  Co94  1  0.50080325  0.75338187  -0.00096830  1
  Co  Co95  1  0.24719740  0.74923594  0.75098172  1
  Co  Co96  1  0.24443949  -0.00037181  0.24718391  1
  Co  Co97  1  0.87787651  0.62662402  0.37128904  1
  Co  Co98  1  0.25445328  -0.00109522  0.50457673  1
  Co  Co99  1  0.62523088  0.62606530  0.87446051  1
  Co  Co100  1  0.00409017  0.49922815  0.25181531  1
  Co  Co101  1  0.87705645  0.12168208  0.12894061  1
  Co  Co102  1  -0.00098750  -0.00261267  0.75207237  1
  Co  Co103  1  0.37563613  0.37357491  0.87556879  1
  Co  Co104  1  0.75173869  0.00097835  0.74954480  1
  Co  Co105  1  0.74906129  0.50044913  0.25003552  1
  Co  Co106  1  -0.00214515  -0.00095110  0.49970926  1
  Co  Co107  1  0.00189508  0.75407235  0.24792939  1
  Co  Co108  1  0.87653835  0.12936337  0.86926823  1
  Co  Co109  1  0.87788003  0.12353141  0.62588852  1
  Co  Co110  1  0.87564659  0.62395054  0.62872763  1
  Co  Co111  1  0.12296721  0.37364400  0.87593674  1
  Co  Co112  1  0.00224996  0.25263023  0.74380302  1
  Co  Co113  1  -0.00136905  0.24852230  0.00159848  1
  Co  Co114  1  0.74847807  0.75034324  0.74694673  1
  Co  Co115  1  0.50371520  -0.00038322  0.24943716  1
  Co  Co116  1  0.62659265  0.87632592  0.62233916  1
  Co  Co117  1  0.49822585  0.49974625  0.25090098  1
  Co  Co118  1  0.37192936  0.87533321  0.87496857  1
  Co  Co119  1  0.00111191  0.24912436  0.25313197  1
  Co  Co120  1  0.37410639  0.62845910  0.37372712  1
  Co  Co121  1  0.37366391  0.87903158  0.37212748  1
  Co  Co122  1  0.37388836  0.37640901  0.62407914  1
  Co  Co123  1  0.37575030  0.12620840  0.62951303  1
  Co  Co124  1  0.37298042  0.37226739  0.37473857  1
  Co  Co125  1  0.25081573  0.50307210  0.49640318  1
  Co  Co126  1  -0.00157690  0.74953123  0.50368828  1
  Co  Co127  1  0.75254761  0.00249389  -0.00243099  1
