# generated using pymatgen
data_Fe45Co19
_symmetry_space_group_name_H-M   'P 1'
_cell_length_a   11.41511558
_cell_length_b   11.41487294
_cell_length_c   11.41448020
_cell_angle_alpha   90.00162598
_cell_angle_beta   89.99968503
_cell_angle_gamma   90.00473480
_symmetry_Int_Tables_number   1
_chemical_formula_structural   Fe45Co19
_chemical_formula_sum   'Fe90 Co38'
_cell_volume   1487.33066589
_cell_formula_units_Z   2
loop_
 _symmetry_equiv_pos_site_id
 _symmetry_equiv_pos_as_xyz
  1  'x, y, z'
loop_
 _atom_site_type_symbol
 _atom_site_label
 _atom_site_symmetry_multiplicity
 _atom_site_fract_x
 _atom_site_fract_y
 _atom_site_fract_z
 _atom_site_occupancy
  Fe  Fe0  1  0.37234566  0.12294176  0.87910384  1
  Fe  Fe1  1  0.50031128  0.50076074  0.24852703  1
  Fe  Fe2  1  0.12729702  0.87828967  0.87725097  1
  Fe  Fe3  1  0.74878975  0.75271519  0.74853223  1
  Fe  Fe4  1  0.24996834  0.75144581  0.74984335  1
  Fe  Fe5  1  0.87423784  0.62552265  0.12427139  1
  Fe  Fe6  1  0.49885061  0.74873023  0.50345119  1
  Fe  Fe7  1  0.00007396  0.50008859  0.00030937  1
  Fe  Fe8  1  0.25062640  0.24924313  0.75279958  1
  Fe  Fe9  1  0.62810030  0.62537400  0.37511156  1
  Fe  Fe10  1  0.49658110  -0.00063083  0.74911170  1
  Fe  Fe11  1  0.12386115  0.62668928  0.87751424  1
  Fe  Fe12  1  0.87544087  0.37295358  0.62577570  1
  Fe  Fe13  1  -0.00223337  0.74877743  0.24996862  1
  Fe  Fe14  1  0.12444580  0.37335224  0.87599426  1
  Fe  Fe15  1  0.12664437  0.13059332  0.12134005  1
  Fe  Fe16  1  0.12558225  0.12451275  0.37518107  1
  Fe  Fe17  1  0.87409063  0.88011067  0.12224146  1
  Fe  Fe18  1  0.37340012  0.12609169  0.62361014  1
  Fe  Fe19  1  0.62562674  0.12509007  0.37592394  1
  Fe  Fe20  1  0.87819271  0.87826224  0.37545959  1
  Fe  Fe21  1  0.24834879  0.49854845  0.50128465  1
  Fe  Fe22  1  0.50036511  0.25078877  0.50048912  1
  Fe  Fe23  1  0.00257820  0.49983478  0.74849523  1
  Fe  Fe24  1  0.87564286  0.62515695  0.62494060  1
  Fe  Fe25  1  0.87425907  0.12334452  0.62688435  1
  Fe  Fe26  1  0.37333899  0.87354118  0.62482013  1
  Fe  Fe27  1  0.12202221  0.62650874  0.37814666  1
  Fe  Fe28  1  0.62538024  0.37333865  0.12350764  1
  Fe  Fe29  1  0.87492747  0.37542408  0.37449285  1
  Fe  Fe30  1  0.87734420  0.87785369  0.87622136  1
  Fe  Fe31  1  0.62496499  0.12479392  0.62511918  1
  Fe  Fe32  1  0.12312590  0.87539614  0.37715414  1
  Fe  Fe33  1  0.12716727  0.12491027  0.62560788  1
  Fe  Fe34  1  0.00218304  0.24851314  0.75255070  1
  Fe  Fe35  1  0.75307160  0.75318952  0.50164360  1
  Fe  Fe36  1  0.75094027  0.24807713  0.25010375  1
  Fe  Fe37  1  0.50179985  0.50294673  0.74669413  1
  Fe  Fe38  1  0.49811286  0.74940651  0.24867334  1
  Fe  Fe39  1  0.12475399  0.62762968  0.62190035  1
  Fe  Fe40  1  0.87538675  0.37187132  0.12382907  1
  Fe  Fe41  1  0.37394468  0.37566236  0.62740098  1
  Fe  Fe42  1  0.49886325  0.24788998  0.24843398  1
  Fe  Fe43  1  0.75003984  0.75161644  -0.00109357  1
  Fe  Fe44  1  0.62638865  0.62532960  0.12522880  1
  Fe  Fe45  1  0.49785702  -0.00141426  0.00102570  1
  Fe  Fe46  1  0.61981321  0.87317725  0.87412632  1
  Fe  Fe47  1  0.75184437  0.75154941  0.25071216  1
  Fe  Fe48  1  0.25075474  0.00011227  0.24762205  1
  Fe  Fe49  1  0.62286544  0.87467700  0.37618895  1
  Fe  Fe50  1  0.49869777  -0.00015802  0.50062645  1
  Fe  Fe51  1  0.25289964  0.49732649  -0.00038151  1
  Fe  Fe52  1  0.75099546  0.24464331  -0.00432423  1
  Fe  Fe53  1  -0.00132948  0.50091934  0.24970343  1
  Fe  Fe54  1  0.75021242  0.50050178  -0.00097651  1
  Fe  Fe55  1  0.74980019  0.00015973  0.49967063  1
  Fe  Fe56  1  0.12476877  0.37162384  0.12519201  1
  Fe  Fe57  1  0.00130100  0.75285138  0.74933445  1
  Fe  Fe58  1  0.62239715  0.37371249  0.87508923  1
  Fe  Fe59  1  0.87595306  0.37494930  0.87454163  1
  Fe  Fe60  1  0.37378915  0.12408873  0.37397104  1
  Fe  Fe61  1  0.25004741  -0.00175857  0.50037533  1
  Fe  Fe62  1  0.49923412  0.24869127  0.75012094  1
  Fe  Fe63  1  0.62633577  0.37410675  0.37451993  1
  Fe  Fe64  1  0.25011968  0.50025476  0.24970062  1
  Fe  Fe65  1  0.12594706  0.62637761  0.12354737  1
  Fe  Fe66  1  0.25018944  0.25144241  0.49866692  1
  Fe  Fe67  1  0.87535387  0.12385083  0.37442013  1
  Fe  Fe68  1  0.37517368  0.37471248  0.37273475  1
  Fe  Fe69  1  0.50131047  0.49992370  0.50273999  1
  Fe  Fe70  1  0.24833498  0.50059195  0.75062616  1
  Fe  Fe71  1  0.74801913  0.24776355  0.75227509  1
  Fe  Fe72  1  0.00105566  0.00315417  0.24691252  1
  Fe  Fe73  1  0.62609157  0.87665307  0.12479321  1
  Fe  Fe74  1  0.37429234  0.62502011  0.37670726  1
  Fe  Fe75  1  0.25345999  0.75183077  0.00047599  1
  Fe  Fe76  1  0.74687085  -0.00004738  0.75279994  1
  Fe  Fe77  1  0.49745949  0.49956905  0.00143475  1
  Fe  Fe78  1  0.12408746  0.87317005  0.12391624  1
  Fe  Fe79  1  0.87651572  0.62571241  0.87452021  1
  Fe  Fe80  1  0.00501385  -0.00022068  0.74904494  1
  Fe  Fe81  1  0.12346449  0.37407437  0.37353613  1
  Fe  Fe82  1  0.37738463  0.62766107  0.87420661  1
  Fe  Fe83  1  0.62350092  0.62759431  0.87480907  1
  Fe  Fe84  1  0.00046595  0.24931803  0.49991113  1
  Fe  Fe85  1  0.62710490  0.12282171  0.12326654  1
  Fe  Fe86  1  0.25211507  0.75086364  0.25191253  1
  Fe  Fe87  1  0.49907598  0.00047533  0.24983138  1
  Fe  Fe88  1  0.74812652  0.49930725  0.75003770  1
  Fe  Fe89  1  0.74944728  0.49769539  0.50136803  1
  Co  Co90  1  0.37275014  0.62496862  0.12547862  1
  Co  Co91  1  0.87389497  0.62286966  0.37649702  1
  Co  Co92  1  0.37087622  0.62398888  0.62490855  1
  Co  Co93  1  0.12652871  0.87438003  0.62286089  1
  Co  Co94  1  -0.00152581  0.24794326  0.25119236  1
  Co  Co95  1  0.00072390  0.49806818  0.50150015  1
  Co  Co96  1  0.24980407  -0.00158516  0.00381853  1
  Co  Co97  1  0.37758553  0.37634362  0.87090627  1
  Co  Co98  1  0.62482219  0.37229439  0.62655039  1
  Co  Co99  1  -0.00214209  0.24718888  -0.00306750  1
  Co  Co100  1  0.87510336  0.87933498  0.62677686  1
  Co  Co101  1  0.37423630  0.37365445  0.12848716  1
  Co  Co102  1  0.49816313  0.25018977  0.00079807  1
  Co  Co103  1  0.87809854  0.12060622  0.87243778  1
  Co  Co104  1  0.87187862  0.12205116  0.12477324  1
  Co  Co105  1  0.37535859  0.87536950  0.12647575  1
  Co  Co106  1  0.12610243  0.37236471  0.62625539  1
  Co  Co107  1  0.37373446  0.12598219  0.12421097  1
  Co  Co108  1  0.74799652  0.00094813  -0.00580325  1
  Co  Co109  1  0.25353844  0.25447451  -0.00211812  1
  Co  Co110  1  0.75053308  0.24896024  0.50019439  1
  Co  Co111  1  0.37609236  0.87350266  0.87479233  1
  Co  Co112  1  0.62947619  0.62606549  0.62377433  1
  Co  Co113  1  0.61921007  0.12423371  0.87459377  1
  Co  Co114  1  0.25216232  -0.00036601  0.74865170  1
  Co  Co115  1  -0.00306206  0.75198878  0.50121127  1
  Co  Co116  1  0.37608044  0.87588968  0.37414364  1
  Co  Co117  1  0.75039888  0.49890171  0.24832427  1
  Co  Co118  1  0.00209764  0.00338498  0.00114684  1
  Co  Co119  1  0.12900963  0.12340743  0.87668825  1
  Co  Co120  1  0.00135959  0.00210072  0.50198869  1
  Co  Co121  1  0.74912517  -0.00082570  0.25367148  1
  Co  Co122  1  0.25092043  0.24907729  0.25148941  1
  Co  Co123  1  0.25108373  0.75242666  0.49853854  1
  Co  Co124  1  -0.00118076  0.75125593  -0.00040495  1
  Co  Co125  1  0.62425322  0.87765182  0.62467381  1
  Co  Co126  1  0.50008497  0.74927433  0.74500129  1
  Co  Co127  1  0.49942506  0.74981813  0.00339840  1
