# generated using pymatgen
data_Fe45Co19
_symmetry_space_group_name_H-M   'P 1'
_cell_length_a   11.41586367
_cell_length_b   11.41610334
_cell_length_c   11.41471754
_cell_angle_alpha   90.00634625
_cell_angle_beta   89.98734955
_cell_angle_gamma   90.00031321
_symmetry_Int_Tables_number   1
_chemical_formula_structural   Fe45Co19
_chemical_formula_sum   'Fe90 Co38'
_cell_volume   1487.61935888
_cell_formula_units_Z   2
loop_
 _symmetry_equiv_pos_site_id
 _symmetry_equiv_pos_as_xyz
  1  'x, y, z'
loop_
 _atom_site_type_symbol
 _atom_site_label
 _atom_site_symmetry_multiplicity
 _atom_site_fract_x
 _atom_site_fract_y
 _atom_site_fract_z
 _atom_site_occupancy
  Fe  Fe0  1  0.87371543  0.87200420  0.62794618  1
  Fe  Fe1  1  0.49869468  0.50294948  0.50266498  1
  Fe  Fe2  1  0.25189777  -0.00125883  0.49930359  1
  Fe  Fe3  1  0.49758013  -0.00087546  0.75165778  1
  Fe  Fe4  1  0.00223947  0.74818988  0.75044493  1
  Fe  Fe5  1  -0.00247049  -0.00054420  0.75210185  1
  Fe  Fe6  1  0.75088977  0.25121820  0.49888947  1
  Fe  Fe7  1  -0.00024862  0.74915686  0.24904289  1
  Fe  Fe8  1  0.12392814  0.12243208  0.87563859  1
  Fe  Fe9  1  0.12233651  0.87366244  0.37532108  1
  Fe  Fe10  1  -0.00155083  -0.00256114  0.50220628  1
  Fe  Fe11  1  0.37435235  0.87355498  0.12463367  1
  Fe  Fe12  1  0.50314124  0.75223410  -0.00239898  1
  Fe  Fe13  1  0.62596303  0.37628264  0.62517801  1
  Fe  Fe14  1  0.25008892  0.25063696  -0.00174021  1
  Fe  Fe15  1  0.37435317  0.12495310  0.62424883  1
  Fe  Fe16  1  0.12352894  0.62393514  0.87910913  1
  Fe  Fe17  1  0.62432849  0.62658479  0.37437649  1
  Fe  Fe18  1  0.37227678  0.37423288  0.12737918  1
  Fe  Fe19  1  0.49912020  0.00039536  0.24951397  1
  Fe  Fe20  1  0.87399613  0.37550770  0.12241211  1
  Fe  Fe21  1  0.24827098  0.74732388  0.75182617  1
  Fe  Fe22  1  0.00023310  0.25000612  0.25013082  1
  Fe  Fe23  1  0.87459252  0.62584181  0.11868371  1
  Fe  Fe24  1  0.49852884  0.25013500  0.74995321  1
  Fe  Fe25  1  0.24974129  0.25134295  0.49891233  1
  Fe  Fe26  1  0.00122566  0.50004331  0.74845841  1
  Fe  Fe27  1  0.24912926  0.25034667  0.75093826  1
  Fe  Fe28  1  0.50273474  0.49830864  0.00216902  1
  Fe  Fe29  1  0.62905267  0.12677700  0.12486454  1
  Fe  Fe30  1  0.87557726  0.37709510  0.37295167  1
  Fe  Fe31  1  0.00194547  0.25291229  0.50112785  1
  Fe  Fe32  1  0.12614329  0.62026472  0.62012552  1
  Fe  Fe33  1  0.49735946  0.00023967  -0.00050599  1
  Fe  Fe34  1  0.37624106  0.37696601  0.87489828  1
  Fe  Fe35  1  0.88029197  0.62598103  0.37688735  1
  Fe  Fe36  1  0.87527586  0.62304301  0.87832152  1
  Fe  Fe37  1  0.24842344  0.74811045  0.25023418  1
  Fe  Fe38  1  0.50112334  0.50507667  0.74788197  1
  Fe  Fe39  1  0.37102670  0.37877679  0.62739222  1
  Fe  Fe40  1  0.62836250  0.37250489  0.12639143  1
  Fe  Fe41  1  0.37671079  0.86974363  0.62765893  1
  Fe  Fe42  1  0.87450925  0.12594774  0.62521309  1
  Fe  Fe43  1  0.37588869  0.87385707  0.37342353  1
  Fe  Fe44  1  0.24640324  0.49936418  0.00243829  1
  Fe  Fe45  1  0.37158186  0.12613722  0.12897924  1
  Fe  Fe46  1  0.12561149  0.12513857  0.12508195  1
  Fe  Fe47  1  0.75270624  0.74940733  0.49836233  1
  Fe  Fe48  1  0.24914140  0.74863801  0.49967237  1
  Fe  Fe49  1  0.62342855  0.87104572  0.62727356  1
  Fe  Fe50  1  0.62507999  0.12666573  0.37374910  1
  Fe  Fe51  1  0.62567297  0.12374865  0.87488147  1
  Fe  Fe52  1  0.75120824  0.25131227  0.75462046  1
  Fe  Fe53  1  0.12603306  0.12234167  0.37424342  1
  Fe  Fe54  1  0.49813998  0.25081382  0.49989183  1
  Fe  Fe55  1  -0.00059338  -0.00112078  0.24807603  1
  Fe  Fe56  1  0.75218551  0.50191323  0.50054207  1
  Fe  Fe57  1  0.12583955  0.87605680  0.62722578  1
  Fe  Fe58  1  0.50051012  0.50175455  0.24729391  1
  Fe  Fe59  1  0.50059734  0.24917998  0.00097474  1
  Fe  Fe60  1  0.37487929  0.62493065  0.37352825  1
  Fe  Fe61  1  0.62549530  0.87093614  0.37187832  1
  Fe  Fe62  1  0.75133694  0.50307375  0.24871951  1
  Fe  Fe63  1  0.25275024  -0.00013458  0.75263040  1
  Fe  Fe64  1  0.87383195  0.12677813  0.12311057  1
  Fe  Fe65  1  -0.00007692  0.25128515  0.75034111  1
  Fe  Fe66  1  0.37543829  0.37606438  0.37065621  1
  Fe  Fe67  1  0.12510677  0.38038992  0.37431480  1
  Fe  Fe68  1  0.75249550  -0.00122131  0.25097995  1
  Fe  Fe69  1  0.62503311  0.37548307  0.37349436  1
  Fe  Fe70  1  0.12356425  0.37627191  0.87553200  1
  Fe  Fe71  1  0.37589849  0.62497911  0.87648898  1
  Fe  Fe72  1  0.00391623  0.50233019  0.24439834  1
  Fe  Fe73  1  0.25060609  -0.00120444  -0.00174132  1
  Fe  Fe74  1  0.74960159  -0.00227727  0.50094069  1
  Fe  Fe75  1  0.37415479  0.62607380  0.12316167  1
  Fe  Fe76  1  0.62718444  0.62767057  0.12392869  1
  Fe  Fe77  1  0.50010381  -0.00135518  0.49910319  1
  Fe  Fe78  1  0.74609031  0.74842912  0.75576578  1
  Fe  Fe79  1  0.12545169  0.12422527  0.62545830  1
  Fe  Fe80  1  0.75324784  -0.00220595  -0.00381688  1
  Fe  Fe81  1  0.62535703  0.12530945  0.62626943  1
  Fe  Fe82  1  0.62703968  0.87317773  0.12631721  1
  Fe  Fe83  1  0.87540990  0.12387982  0.37618825  1
  Fe  Fe84  1  0.87494954  0.87183846  0.12258661  1
  Fe  Fe85  1  0.74759057  0.50093860  0.75263401  1
  Fe  Fe86  1  0.24786384  0.75133272  -0.00253263  1
  Fe  Fe87  1  0.12409026  0.87393360  0.12263472  1
  Fe  Fe88  1  0.87411530  0.37614232  0.62690500  1
  Fe  Fe89  1  -0.00213261  0.25001197  -0.00248128  1
  Co  Co90  1  0.74678524  0.49742238  -0.00083307  1
  Co  Co91  1  0.12505986  0.62992303  0.12314373  1
  Co  Co92  1  0.49880532  0.74823193  0.49968315  1
  Co  Co93  1  0.87353684  0.62560826  0.62752940  1
  Co  Co94  1  0.00062563  0.75176180  -0.00319921  1
  Co  Co95  1  0.00020319  0.75161359  0.50485611  1
  Co  Co96  1  0.87625871  0.87204210  0.87389133  1
  Co  Co97  1  0.62358617  0.87975821  0.87482818  1
  Co  Co98  1  0.12538218  0.37132520  0.12441639  1
  Co  Co99  1  0.37526998  0.12671803  0.87565449  1
  Co  Co100  1  0.24828744  0.50281624  0.75396441  1
  Co  Co101  1  0.62692482  0.62781078  0.62261025  1
  Co  Co102  1  0.12785532  0.37811272  0.62563005  1
  Co  Co103  1  0.87782115  0.38077830  0.87669564  1
  Co  Co104  1  0.49874525  0.74900040  0.24788033  1
  Co  Co105  1  0.12469966  0.87739327  0.87427948  1
  Co  Co106  1  0.50252997  0.74616749  0.75357038  1
  Co  Co107  1  -0.00159532  -0.00108745  -0.00033146  1
  Co  Co108  1  0.75075110  0.25297875  -0.00542396  1
  Co  Co109  1  0.87441335  0.12355036  0.87459226  1
  Co  Co110  1  -0.00294941  0.49754847  0.50379604  1
  Co  Co111  1  0.12117869  0.62378282  0.37805606  1
  Co  Co112  1  0.24907489  -0.00331942  0.24961541  1
  Co  Co113  1  0.24788369  0.25129141  0.25309788  1
  Co  Co114  1  0.75191092  0.25025314  0.25144838  1
  Co  Co115  1  0.37453488  0.12467081  0.37324672  1
  Co  Co116  1  0.87701049  0.87443279  0.37541731  1
  Co  Co117  1  0.50097814  0.24879247  0.24832920  1
  Co  Co118  1  0.24724091  0.50342576  0.24656448  1
  Co  Co119  1  0.37301667  0.62669618  0.62682170  1
  Co  Co120  1  0.74759938  0.75134898  -0.00352270  1
  Co  Co121  1  0.00401943  0.49986230  0.00344175  1
  Co  Co122  1  0.75141441  -0.00050431  0.74909700  1
  Co  Co123  1  0.37503183  0.87183431  0.87420065  1
  Co  Co124  1  0.75409962  0.74760898  0.25022634  1
  Co  Co125  1  0.25358731  0.50035416  0.49748577  1
  Co  Co126  1  0.62040672  0.37488396  0.87344739  1
  Co  Co127  1  0.62352656  0.62229215  0.87922414  1
