# generated using pymatgen
data_Fe45Co19
_symmetry_space_group_name_H-M   'P 1'
_cell_length_a   11.41507393
_cell_length_b   11.41427155
_cell_length_c   11.41499879
_cell_angle_alpha   90.01928658
_cell_angle_beta   90.00022035
_cell_angle_gamma   89.99742990
_symmetry_Int_Tables_number   1
_chemical_formula_structural   Fe45Co19
_chemical_formula_sum   'Fe90 Co38'
_cell_volume   1487.31436767
_cell_formula_units_Z   2
loop_
 _symmetry_equiv_pos_site_id
 _symmetry_equiv_pos_as_xyz
  1  'x, y, z'
loop_
 _atom_site_type_symbol
 _atom_site_label
 _atom_site_symmetry_multiplicity
 _atom_site_fract_x
 _atom_site_fract_y
 _atom_site_fract_z
 _atom_site_occupancy
  Fe  Fe0  1  0.87377418  0.62717413  0.62343976  1
  Fe  Fe1  1  0.75179001  0.74885976  0.25133882  1
  Fe  Fe2  1  0.87272054  0.12016850  0.37605675  1
  Fe  Fe3  1  0.25092602  0.50005583  0.00065518  1
  Fe  Fe4  1  0.37367211  0.37343194  0.87191246  1
  Fe  Fe5  1  0.12244030  0.12536285  0.62520119  1
  Fe  Fe6  1  -0.00098180  -0.00104601  0.75208319  1
  Fe  Fe7  1  0.12621900  0.12548108  0.37721489  1
  Fe  Fe8  1  0.62305361  0.87230588  0.12327821  1
  Fe  Fe9  1  0.37281677  0.87246187  0.87385724  1
  Fe  Fe10  1  0.00007420  0.00148226  0.25194209  1
  Fe  Fe11  1  0.75155764  0.50198403  0.24868539  1
  Fe  Fe12  1  0.87449523  0.37666319  0.37668088  1
  Fe  Fe13  1  0.50327069  0.49774059  0.75037963  1
  Fe  Fe14  1  -0.00240530  0.24776615  0.25207693  1
  Fe  Fe15  1  0.12197507  0.87549386  0.62509042  1
  Fe  Fe16  1  0.24967381  0.00032504  -0.00139996  1
  Fe  Fe17  1  0.74882235  0.50294338  0.50097173  1
  Fe  Fe18  1  0.24916221  0.25348779  0.50501126  1
  Fe  Fe19  1  0.87449177  0.87730043  0.12642105  1
  Fe  Fe20  1  0.37627224  0.87391409  0.37741954  1
  Fe  Fe21  1  0.37181863  0.62628732  0.87248965  1
  Fe  Fe22  1  0.75120573  0.24801782  0.24815829  1
  Fe  Fe23  1  0.50033102  0.50020694  -0.00214383  1
  Fe  Fe24  1  -0.00020365  0.50104210  -0.00237966  1
  Fe  Fe25  1  0.50173564  0.74988569  0.75098553  1
  Fe  Fe26  1  0.37436256  0.12719403  0.87177449  1
  Fe  Fe27  1  0.37629538  0.87344954  0.12384103  1
  Fe  Fe28  1  0.50004438  0.25008982  0.25212396  1
  Fe  Fe29  1  0.62653632  0.12416266  0.37712259  1
  Fe  Fe30  1  0.12693985  0.87349925  0.87426057  1
  Fe  Fe31  1  0.12396778  0.37532788  0.37887014  1
  Fe  Fe32  1  0.74859547  -0.00138189  -0.00180781  1
  Fe  Fe33  1  0.50206258  0.49968635  0.49966734  1
  Fe  Fe34  1  0.74949362  0.50018598  0.00166445  1
  Fe  Fe35  1  0.50494623  -0.00002335  0.75307985  1
  Fe  Fe36  1  0.12421278  0.62498405  0.12516104  1
  Fe  Fe37  1  0.62969750  0.37100663  0.87356865  1
  Fe  Fe38  1  -0.00108227  0.74898422  0.75156776  1
  Fe  Fe39  1  0.87832744  0.37777145  0.62397029  1
  Fe  Fe40  1  0.12496607  0.37377999  0.12601383  1
  Fe  Fe41  1  0.12193000  0.62332074  0.62379266  1
  Fe  Fe42  1  0.37395998  0.37524517  0.37726698  1
  Fe  Fe43  1  0.12447327  0.37406805  0.87151614  1
  Fe  Fe44  1  0.62755505  0.37552693  0.37526609  1
  Fe  Fe45  1  -0.00045606  0.00032925  -0.00215301  1
  Fe  Fe46  1  0.62867984  0.62907471  0.87395824  1
  Fe  Fe47  1  0.75084535  0.49973681  0.74826873  1
  Fe  Fe48  1  0.37730632  0.62305252  0.62450912  1
  Fe  Fe49  1  -0.00153171  0.24829867  -0.00024419  1
  Fe  Fe50  1  0.37474171  0.12620731  0.37701894  1
  Fe  Fe51  1  0.25151550  0.74971906  0.25044880  1
  Fe  Fe52  1  -0.00142389  0.75018575  0.00021460  1
  Fe  Fe53  1  0.37899164  0.12769934  0.62578906  1
  Fe  Fe54  1  0.37666950  0.62663044  0.12514712  1
  Fe  Fe55  1  0.25178535  0.49930530  0.25041910  1
  Fe  Fe56  1  0.12805446  0.62653834  0.87429091  1
  Fe  Fe57  1  0.24781811  0.49720330  0.74446838  1
  Fe  Fe58  1  0.24936404  0.24998932  -0.00088986  1
  Fe  Fe59  1  -0.00182187  0.24954837  0.74974957  1
  Fe  Fe60  1  0.62341060  0.62698268  0.12528433  1
  Fe  Fe61  1  0.74952067  -0.00540662  0.50445755  1
  Fe  Fe62  1  0.62581501  0.87505224  0.37591003  1
  Fe  Fe63  1  0.37452561  0.12708451  0.12581152  1
  Fe  Fe64  1  0.49814824  0.50011998  0.25147296  1
  Fe  Fe65  1  0.50082520  -0.00012093  0.25132879  1
  Fe  Fe66  1  0.87607771  0.12083369  0.62509441  1
  Fe  Fe67  1  0.87134404  0.62794688  0.87603067  1
  Fe  Fe68  1  0.25157142  -0.00006712  0.25128162  1
  Fe  Fe69  1  0.50395180  0.74739585  0.49905114  1
  Fe  Fe70  1  0.62353112  0.37470652  0.12578392  1
  Fe  Fe71  1  0.62370478  0.12578911  0.62542022  1
  Fe  Fe72  1  0.25032300  0.74895674  0.50263057  1
  Fe  Fe73  1  0.50168974  -0.00005447  -0.00361933  1
  Fe  Fe74  1  0.87293656  0.37375325  0.87476516  1
  Fe  Fe75  1  0.87627089  0.37555932  0.12496005  1
  Fe  Fe76  1  -0.00322235  0.74912680  0.25181833  1
  Fe  Fe77  1  -0.00159147  0.50124516  0.25198933  1
  Fe  Fe78  1  0.25074284  -0.00039300  0.50210231  1
  Fe  Fe79  1  0.87017583  0.12523052  0.87445552  1
  Fe  Fe80  1  0.12583094  0.12597695  0.12575784  1
  Fe  Fe81  1  0.37879280  0.87555961  0.62476078  1
  Fe  Fe82  1  0.50114412  0.25078424  -0.00226900  1
  Fe  Fe83  1  0.24939967  0.00016742  0.74865233  1
  Fe  Fe84  1  0.12509337  0.87561331  0.37567769  1
  Fe  Fe85  1  0.75124875  0.25066559  0.50269471  1
  Fe  Fe86  1  -0.00368589  0.75172085  0.49695633  1
  Fe  Fe87  1  0.12617659  0.62386972  0.37672712  1
  Fe  Fe88  1  0.62503682  0.12585104  0.12340795  1
  Fe  Fe89  1  0.12529308  0.87518798  0.12508316  1
  Co  Co90  1  -0.00125016  0.50233917  0.49829414  1
  Co  Co91  1  0.75113028  0.25100869  0.00426394  1
  Co  Co92  1  0.37462319  0.62517070  0.37726021  1
  Co  Co93  1  0.62510088  0.37585754  0.62414741  1
  Co  Co94  1  0.87302921  0.62438270  0.37712764  1
  Co  Co95  1  0.37585278  0.37387561  0.12392922  1
  Co  Co96  1  0.49848972  0.74830297  -0.00375701  1
  Co  Co97  1  0.24783672  0.25097885  0.74587122  1
  Co  Co98  1  0.87588553  0.62337596  0.12385253  1
  Co  Co99  1  -0.00291624  0.24811221  0.49913928  1
  Co  Co100  1  0.75196455  0.25062585  0.74363105  1
  Co  Co101  1  0.50404077  0.25151763  0.75084015  1
  Co  Co102  1  0.74860246  0.75143474  0.50023614  1
  Co  Co103  1  0.25043427  0.74964410  0.00168130  1
  Co  Co104  1  0.25010137  0.49875152  0.50435564  1
  Co  Co105  1  0.25026271  0.25187664  0.25192125  1
  Co  Co106  1  0.87249506  0.87842153  0.37456005  1
  Co  Co107  1  0.50070612  0.00086010  0.49840818  1
  Co  Co108  1  0.62597086  0.62387213  0.37334146  1
  Co  Co109  1  0.00067868  -0.00104525  0.49852434  1
  Co  Co110  1  0.62113251  0.87444347  0.62481779  1
  Co  Co111  1  0.50233053  0.25177697  0.49819686  1
  Co  Co112  1  0.87816182  0.87442753  0.62592750  1
  Co  Co113  1  0.74596583  -0.00010305  0.24793335  1
  Co  Co114  1  0.37973507  0.37399453  0.62637311  1
  Co  Co115  1  0.87352801  0.87399568  0.87360814  1
  Co  Co116  1  0.11760071  0.37585901  0.62511392  1
  Co  Co117  1  0.74912172  0.75426113  0.74532614  1
  Co  Co118  1  0.62723426  0.87056113  0.87549936  1
  Co  Co119  1  -0.00219810  0.50320451  0.75308256  1
  Co  Co120  1  0.24960570  0.75013976  0.74454592  1
  Co  Co121  1  0.63001655  0.12889398  0.87364598  1
  Co  Co122  1  0.87467039  0.12180528  0.12397540  1
  Co  Co123  1  0.12505609  0.12543406  0.87380625  1
  Co  Co124  1  0.75150369  0.75083189  0.00338557  1
  Co  Co125  1  0.62547922  0.62454285  0.62697661  1
  Co  Co126  1  0.74721347  -0.00297147  0.74901481  1
  Co  Co127  1  0.50019206  0.75120898  0.25252237  1
