# generated using pymatgen
data_Fe45Co19
_symmetry_space_group_name_H-M   'P 1'
_cell_length_a   11.41735880
_cell_length_b   11.41543355
_cell_length_c   11.41468341
_cell_angle_alpha   89.98645140
_cell_angle_beta   90.00131375
_cell_angle_gamma   90.00246790
_symmetry_Int_Tables_number   1
_chemical_formula_structural   Fe45Co19
_chemical_formula_sum   'Fe90 Co38'
_cell_volume   1487.72245315
_cell_formula_units_Z   2
loop_
 _symmetry_equiv_pos_site_id
 _symmetry_equiv_pos_as_xyz
  1  'x, y, z'
loop_
 _atom_site_type_symbol
 _atom_site_label
 _atom_site_symmetry_multiplicity
 _atom_site_fract_x
 _atom_site_fract_y
 _atom_site_fract_z
 _atom_site_occupancy
  Fe  Fe0  1  0.74974886  -0.00120548  0.75013870  1
  Fe  Fe1  1  0.37557836  0.12467321  0.12668540  1
  Fe  Fe2  1  0.24928025  0.50336976  0.50558843  1
  Fe  Fe3  1  0.74908297  0.74958614  0.74901076  1
  Fe  Fe4  1  0.87123021  0.12758188  0.87277804  1
  Fe  Fe5  1  0.62636046  0.87687887  0.87703719  1
  Fe  Fe6  1  0.12508022  0.62317421  0.87239423  1
  Fe  Fe7  1  0.00026147  0.75217165  0.75217658  1
  Fe  Fe8  1  -0.00131343  0.00125334  0.75151929  1
  Fe  Fe9  1  0.37539380  0.87385529  0.87179573  1
  Fe  Fe10  1  0.25141983  0.00175781  0.50206475  1
  Fe  Fe11  1  0.49956843  0.75021018  -0.00026982  1
  Fe  Fe12  1  0.24908810  0.75127196  -0.00331704  1
  Fe  Fe13  1  0.24765182  0.74565292  0.50438954  1
  Fe  Fe14  1  0.12367034  0.62416587  0.12457131  1
  Fe  Fe15  1  0.49936244  0.24679513  0.50459068  1
  Fe  Fe16  1  0.37279897  0.87506340  0.37480264  1
  Fe  Fe17  1  0.25277800  0.24762863  0.00028615  1
  Fe  Fe18  1  0.87353360  0.87558842  0.87588345  1
  Fe  Fe19  1  0.24786531  -0.00006898  0.75143671  1
  Fe  Fe20  1  0.50156155  -0.00192277  0.25292722  1
  Fe  Fe21  1  0.12345882  0.12376494  0.87865654  1
  Fe  Fe22  1  0.37366848  0.62718047  0.86977128  1
  Fe  Fe23  1  0.49752085  0.50124646  0.49993103  1
  Fe  Fe24  1  0.75243182  -0.00088214  0.49719590  1
  Fe  Fe25  1  0.87810556  0.62314339  0.62667537  1
  Fe  Fe26  1  0.62501948  0.37547206  0.37503031  1
  Fe  Fe27  1  0.75260349  0.50090987  0.49826771  1
  Fe  Fe28  1  0.37432314  0.37311808  0.12664015  1
  Fe  Fe29  1  0.74921338  0.25045910  0.00117433  1
  Fe  Fe30  1  0.37264874  0.87621523  0.12615026  1
  Fe  Fe31  1  0.25015249  0.49889262  0.24904919  1
  Fe  Fe32  1  -0.00366196  0.25131617  -0.00063704  1
  Fe  Fe33  1  0.00073088  0.49686945  0.24858117  1
  Fe  Fe34  1  0.87645037  0.12567797  0.37128581  1
  Fe  Fe35  1  0.50155987  0.25009204  0.25020974  1
  Fe  Fe36  1  0.00008799  0.49784531  0.50032906  1
  Fe  Fe37  1  0.50326685  0.00329013  0.74747303  1
  Fe  Fe38  1  0.62544993  0.87475473  0.12709167  1
  Fe  Fe39  1  0.87360214  0.12810708  0.62725699  1
  Fe  Fe40  1  0.00097197  0.74801703  0.49895710  1
  Fe  Fe41  1  0.24489474  0.00545248  0.24987239  1
  Fe  Fe42  1  0.37528626  0.12445778  0.37448104  1
  Fe  Fe43  1  0.62499032  0.12266142  0.12374684  1
  Fe  Fe44  1  0.62363377  0.62405603  0.62435311  1
  Fe  Fe45  1  0.49867887  -0.00040932  -0.00076294  1
  Fe  Fe46  1  0.49921269  0.50098383  0.24971193  1
  Fe  Fe47  1  0.87823248  0.62676602  0.36971252  1
  Fe  Fe48  1  0.62523973  0.87693644  0.62133054  1
  Fe  Fe49  1  0.75183246  0.74833825  0.00334612  1
  Fe  Fe50  1  0.62375714  0.12326437  0.37802685  1
  Fe  Fe51  1  0.12540177  0.87614903  0.37711470  1
  Fe  Fe52  1  -0.00203997  0.49604956  0.00043452  1
  Fe  Fe53  1  0.12745825  0.37378320  0.37539001  1
  Fe  Fe54  1  0.24596070  0.74986995  0.24916736  1
  Fe  Fe55  1  0.74349856  0.25449747  0.74943088  1
  Fe  Fe56  1  0.00021417  0.75088359  -0.00067249  1
  Fe  Fe57  1  0.25176735  0.50012083  -0.00165457  1
  Fe  Fe58  1  0.12394359  0.12706846  0.62394662  1
  Fe  Fe59  1  0.50186864  0.25072895  -0.00125733  1
  Fe  Fe60  1  0.87549665  0.12458491  0.12939837  1
  Fe  Fe61  1  -0.00238393  0.25165033  0.49997909  1
  Fe  Fe62  1  0.87605233  0.62261212  0.87413199  1
  Fe  Fe63  1  0.75370690  0.50058492  0.00470805  1
  Fe  Fe64  1  0.37467223  0.62705515  0.12544995  1
  Fe  Fe65  1  0.75019100  0.25116454  0.49942366  1
  Fe  Fe66  1  0.74944223  0.49738675  0.74849696  1
  Fe  Fe67  1  0.62599053  0.37704280  0.12574400  1
  Fe  Fe68  1  0.00242150  0.49087638  0.75007837  1
  Fe  Fe69  1  0.62510844  0.62779952  0.37139367  1
  Fe  Fe70  1  0.25224289  0.24828448  0.49919712  1
  Fe  Fe71  1  0.37446102  0.37225918  0.87159459  1
  Fe  Fe72  1  0.75215224  0.74908047  0.50006401  1
  Fe  Fe73  1  0.50076805  0.49759588  0.74977791  1
  Fe  Fe74  1  0.12262148  0.87513264  0.62542476  1
  Fe  Fe75  1  0.12469576  0.88169353  0.11920002  1
  Fe  Fe76  1  0.87715318  0.87783393  0.12826398  1
  Fe  Fe77  1  0.37422342  0.37393674  0.37432395  1
  Fe  Fe78  1  0.87607427  0.87476339  0.62457075  1
  Fe  Fe79  1  -0.00181082  0.00149363  0.49947397  1
  Fe  Fe80  1  0.62578649  0.62317767  0.87700565  1
  Fe  Fe81  1  0.12679134  0.37127757  0.12364022  1
  Fe  Fe82  1  0.37854585  0.12761208  0.87120582  1
  Fe  Fe83  1  0.37229041  0.62597153  0.37421160  1
  Fe  Fe84  1  0.49924214  0.75102722  0.49869456  1
  Fe  Fe85  1  0.37622085  0.87368113  0.62687837  1
  Fe  Fe86  1  0.87279191  0.37307597  0.36962878  1
  Fe  Fe87  1  0.49703700  0.50055714  0.00002103  1
  Fe  Fe88  1  0.87609049  0.87442186  0.37072052  1
  Fe  Fe89  1  0.37402022  0.37147188  0.62851192  1
  Co  Co90  1  0.37858215  0.62699889  0.62886538  1
  Co  Co91  1  0.62991251  0.12266729  0.62223875  1
  Co  Co92  1  0.24444673  0.24917132  0.75284593  1
  Co  Co93  1  0.62142534  0.62489097  0.12460997  1
  Co  Co94  1  0.12468901  0.12730574  0.38066889  1
  Co  Co95  1  0.12470886  0.62256986  0.37370618  1
  Co  Co96  1  0.12779184  0.37423503  0.87998053  1
  Co  Co97  1  0.62559299  0.37789167  0.87961397  1
  Co  Co98  1  0.37218308  0.12690400  0.62949865  1
  Co  Co99  1  0.12420375  0.87837164  0.87758785  1
  Co  Co100  1  0.74802281  0.00114694  0.25192098  1
  Co  Co101  1  0.00530012  0.75338644  0.24863075  1
  Co  Co102  1  -0.00657577  0.00240453  -0.00266807  1
  Co  Co103  1  0.62625855  0.87283068  0.37512896  1
  Co  Co104  1  0.24627452  0.75106803  0.74849670  1
  Co  Co105  1  0.00267503  0.25204204  0.75221492  1
  Co  Co106  1  0.62638088  0.12374865  0.87711812  1
  Co  Co107  1  0.24856697  0.49912847  0.74760160  1
  Co  Co108  1  0.87330284  0.37154323  0.12928551  1
  Co  Co109  1  0.00527102  0.00292283  0.25191281  1
  Co  Co110  1  0.62524672  0.37758637  0.61960988  1
  Co  Co111  1  0.87351417  0.37324136  0.62546088  1
  Co  Co112  1  0.49717744  0.00053995  0.50072592  1
  Co  Co113  1  0.49752686  0.75085813  0.25047875  1
  Co  Co114  1  0.75160808  0.74841015  0.24635450  1
  Co  Co115  1  0.50726627  0.25015925  0.74779957  1
  Co  Co116  1  0.12411475  0.12451429  0.11827823  1
  Co  Co117  1  0.25592201  0.00220412  -0.00314292  1
  Co  Co118  1  0.88101953  0.62546846  0.12668226  1
  Co  Co119  1  0.87157873  0.37428556  0.87473750  1
  Co  Co120  1  0.12687597  0.37058451  0.62133781  1
  Co  Co121  1  0.75208809  -0.00010427  0.00156956  1
  Co  Co122  1  0.74575339  0.24757745  0.25070077  1
  Co  Co123  1  0.50565740  0.75081266  0.75081430  1
  Co  Co124  1  0.00503158  0.24824932  0.25000374  1
  Co  Co125  1  0.11898251  0.62473442  0.62849412  1
  Co  Co126  1  0.74987082  0.50304648  0.24852036  1
  Co  Co127  1  0.24821897  0.24686837  0.24980507  1
