# generated using pymatgen
data_Fe45Co19
_symmetry_space_group_name_H-M   'P 1'
_cell_length_a   11.41363513
_cell_length_b   11.41521380
_cell_length_c   11.41612945
_cell_angle_alpha   89.99380909
_cell_angle_beta   90.00262916
_cell_angle_gamma   90.00308595
_symmetry_Int_Tables_number   1
_chemical_formula_structural   Fe45Co19
_chemical_formula_sum   'Fe90 Co38'
_cell_volume   1487.39705173
_cell_formula_units_Z   2
loop_
 _symmetry_equiv_pos_site_id
 _symmetry_equiv_pos_as_xyz
  1  'x, y, z'
loop_
 _atom_site_type_symbol
 _atom_site_label
 _atom_site_symmetry_multiplicity
 _atom_site_fract_x
 _atom_site_fract_y
 _atom_site_fract_z
 _atom_site_occupancy
  Fe  Fe0  1  0.37537532  0.12532623  0.87756463  1
  Fe  Fe1  1  0.87537153  0.62589885  0.12203776  1
  Fe  Fe2  1  -0.00177306  0.24805540  0.75128053  1
  Fe  Fe3  1  0.24927434  0.75279242  0.00020131  1
  Fe  Fe4  1  0.37838592  0.62364315  0.12310252  1
  Fe  Fe5  1  0.00299993  0.75170917  -0.00265786  1
  Fe  Fe6  1  0.25177372  0.74885464  0.24963528  1
  Fe  Fe7  1  -0.00086285  0.75040994  0.25135016  1
  Fe  Fe8  1  0.00161910  0.49698441  -0.00069927  1
  Fe  Fe9  1  0.00014205  0.25033270  0.49806613  1
  Fe  Fe10  1  0.74919705  0.49995812  0.24739089  1
  Fe  Fe11  1  0.50080213  0.75182704  -0.00121047  1
  Fe  Fe12  1  0.24749616  0.49359158  0.00417218  1
  Fe  Fe13  1  0.87307800  0.37417027  0.62473501  1
  Fe  Fe14  1  0.75004631  0.50222121  0.74722636  1
  Fe  Fe15  1  0.87611427  0.87557296  0.87146126  1
  Fe  Fe16  1  0.62379017  0.12584777  0.62542568  1
  Fe  Fe17  1  0.74960845  0.74888690  0.24802232  1
  Fe  Fe18  1  0.12435842  0.87371428  0.62683250  1
  Fe  Fe19  1  0.12558152  0.87634377  0.12615685  1
  Fe  Fe20  1  0.37586784  0.37511818  0.37571559  1
  Fe  Fe21  1  0.74989358  0.00477567  0.24601653  1
  Fe  Fe22  1  0.00015705  0.00111250  0.49990612  1
  Fe  Fe23  1  0.12616581  0.37609227  0.37165644  1
  Fe  Fe24  1  0.74758620  0.00229999  0.00215696  1
  Fe  Fe25  1  0.25253113  0.49840635  0.50155788  1
  Fe  Fe26  1  0.87595144  0.87364532  0.62712630  1
  Fe  Fe27  1  0.74736579  0.24773645  0.00295387  1
  Fe  Fe28  1  0.87537809  0.37345428  0.12432678  1
  Fe  Fe29  1  0.38326598  0.62443679  0.62357108  1
  Fe  Fe30  1  0.74792060  0.75103940  -0.00199662  1
  Fe  Fe31  1  0.12819769  0.12788755  0.62360532  1
  Fe  Fe32  1  -0.00220210  0.50172628  0.25009327  1
  Fe  Fe33  1  0.87446249  0.87604456  0.12377488  1
  Fe  Fe34  1  0.38313122  0.12856821  0.12272018  1
  Fe  Fe35  1  0.87283626  0.12512550  0.62352020  1
  Fe  Fe36  1  0.62201449  0.62469132  0.12491001  1
  Fe  Fe37  1  0.37899901  0.87607611  0.12544536  1
  Fe  Fe38  1  0.25153527  0.74955492  0.74933874  1
  Fe  Fe39  1  0.50005073  0.25094775  0.49689180  1
  Fe  Fe40  1  0.25413657  0.00209464  0.24992102  1
  Fe  Fe41  1  0.25421453  0.24975820  0.24767493  1
  Fe  Fe42  1  0.37454147  0.62363906  0.87747536  1
  Fe  Fe43  1  0.49883432  0.25080903  0.75192170  1
  Fe  Fe44  1  0.12722502  0.37306916  0.62780692  1
  Fe  Fe45  1  0.62435932  0.12308027  0.87326210  1
  Fe  Fe46  1  -0.00432842  0.24731783  0.25328257  1
  Fe  Fe47  1  0.50091760  -0.00016361  0.49894667  1
  Fe  Fe48  1  0.12789910  0.62306118  0.87484629  1
  Fe  Fe49  1  0.87148787  0.37358876  0.87462003  1
  Fe  Fe50  1  0.12856163  0.87423394  0.37570798  1
  Fe  Fe51  1  0.25479936  0.49728902  0.74816119  1
  Fe  Fe52  1  0.37746372  0.87344686  0.62360719  1
  Fe  Fe53  1  0.62760254  0.37655523  0.87412915  1
  Fe  Fe54  1  0.00255770  0.25130911  -0.00240443  1
  Fe  Fe55  1  0.12549315  0.62408932  0.62523024  1
  Fe  Fe56  1  -0.00218800  0.00050434  0.25303407  1
  Fe  Fe57  1  0.62293600  0.87765613  0.87213994  1
  Fe  Fe58  1  0.62667480  0.12501411  0.37334332  1
  Fe  Fe59  1  0.74401947  0.74727547  0.50487333  1
  Fe  Fe60  1  0.25123084  0.00126686  0.00215353  1
  Fe  Fe61  1  0.25365242  0.49903211  0.24680922  1
  Fe  Fe62  1  0.12926783  0.12483175  0.37648438  1
  Fe  Fe63  1  0.12459231  0.62490616  0.12514085  1
  Fe  Fe64  1  0.25132314  0.00114708  0.74712841  1
  Fe  Fe65  1  -0.00170861  0.49999174  0.74990797  1
  Fe  Fe66  1  0.75138876  0.00195697  0.74856850  1
  Fe  Fe67  1  0.12302250  0.12537435  0.12598673  1
  Fe  Fe68  1  0.62032098  0.37388291  0.12605705  1
  Fe  Fe69  1  0.12743725  0.12463252  0.87389257  1
  Fe  Fe70  1  0.37950882  0.62675188  0.37693517  1
  Fe  Fe71  1  0.87157863  0.37562042  0.37549955  1
  Fe  Fe72  1  0.62170047  0.87463101  0.63005843  1
  Fe  Fe73  1  0.87099981  0.87615727  0.37736282  1
  Fe  Fe74  1  0.87408987  0.62486474  0.87469340  1
  Fe  Fe75  1  0.62322652  0.62354280  0.87220773  1
  Fe  Fe76  1  0.62700990  0.37548475  0.37323627  1
  Fe  Fe77  1  0.87167968  0.62493661  0.37730813  1
  Fe  Fe78  1  0.00041736  0.74876629  0.49969677  1
  Fe  Fe79  1  0.37533882  0.87426256  0.37665189  1
  Fe  Fe80  1  -0.00020064  0.49888072  0.50081765  1
  Fe  Fe81  1  0.62147695  0.37628374  0.62618999  1
  Fe  Fe82  1  0.12704984  0.62416268  0.37555190  1
  Fe  Fe83  1  0.37309144  0.12912905  0.62030249  1
  Fe  Fe84  1  0.74926437  0.24987503  0.50040042  1
  Fe  Fe85  1  0.62591670  0.87505740  0.37174599  1
  Fe  Fe86  1  0.37234829  0.37227528  0.87916053  1
  Fe  Fe87  1  -0.00005584  0.00007737  -0.00265544  1
  Fe  Fe88  1  0.74538242  0.50437830  0.50323853  1
  Fe  Fe89  1  0.37521905  0.87821441  0.87498714  1
  Co  Co90  1  0.24880947  0.25489634  0.49718463  1
  Co  Co91  1  0.00245214  0.74753219  0.75211124  1
  Co  Co92  1  0.24989430  -0.00240038  0.50165974  1
  Co  Co93  1  0.49652492  0.00391338  0.74770129  1
  Co  Co94  1  0.12226612  0.37309220  0.13039069  1
  Co  Co95  1  0.49708453  0.75055125  0.75487180  1
  Co  Co96  1  0.50227218  -0.00155180  0.00038075  1
  Co  Co97  1  0.87780066  0.12526723  0.12251047  1
  Co  Co98  1  0.61591575  0.62341505  0.63050609  1
  Co  Co99  1  0.25123683  0.74814206  0.50199900  1
  Co  Co100  1  0.87015349  0.12346959  0.37862668  1
  Co  Co101  1  0.49652229  0.49452792  0.75470274  1
  Co  Co102  1  0.74791049  0.24953163  0.74870090  1
  Co  Co103  1  0.62468471  0.87567102  0.12628321  1
  Co  Co104  1  0.49911956  0.49840379  0.25068826  1
  Co  Co105  1  0.49958666  0.75054094  0.24879402  1
  Co  Co106  1  0.62368130  0.62532313  0.37166321  1
  Co  Co107  1  0.12774399  0.87772729  0.87289133  1
  Co  Co108  1  0.74887738  0.49980532  0.00159868  1
  Co  Co109  1  0.49928040  0.00008394  0.25297968  1
  Co  Co110  1  -0.00006946  0.00408680  0.74886209  1
  Co  Co111  1  0.75061444  0.24816179  0.24654023  1
  Co  Co112  1  0.74854352  0.74859875  0.74930613  1
  Co  Co113  1  0.38060213  0.37171113  0.12161109  1
  Co  Co114  1  0.37390764  0.12427283  0.37894244  1
  Co  Co115  1  0.87192554  0.12627293  0.87554911  1
  Co  Co116  1  0.87575462  0.62703691  0.62460746  1
  Co  Co117  1  0.50117460  0.49915333  -0.00201222  1
  Co  Co118  1  0.50206225  0.49835046  0.49686653  1
  Co  Co119  1  0.49836445  0.25092541  0.25490651  1
  Co  Co120  1  0.74644723  -0.00172686  0.50364893  1
  Co  Co121  1  0.50480398  0.25107983  -0.00544470  1
  Co  Co122  1  0.25347125  0.24932026  0.75182111  1
  Co  Co123  1  0.37756322  0.37208136  0.62297108  1
  Co  Co124  1  0.12685974  0.37514872  0.87026698  1
  Co  Co125  1  0.50542227  0.75196451  0.49848577  1
  Co  Co126  1  0.24653959  0.25019043  0.00350585  1
  Co  Co127  1  0.61793115  0.12654626  0.12683857  1
