# generated using pymatgen
data_Fe45Co19
_symmetry_space_group_name_H-M   'P 1'
_cell_length_a   11.41583725
_cell_length_b   11.41540237
_cell_length_c   11.41576287
_cell_angle_alpha   90.00196193
_cell_angle_beta   90.00025875
_cell_angle_gamma   90.00436946
_symmetry_Int_Tables_number   1
_chemical_formula_structural   Fe45Co19
_chemical_formula_sum   'Fe90 Co38'
_cell_volume   1487.66083747
_cell_formula_units_Z   2
loop_
 _symmetry_equiv_pos_site_id
 _symmetry_equiv_pos_as_xyz
  1  'x, y, z'
loop_
 _atom_site_type_symbol
 _atom_site_label
 _atom_site_symmetry_multiplicity
 _atom_site_fract_x
 _atom_site_fract_y
 _atom_site_fract_z
 _atom_site_occupancy
  Fe  Fe0  1  0.25028131  0.50229014  0.24913604  1
  Fe  Fe1  1  0.50430714  -0.00237095  -0.00286276  1
  Fe  Fe2  1  -0.00117993  0.25072046  0.00194702  1
  Fe  Fe3  1  0.87260591  0.37642279  0.12451751  1
  Fe  Fe4  1  0.37636898  0.12460855  0.12199636  1
  Fe  Fe5  1  0.75015079  0.24894191  -0.00090414  1
  Fe  Fe6  1  0.00025483  0.74968585  0.74748486  1
  Fe  Fe7  1  0.62300198  0.62496835  0.62634759  1
  Fe  Fe8  1  0.25020727  0.74975608  0.50065857  1
  Fe  Fe9  1  0.12207961  0.62613040  0.12412653  1
  Fe  Fe10  1  0.12659245  0.37228018  0.62360484  1
  Fe  Fe11  1  0.62616869  0.37423638  0.62563206  1
  Fe  Fe12  1  0.75112662  0.50487297  -0.00316998  1
  Fe  Fe13  1  0.00130690  0.75497212  0.25199102  1
  Fe  Fe14  1  0.37391900  0.37473248  0.37390709  1
  Fe  Fe15  1  0.87533425  0.37864030  0.62289559  1
  Fe  Fe16  1  0.74915429  0.50045102  0.25340917  1
  Fe  Fe17  1  0.12415352  0.12547064  0.87500954  1
  Fe  Fe18  1  0.62556540  0.12470178  0.12351715  1
  Fe  Fe19  1  0.12552751  0.87474896  0.87348822  1
  Fe  Fe20  1  0.12514356  0.37030547  0.37481111  1
  Fe  Fe21  1  0.50047308  -0.00309572  0.24894158  1
  Fe  Fe22  1  0.37634717  0.62488237  0.37440056  1
  Fe  Fe23  1  0.87527723  0.37550590  0.37825271  1
  Fe  Fe24  1  -0.00033881  -0.00118731  0.49547905  1
  Fe  Fe25  1  0.24782302  0.49970685  0.49927303  1
  Fe  Fe26  1  0.49873087  0.49940016  0.75063916  1
  Fe  Fe27  1  0.24825360  0.50083200  0.75115194  1
  Fe  Fe28  1  0.75094392  0.24879866  0.49958535  1
  Fe  Fe29  1  0.62544429  0.37504092  0.87529760  1
  Fe  Fe30  1  0.25041426  0.74823164  0.74958860  1
  Fe  Fe31  1  0.12160442  0.12877699  0.37175520  1
  Fe  Fe32  1  0.74739286  0.75050069  0.25021838  1
  Fe  Fe33  1  0.50378800  0.75411414  0.00014039  1
  Fe  Fe34  1  0.37664826  0.62458900  0.87616845  1
  Fe  Fe35  1  0.49983223  0.49841296  0.00006967  1
  Fe  Fe36  1  0.74750596  -0.00223252  -0.00433192  1
  Fe  Fe37  1  0.37195555  0.37321732  0.62626117  1
  Fe  Fe38  1  0.87228831  0.87255446  0.87175300  1
  Fe  Fe39  1  0.62682666  0.37595171  0.12449183  1
  Fe  Fe40  1  0.12567424  0.87609931  0.62326698  1
  Fe  Fe41  1  0.24810739  0.00073456  0.00118937  1
  Fe  Fe42  1  0.75086471  0.24973029  0.25174510  1
  Fe  Fe43  1  0.37356792  0.62312562  0.62418759  1
  Fe  Fe44  1  0.87608439  0.12392744  0.87452968  1
  Fe  Fe45  1  0.62449231  0.62373673  0.12517400  1
  Fe  Fe46  1  0.87584398  0.12222427  0.12643142  1
  Fe  Fe47  1  0.75017301  -0.00072257  0.25366793  1
  Fe  Fe48  1  0.50144213  0.00113391  0.75310775  1
  Fe  Fe49  1  0.49887934  0.75190244  0.50174465  1
  Fe  Fe50  1  0.74922582  0.00029791  0.49918708  1
  Fe  Fe51  1  0.50160626  0.49780736  0.49971739  1
  Fe  Fe52  1  0.49687014  0.24945344  0.49953123  1
  Fe  Fe53  1  0.25039067  0.00145069  0.25004459  1
  Fe  Fe54  1  0.24976781  0.00262616  0.75008003  1
  Fe  Fe55  1  0.87688680  0.12280502  0.62545669  1
  Fe  Fe56  1  0.62224314  0.62487336  0.37502469  1
  Fe  Fe57  1  -0.00009821  -0.00327544  -0.00010754  1
  Fe  Fe58  1  0.24883343  0.74909630  0.00032953  1
  Fe  Fe59  1  0.37298546  0.87494580  0.37349011  1
  Fe  Fe60  1  0.62348413  0.12632744  0.62674601  1
  Fe  Fe61  1  0.75119244  0.50461900  0.75250880  1
  Fe  Fe62  1  0.12448671  0.12640513  0.62525795  1
  Fe  Fe63  1  0.49973970  0.25232287  0.24788559  1
  Fe  Fe64  1  0.74976504  0.74945435  0.50184813  1
  Fe  Fe65  1  0.50038794  0.75331187  0.24861059  1
  Fe  Fe66  1  0.88000039  0.62081917  0.62157196  1
  Fe  Fe67  1  0.49648015  0.24961849  0.75516571  1
  Fe  Fe68  1  0.12421229  0.62778536  0.37594358  1
  Fe  Fe69  1  0.87689494  0.37728806  0.87495672  1
  Fe  Fe70  1  0.12682168  0.37591048  0.87788554  1
  Fe  Fe71  1  0.37375824  0.87572863  0.87563804  1
  Fe  Fe72  1  -0.00007079  0.25070055  0.74942059  1
  Fe  Fe73  1  0.62615071  0.87281770  0.63002587  1
  Fe  Fe74  1  0.87236014  0.87475984  0.12549910  1
  Fe  Fe75  1  0.37214530  0.37482607  0.12219151  1
  Fe  Fe76  1  0.11994936  0.62392292  0.87702124  1
  Fe  Fe77  1  0.12204861  0.12631460  0.12732288  1
  Fe  Fe78  1  0.12777332  0.37409603  0.12417282  1
  Fe  Fe79  1  0.37612803  0.62662330  0.12499902  1
  Fe  Fe80  1  0.87484008  0.87690465  0.62576731  1
  Fe  Fe81  1  0.12714742  0.87478148  0.12776182  1
  Fe  Fe82  1  0.75170345  0.24855075  0.74994912  1
  Fe  Fe83  1  0.87710089  0.62704956  0.12291173  1
  Fe  Fe84  1  0.62333801  0.12565353  0.37477726  1
  Fe  Fe85  1  -0.00013946  0.49802098  0.24988016  1
  Fe  Fe86  1  0.37359266  0.87696364  0.62625559  1
  Fe  Fe87  1  0.25208240  0.00530961  0.49823035  1
  Fe  Fe88  1  0.49935630  0.00002910  0.50024869  1
  Fe  Fe89  1  0.87704408  0.62578014  0.37736568  1
  Co  Co90  1  0.62865943  0.86954484  0.86823005  1
  Co  Co91  1  0.62095563  0.62703104  0.87341650  1
  Co  Co92  1  0.62471624  0.37309879  0.37523095  1
  Co  Co93  1  0.62653127  0.12802240  0.87535431  1
  Co  Co94  1  0.87230676  0.87291096  0.37570853  1
  Co  Co95  1  0.12491764  0.62612423  0.62417720  1
  Co  Co96  1  0.00484278  0.49852419  0.49852957  1
  Co  Co97  1  0.62492437  0.87416640  0.37633264  1
  Co  Co98  1  0.62865978  0.87658166  0.12550372  1
  Co  Co99  1  0.88241530  0.62589832  0.87886416  1
  Co  Co100  1  -0.00072332  0.49648027  0.00346371  1
  Co  Co101  1  0.37349034  0.12264640  0.87764239  1
  Co  Co102  1  0.74617819  0.50108227  0.49878081  1
  Co  Co103  1  0.37272217  0.87519083  0.12368366  1
  Co  Co104  1  0.37166284  0.37650700  0.87695620  1
  Co  Co105  1  0.25010021  0.24866470  0.75177415  1
  Co  Co106  1  0.49923329  0.49774180  0.24914518  1
  Co  Co107  1  0.12987080  0.87511468  0.37578648  1
  Co  Co108  1  0.74801514  0.74801905  -0.00095674  1
  Co  Co109  1  0.74831693  0.00320481  0.75025439  1
  Co  Co110  1  0.87671845  0.12560610  0.37313920  1
  Co  Co111  1  0.00084912  -0.00068970  0.75083504  1
  Co  Co112  1  0.24981920  0.24718685  -0.00041801  1
  Co  Co113  1  0.24996041  0.50424469  0.00152156  1
  Co  Co114  1  0.00217750  0.49868459  0.74884326  1
  Co  Co115  1  0.00107246  0.75633515  0.00120011  1
  Co  Co116  1  0.37803414  0.12470875  0.37134762  1
  Co  Co117  1  -0.00001851  -0.00432235  0.25184468  1
  Co  Co118  1  0.49510948  0.74984521  0.74842484  1
  Co  Co119  1  0.25317574  0.24593255  0.49893502  1
  Co  Co120  1  0.75532363  0.74210010  0.74839542  1
  Co  Co121  1  0.25243502  0.24857711  0.24893594  1
  Co  Co122  1  -0.00214173  0.24937287  0.50154653  1
  Co  Co123  1  0.37584969  0.12530205  0.62879996  1
  Co  Co124  1  0.00030726  0.75245703  0.50108009  1
  Co  Co125  1  0.25048896  0.74832777  0.24888062  1
  Co  Co126  1  -0.00380244  0.25345497  0.24711683  1
  Co  Co127  1  0.49995000  0.25108765  -0.00060332  1
