# generated using pymatgen
data_Fe45Co19
_symmetry_space_group_name_H-M   'P 1'
_cell_length_a   11.41609723
_cell_length_b   11.41604724
_cell_length_c   11.41580129
_cell_angle_alpha   90.00389975
_cell_angle_beta   89.99973917
_cell_angle_gamma   89.99834494
_symmetry_Int_Tables_number   1
_chemical_formula_structural   Fe45Co19
_chemical_formula_sum   'Fe90 Co38'
_cell_volume   1487.78376559
_cell_formula_units_Z   2
loop_
 _symmetry_equiv_pos_site_id
 _symmetry_equiv_pos_as_xyz
  1  'x, y, z'
loop_
 _atom_site_type_symbol
 _atom_site_label
 _atom_site_symmetry_multiplicity
 _atom_site_fract_x
 _atom_site_fract_y
 _atom_site_fract_z
 _atom_site_occupancy
  Fe  Fe0  1  0.49937866  0.25138275  0.00012596  1
  Fe  Fe1  1  0.37594656  0.62532295  0.62322135  1
  Fe  Fe2  1  0.62594666  0.12643651  0.87473112  1
  Fe  Fe3  1  0.62374024  0.12671698  0.62681096  1
  Fe  Fe4  1  0.12450378  0.87552785  0.62426716  1
  Fe  Fe5  1  0.49895177  0.49676658  0.75080129  1
  Fe  Fe6  1  0.75326399  0.25253440  0.00087905  1
  Fe  Fe7  1  0.25185427  -0.00302216  0.75003778  1
  Fe  Fe8  1  0.87505391  0.87512965  0.12623471  1
  Fe  Fe9  1  0.37481806  0.12714265  0.37256490  1
  Fe  Fe10  1  0.62654509  0.37220675  0.62499325  1
  Fe  Fe11  1  0.37397813  0.37830977  0.12323641  1
  Fe  Fe12  1  0.87805312  0.62433697  0.37862143  1
  Fe  Fe13  1  0.50521029  0.50034873  -0.00370657  1
  Fe  Fe14  1  0.24843206  0.24911698  0.49967965  1
  Fe  Fe15  1  0.37775717  0.87123412  0.12615474  1
  Fe  Fe16  1  0.12505534  0.37687526  0.87431290  1
  Fe  Fe17  1  0.12416528  0.12327754  0.87319173  1
  Fe  Fe18  1  0.87183262  0.62370998  0.87488069  1
  Fe  Fe19  1  0.12301752  0.12411077  0.12630747  1
  Fe  Fe20  1  0.62535153  0.12684415  0.36890095  1
  Fe  Fe21  1  0.37445146  0.37716291  0.37625578  1
  Fe  Fe22  1  0.49580569  0.25342798  0.75190234  1
  Fe  Fe23  1  0.75165464  0.75046396  0.50026596  1
  Fe  Fe24  1  0.75428209  0.24946600  0.75171211  1
  Fe  Fe25  1  -0.00023202  -0.00252700  -0.00244336  1
  Fe  Fe26  1  0.74758369  0.74806490  -0.00009875  1
  Fe  Fe27  1  0.75088491  0.75166039  0.74829417  1
  Fe  Fe28  1  0.75378999  0.49673716  0.50169576  1
  Fe  Fe29  1  0.24944035  0.00002506  0.24968890  1
  Fe  Fe30  1  0.24872593  0.00051746  0.49750532  1
  Fe  Fe31  1  0.12248899  0.37623200  0.37602706  1
  Fe  Fe32  1  0.37640768  0.12573980  0.12699880  1
  Fe  Fe33  1  0.25188649  0.25196118  0.75038488  1
  Fe  Fe34  1  0.50055632  -0.00083505  0.00119843  1
  Fe  Fe35  1  0.87780409  0.12554051  0.62661346  1
  Fe  Fe36  1  0.37440273  0.12420999  0.87597711  1
  Fe  Fe37  1  0.87519397  0.12411888  0.12629565  1
  Fe  Fe38  1  0.49804201  0.50081557  0.25174128  1
  Fe  Fe39  1  0.62619425  0.87511108  0.87422667  1
  Fe  Fe40  1  0.12114607  0.62758994  0.62249220  1
  Fe  Fe41  1  -0.00098373  0.50140319  0.00033202  1
  Fe  Fe42  1  0.24987337  0.74773337  0.00092507  1
  Fe  Fe43  1  0.25219402  0.75155034  0.74972274  1
  Fe  Fe44  1  0.62507796  0.12637138  0.12899734  1
  Fe  Fe45  1  -0.00287470  0.49853653  0.74601749  1
  Fe  Fe46  1  0.24775869  0.50306200  0.00176572  1
  Fe  Fe47  1  0.62410619  0.87422048  0.12958786  1
  Fe  Fe48  1  0.24764438  0.50106310  0.50079578  1
  Fe  Fe49  1  0.24864231  0.74895817  0.49868858  1
  Fe  Fe50  1  0.50142488  0.74914982  0.49807274  1
  Fe  Fe51  1  0.87459504  0.62466410  0.12453555  1
  Fe  Fe52  1  0.12321170  0.12539609  0.62763721  1
  Fe  Fe53  1  0.50184749  0.49884074  0.50185089  1
  Fe  Fe54  1  0.25151778  0.49954635  0.74776103  1
  Fe  Fe55  1  -0.00069312  0.24961629  0.25041093  1
  Fe  Fe56  1  0.74782189  0.00368533  0.49938162  1
  Fe  Fe57  1  0.12371658  0.87341583  0.12711760  1
  Fe  Fe58  1  0.50210323  0.25098579  0.49773463  1
  Fe  Fe59  1  0.25000684  0.74075667  0.25012467  1
  Fe  Fe60  1  0.62455929  0.62520441  0.12742897  1
  Fe  Fe61  1  -0.00248415  0.75293562  0.75013591  1
  Fe  Fe62  1  0.00388532  0.00148044  0.49556200  1
  Fe  Fe63  1  0.37548941  0.12526551  0.62358303  1
  Fe  Fe64  1  0.12272401  0.37192604  0.62443180  1
  Fe  Fe65  1  0.62631404  0.37493246  0.12709847  1
  Fe  Fe66  1  0.62685330  0.62312168  0.37629031  1
  Fe  Fe67  1  0.49832672  0.75199984  0.74986713  1
  Fe  Fe68  1  0.00026998  0.50070699  0.25064283  1
  Fe  Fe69  1  0.75161365  0.49786070  0.74857535  1
  Fe  Fe70  1  0.37479676  0.87248031  0.37359922  1
  Fe  Fe71  1  0.87440948  0.87778198  0.37443090  1
  Fe  Fe72  1  0.74967399  0.75026390  0.25258071  1
  Fe  Fe73  1  -0.00109335  0.25063847  -0.00346606  1
  Fe  Fe74  1  0.74987082  0.00020409  0.00041707  1
  Fe  Fe75  1  0.87492270  0.87904096  0.62478829  1
  Fe  Fe76  1  0.25050810  0.25313583  0.24856689  1
  Fe  Fe77  1  0.24921029  -0.00118160  0.00111274  1
  Fe  Fe78  1  0.00074725  0.74925024  0.25205202  1
  Fe  Fe79  1  0.87363637  0.12664852  0.37270303  1
  Fe  Fe80  1  0.50026441  0.00035424  0.49668891  1
  Fe  Fe81  1  0.62496999  0.87628663  0.62291239  1
  Fe  Fe82  1  -0.00086612  0.75015943  -0.00193347  1
  Fe  Fe83  1  0.75374361  0.49685742  0.25091937  1
  Fe  Fe84  1  0.12378279  0.62573662  0.87321797  1
  Fe  Fe85  1  0.24858481  0.24982903  0.00012491  1
  Fe  Fe86  1  0.62625276  0.62494250  0.62588596  1
  Fe  Fe87  1  0.49870053  -0.00168623  0.74984129  1
  Fe  Fe88  1  0.12345624  0.37655107  0.12520334  1
  Fe  Fe89  1  0.37725723  0.62525342  0.87667105  1
  Co  Co90  1  0.50118442  0.74695810  0.25371527  1
  Co  Co91  1  0.12695818  0.87343988  0.87552779  1
  Co  Co92  1  0.12700466  0.87229898  0.37158281  1
  Co  Co93  1  0.12024071  0.62376699  0.37953098  1
  Co  Co94  1  0.37563603  0.62259067  0.37832618  1
  Co  Co95  1  0.37498028  0.37427074  0.62105013  1
  Co  Co96  1  0.00024080  -0.00311819  0.75305147  1
  Co  Co97  1  -0.00212423  0.75402022  0.50015237  1
  Co  Co98  1  0.00135759  0.24575472  0.49881978  1
  Co  Co99  1  0.50406173  0.75036376  -0.00062790  1
  Co  Co100  1  0.37976211  0.62356850  0.12132443  1
  Co  Co101  1  0.49964799  -0.00100818  0.25095303  1
  Co  Co102  1  0.24887244  0.50329003  0.24979431  1
  Co  Co103  1  0.87455493  0.37927892  0.87716928  1
  Co  Co104  1  0.37471140  0.87493404  0.87830902  1
  Co  Co105  1  0.62626827  0.62560677  0.87073799  1
  Co  Co106  1  0.00035912  0.00051440  0.25155567  1
  Co  Co107  1  0.74720807  0.50068258  0.00184495  1
  Co  Co108  1  0.87075502  0.87519648  0.87577297  1
  Co  Co109  1  0.87467830  0.62712888  0.62504944  1
  Co  Co110  1  0.87752035  0.37279545  0.37756922  1
  Co  Co111  1  0.74847693  0.00142577  0.74904820  1
  Co  Co112  1  0.74956920  -0.00043678  0.24939965  1
  Co  Co113  1  0.62583244  0.37638521  0.37435172  1
  Co  Co114  1  0.75178315  0.25357093  0.24927919  1
  Co  Co115  1  0.74764144  0.24825120  0.49841039  1
  Co  Co116  1  0.87513689  0.36808456  0.62192233  1
  Co  Co117  1  -0.00310314  0.49873907  0.50476104  1
  Co  Co118  1  0.37536494  0.87543470  0.62053960  1
  Co  Co119  1  0.87745413  0.37635676  0.12423930  1
  Co  Co120  1  0.49837885  0.25344032  0.24940346  1
  Co  Co121  1  0.12763449  0.12658940  0.37108256  1
  Co  Co122  1  0.87497959  0.12208509  0.87484867  1
  Co  Co123  1  0.12131696  0.62512605  0.12460540  1
  Co  Co124  1  0.62638594  0.87498597  0.37554112  1
  Co  Co125  1  0.62802407  0.37212490  0.87400245  1
  Co  Co126  1  -0.00164373  0.25197655  0.75386058  1
  Co  Co127  1  0.37215325  0.37679859  0.87912270  1
