# generated using pymatgen
data_Fe45Co19
_symmetry_space_group_name_H-M   'P 1'
_cell_length_a   11.41405869
_cell_length_b   11.41396894
_cell_length_c   11.41431533
_cell_angle_alpha   90.00518970
_cell_angle_beta   89.99180872
_cell_angle_gamma   89.98826604
_symmetry_Int_Tables_number   1
_chemical_formula_structural   Fe45Co19
_chemical_formula_sum   'Fe90 Co38'
_cell_volume   1487.05365275
_cell_formula_units_Z   2
loop_
 _symmetry_equiv_pos_site_id
 _symmetry_equiv_pos_as_xyz
  1  'x, y, z'
loop_
 _atom_site_type_symbol
 _atom_site_label
 _atom_site_symmetry_multiplicity
 _atom_site_fract_x
 _atom_site_fract_y
 _atom_site_fract_z
 _atom_site_occupancy
  Fe  Fe0  1  0.37368980  0.11902033  0.87374387  1
  Fe  Fe1  1  0.87403857  0.62654779  0.62620775  1
  Fe  Fe2  1  0.12508773  0.62389727  0.12325839  1
  Fe  Fe3  1  -0.00000055  0.49925432  0.50059880  1
  Fe  Fe4  1  0.37479853  0.37536894  0.87520399  1
  Fe  Fe5  1  0.49966151  0.75265584  0.74891952  1
  Fe  Fe6  1  0.49720239  0.24707010  0.00259715  1
  Fe  Fe7  1  0.62424951  0.37193415  0.87451988  1
  Fe  Fe8  1  0.75143542  0.75039371  0.49834905  1
  Fe  Fe9  1  0.87206021  0.37249754  0.87546671  1
  Fe  Fe10  1  0.62583886  0.87531199  0.62494519  1
  Fe  Fe11  1  0.25201516  0.75047943  0.24838821  1
  Fe  Fe12  1  0.12676681  0.87662539  0.87713457  1
  Fe  Fe13  1  0.37327703  0.88052037  0.62737290  1
  Fe  Fe14  1  0.74906166  0.25144026  0.49956734  1
  Fe  Fe15  1  0.62348167  0.87438359  0.37351173  1
  Fe  Fe16  1  0.25368835  0.24861820  0.00286874  1
  Fe  Fe17  1  0.62424560  0.12512140  0.62351736  1
  Fe  Fe18  1  -0.00190919  0.75148954  0.00018024  1
  Fe  Fe19  1  0.62549281  0.37612042  0.62535386  1
  Fe  Fe20  1  0.25142613  0.49959510  0.75058556  1
  Fe  Fe21  1  0.87547310  0.37335889  0.37528938  1
  Fe  Fe22  1  0.12503362  0.62450695  0.87742069  1
  Fe  Fe23  1  0.62312077  0.37237715  0.12543034  1
  Fe  Fe24  1  0.87563076  0.62412882  0.37509486  1
  Fe  Fe25  1  0.24957585  0.49861243  0.24860943  1
  Fe  Fe26  1  0.49947371  0.75239124  0.00078765  1
  Fe  Fe27  1  0.49833943  0.24752330  0.74869783  1
  Fe  Fe28  1  0.62476602  0.87492582  0.87464488  1
  Fe  Fe29  1  0.87343350  0.87639059  0.12550447  1
  Fe  Fe30  1  0.37407583  0.37382710  0.62613639  1
  Fe  Fe31  1  -0.00040270  0.49569689  0.00153273  1
  Fe  Fe32  1  0.25010282  0.75297173  0.75032985  1
  Fe  Fe33  1  0.49885372  0.00141053  0.49907977  1
  Fe  Fe34  1  0.12388829  0.87378606  0.37709406  1
  Fe  Fe35  1  0.12833351  0.37378673  0.87711042  1
  Fe  Fe36  1  0.00119192  0.24883244  0.75058960  1
  Fe  Fe37  1  0.74772376  0.50068132  -0.00223436  1
  Fe  Fe38  1  0.25132722  0.24861298  0.50013102  1
  Fe  Fe39  1  0.74755682  0.00254463  0.00278645  1
  Fe  Fe40  1  0.87455898  0.12580606  0.62478465  1
  Fe  Fe41  1  0.25287154  0.75079750  0.50004676  1
  Fe  Fe42  1  0.12706152  0.62581063  0.62311436  1
  Fe  Fe43  1  0.87508690  0.62337319  0.12387623  1
  Fe  Fe44  1  0.37662870  0.12425358  0.37214402  1
  Fe  Fe45  1  0.74738521  0.00165798  0.24870327  1
  Fe  Fe46  1  0.12308101  0.12775568  0.37447249  1
  Fe  Fe47  1  0.12114641  0.12565337  0.12234783  1
  Fe  Fe48  1  0.00037880  0.49933851  0.75069333  1
  Fe  Fe49  1  0.62466992  0.62691037  0.12486919  1
  Fe  Fe50  1  0.00131716  0.75069437  0.75059238  1
  Fe  Fe51  1  0.49719925  0.50135633  0.50060215  1
  Fe  Fe52  1  0.74868708  0.00127798  0.74918239  1
  Fe  Fe53  1  0.00057014  0.00017666  0.50002714  1
  Fe  Fe54  1  0.12725783  0.37330230  0.62517215  1
  Fe  Fe55  1  0.50027253  0.24997496  0.49817703  1
  Fe  Fe56  1  0.87363075  0.37462731  0.62614707  1
  Fe  Fe57  1  0.62488063  0.62470410  0.62632262  1
  Fe  Fe58  1  0.12447671  0.37259479  0.37588468  1
  Fe  Fe59  1  0.87483830  0.12749426  0.87807480  1
  Fe  Fe60  1  0.12892375  0.12373314  0.62436850  1
  Fe  Fe61  1  0.12378836  0.87543047  0.12381500  1
  Fe  Fe62  1  -0.00071390  0.74984838  0.25074371  1
  Fe  Fe63  1  0.25325982  0.75155914  0.00053573  1
  Fe  Fe64  1  0.37909605  0.88094841  0.12577465  1
  Fe  Fe65  1  0.75027158  -0.00119677  0.49859377  1
  Fe  Fe66  1  0.37553920  0.62306680  0.12572110  1
  Fe  Fe67  1  0.37720869  0.62532616  0.87276188  1
  Fe  Fe68  1  0.12527931  0.12530587  0.87864654  1
  Fe  Fe69  1  0.12772881  0.62493530  0.37638033  1
  Fe  Fe70  1  0.74796154  0.24818539  0.24920133  1
  Fe  Fe71  1  0.25172740  0.24990422  0.24606544  1
  Fe  Fe72  1  0.87343392  0.87526376  0.87375258  1
  Fe  Fe73  1  0.74750663  0.50255980  0.75340146  1
  Fe  Fe74  1  0.50017803  0.50009334  0.25092075  1
  Fe  Fe75  1  0.50030078  0.50007569  -0.00100384  1
  Fe  Fe76  1  -0.00087087  0.00007149  0.24965174  1
  Fe  Fe77  1  0.74965359  0.75061641  0.25096298  1
  Fe  Fe78  1  0.87607242  0.87346684  0.62528596  1
  Fe  Fe79  1  0.00138885  0.49633639  0.24805728  1
  Fe  Fe80  1  0.49631715  0.74834114  0.49969533  1
  Fe  Fe81  1  0.37519675  0.37547298  0.37370427  1
  Fe  Fe82  1  0.62339860  0.62491704  0.37593218  1
  Fe  Fe83  1  0.37660074  0.87642690  0.37154262  1
  Fe  Fe84  1  0.24757310  0.00087023  0.24969084  1
  Fe  Fe85  1  0.62589434  0.12700159  0.87464796  1
  Fe  Fe86  1  0.74992046  0.74791077  -0.00257415  1
  Fe  Fe87  1  0.87595889  0.12631436  0.37453771  1
  Fe  Fe88  1  0.74877744  0.49954494  0.25074775  1
  Fe  Fe89  1  0.00214488  0.00048812  0.75091306  1
  Co  Co90  1  0.50587677  0.00132913  0.25030684  1
  Co  Co91  1  -0.00003614  0.24984443  0.50310779  1
  Co  Co92  1  0.12961886  0.37459585  0.12237157  1
  Co  Co93  1  0.62523661  0.12499320  0.37719656  1
  Co  Co94  1  0.87819072  0.62386721  0.87616216  1
  Co  Co95  1  0.62045744  0.12709756  0.12570835  1
  Co  Co96  1  0.49908456  0.74851333  0.24938650  1
  Co  Co97  1  -0.00061453  0.25484740  0.00152446  1
  Co  Co98  1  -0.00135285  0.74857392  0.49850753  1
  Co  Co99  1  0.25072116  0.00035521  0.49662686  1
  Co  Co100  1  -0.00140110  -0.00237103  -0.00097740  1
  Co  Co101  1  0.74922983  0.24923215  0.74805331  1
  Co  Co102  1  0.12485105  0.87532595  0.62165972  1
  Co  Co103  1  0.37414716  0.12296089  0.62494733  1
  Co  Co104  1  0.87765687  0.12480031  0.12366884  1
  Co  Co105  1  0.50321276  0.00154043  0.75007712  1
  Co  Co106  1  0.62490942  0.37670487  0.37519766  1
  Co  Co107  1  0.74920751  0.74824054  0.75220428  1
  Co  Co108  1  0.37674360  0.37635839  0.12507396  1
  Co  Co109  1  0.50001235  0.49779777  0.74959299  1
  Co  Co110  1  0.37316227  0.62357031  0.37294241  1
  Co  Co111  1  -0.00041449  0.25287526  0.24554996  1
  Co  Co112  1  0.37581768  0.87851668  0.87440017  1
  Co  Co113  1  0.25133958  0.49822384  0.50071039  1
  Co  Co114  1  0.37355044  0.62471385  0.62833725  1
  Co  Co115  1  0.87593601  0.87679149  0.37436364  1
  Co  Co116  1  0.50032846  0.25120841  0.25138936  1
  Co  Co117  1  0.87013311  0.37505585  0.12521792  1
  Co  Co118  1  0.25006512  -0.00062277  0.00238858  1
  Co  Co119  1  0.75083929  0.50017132  0.50011291  1
  Co  Co120  1  0.62466182  0.87314445  0.12502697  1
  Co  Co121  1  0.37769461  0.12068683  0.12816410  1
  Co  Co122  1  0.25256072  0.50164845  -0.00084476  1
  Co  Co123  1  0.50358257  0.00126460  -0.00137419  1
  Co  Co124  1  0.61978807  0.62697797  0.87369754  1
  Co  Co125  1  0.25114716  0.24844984  0.75096392  1
  Co  Co126  1  0.74877318  0.24834564  0.00365003  1
  Co  Co127  1  0.24666069  -0.00071901  0.75087216  1
