# generated using pymatgen
data_Fe45Co19
_symmetry_space_group_name_H-M   'P 1'
_cell_length_a   11.41674023
_cell_length_b   11.41544761
_cell_length_c   11.41635976
_cell_angle_alpha   90.01051427
_cell_angle_beta   89.99558481
_cell_angle_gamma   90.00809500
_symmetry_Int_Tables_number   1
_chemical_formula_structural   Fe45Co19
_chemical_formula_sum   'Fe90 Co38'
_cell_volume   1487.86215647
_cell_formula_units_Z   2
loop_
 _symmetry_equiv_pos_site_id
 _symmetry_equiv_pos_as_xyz
  1  'x, y, z'
loop_
 _atom_site_type_symbol
 _atom_site_label
 _atom_site_symmetry_multiplicity
 _atom_site_fract_x
 _atom_site_fract_y
 _atom_site_fract_z
 _atom_site_occupancy
  Fe  Fe0  1  0.75017209  0.50095432  0.74825732  1
  Fe  Fe1  1  0.50100634  0.24854855  0.00104937  1
  Fe  Fe2  1  0.50152099  0.00659928  0.50359878  1
  Fe  Fe3  1  0.49830083  0.24668399  0.74912053  1
  Fe  Fe4  1  0.00093023  0.24940534  0.50009787  1
  Fe  Fe5  1  0.50175109  0.50102476  0.24253595  1
  Fe  Fe6  1  0.87330574  0.62742097  0.12753348  1
  Fe  Fe7  1  0.62310044  0.62229765  0.87548339  1
  Fe  Fe8  1  0.12288058  0.37469039  0.12359440  1
  Fe  Fe9  1  -0.00057270  0.50170261  0.50026854  1
  Fe  Fe10  1  0.25032896  0.75028639  0.75237548  1
  Fe  Fe11  1  0.37425157  0.87593576  0.62356035  1
  Fe  Fe12  1  -0.00281530  0.24759338  0.25027031  1
  Fe  Fe13  1  0.37515762  0.62166187  0.37405571  1
  Fe  Fe14  1  0.74971076  0.75203066  0.25286655  1
  Fe  Fe15  1  0.87617787  0.62379554  0.87391800  1
  Fe  Fe16  1  0.62579942  0.87736177  0.62785859  1
  Fe  Fe17  1  0.25025664  0.49907823  0.75006349  1
  Fe  Fe18  1  0.74781669  0.49703393  0.24770833  1
  Fe  Fe19  1  0.49637505  0.00502607  0.24553435  1
  Fe  Fe20  1  0.74855077  0.74999113  0.49862215  1
  Fe  Fe21  1  0.62267334  0.87817697  0.87348556  1
  Fe  Fe22  1  0.87499036  0.87335968  0.62418522  1
  Fe  Fe23  1  0.12284236  0.87570295  0.87459305  1
  Fe  Fe24  1  0.74888058  0.49835458  0.00219542  1
  Fe  Fe25  1  0.24443696  0.25131630  -0.00535488  1
  Fe  Fe26  1  0.50101370  0.75036192  0.49868633  1
  Fe  Fe27  1  0.00005876  0.74736395  0.49499274  1
  Fe  Fe28  1  0.12531967  0.87356665  0.62449864  1
  Fe  Fe29  1  0.25177498  -0.00147172  0.75111153  1
  Fe  Fe30  1  -0.00143594  -0.00148158  0.00233286  1
  Fe  Fe31  1  0.62442799  0.37335944  0.62699379  1
  Fe  Fe32  1  0.62167398  0.36994581  0.37038195  1
  Fe  Fe33  1  0.24876580  0.74870311  0.25234010  1
  Fe  Fe34  1  0.87554052  0.37419120  0.62573815  1
  Fe  Fe35  1  0.12713279  0.62446783  0.62217048  1
  Fe  Fe36  1  0.75120360  -0.00251527  0.00033558  1
  Fe  Fe37  1  0.87761710  0.87632799  0.37410029  1
  Fe  Fe38  1  0.24885657  0.49966306  0.24840933  1
  Fe  Fe39  1  -0.00246852  0.00078749  0.74833074  1
  Fe  Fe40  1  0.24749890  0.00162517  0.49787356  1
  Fe  Fe41  1  0.62158781  0.87863224  0.37259944  1
  Fe  Fe42  1  0.37702050  0.62334107  0.87721203  1
  Fe  Fe43  1  0.12363424  0.87187341  0.12785835  1
  Fe  Fe44  1  0.75231075  0.25017360  0.75263062  1
  Fe  Fe45  1  0.75096091  0.25138999  -0.00161095  1
  Fe  Fe46  1  -0.00078472  0.00277132  0.25026391  1
  Fe  Fe47  1  0.62452984  0.62408461  0.37376479  1
  Fe  Fe48  1  -0.00107672  0.75018245  0.00162832  1
  Fe  Fe49  1  0.37556664  0.37361270  0.12179263  1
  Fe  Fe50  1  0.37545592  0.62422592  0.62414255  1
  Fe  Fe51  1  0.62444112  0.12145906  0.87258942  1
  Fe  Fe52  1  0.74664682  0.24833389  0.49644160  1
  Fe  Fe53  1  0.87575318  0.37204003  0.12367332  1
  Fe  Fe54  1  0.37775254  0.37722062  0.87633208  1
  Fe  Fe55  1  0.37828248  0.87629178  0.87730548  1
  Fe  Fe56  1  0.62510520  0.87401358  0.12660327  1
  Fe  Fe57  1  0.74822013  0.49997997  0.50083999  1
  Fe  Fe58  1  0.50147425  0.49885313  0.50202204  1
  Fe  Fe59  1  0.37602628  0.87817701  0.37494729  1
  Fe  Fe60  1  0.12532225  0.12651525  0.12409197  1
  Fe  Fe61  1  0.87498856  0.37568570  0.37559205  1
  Fe  Fe62  1  0.75338581  0.00366459  0.25029989  1
  Fe  Fe63  1  0.37467126  0.87175772  0.12473094  1
  Fe  Fe64  1  0.37503365  0.12213207  0.87752570  1
  Fe  Fe65  1  0.62199196  0.37771265  0.87544005  1
  Fe  Fe66  1  0.12547728  0.37360243  0.62825884  1
  Fe  Fe67  1  0.37501953  0.37244983  0.62630014  1
  Fe  Fe68  1  0.12438555  0.37526766  0.37491853  1
  Fe  Fe69  1  0.25074783  0.25105997  0.49757686  1
  Fe  Fe70  1  0.74774975  0.00243584  0.49828963  1
  Fe  Fe71  1  0.25086348  0.00256211  0.25033624  1
  Fe  Fe72  1  0.87285734  0.12649962  0.62414851  1
  Fe  Fe73  1  0.49979808  0.74987752  0.74880515  1
  Fe  Fe74  1  0.24881786  -0.00309225  0.00099468  1
  Fe  Fe75  1  0.00091989  0.74778701  0.74973304  1
  Fe  Fe76  1  0.50037391  0.74849631  0.00299248  1
  Fe  Fe77  1  0.12821296  0.12764205  0.62844726  1
  Fe  Fe78  1  0.25089349  0.75034660  0.49687029  1
  Fe  Fe79  1  0.87709896  0.12395763  0.87724316  1
  Fe  Fe80  1  0.25243351  0.24931736  0.25067119  1
  Fe  Fe81  1  0.37830803  0.37440312  0.37492087  1
  Fe  Fe82  1  0.88059311  0.37711680  0.87454120  1
  Fe  Fe83  1  0.12403406  0.62203575  0.87816187  1
  Fe  Fe84  1  0.75125866  0.75266746  -0.00144610  1
  Fe  Fe85  1  0.74999284  0.75005509  0.74995709  1
  Fe  Fe86  1  0.24960893  0.50032009  0.00135400  1
  Fe  Fe87  1  0.00315814  0.00125266  0.49903900  1
  Fe  Fe88  1  0.00109421  0.50327877  0.24993026  1
  Fe  Fe89  1  0.62809048  0.12895537  0.12678403  1
  Co  Co90  1  -0.00246369  0.50127964  0.00479843  1
  Co  Co91  1  0.24928460  0.25176830  0.75727458  1
  Co  Co92  1  0.37192229  0.62725169  0.12507743  1
  Co  Co93  1  0.87560469  0.87316055  0.12820429  1
  Co  Co94  1  0.25118663  0.49579768  0.50110519  1
  Co  Co95  1  0.75478089  -0.00113688  0.75221668  1
  Co  Co96  1  0.75551415  0.24899784  0.25233844  1
  Co  Co97  1  0.87728969  0.87422754  0.87387453  1
  Co  Co98  1  0.62988694  0.12513333  0.63002624  1
  Co  Co99  1  0.87513805  0.12706730  0.12065998  1
  Co  Co100  1  0.50212044  0.00056438  0.00585338  1
  Co  Co101  1  0.24965502  0.75168949  -0.00236877  1
  Co  Co102  1  0.00019154  0.50200512  0.74554678  1
  Co  Co103  1  0.12033107  0.38167422  0.87464123  1
  Co  Co104  1  0.36975007  0.12745338  0.11854375  1
  Co  Co105  1  0.12554886  0.12773538  0.37343556  1
  Co  Co106  1  0.12502077  0.87565725  0.37322910  1
  Co  Co107  1  0.50200823  0.50143135  0.00649205  1
  Co  Co108  1  0.62552748  0.36887645  0.12561823  1
  Co  Co109  1  0.12892467  0.62181358  0.37706779  1
  Co  Co110  1  0.00343263  0.25000665  -0.00299287  1
  Co  Co111  1  0.37581655  0.12574228  0.37736950  1
  Co  Co112  1  0.49411329  0.24739906  0.24561589  1
  Co  Co113  1  0.36877214  0.12724296  0.62495027  1
  Co  Co114  1  0.49936162  0.74898968  0.25099840  1
  Co  Co115  1  0.49934003  0.49959164  0.74743655  1
  Co  Co116  1  0.00056280  0.24871416  0.75251514  1
  Co  Co117  1  0.87333999  0.62646384  0.62364473  1
  Co  Co118  1  0.49688117  0.00167541  0.74630156  1
  Co  Co119  1  0.12631473  0.62678916  0.12321662  1
  Co  Co120  1  0.87646456  0.12482953  0.37866241  1
  Co  Co121  1  0.12415767  0.11961948  0.87453670  1
  Co  Co122  1  0.62162487  0.12739335  0.36962586  1
  Co  Co123  1  0.00126949  0.74572108  0.25348106  1
  Co  Co124  1  0.50192726  0.24708820  0.50345727  1
  Co  Co125  1  0.62471189  0.62543064  0.62532478  1
  Co  Co126  1  0.62917419  0.62863387  0.12484677  1
  Co  Co127  1  0.87061506  0.62287423  0.37405605  1
