# generated using pymatgen
data_Fe45Co19
_symmetry_space_group_name_H-M   'P 1'
_cell_length_a   11.41580543
_cell_length_b   11.41549446
_cell_length_c   11.41551369
_cell_angle_alpha   90.00072751
_cell_angle_beta   89.98908819
_cell_angle_gamma   89.99890092
_symmetry_Int_Tables_number   1
_chemical_formula_structural   Fe45Co19
_chemical_formula_sum   'Fe90 Co38'
_cell_volume   1487.63619670
_cell_formula_units_Z   2
loop_
 _symmetry_equiv_pos_site_id
 _symmetry_equiv_pos_as_xyz
  1  'x, y, z'
loop_
 _atom_site_type_symbol
 _atom_site_label
 _atom_site_symmetry_multiplicity
 _atom_site_fract_x
 _atom_site_fract_y
 _atom_site_fract_z
 _atom_site_occupancy
  Fe  Fe0  1  0.74641472  0.25319311  -0.00249680  1
  Fe  Fe1  1  -0.00163050  0.50004546  0.74796821  1
  Fe  Fe2  1  0.25021698  0.25353998  0.25294185  1
  Fe  Fe3  1  0.37716958  0.37572445  0.87286397  1
  Fe  Fe4  1  0.62390576  0.12385850  0.37436384  1
  Fe  Fe5  1  0.75241995  0.74955031  0.75065952  1
  Fe  Fe6  1  0.62542265  0.12537228  0.12816034  1
  Fe  Fe7  1  0.24881033  0.49850067  0.00013431  1
  Fe  Fe8  1  -0.00072933  0.25212250  0.24933678  1
  Fe  Fe9  1  0.62648522  0.87614430  0.12514396  1
  Fe  Fe10  1  0.75152076  0.50017884  0.74762172  1
  Fe  Fe11  1  0.12444767  0.37591805  0.87353838  1
  Fe  Fe12  1  0.50137682  0.74740085  0.24985833  1
  Fe  Fe13  1  0.87387864  0.87521923  0.37631078  1
  Fe  Fe14  1  0.50136285  0.25141040  0.74888139  1
  Fe  Fe15  1  -0.00280342  0.49966362  0.50373246  1
  Fe  Fe16  1  0.50199545  0.24908345  0.50055478  1
  Fe  Fe17  1  0.87627721  0.87672154  0.62435922  1
  Fe  Fe18  1  -0.00276273  0.74665099  0.00151310  1
  Fe  Fe19  1  -0.00092127  0.00243952  -0.00054852  1
  Fe  Fe20  1  -0.00065586  0.74905796  0.49897231  1
  Fe  Fe21  1  0.62618926  0.87457729  0.62657850  1
  Fe  Fe22  1  0.49878299  -0.00015084  0.74825024  1
  Fe  Fe23  1  -0.00389353  0.24745450  0.74774911  1
  Fe  Fe24  1  0.37355200  0.12701520  0.62420051  1
  Fe  Fe25  1  0.12623388  0.12411110  0.37765338  1
  Fe  Fe26  1  0.25056569  0.25078373  0.74773800  1
  Fe  Fe27  1  0.25015456  0.00059203  -0.00000090  1
  Fe  Fe28  1  0.74907218  0.25452410  0.25494306  1
  Fe  Fe29  1  0.12506861  0.37279048  0.62503468  1
  Fe  Fe30  1  -0.00220476  0.49634569  0.24563840  1
  Fe  Fe31  1  0.12510462  0.87388717  0.87669906  1
  Fe  Fe32  1  0.50076635  0.25304436  0.25172081  1
  Fe  Fe33  1  0.00111138  0.25397580  0.00113749  1
  Fe  Fe34  1  0.24887701  -0.00039419  0.74842790  1
  Fe  Fe35  1  0.37551332  0.37619185  0.12591974  1
  Fe  Fe36  1  0.12416187  0.12584158  0.87335696  1
  Fe  Fe37  1  0.62825981  0.37332566  0.62523230  1
  Fe  Fe38  1  0.37716513  0.37932369  0.37779297  1
  Fe  Fe39  1  0.74891516  0.00199253  0.49982641  1
  Fe  Fe40  1  0.62571744  0.62385028  0.87335858  1
  Fe  Fe41  1  0.37446171  0.62283805  0.37759405  1
  Fe  Fe42  1  0.25367999  0.49990484  0.74503369  1
  Fe  Fe43  1  0.62797454  0.62285551  0.12530418  1
  Fe  Fe44  1  0.37421883  0.87220972  0.87735144  1
  Fe  Fe45  1  -0.00304997  0.00104918  0.25080100  1
  Fe  Fe46  1  0.37586335  0.12569366  0.87437396  1
  Fe  Fe47  1  0.25170153  0.00021521  0.25019221  1
  Fe  Fe48  1  0.87438452  0.37506737  0.87475381  1
  Fe  Fe49  1  0.74813058  0.49498162  0.25311476  1
  Fe  Fe50  1  0.12389341  0.62278501  0.12463105  1
  Fe  Fe51  1  0.62525674  0.87484626  0.37356214  1
  Fe  Fe52  1  0.12452042  0.62137545  0.37529512  1
  Fe  Fe53  1  0.50370255  0.50410207  0.50495277  1
  Fe  Fe54  1  0.49992595  -0.00033732  0.50112096  1
  Fe  Fe55  1  0.37539948  0.87385544  0.37472914  1
  Fe  Fe56  1  0.50379059  0.74782802  0.50018440  1
  Fe  Fe57  1  0.37465525  0.62581275  0.87458299  1
  Fe  Fe58  1  0.12438540  0.87627100  0.62288098  1
  Fe  Fe59  1  0.50229944  0.00029229  0.00021348  1
  Fe  Fe60  1  0.87466609  0.87644197  0.87716221  1
  Fe  Fe61  1  0.75118735  0.75011483  0.24916413  1
  Fe  Fe62  1  0.62409949  0.12582378  0.87250841  1
  Fe  Fe63  1  0.50209053  0.25208672  -0.00097169  1
  Fe  Fe64  1  0.24928414  0.74697448  0.25036279  1
  Fe  Fe65  1  0.87498416  0.62317630  0.87692424  1
  Fe  Fe66  1  0.12405064  0.37710996  0.37564775  1
  Fe  Fe67  1  -0.00275397  0.74910909  0.24990261  1
  Fe  Fe68  1  0.12544196  0.62423741  0.87489746  1
  Fe  Fe69  1  0.74970997  0.74629774  0.50108316  1
  Fe  Fe70  1  0.87457379  0.12586076  0.37631332  1
  Fe  Fe71  1  0.12635058  0.62748288  0.62472351  1
  Fe  Fe72  1  0.12403583  0.87470568  0.12546113  1
  Fe  Fe73  1  0.12600680  0.12675225  0.12576519  1
  Fe  Fe74  1  0.37572537  0.62378828  0.12378778  1
  Fe  Fe75  1  0.62580073  0.87432357  0.87496178  1
  Fe  Fe76  1  0.87269730  0.87668248  0.12300656  1
  Fe  Fe77  1  0.49948793  0.74800043  0.75031618  1
  Fe  Fe78  1  0.37581409  0.12604459  0.12575053  1
  Fe  Fe79  1  0.37531905  0.12451325  0.37551472  1
  Fe  Fe80  1  0.75293949  0.00428411  0.75089592  1
  Fe  Fe81  1  -0.00192750  0.24991565  0.50173610  1
  Fe  Fe82  1  0.25021629  0.25138522  -0.00107417  1
  Fe  Fe83  1  0.87410207  0.62227903  0.37488810  1
  Fe  Fe84  1  0.50392438  0.49817318  -0.00121049  1
  Fe  Fe85  1  0.12509087  0.87677420  0.37499920  1
  Fe  Fe86  1  0.87204094  0.12715713  0.12397349  1
  Fe  Fe87  1  -0.00038544  0.75035490  0.75020192  1
  Fe  Fe88  1  0.37325928  0.87023563  0.62334973  1
  Fe  Fe89  1  0.37616129  0.87317704  0.12357909  1
  Co  Co90  1  0.24858627  0.74823249  0.00147081  1
  Co  Co91  1  0.87521621  0.12337429  0.62227331  1
  Co  Co92  1  0.62757132  0.62475148  0.37351975  1
  Co  Co93  1  0.87725956  0.37700387  0.37758964  1
  Co  Co94  1  0.74998562  0.74876262  -0.00034715  1
  Co  Co95  1  0.24852654  0.75032677  0.75053781  1
  Co  Co96  1  0.37367200  0.62989748  0.62305708  1
  Co  Co97  1  0.75144412  0.00051156  0.25192006  1
  Co  Co98  1  0.24679483  0.74948661  0.49672703  1
  Co  Co99  1  0.24957979  0.25252985  0.49846746  1
  Co  Co100  1  0.87110887  0.37427744  0.62479517  1
  Co  Co101  1  0.49998621  -0.00087918  0.24980780  1
  Co  Co102  1  0.62531707  0.37621929  0.86877252  1
  Co  Co103  1  -0.00045263  0.00093007  0.75133515  1
  Co  Co104  1  0.25031137  0.49954513  0.25037638  1
  Co  Co105  1  0.25215667  0.00013140  0.50091464  1
  Co  Co106  1  0.50356566  0.74866594  -0.00003340  1
  Co  Co107  1  0.74737744  0.00205406  -0.00160525  1
  Co  Co108  1  0.87546193  0.62670371  0.62508118  1
  Co  Co109  1  0.12706901  0.37461824  0.12538868  1
  Co  Co110  1  0.87190623  0.37375588  0.12399028  1
  Co  Co111  1  0.50184529  0.50105640  0.24963301  1
  Co  Co112  1  0.62420394  0.37459954  0.12672740  1
  Co  Co113  1  0.62140617  0.37700423  0.37961593  1
  Co  Co114  1  0.24912832  0.49840757  0.50397501  1
  Co  Co115  1  0.62751459  0.62656588  0.62869403  1
  Co  Co116  1  0.49759887  0.50106044  0.74633403  1
  Co  Co117  1  0.37814837  0.37262055  0.62293280  1
  Co  Co118  1  0.74976181  0.50116255  0.50066820  1
  Co  Co119  1  0.75288919  0.24635420  0.74976299  1
  Co  Co120  1  -0.00087365  0.00034828  0.49802959  1
  Co  Co121  1  0.87133522  0.62084333  0.12588479  1
  Co  Co122  1  0.75041555  0.25000248  0.49745627  1
  Co  Co123  1  0.74804536  0.49709786  -0.00174948  1
  Co  Co124  1  0.12455692  0.12488406  0.62366236  1
  Co  Co125  1  0.87588701  0.12745086  0.87857882  1
  Co  Co126  1  -0.00011114  0.49819480  0.00103177  1
  Co  Co127  1  0.62530193  0.12566124  0.62530361  1
