# generated using pymatgen
data_Fe45Co19
_symmetry_space_group_name_H-M   'P 1'
_cell_length_a   11.41529209
_cell_length_b   11.41597823
_cell_length_c   11.41611174
_cell_angle_alpha   90.00713416
_cell_angle_beta   90.00397188
_cell_angle_gamma   90.00054969
_symmetry_Int_Tables_number   1
_chemical_formula_structural   Fe45Co19
_chemical_formula_sum   'Fe90 Co38'
_cell_volume   1487.71028998
_cell_formula_units_Z   2
loop_
 _symmetry_equiv_pos_site_id
 _symmetry_equiv_pos_as_xyz
  1  'x, y, z'
loop_
 _atom_site_type_symbol
 _atom_site_label
 _atom_site_symmetry_multiplicity
 _atom_site_fract_x
 _atom_site_fract_y
 _atom_site_fract_z
 _atom_site_occupancy
  Fe  Fe0  1  0.12421268  0.87695573  0.37524620  1
  Fe  Fe1  1  0.74990557  0.75045785  0.74911892  1
  Fe  Fe2  1  0.87544318  0.37311296  0.12422641  1
  Fe  Fe3  1  0.87506750  0.87558274  0.87380824  1
  Fe  Fe4  1  0.49810981  0.49632108  0.75191424  1
  Fe  Fe5  1  0.74355892  -0.00069834  0.49889715  1
  Fe  Fe6  1  0.37996153  0.87508349  0.37912925  1
  Fe  Fe7  1  0.12219212  0.87603031  0.87202889  1
  Fe  Fe8  1  0.50205816  0.25070564  -0.00172197  1
  Fe  Fe9  1  -0.00328502  0.25031226  0.74745670  1
  Fe  Fe10  1  0.37463783  0.62841203  0.12152909  1
  Fe  Fe11  1  0.12471748  0.87610196  0.12602869  1
  Fe  Fe12  1  0.12701595  0.37542977  0.87698868  1
  Fe  Fe13  1  0.37357747  0.62739850  0.87684973  1
  Fe  Fe14  1  0.37687469  0.62643815  0.37591233  1
  Fe  Fe15  1  0.49822318  0.49877630  0.25016195  1
  Fe  Fe16  1  0.24903809  0.00042248  -0.00187232  1
  Fe  Fe17  1  0.87496337  0.87473939  0.62426777  1
  Fe  Fe18  1  0.87194136  0.12211469  0.37300004  1
  Fe  Fe19  1  0.87414040  0.62421411  0.62361398  1
  Fe  Fe20  1  0.25185305  0.00059429  0.25138883  1
  Fe  Fe21  1  0.87242625  0.37260182  0.87716383  1
  Fe  Fe22  1  0.25140180  0.49858095  0.25002069  1
  Fe  Fe23  1  0.12507202  0.62523724  0.62605202  1
  Fe  Fe24  1  0.25141858  0.75109769  0.25096906  1
  Fe  Fe25  1  0.00035950  0.74978294  0.49978386  1
  Fe  Fe26  1  0.12445879  0.12488744  0.87150248  1
  Fe  Fe27  1  0.74622737  0.50109639  0.49855965  1
  Fe  Fe28  1  -0.00127879  0.50076680  0.24883574  1
  Fe  Fe29  1  0.00342113  0.24865251  0.25243404  1
  Fe  Fe30  1  0.12286784  0.87602522  0.62715364  1
  Fe  Fe31  1  0.37565721  0.12492072  0.87477770  1
  Fe  Fe32  1  0.50065239  0.00046333  0.25188889  1
  Fe  Fe33  1  0.62576306  0.12494272  0.12669541  1
  Fe  Fe34  1  0.37284808  0.12673574  0.12514743  1
  Fe  Fe35  1  0.50220663  0.75242414  0.75155278  1
  Fe  Fe36  1  0.74826908  0.74983975  -0.00059465  1
  Fe  Fe37  1  0.74546937  0.74887974  0.49816364  1
  Fe  Fe38  1  0.37659363  0.62490088  0.62595395  1
  Fe  Fe39  1  0.75277021  0.75150186  0.25515894  1
  Fe  Fe40  1  0.37531342  0.87390601  0.12094656  1
  Fe  Fe41  1  0.50292899  0.50167580  0.49861202  1
  Fe  Fe42  1  -0.00142880  0.00283539  0.00063089  1
  Fe  Fe43  1  0.25056450  0.00012468  0.74868673  1
  Fe  Fe44  1  0.12793635  0.37464669  0.12345482  1
  Fe  Fe45  1  0.50295627  0.24673055  0.49733030  1
  Fe  Fe46  1  0.37915959  0.87589669  0.62352752  1
  Fe  Fe47  1  0.00046749  0.49974408  0.50070430  1
  Fe  Fe48  1  0.00169062  0.00300558  0.50209225  1
  Fe  Fe49  1  0.25247747  0.49642446  0.74876306  1
  Fe  Fe50  1  0.87360318  0.12564623  0.62463538  1
  Fe  Fe51  1  0.50109983  0.25279024  0.75196977  1
  Fe  Fe52  1  0.37363112  0.37215546  0.37698862  1
  Fe  Fe53  1  0.62441445  0.87343649  0.12632084  1
  Fe  Fe54  1  0.50008393  0.24998817  0.25149382  1
  Fe  Fe55  1  0.49981890  0.49959940  -0.00050051  1
  Fe  Fe56  1  0.75136634  0.50093509  0.25128641  1
  Fe  Fe57  1  0.62808426  0.12663292  0.87393627  1
  Fe  Fe58  1  0.12497141  0.62380614  0.37444916  1
  Fe  Fe59  1  0.25016234  0.75077922  0.50038517  1
  Fe  Fe60  1  0.00152926  0.24829642  0.00161504  1
  Fe  Fe61  1  0.25049832  0.49906855  0.50087817  1
  Fe  Fe62  1  0.12439160  0.37038367  0.62092272  1
  Fe  Fe63  1  0.74936487  0.24978695  0.24885875  1
  Fe  Fe64  1  0.24941108  0.75156102  0.75024840  1
  Fe  Fe65  1  0.87599842  0.37598065  0.37614886  1
  Fe  Fe66  1  0.62479793  0.62635882  0.12797721  1
  Fe  Fe67  1  0.62543541  0.62363886  0.87409051  1
  Fe  Fe68  1  0.75092922  0.00215296  0.00308160  1
  Fe  Fe69  1  0.37694381  0.12651566  0.62400870  1
  Fe  Fe70  1  -0.00185872  0.00124602  0.24976877  1
  Fe  Fe71  1  -0.00082508  0.49812055  0.74928004  1
  Fe  Fe72  1  0.50168763  -0.00142011  -0.00193615  1
  Fe  Fe73  1  0.37173676  0.37154841  0.12192435  1
  Fe  Fe74  1  0.25011886  0.00335858  0.50121274  1
  Fe  Fe75  1  0.74964504  0.00068027  0.74815100  1
  Fe  Fe76  1  0.75144913  0.49683407  0.74922634  1
  Fe  Fe77  1  0.74958877  0.25069617  0.50068244  1
  Fe  Fe78  1  0.50261489  -0.00082691  0.75036093  1
  Fe  Fe79  1  0.00011021  0.74939288  -0.00000863  1
  Fe  Fe80  1  0.62420171  0.37473159  0.62547464  1
  Fe  Fe81  1  0.12497375  0.62450744  0.12382684  1
  Fe  Fe82  1  0.12444739  0.62321803  0.87587316  1
  Fe  Fe83  1  -0.00265973  0.74918670  0.25283355  1
  Fe  Fe84  1  0.75088529  0.49903049  0.00178376  1
  Fe  Fe85  1  0.25316239  0.25226305  0.74874166  1
  Fe  Fe86  1  0.62494994  0.37567439  0.12532170  1
  Fe  Fe87  1  0.87506733  0.87462551  0.12556075  1
  Fe  Fe88  1  0.87243960  0.12744602  0.87548169  1
  Fe  Fe89  1  0.87640819  0.62402749  0.87608800  1
  Co  Co90  1  -0.00196903  0.49872358  0.00109518  1
  Co  Co91  1  0.62775782  0.12543203  0.37160318  1
  Co  Co92  1  0.37330339  0.37385316  0.87924713  1
  Co  Co93  1  0.62876075  0.87776870  0.87431391  1
  Co  Co94  1  0.37541156  0.12538179  0.37404533  1
  Co  Co95  1  0.24943623  0.24638381  0.49769232  1
  Co  Co96  1  0.12582074  0.12311854  0.37484999  1
  Co  Co97  1  0.62334866  0.87499378  0.62472708  1
  Co  Co98  1  0.74816735  0.24945397  0.00353294  1
  Co  Co99  1  0.25200446  0.50113956  0.00023199  1
  Co  Co100  1  0.87573883  0.87845240  0.37826551  1
  Co  Co101  1  0.50319337  0.74620896  0.50289076  1
  Co  Co102  1  0.87561094  0.62279096  0.37808547  1
  Co  Co103  1  0.62560188  0.37410451  0.37393756  1
  Co  Co104  1  0.12694309  0.12312849  0.12678600  1
  Co  Co105  1  0.37470043  0.87498467  0.87519667  1
  Co  Co106  1  0.87529585  0.12664016  0.12756816  1
  Co  Co107  1  0.61996472  0.87350678  0.37456939  1
  Co  Co108  1  0.24869092  0.24580383  -0.00155779  1
  Co  Co109  1  0.62229406  0.62682810  0.36985204  1
  Co  Co110  1  0.87367581  0.62671683  0.12454781  1
  Co  Co111  1  0.62780623  0.37475677  0.87533306  1
  Co  Co112  1  0.62426470  0.12730926  0.62699177  1
  Co  Co113  1  0.50353512  0.75132377  -0.00224980  1
  Co  Co114  1  0.50343961  0.00490287  0.49902773  1
  Co  Co115  1  -0.00163886  0.74813853  0.74897183  1
  Co  Co116  1  0.12447458  0.37682230  0.37743528  1
  Co  Co117  1  0.75032539  0.25155394  0.74667822  1
  Co  Co118  1  0.49624006  0.75089298  0.24842113  1
  Co  Co119  1  -0.00251880  0.24624690  0.49758590  1
  Co  Co120  1  0.74850294  -0.00298998  0.24886984  1
  Co  Co121  1  0.87515445  0.37640818  0.62200880  1
  Co  Co122  1  0.62485814  0.62274147  0.62914681  1
  Co  Co123  1  0.37775407  0.37330965  0.61992591  1
  Co  Co124  1  -0.00341510  0.00219068  0.74858867  1
  Co  Co125  1  0.24790480  0.25027291  0.25288249  1
  Co  Co126  1  0.12530042  0.12800167  0.62736137  1
  Co  Co127  1  0.24670397  0.75201678  -0.00084240  1
