# generated using pymatgen
data_Fe45Co19
_symmetry_space_group_name_H-M   'P 1'
_cell_length_a   11.41589227
_cell_length_b   11.41593864
_cell_length_c   11.41589380
_cell_angle_alpha   89.99467401
_cell_angle_beta   89.99392259
_cell_angle_gamma   89.99354903
_symmetry_Int_Tables_number   1
_chemical_formula_structural   Fe45Co19
_chemical_formula_sum   'Fe90 Co38'
_cell_volume   1487.75493859
_cell_formula_units_Z   2
loop_
 _symmetry_equiv_pos_site_id
 _symmetry_equiv_pos_as_xyz
  1  'x, y, z'
loop_
 _atom_site_type_symbol
 _atom_site_label
 _atom_site_symmetry_multiplicity
 _atom_site_fract_x
 _atom_site_fract_y
 _atom_site_fract_z
 _atom_site_occupancy
  Fe  Fe0  1  0.50059998  0.24455844  -0.00123652  1
  Fe  Fe1  1  0.74570655  0.74945173  0.49823379  1
  Fe  Fe2  1  0.12517181  0.37691169  0.87647776  1
  Fe  Fe3  1  0.37451738  0.87066993  0.62330446  1
  Fe  Fe4  1  0.25551501  0.50076496  0.74674273  1
  Fe  Fe5  1  0.87813230  0.62649790  0.37293066  1
  Fe  Fe6  1  0.00049568  0.24949739  0.24936877  1
  Fe  Fe7  1  0.37525684  0.37174999  0.12454349  1
  Fe  Fe8  1  0.50108425  0.24853919  0.25110940  1
  Fe  Fe9  1  0.49734067  0.00105556  0.74800109  1
  Fe  Fe10  1  0.75055393  0.50109830  0.49907531  1
  Fe  Fe11  1  0.12295827  0.12617673  0.62276309  1
  Fe  Fe12  1  0.00028813  0.25192544  0.00096634  1
  Fe  Fe13  1  0.50078376  0.75058949  0.00155452  1
  Fe  Fe14  1  0.37449553  0.87581745  0.87398303  1
  Fe  Fe15  1  0.87294968  0.87101378  0.62491853  1
  Fe  Fe16  1  0.75171184  0.49973004  0.00261431  1
  Fe  Fe17  1  0.37865792  0.37588608  0.87502877  1
  Fe  Fe18  1  -0.00075013  0.50145626  0.50269798  1
  Fe  Fe19  1  0.25184725  0.24752253  -0.00067194  1
  Fe  Fe20  1  0.62513916  0.37330140  0.12348273  1
  Fe  Fe21  1  0.12566296  0.12290131  0.87484588  1
  Fe  Fe22  1  0.24340821  0.74681496  0.49841188  1
  Fe  Fe23  1  0.25027225  -0.00148826  0.74867165  1
  Fe  Fe24  1  -0.00038467  0.50183857  0.24100157  1
  Fe  Fe25  1  0.12436125  0.87303875  0.62497538  1
  Fe  Fe26  1  0.74718671  0.75074233  -0.00212213  1
  Fe  Fe27  1  0.87498799  0.62582186  0.87730862  1
  Fe  Fe28  1  0.75486825  0.00000078  0.75273003  1
  Fe  Fe29  1  0.62289659  0.62223755  0.87417749  1
  Fe  Fe30  1  -0.00264107  -0.00113616  0.25048308  1
  Fe  Fe31  1  0.37531343  0.12652895  0.37679538  1
  Fe  Fe32  1  0.12605392  0.37611733  0.62435765  1
  Fe  Fe33  1  0.12290490  0.37828425  0.37472929  1
  Fe  Fe34  1  0.37511491  0.87261450  0.37612916  1
  Fe  Fe35  1  0.49940037  0.50149181  0.50340514  1
  Fe  Fe36  1  0.87825582  0.87253877  0.37624960  1
  Fe  Fe37  1  0.25098518  0.49906303  0.00138903  1
  Fe  Fe38  1  0.87370696  0.37394081  0.62526948  1
  Fe  Fe39  1  0.62548677  0.87790856  0.12707544  1
  Fe  Fe40  1  0.62211750  0.37708830  0.87545939  1
  Fe  Fe41  1  0.37586946  0.37335413  0.37872771  1
  Fe  Fe42  1  0.37305133  0.62808897  0.12496823  1
  Fe  Fe43  1  0.62411138  0.37820913  0.37463785  1
  Fe  Fe44  1  -0.00016025  -0.00163616  -0.00135852  1
  Fe  Fe45  1  0.75132605  0.00121493  -0.00129048  1
  Fe  Fe46  1  0.12556284  0.62305527  0.87419371  1
  Fe  Fe47  1  0.62505309  0.87831298  0.87246398  1
  Fe  Fe48  1  0.75017269  0.50068867  0.75112881  1
  Fe  Fe49  1  0.74978879  0.24901534  0.75386889  1
  Fe  Fe50  1  -0.00174657  0.49923415  0.75088684  1
  Fe  Fe51  1  0.87277839  0.12668355  0.12370342  1
  Fe  Fe52  1  0.24915289  -0.00042806  0.25219477  1
  Fe  Fe53  1  0.75174911  -0.00103819  0.49892902  1
  Fe  Fe54  1  0.24730708  0.75403331  -0.00215183  1
  Fe  Fe55  1  0.50257553  0.74925351  0.74857753  1
  Fe  Fe56  1  0.87571486  0.87140478  0.12413191  1
  Fe  Fe57  1  0.62342735  0.37449123  0.62628360  1
  Fe  Fe58  1  0.49730262  0.00303812  0.00100142  1
  Fe  Fe59  1  0.37709729  0.62699416  0.37464723  1
  Fe  Fe60  1  0.75058802  0.24965028  0.25066447  1
  Fe  Fe61  1  0.50635480  0.75108257  0.49965120  1
  Fe  Fe62  1  0.37211344  0.87534363  0.12602923  1
  Fe  Fe63  1  0.25069903  0.50235664  0.50231911  1
  Fe  Fe64  1  0.87616296  0.12788700  0.62333232  1
  Fe  Fe65  1  0.50091049  -0.00063189  0.50058768  1
  Fe  Fe66  1  0.49809146  0.50132201  0.24714988  1
  Fe  Fe67  1  0.74753591  0.75111247  0.25219006  1
  Fe  Fe68  1  0.49775211  -0.00088468  0.24942205  1
  Fe  Fe69  1  0.12036110  0.12279839  0.37933547  1
  Fe  Fe70  1  0.37526924  0.13036014  0.62326708  1
  Fe  Fe71  1  0.00368789  0.74966808  0.00100550  1
  Fe  Fe72  1  0.12754223  0.12312176  0.12400402  1
  Fe  Fe73  1  0.87515624  0.37409069  0.87823742  1
  Fe  Fe74  1  0.24420165  0.75097620  0.25195897  1
  Fe  Fe75  1  0.62508161  0.62551164  0.12655055  1
  Fe  Fe76  1  0.00030104  0.25126902  0.75009476  1
  Fe  Fe77  1  -0.00034875  0.75034702  0.75128753  1
  Fe  Fe78  1  0.75001052  0.25058340  0.49730589  1
  Fe  Fe79  1  0.75126919  0.50099710  0.24813251  1
  Fe  Fe80  1  0.24828274  0.24972061  0.25275031  1
  Fe  Fe81  1  0.87327935  0.62695078  0.62568035  1
  Fe  Fe82  1  0.62744529  0.12042598  0.37203500  1
  Fe  Fe83  1  0.62571658  0.12439858  0.62717655  1
  Fe  Fe84  1  0.87748642  0.37579826  0.37311867  1
  Fe  Fe85  1  0.25084118  0.49944909  0.24858089  1
  Fe  Fe86  1  0.25095959  0.25146548  0.74954130  1
  Fe  Fe87  1  -0.00217862  -0.00122083  0.74988822  1
  Fe  Fe88  1  0.24980606  0.00019895  0.50080703  1
  Fe  Fe89  1  0.37657978  0.62565017  0.87503252  1
  Co  Co90  1  0.62756292  0.87726830  0.62802731  1
  Co  Co91  1  0.49917449  0.50187002  0.00410436  1
  Co  Co92  1  0.25014009  0.75034876  0.75193492  1
  Co  Co93  1  0.00326316  0.74744725  0.50067772  1
  Co  Co94  1  0.12463884  0.87729479  0.87302685  1
  Co  Co95  1  0.87316262  0.37172196  0.12390060  1
  Co  Co96  1  0.12747715  0.37402389  0.12374690  1
  Co  Co97  1  0.12826131  0.62464150  0.12300674  1
  Co  Co98  1  0.37292627  0.12517394  0.12737385  1
  Co  Co99  1  0.74814720  0.74909269  0.75299670  1
  Co  Co100  1  0.12413985  0.62417656  0.62988317  1
  Co  Co101  1  0.74742718  0.24857974  -0.00238258  1
  Co  Co102  1  0.37665449  0.36930242  0.62120928  1
  Co  Co103  1  0.62295967  0.62238648  0.37342754  1
  Co  Co104  1  0.87629159  0.12606866  0.37666772  1
  Co  Co105  1  0.62531866  0.12135784  0.87286379  1
  Co  Co106  1  0.87335147  0.63031118  0.12482968  1
  Co  Co107  1  -0.00321295  -0.00219681  0.50324769  1
  Co  Co108  1  0.50129870  0.75098211  0.24816529  1
  Co  Co109  1  -0.00038346  0.25356641  0.50019746  1
  Co  Co110  1  -0.00146996  0.50034767  0.00329291  1
  Co  Co111  1  0.12240390  0.87827391  0.37704239  1
  Co  Co112  1  0.00456609  0.75058779  0.24885657  1
  Co  Co113  1  0.25143119  -0.00118987  -0.00138377  1
  Co  Co114  1  0.37206715  0.12334979  0.87231244  1
  Co  Co115  1  0.50557801  0.24735563  0.49749030  1
  Co  Co116  1  0.12184363  0.62005653  0.37247229  1
  Co  Co117  1  0.37555417  0.63103305  0.62311503  1
  Co  Co118  1  0.49645795  0.50089704  0.74564288  1
  Co  Co119  1  0.62431693  0.87901459  0.37233870  1
  Co  Co120  1  0.24597380  0.25020616  0.49764661  1
  Co  Co121  1  0.75621235  -0.00201399  0.25002836  1
  Co  Co122  1  0.62752026  0.62389946  0.62590360  1
  Co  Co123  1  0.49997541  0.24946156  0.75279375  1
  Co  Co124  1  0.87525401  0.87272262  0.87662439  1
  Co  Co125  1  0.87794761  0.12672763  0.87642288  1
  Co  Co126  1  0.12527692  0.87854191  0.12522769  1
  Co  Co127  1  0.62698485  0.12298016  0.12735602  1
