# generated using pymatgen
data_Fe45Co19
_symmetry_space_group_name_H-M   'P 1'
_cell_length_a   11.41604462
_cell_length_b   11.41440978
_cell_length_c   11.41485571
_cell_angle_alpha   89.98983353
_cell_angle_beta   90.00846589
_cell_angle_gamma   89.99175570
_symmetry_Int_Tables_number   1
_chemical_formula_structural   Fe45Co19
_chemical_formula_sum   'Fe90 Co38'
_cell_volume   1487.44024403
_cell_formula_units_Z   2
loop_
 _symmetry_equiv_pos_site_id
 _symmetry_equiv_pos_as_xyz
  1  'x, y, z'
loop_
 _atom_site_type_symbol
 _atom_site_label
 _atom_site_symmetry_multiplicity
 _atom_site_fract_x
 _atom_site_fract_y
 _atom_site_fract_z
 _atom_site_occupancy
  Fe  Fe0  1  0.37317635  0.12477363  0.87541804  1
  Fe  Fe1  1  0.75185950  0.24811445  0.24833105  1
  Fe  Fe2  1  0.62023521  0.36976314  0.62633281  1
  Fe  Fe3  1  0.24922927  0.50173472  0.49814545  1
  Fe  Fe4  1  -0.00155840  0.75119480  0.00205830  1
  Fe  Fe5  1  0.37496838  0.87885575  0.38128214  1
  Fe  Fe6  1  0.12587207  0.37272602  0.12854442  1
  Fe  Fe7  1  0.87323190  0.12129406  0.12200207  1
  Fe  Fe8  1  0.87361326  0.37321901  0.87643024  1
  Fe  Fe9  1  0.00148302  0.50071179  0.49904772  1
  Fe  Fe10  1  -0.00233256  0.25017069  0.75015639  1
  Fe  Fe11  1  0.62353842  0.87218657  0.87417297  1
  Fe  Fe12  1  0.87293987  0.12467002  0.87804138  1
  Fe  Fe13  1  0.00033916  0.00136121  0.25079708  1
  Fe  Fe14  1  -0.00291829  0.75149757  0.24826762  1
  Fe  Fe15  1  0.13048638  0.12652607  0.37080231  1
  Fe  Fe16  1  0.49765780  0.49668225  0.75335323  1
  Fe  Fe17  1  0.12787840  0.87339266  0.87761974  1
  Fe  Fe18  1  0.37574045  0.37798191  0.12312562  1
  Fe  Fe19  1  0.25436445  0.75197897  0.74974620  1
  Fe  Fe20  1  0.00309708  0.00181175  0.49807848  1
  Fe  Fe21  1  -0.00161682  0.75101651  0.75055472  1
  Fe  Fe22  1  0.37647928  0.62187486  0.12685382  1
  Fe  Fe23  1  0.37498063  0.62414256  0.87627094  1
  Fe  Fe24  1  0.00042696  0.24710967  0.49747829  1
  Fe  Fe25  1  0.74705609  0.49940929  0.00182395  1
  Fe  Fe26  1  0.49782776  0.75032772  -0.00149494  1
  Fe  Fe27  1  0.12698882  0.37309222  0.62470825  1
  Fe  Fe28  1  0.62801690  0.12902247  0.87377759  1
  Fe  Fe29  1  0.25342629  0.75225659  0.24996287  1
  Fe  Fe30  1  0.25542548  0.24664832  0.50162424  1
  Fe  Fe31  1  0.12932186  0.12391942  0.12914298  1
  Fe  Fe32  1  0.00047077  0.49913847  0.74985891  1
  Fe  Fe33  1  0.24898648  0.50072753  0.00102287  1
  Fe  Fe34  1  0.75223512  0.75083236  0.24718595  1
  Fe  Fe35  1  0.12539382  0.62662113  0.12573869  1
  Fe  Fe36  1  0.12774474  0.37142160  0.87344516  1
  Fe  Fe37  1  0.74811640  0.24804523  0.50077330  1
  Fe  Fe38  1  0.00131024  0.24732018  0.00169032  1
  Fe  Fe39  1  0.62472456  0.62767933  0.87311458  1
  Fe  Fe40  1  0.87449852  0.87765284  0.87821876  1
  Fe  Fe41  1  0.49400666  0.24752028  0.24998960  1
  Fe  Fe42  1  0.74947022  0.00077208  0.24923113  1
  Fe  Fe43  1  0.62441552  0.37132075  0.87454186  1
  Fe  Fe44  1  0.62402037  0.62638982  0.37156018  1
  Fe  Fe45  1  0.87404119  0.12367822  0.62362602  1
  Fe  Fe46  1  0.87599712  0.87610098  0.62311306  1
  Fe  Fe47  1  0.12659390  0.12751896  0.62835509  1
  Fe  Fe48  1  0.62257292  0.12506128  0.37328489  1
  Fe  Fe49  1  0.74888009  0.00039665  0.74967122  1
  Fe  Fe50  1  0.49677837  0.00121424  0.24973886  1
  Fe  Fe51  1  0.87428795  0.62604033  0.62472209  1
  Fe  Fe52  1  0.12692185  0.62836398  0.37420679  1
  Fe  Fe53  1  0.12549984  0.62697015  0.62531094  1
  Fe  Fe54  1  0.00183247  0.49954801  -0.00052642  1
  Fe  Fe55  1  0.50186562  0.50053654  0.49724370  1
  Fe  Fe56  1  0.50104609  0.00127835  0.75215719  1
  Fe  Fe57  1  0.37695294  0.62446048  0.62235282  1
  Fe  Fe58  1  0.37410319  0.88095739  0.11764056  1
  Fe  Fe59  1  0.24936735  0.24699153  0.00201247  1
  Fe  Fe60  1  0.62231156  0.87216944  0.62751842  1
  Fe  Fe61  1  0.62314473  0.62710873  0.62798650  1
  Fe  Fe62  1  0.87564960  0.37661078  0.12609187  1
  Fe  Fe63  1  0.62282157  0.62428213  0.12705353  1
  Fe  Fe64  1  0.74720616  0.49837557  0.50015269  1
  Fe  Fe65  1  0.37707957  0.87833891  0.62201731  1
  Fe  Fe66  1  0.74696323  0.75206445  0.49938074  1
  Fe  Fe67  1  0.50067119  0.24672779  0.00203107  1
  Fe  Fe68  1  0.12705102  0.87645735  0.12301831  1
  Fe  Fe69  1  0.87522038  0.37351975  0.37411907  1
  Fe  Fe70  1  0.74406159  0.00042979  0.50061046  1
  Fe  Fe71  1  0.62317164  0.37489149  0.12733231  1
  Fe  Fe72  1  0.00144829  0.00048556  0.75247045  1
  Fe  Fe73  1  0.87338065  0.62494569  0.87603545  1
  Fe  Fe74  1  0.00106707  0.50002837  0.25104497  1
  Fe  Fe75  1  0.87342904  0.62445426  0.37498143  1
  Fe  Fe76  1  0.12643965  0.87390863  0.37649727  1
  Fe  Fe77  1  0.62261081  0.87754598  0.12556606  1
  Fe  Fe78  1  0.24923483  0.00042344  0.75033960  1
  Fe  Fe79  1  0.87545071  0.37396282  0.62316493  1
  Fe  Fe80  1  0.12682373  0.62673835  0.87459618  1
  Fe  Fe81  1  0.49617423  0.75273657  0.25200561  1
  Fe  Fe82  1  0.25283195  0.49630374  0.75037160  1
  Fe  Fe83  1  0.74919229  0.49773234  0.74944945  1
  Fe  Fe84  1  0.12636359  0.37101704  0.37230904  1
  Fe  Fe85  1  0.12443268  0.87256336  0.62320651  1
  Fe  Fe86  1  0.37426469  0.37776343  0.37557750  1
  Fe  Fe87  1  0.87407199  0.87703217  0.37539065  1
  Fe  Fe88  1  0.75040678  0.75219044  0.00291385  1
  Fe  Fe89  1  0.62443594  0.37217399  0.37290628  1
  Co  Co90  1  0.50669775  0.00052178  0.50070123  1
  Co  Co91  1  0.62383295  0.12343926  0.12820430  1
  Co  Co92  1  0.49600135  0.24755151  0.49679404  1
  Co  Co93  1  0.74879477  0.25097542  0.00426746  1
  Co  Co94  1  0.37392168  0.12052691  0.12271428  1
  Co  Co95  1  0.49434915  0.75106153  0.75093194  1
  Co  Co96  1  0.37430254  0.11916218  0.37719060  1
  Co  Co97  1  0.24554413  0.00202589  0.50253848  1
  Co  Co98  1  -0.00311585  0.24645296  0.24923734  1
  Co  Co99  1  0.75250602  0.25033867  0.74782112  1
  Co  Co100  1  0.12627558  0.12955238  0.87076189  1
  Co  Co101  1  0.50175467  0.75068663  0.49815738  1
  Co  Co102  1  0.75277128  0.75189795  0.74967025  1
  Co  Co103  1  0.74406998  -0.00176138  -0.00063651  1
  Co  Co104  1  0.37748244  0.37711534  0.62112657  1
  Co  Co105  1  0.62457631  0.87645211  0.37012882  1
  Co  Co106  1  0.50278155  0.50061108  -0.00169757  1
  Co  Co107  1  0.24581175  0.00388869  -0.00324400  1
  Co  Co108  1  0.87542788  0.88076924  0.12456798  1
  Co  Co109  1  0.37575156  0.62431455  0.37427745  1
  Co  Co110  1  0.37431234  0.87877151  0.87805943  1
  Co  Co111  1  0.49381859  0.25059792  0.75152053  1
  Co  Co112  1  0.25249461  -0.00383140  0.25057567  1
  Co  Co113  1  0.00542865  0.00243688  -0.00056430  1
  Co  Co114  1  0.25267319  0.74989589  0.50027439  1
  Co  Co115  1  0.25344815  0.74837368  0.00126102  1
  Co  Co116  1  0.62189317  0.12954777  0.62710052  1
  Co  Co117  1  0.24894801  0.50001130  0.24986848  1
  Co  Co118  1  0.87568267  0.62214476  0.12372932  1
  Co  Co119  1  0.25771859  0.25058036  0.24906106  1
  Co  Co120  1  0.37401495  0.37332832  0.88155779  1
  Co  Co121  1  -0.00137658  0.74983074  0.49954417  1
  Co  Co122  1  0.50411819  0.00337586  -0.00308373  1
  Co  Co123  1  0.87219905  0.12292178  0.37694382  1
  Co  Co124  1  0.74944435  0.49942098  0.24942515  1
  Co  Co125  1  0.37822969  0.12016028  0.62424465  1
  Co  Co126  1  0.49983417  0.49804064  0.25210676  1
  Co  Co127  1  0.25680024  0.25180236  0.74698652  1
