# generated using pymatgen
data_Fe45Co19
_symmetry_space_group_name_H-M   'P 1'
_cell_length_a   11.40690008
_cell_length_b   11.40897494
_cell_length_c   11.40865978
_cell_angle_alpha   90.00076503
_cell_angle_beta   90.01145463
_cell_angle_gamma   89.99930169
_symmetry_Int_Tables_number   1
_chemical_formula_structural   Fe45Co19
_chemical_formula_sum   'Fe90 Co38'
_cell_volume   1484.73478573
_cell_formula_units_Z   2
loop_
 _symmetry_equiv_pos_site_id
 _symmetry_equiv_pos_as_xyz
  1  'x, y, z'
loop_
 _atom_site_type_symbol
 _atom_site_label
 _atom_site_symmetry_multiplicity
 _atom_site_fract_x
 _atom_site_fract_y
 _atom_site_fract_z
 _atom_site_occupancy
  Fe  Fe0  1  0.75073425  0.49731311  0.00129024  1
  Fe  Fe1  1  0.75363792  0.75045584  0.50208403  1
  Fe  Fe2  1  0.74603056  0.75403705  0.24824785  1
  Fe  Fe3  1  0.75239780  0.25057228  0.00107240  1
  Fe  Fe4  1  0.25231441  0.75006982  -0.00085680  1
  Fe  Fe5  1  0.87442554  0.87683591  0.37250778  1
  Fe  Fe6  1  0.62528282  0.37331984  0.62415232  1
  Fe  Fe7  1  -0.00205134  0.24586329  0.75011510  1
  Fe  Fe8  1  0.12652837  0.62684100  0.12402746  1
  Fe  Fe9  1  0.25397995  0.25104387  0.00117218  1
  Fe  Fe10  1  0.37221943  0.12284393  0.62130212  1
  Fe  Fe11  1  0.50194755  0.00243100  0.75000000  1
  Fe  Fe12  1  0.38352534  0.87876675  0.37870357  1
  Fe  Fe13  1  0.62527752  0.12722088  0.37046559  1
  Fe  Fe14  1  0.37266921  0.37598064  0.87327035  1
  Fe  Fe15  1  0.12441607  0.62642975  0.37588720  1
  Fe  Fe16  1  0.62907200  0.62560219  0.62678060  1
  Fe  Fe17  1  0.37629216  0.37714189  0.62350441  1
  Fe  Fe18  1  -0.00128644  0.24734291  -0.00001372  1
  Fe  Fe19  1  0.62905965  0.62507873  0.87413130  1
  Fe  Fe20  1  0.24785113  -0.00137941  0.74793539  1
  Fe  Fe21  1  0.13037050  0.12874382  0.37851165  1
  Fe  Fe22  1  0.88296995  0.37627925  0.37223868  1
  Fe  Fe23  1  0.00328021  0.00249291  0.25219626  1
  Fe  Fe24  1  0.25040835  0.25038005  0.74691032  1
  Fe  Fe25  1  0.62171980  0.87398450  0.87882125  1
  Fe  Fe26  1  0.50256861  0.50334768  0.50182378  1
  Fe  Fe27  1  0.25448447  0.25608081  0.25380344  1
  Fe  Fe28  1  0.37462793  0.62212376  0.37561284  1
  Fe  Fe29  1  0.62448766  0.37451508  0.37611518  1
  Fe  Fe30  1  0.62336955  0.62786169  0.12445954  1
  Fe  Fe31  1  0.12009366  0.87691157  0.62118589  1
  Fe  Fe32  1  0.62079546  0.36885795  0.12590826  1
  Fe  Fe33  1  0.75294377  0.25057342  0.75023606  1
  Fe  Fe34  1  0.24500857  0.49508525  0.25104961  1
  Fe  Fe35  1  0.49606247  0.24750374  0.49616070  1
  Fe  Fe36  1  -0.00304723  0.75373024  0.75104348  1
  Fe  Fe37  1  0.62661441  0.37447511  0.87443543  1
  Fe  Fe38  1  0.50049748  0.49868134  0.24940335  1
  Fe  Fe39  1  0.62678579  0.62632219  0.37477318  1
  Fe  Fe40  1  0.37049595  0.62191579  0.87173269  1
  Fe  Fe41  1  0.87521678  0.62314499  0.37330197  1
  Fe  Fe42  1  0.00255249  0.49994543  0.75304127  1
  Fe  Fe43  1  0.25220385  -0.00329626  0.25176710  1
  Fe  Fe44  1  0.50055846  0.49999259  -0.00126128  1
  Fe  Fe45  1  0.24419342  0.49674574  0.49976534  1
  Fe  Fe46  1  0.49946446  0.74815064  0.75010296  1
  Fe  Fe47  1  0.73992295  -0.00472826  0.24543491  1
  Fe  Fe48  1  0.25094749  0.75321656  0.49915557  1
  Fe  Fe49  1  0.37148986  0.62336455  0.62562384  1
  Fe  Fe50  1  0.62770776  0.12829259  0.62508624  1
  Fe  Fe51  1  0.62556473  0.12626982  0.87704804  1
  Fe  Fe52  1  0.12913632  0.12702838  0.12652369  1
  Fe  Fe53  1  0.74551948  -0.00186589  0.00488811  1
  Fe  Fe54  1  0.75378932  0.75477618  0.74892301  1
  Fe  Fe55  1  0.38082370  0.12734279  0.12879548  1
  Fe  Fe56  1  0.24914612  0.75284284  0.74956833  1
  Fe  Fe57  1  0.12129299  0.37245687  0.62382504  1
  Fe  Fe58  1  0.00309997  0.49853174  -0.00175728  1
  Fe  Fe59  1  0.88051586  0.37401054  0.12757888  1
  Fe  Fe60  1  0.87169128  0.12274233  0.12830827  1
  Fe  Fe61  1  0.87413418  0.62338709  0.87394324  1
  Fe  Fe62  1  0.62226307  0.87377330  0.62127985  1
  Fe  Fe63  1  0.12878343  0.12598236  0.87570738  1
  Fe  Fe64  1  0.87717756  0.37702150  0.62662268  1
  Fe  Fe65  1  0.24531780  0.49781338  -0.00204838  1
  Fe  Fe66  1  0.87203407  0.12448301  0.37195474  1
  Fe  Fe67  1  0.12449377  0.12391654  0.61954669  1
  Fe  Fe68  1  -0.00249944  0.75231112  0.00001016  1
  Fe  Fe69  1  0.87211381  0.11871080  0.87251452  1
  Fe  Fe70  1  0.75326387  0.75350895  0.00140219  1
  Fe  Fe71  1  0.87469447  0.62432307  0.12532970  1
  Fe  Fe72  1  0.74949500  0.00034272  0.50015233  1
  Fe  Fe73  1  0.75016615  0.49712059  0.24868304  1
  Fe  Fe74  1  0.25327600  0.75249614  0.25205772  1
  Fe  Fe75  1  0.37753490  0.87791518  0.87516087  1
  Fe  Fe76  1  0.75532039  0.25034643  0.49940587  1
  Fe  Fe77  1  0.37482496  0.62329319  0.12625764  1
  Fe  Fe78  1  0.37931714  0.87697440  0.62212871  1
  Fe  Fe79  1  0.12532630  0.87529170  0.87732429  1
  Fe  Fe80  1  -0.00039485  0.74898151  0.24886303  1
  Fe  Fe81  1  0.25380753  0.00032780  0.00189621  1
  Fe  Fe82  1  0.50174118  0.50068572  0.75004370  1
  Fe  Fe83  1  0.00021042  0.00086676  0.00095602  1
  Fe  Fe84  1  0.12471475  0.87433902  0.12617539  1
  Fe  Fe85  1  -0.00441562  0.75043183  0.50049706  1
  Fe  Fe86  1  0.75291313  0.49975102  0.50122722  1
  Fe  Fe87  1  0.12394605  0.62659404  0.62611480  1
  Fe  Fe88  1  0.49805527  0.24892787  0.75168173  1
  Fe  Fe89  1  0.38330053  0.87328480  0.12323260  1
  Co  Co90  1  0.37628583  0.37695391  0.12309663  1
  Co  Co91  1  0.25263266  0.25520475  0.49875156  1
  Co  Co92  1  0.49929372  0.74356320  0.50076953  1
  Co  Co93  1  0.87768242  0.87777229  0.12902590  1
  Co  Co94  1  0.12299534  0.37108716  0.12506701  1
  Co  Co95  1  0.87399918  0.11786158  0.62906732  1
  Co  Co96  1  0.12233583  0.87268581  0.37430058  1
  Co  Co97  1  0.00531982  0.00110069  0.75285589  1
  Co  Co98  1  0.87557256  0.62261450  0.62818400  1
  Co  Co99  1  0.37182222  0.11991220  0.37561402  1
  Co  Co100  1  0.50022516  0.00623097  0.00063628  1
  Co  Co101  1  0.49979751  0.74924632  0.25355442  1
  Co  Co102  1  0.87582263  0.37560816  0.87442724  1
  Co  Co103  1  0.62198038  0.13351875  0.12695785  1
  Co  Co104  1  0.24750850  -0.00546028  0.49896821  1
  Co  Co105  1  -0.00554351  0.24572825  0.50130238  1
  Co  Co106  1  0.24489942  0.49779179  0.74933751  1
  Co  Co107  1  0.00397531  0.50347294  0.24736458  1
  Co  Co108  1  0.37175846  0.12374203  0.87190832  1
  Co  Co109  1  0.87721966  0.88319271  0.62504109  1
  Co  Co110  1  0.50396977  0.00722652  0.50121772  1
  Co  Co111  1  0.75203807  0.25391796  0.25018569  1
  Co  Co112  1  0.49658013  0.24995193  -0.00449124  1
  Co  Co113  1  0.87422184  0.88064649  0.87442322  1
  Co  Co114  1  0.11807807  0.37092933  0.37542039  1
  Co  Co115  1  0.00109071  0.24407099  0.24926472  1
  Co  Co116  1  0.37688692  0.38150178  0.37928020  1
  Co  Co117  1  -0.00076105  0.00341508  0.49403979  1
  Co  Co118  1  0.12451840  0.62905969  0.87418669  1
  Co  Co119  1  0.00097176  0.50195185  0.50095360  1
  Co  Co120  1  0.12522020  0.36828498  0.87500158  1
  Co  Co121  1  0.49603290  0.74282145  -0.00503115  1
  Co  Co122  1  0.74970476  0.49780893  0.74896020  1
  Co  Co123  1  0.61654837  0.86904760  0.11931995  1
  Co  Co124  1  0.50484364  -0.00110334  0.24842294  1
  Co  Co125  1  0.74300495  -0.00318355  0.74921887  1
  Co  Co126  1  0.49442326  0.25255637  0.25654326  1
  Co  Co127  1  0.62242987  0.87342487  0.38081186  1
