# generated using pymatgen
data_Fe45Co19
_symmetry_space_group_name_H-M   'P 1'
_cell_length_a   11.41618987
_cell_length_b   11.41528635
_cell_length_c   11.41601578
_cell_angle_alpha   89.99922846
_cell_angle_beta   89.99981918
_cell_angle_gamma   89.99906428
_symmetry_Int_Tables_number   1
_chemical_formula_structural   Fe45Co19
_chemical_formula_sum   'Fe90 Co38'
_cell_volume   1487.72463285
_cell_formula_units_Z   2
loop_
 _symmetry_equiv_pos_site_id
 _symmetry_equiv_pos_as_xyz
  1  'x, y, z'
loop_
 _atom_site_type_symbol
 _atom_site_label
 _atom_site_symmetry_multiplicity
 _atom_site_fract_x
 _atom_site_fract_y
 _atom_site_fract_z
 _atom_site_occupancy
  Fe  Fe0  1  0.62987422  0.87614667  0.37301225  1
  Fe  Fe1  1  0.75037428  0.49958912  0.25139642  1
  Fe  Fe2  1  0.87514345  0.87259059  0.62234060  1
  Fe  Fe3  1  0.12310639  0.87329778  0.62228179  1
  Fe  Fe4  1  0.50078157  0.75084594  -0.00027528  1
  Fe  Fe5  1  0.62511197  0.37093544  0.62460816  1
  Fe  Fe6  1  0.62623832  0.37520381  0.12353595  1
  Fe  Fe7  1  0.37690857  0.62247957  0.37707800  1
  Fe  Fe8  1  -0.00080980  0.24855381  -0.00180751  1
  Fe  Fe9  1  0.00068426  0.00130925  0.49672831  1
  Fe  Fe10  1  0.24911095  0.00060805  0.74763340  1
  Fe  Fe11  1  0.87534649  0.37640002  0.37678285  1
  Fe  Fe12  1  0.50202581  0.75041982  0.49891217  1
  Fe  Fe13  1  -0.00021485  0.49836074  0.00037448  1
  Fe  Fe14  1  0.25124095  0.24846162  0.24904938  1
  Fe  Fe15  1  0.75152824  0.24913486  0.25114214  1
  Fe  Fe16  1  0.75008002  0.00024928  0.74603146  1
  Fe  Fe17  1  -0.00001126  0.50370396  0.50309746  1
  Fe  Fe18  1  0.12772071  0.37157317  0.87555468  1
  Fe  Fe19  1  0.37677865  0.62338254  0.87593804  1
  Fe  Fe20  1  0.24685064  0.00448361  0.50007391  1
  Fe  Fe21  1  -0.00112928  0.75161564  -0.00192326  1
  Fe  Fe22  1  0.49997438  0.75210209  0.25149683  1
  Fe  Fe23  1  0.12396682  0.62525690  0.87297964  1
  Fe  Fe24  1  0.50056566  0.00121091  -0.00127851  1
  Fe  Fe25  1  0.62388344  0.37441103  0.37733652  1
  Fe  Fe26  1  0.74859026  0.50047291  -0.00231157  1
  Fe  Fe27  1  0.12734756  0.37201243  0.62386170  1
  Fe  Fe28  1  0.50076322  0.49866437  0.25078091  1
  Fe  Fe29  1  0.37201075  0.12488042  0.87446538  1
  Fe  Fe30  1  -0.00209371  0.24713255  0.75053168  1
  Fe  Fe31  1  0.87411883  0.37392576  0.62382701  1
  Fe  Fe32  1  0.24919484  0.49881478  0.74921400  1
  Fe  Fe33  1  0.49717876  0.25101828  0.74965698  1
  Fe  Fe34  1  0.75051701  0.24779021  0.00027673  1
  Fe  Fe35  1  0.87765883  0.12594372  0.12663416  1
  Fe  Fe36  1  0.37600257  0.62283130  0.12378453  1
  Fe  Fe37  1  0.75044281  0.74912633  0.00017249  1
  Fe  Fe38  1  0.24796685  0.50024661  0.25052467  1
  Fe  Fe39  1  0.37334922  0.87703848  0.87580306  1
  Fe  Fe40  1  0.50413797  0.00179018  0.49928007  1
  Fe  Fe41  1  0.37500641  0.87655203  0.12400823  1
  Fe  Fe42  1  0.37233392  0.87619095  0.37696174  1
  Fe  Fe43  1  0.74778456  0.49790750  0.75134063  1
  Fe  Fe44  1  0.12663202  0.37426939  0.37770764  1
  Fe  Fe45  1  0.75301308  0.74591719  0.49661747  1
  Fe  Fe46  1  0.37629556  0.12421767  0.37375687  1
  Fe  Fe47  1  0.37413248  0.37573745  0.62002369  1
  Fe  Fe48  1  0.12209846  0.62624629  0.12640466  1
  Fe  Fe49  1  0.87307145  0.37343926  0.87536466  1
  Fe  Fe50  1  0.12294438  0.62521653  0.37556802  1
  Fe  Fe51  1  0.62408578  0.62479207  0.12579726  1
  Fe  Fe52  1  0.62160489  0.12337235  0.12969019  1
  Fe  Fe53  1  0.37472442  0.37735014  0.37960668  1
  Fe  Fe54  1  0.62637242  0.87645974  0.12821129  1
  Fe  Fe55  1  -0.00187593  0.75408680  0.25481232  1
  Fe  Fe56  1  0.87356038  0.87584470  0.87406031  1
  Fe  Fe57  1  0.49957399  0.24913073  0.00068270  1
  Fe  Fe58  1  0.24926081  0.74762493  0.50106597  1
  Fe  Fe59  1  0.24900146  0.74868477  0.00084740  1
  Fe  Fe60  1  0.00106398  0.00177230  -0.00089182  1
  Fe  Fe61  1  0.24706744  0.00448013  0.00463188  1
  Fe  Fe62  1  0.12629816  0.87602006  0.87573679  1
  Fe  Fe63  1  0.24786653  0.00052896  0.24808093  1
  Fe  Fe64  1  0.24994735  0.75114234  0.74920069  1
  Fe  Fe65  1  0.00112539  0.24731304  0.49992055  1
  Fe  Fe66  1  0.12654724  0.37354745  0.12259491  1
  Fe  Fe67  1  0.37376260  0.37756624  0.12201057  1
  Fe  Fe68  1  0.62653646  0.12644974  0.87039162  1
  Fe  Fe69  1  0.87385261  0.87526027  0.12647552  1
  Fe  Fe70  1  0.74984783  0.00202314  0.00241503  1
  Fe  Fe71  1  0.74914388  0.00552420  0.49976688  1
  Fe  Fe72  1  0.37686894  0.87690659  0.62335509  1
  Fe  Fe73  1  -0.00024225  0.00081780  0.75030730  1
  Fe  Fe74  1  0.75000194  0.50261836  0.49959595  1
  Fe  Fe75  1  0.37543478  0.62286516  0.62409312  1
  Fe  Fe76  1  -0.00045663  -0.00320575  0.25343591  1
  Fe  Fe77  1  0.87471750  0.62608133  0.87082681  1
  Fe  Fe78  1  0.50108072  0.75328611  0.74911702  1
  Fe  Fe79  1  -0.00193476  0.25471012  0.25073044  1
  Fe  Fe80  1  0.50272526  0.49807619  0.75064517  1
  Fe  Fe81  1  0.00035519  0.49959922  0.74769213  1
  Fe  Fe82  1  0.74923309  0.24563509  0.49957086  1
  Fe  Fe83  1  0.37316976  0.37583777  0.87927333  1
  Fe  Fe84  1  0.24995134  0.75067329  0.25026315  1
  Fe  Fe85  1  0.37679366  0.12490904  0.62467403  1
  Fe  Fe86  1  0.62557745  0.87596982  0.87403627  1
  Fe  Fe87  1  0.49858527  0.25190242  0.25130572  1
  Fe  Fe88  1  0.62648957  0.62666518  0.62613994  1
  Fe  Fe89  1  0.87698593  0.62292930  0.12795748  1
  Co  Co90  1  0.87287088  0.62649352  0.62975342  1
  Co  Co91  1  0.62370499  0.62740039  0.87395024  1
  Co  Co92  1  0.50329456  0.49907107  -0.00067746  1
  Co  Co93  1  0.62548008  0.37022333  0.87550935  1
  Co  Co94  1  0.50397174  0.50033755  0.50146843  1
  Co  Co95  1  0.87730368  0.12677461  0.37413095  1
  Co  Co96  1  0.62343850  0.12814618  0.62857000  1
  Co  Co97  1  -0.00295663  0.74733321  0.49855518  1
  Co  Co98  1  0.25054204  0.24601273  0.00400656  1
  Co  Co99  1  0.87234799  0.37540571  0.12329850  1
  Co  Co100  1  0.25242892  0.25096924  0.74733061  1
  Co  Co101  1  0.12390533  0.12637702  0.37174361  1
  Co  Co102  1  0.24681057  0.50133630  0.50034967  1
  Co  Co103  1  0.37936943  0.12318156  0.12722710  1
  Co  Co104  1  0.49891880  -0.00430751  0.25299216  1
  Co  Co105  1  0.74881067  0.75375504  0.75112111  1
  Co  Co106  1  0.87245794  0.12342464  0.87431808  1
  Co  Co107  1  0.50000271  0.24754222  0.49889600  1
  Co  Co108  1  0.11969196  0.12674763  0.12865681  1
  Co  Co109  1  0.24663527  0.50216853  0.00015751  1
  Co  Co110  1  0.00062758  0.75255357  0.75000587  1
  Co  Co111  1  0.75396847  0.24980555  0.74823626  1
  Co  Co112  1  0.75350581  0.00350709  0.24955090  1
  Co  Co113  1  0.87712152  0.12476088  0.62401069  1
  Co  Co114  1  0.75156203  0.74749359  0.25021813  1
  Co  Co115  1  0.12543524  0.62722857  0.62652344  1
  Co  Co116  1  0.12817238  0.87433598  0.37804354  1
  Co  Co117  1  0.62651672  0.87439852  0.62177046  1
  Co  Co118  1  0.62337227  0.12488458  0.37092716  1
  Co  Co119  1  0.87873217  0.62064113  0.37095086  1
  Co  Co120  1  0.12411837  0.87400062  0.12486929  1
  Co  Co121  1  0.00199578  0.49437192  0.24928311  1
  Co  Co122  1  0.62330623  0.62456020  0.37358545  1
  Co  Co123  1  0.12755336  0.12609541  0.87297475  1
  Co  Co124  1  0.12368362  0.12602667  0.62661577  1
  Co  Co125  1  0.25080469  0.24631011  0.49961890  1
  Co  Co126  1  0.50008254  -0.00110468  0.74982154  1
  Co  Co127  1  0.87007863  0.87677730  0.37715338  1
