# generated using pymatgen
data_Fe45Co19
_symmetry_space_group_name_H-M   'P 1'
_cell_length_a   11.41598841
_cell_length_b   11.41525160
_cell_length_c   11.41499040
_cell_angle_alpha   90.00038531
_cell_angle_beta   89.99101874
_cell_angle_gamma   90.00053818
_symmetry_Int_Tables_number   1
_chemical_formula_structural   Fe45Co19
_chemical_formula_sum   'Fe90 Co38'
_cell_volume   1487.56020790
_cell_formula_units_Z   2
loop_
 _symmetry_equiv_pos_site_id
 _symmetry_equiv_pos_as_xyz
  1  'x, y, z'
loop_
 _atom_site_type_symbol
 _atom_site_label
 _atom_site_symmetry_multiplicity
 _atom_site_fract_x
 _atom_site_fract_y
 _atom_site_fract_z
 _atom_site_occupancy
  Fe  Fe0  1  0.49949398  0.74982251  0.49964671  1
  Fe  Fe1  1  0.37325703  0.37744694  0.62539785  1
  Fe  Fe2  1  0.87467231  0.12655329  0.12155100  1
  Fe  Fe3  1  0.50124841  -0.00391322  0.24904165  1
  Fe  Fe4  1  0.75079079  0.24892827  0.50049275  1
  Fe  Fe5  1  0.87685691  0.12509861  0.37557692  1
  Fe  Fe6  1  0.12555695  0.12665474  0.12646686  1
  Fe  Fe7  1  0.49815256  0.75230938  0.74897811  1
  Fe  Fe8  1  0.87267930  0.37336280  0.88124060  1
  Fe  Fe9  1  0.24823073  0.24947676  0.49982542  1
  Fe  Fe10  1  0.75207411  0.74983698  0.50230562  1
  Fe  Fe11  1  0.50012515  0.24973301  0.00121948  1
  Fe  Fe12  1  0.37622446  0.62451431  0.87472439  1
  Fe  Fe13  1  0.12382091  0.62410798  0.87392638  1
  Fe  Fe14  1  0.37417275  0.62269314  0.62599698  1
  Fe  Fe15  1  0.49896888  0.25240631  0.25001778  1
  Fe  Fe16  1  0.88074766  0.88002764  0.62364938  1
  Fe  Fe17  1  -0.00357268  0.49833184  0.24705623  1
  Fe  Fe18  1  -0.00435748  0.50201468  0.00165302  1
  Fe  Fe19  1  0.25131379  0.24882960  -0.00004051  1
  Fe  Fe20  1  0.12382293  0.37615144  0.12277856  1
  Fe  Fe21  1  0.12060888  0.62716329  0.37246316  1
  Fe  Fe22  1  0.37448467  0.37604139  0.87459184  1
  Fe  Fe23  1  0.37129342  0.87534740  0.62381621  1
  Fe  Fe24  1  0.87465637  0.87403237  0.12243723  1
  Fe  Fe25  1  -0.00330461  0.25175161  0.24709923  1
  Fe  Fe26  1  0.50020802  -0.00026427  0.50026049  1
  Fe  Fe27  1  0.74914796  -0.00110457  0.24916765  1
  Fe  Fe28  1  0.62662078  0.12363981  0.62754268  1
  Fe  Fe29  1  0.62665252  0.62384691  0.62845059  1
  Fe  Fe30  1  0.00072337  -0.00130361  0.24950125  1
  Fe  Fe31  1  0.49933981  0.25017969  0.49939154  1
  Fe  Fe32  1  0.62717872  0.62706922  0.87032305  1
  Fe  Fe33  1  0.62574039  0.37737145  0.62576597  1
  Fe  Fe34  1  0.75153335  0.75288825  0.25204689  1
  Fe  Fe35  1  0.87576207  0.37815731  0.62120714  1
  Fe  Fe36  1  0.37328364  0.87431784  0.37602446  1
  Fe  Fe37  1  0.25242990  0.25245283  0.24945158  1
  Fe  Fe38  1  0.75346932  0.49808454  0.24946184  1
  Fe  Fe39  1  0.12316012  0.37239923  0.37385068  1
  Fe  Fe40  1  0.12248903  0.87223509  0.37683292  1
  Fe  Fe41  1  0.50135521  0.50006895  0.49891119  1
  Fe  Fe42  1  0.37504214  0.38115230  0.12711593  1
  Fe  Fe43  1  0.50188578  -0.00239067  0.00223280  1
  Fe  Fe44  1  0.12569248  0.12812483  0.87257531  1
  Fe  Fe45  1  0.37318120  0.12540853  0.62586388  1
  Fe  Fe46  1  0.87609165  0.12590847  0.87571960  1
  Fe  Fe47  1  0.62975532  0.37408925  0.12240410  1
  Fe  Fe48  1  0.24470958  0.00245672  0.49879908  1
  Fe  Fe49  1  0.87328033  0.62672381  0.87274469  1
  Fe  Fe50  1  0.12414133  0.87312731  0.87495065  1
  Fe  Fe51  1  0.37394438  0.87637534  0.87778347  1
  Fe  Fe52  1  0.62572166  0.62617710  0.37469495  1
  Fe  Fe53  1  0.24641903  0.74699209  0.50194435  1
  Fe  Fe54  1  0.24679871  0.50109545  0.49791730  1
  Fe  Fe55  1  0.74807709  -0.00052382  -0.00126066  1
  Fe  Fe56  1  0.00014614  0.74799444  0.00237673  1
  Fe  Fe57  1  0.37439207  0.12515431  0.37442636  1
  Fe  Fe58  1  0.75141278  0.25150529  0.74998350  1
  Fe  Fe59  1  0.24851325  0.74824079  0.74956476  1
  Fe  Fe60  1  0.00271061  0.00143945  -0.00061580  1
  Fe  Fe61  1  0.87861685  0.87477729  0.37778611  1
  Fe  Fe62  1  0.50297522  0.50198521  0.00045204  1
  Fe  Fe63  1  0.00117810  0.24564643  0.50241428  1
  Fe  Fe64  1  0.37583789  0.62088861  0.37092924  1
  Fe  Fe65  1  0.37490990  0.12233327  0.12441623  1
  Fe  Fe66  1  0.12582536  0.37609626  0.87516589  1
  Fe  Fe67  1  -0.00166054  0.25128585  0.74963882  1
  Fe  Fe68  1  0.75196090  0.24969550  0.24936570  1
  Fe  Fe69  1  0.87809060  0.62560901  0.37598968  1
  Fe  Fe70  1  0.25030758  0.74766566  0.24647621  1
  Fe  Fe71  1  0.24805409  -0.00091024  0.25046724  1
  Fe  Fe72  1  0.74984715  0.75134195  -0.00268378  1
  Fe  Fe73  1  0.75221447  -0.00422590  0.75346830  1
  Fe  Fe74  1  0.12743596  0.87248356  0.12200533  1
  Fe  Fe75  1  0.62664987  0.62665315  0.12612451  1
  Fe  Fe76  1  0.49802873  0.75075395  0.00258479  1
  Fe  Fe77  1  0.62177701  0.12307345  0.87266920  1
  Fe  Fe78  1  0.62487782  0.87493148  0.62585922  1
  Fe  Fe79  1  0.49760526  0.25021371  0.74980560  1
  Fe  Fe80  1  0.49883939  0.75300870  0.24847666  1
  Fe  Fe81  1  0.12544322  0.37814532  0.62880350  1
  Fe  Fe82  1  0.62434464  0.12431211  0.37354869  1
  Fe  Fe83  1  0.75003597  0.00029520  0.49881642  1
  Fe  Fe84  1  0.25006887  0.00132592  0.75235409  1
  Fe  Fe85  1  0.62672208  0.37449475  0.37616054  1
  Fe  Fe86  1  -0.00003330  0.74985237  0.74676034  1
  Fe  Fe87  1  0.87690482  0.61978165  0.62445655  1
  Fe  Fe88  1  0.25009817  0.50371942  0.00094508  1
  Fe  Fe89  1  0.62670869  0.37649266  0.87506947  1
  Co  Co90  1  0.12422589  0.87742532  0.62602628  1
  Co  Co91  1  0.12474920  0.12440419  0.63022523  1
  Co  Co92  1  0.25229093  0.25032243  0.75173878  1
  Co  Co93  1  0.87383446  0.12261462  0.62627734  1
  Co  Co94  1  0.00106192  0.74931563  0.50508993  1
  Co  Co95  1  0.12312488  0.62057508  0.62869811  1
  Co  Co96  1  0.62383293  0.12525002  0.12699739  1
  Co  Co97  1  0.75242950  0.49750704  0.75115841  1
  Co  Co98  1  0.00019335  0.00157723  0.75356641  1
  Co  Co99  1  0.87196424  0.37113425  0.11830280  1
  Co  Co100  1  0.37046597  0.87619040  0.12302763  1
  Co  Co101  1  0.12454495  0.12888834  0.37044494  1
  Co  Co102  1  0.24625515  0.00304532  -0.00190808  1
  Co  Co103  1  0.00335508  0.24840402  -0.00062537  1
  Co  Co104  1  0.75428664  0.75358152  0.74668227  1
  Co  Co105  1  0.12346486  0.62450633  0.12490326  1
  Co  Co106  1  0.37749351  0.12382622  0.87671732  1
  Co  Co107  1  0.75119296  0.50434824  -0.00067966  1
  Co  Co108  1  0.50590113  0.49750880  0.24994426  1
  Co  Co109  1  0.37651199  0.62083926  0.12848751  1
  Co  Co110  1  0.49949876  0.49957242  0.75059962  1
  Co  Co111  1  0.74881456  0.50129240  0.49851454  1
  Co  Co112  1  0.87277620  0.62882048  0.12617656  1
  Co  Co113  1  0.87908285  0.87303839  0.87745846  1
  Co  Co114  1  0.87622177  0.37403165  0.37874663  1
  Co  Co115  1  0.74556656  0.24435604  -0.00208578  1
  Co  Co116  1  0.62285316  0.87285292  0.87341689  1
  Co  Co117  1  0.00463193  0.00473335  0.49744036  1
  Co  Co118  1  -0.00017139  0.75246960  0.24713505  1
  Co  Co119  1  0.37408829  0.37790687  0.37537519  1
  Co  Co120  1  0.62815720  0.87230639  0.12462394  1
  Co  Co121  1  0.00418950  0.50014748  0.49708263  1
  Co  Co122  1  0.49744552  -0.00162236  0.74740900  1
  Co  Co123  1  0.62525128  0.87418212  0.37717519  1
  Co  Co124  1  -0.00344618  0.49750044  0.75424111  1
  Co  Co125  1  0.25141097  0.74548054  0.00038658  1
  Co  Co126  1  0.25141791  0.50170034  0.75222470  1
  Co  Co127  1  0.24433891  0.50042757  0.25135479  1
