# generated using pymatgen
data_Fe45Co19
_symmetry_space_group_name_H-M   'P 1'
_cell_length_a   11.41425888
_cell_length_b   11.41386862
_cell_length_c   11.41507854
_cell_angle_alpha   89.99267588
_cell_angle_beta   89.99416250
_cell_angle_gamma   90.00073949
_symmetry_Int_Tables_number   1
_chemical_formula_structural   Fe45Co19
_chemical_formula_sum   'Fe90 Co38'
_cell_volume   1487.16612968
_cell_formula_units_Z   2
loop_
 _symmetry_equiv_pos_site_id
 _symmetry_equiv_pos_as_xyz
  1  'x, y, z'
loop_
 _atom_site_type_symbol
 _atom_site_label
 _atom_site_symmetry_multiplicity
 _atom_site_fract_x
 _atom_site_fract_y
 _atom_site_fract_z
 _atom_site_occupancy
  Fe  Fe0  1  0.12292057  0.87272895  0.62488203  1
  Fe  Fe1  1  0.87677169  0.12577191  0.12658253  1
  Fe  Fe2  1  0.25544005  0.50253774  -0.00118338  1
  Fe  Fe3  1  0.00229079  0.25388171  0.24883515  1
  Fe  Fe4  1  0.75360768  0.00018782  0.49749192  1
  Fe  Fe5  1  0.37716136  0.37550066  0.12351266  1
  Fe  Fe6  1  0.87844579  0.12281329  0.37333235  1
  Fe  Fe7  1  0.25303633  0.74887206  0.00235788  1
  Fe  Fe8  1  0.49979168  0.75056518  0.00021345  1
  Fe  Fe9  1  0.62234869  0.12280852  0.13076587  1
  Fe  Fe10  1  0.74707230  0.25002795  0.00176300  1
  Fe  Fe11  1  0.74929397  0.24926623  0.49879147  1
  Fe  Fe12  1  0.12592534  0.62673476  0.87316296  1
  Fe  Fe13  1  0.62524775  0.87792923  0.87507570  1
  Fe  Fe14  1  0.87704668  0.37825139  0.37573368  1
  Fe  Fe15  1  0.50072575  0.75214766  0.74880245  1
  Fe  Fe16  1  0.37635573  0.87781722  0.62396332  1
  Fe  Fe17  1  0.37535526  0.12266789  0.12831006  1
  Fe  Fe18  1  0.62559311  0.87647684  0.62303292  1
  Fe  Fe19  1  0.12368033  0.37858482  0.37675553  1
  Fe  Fe20  1  0.87409735  0.37514924  0.87598144  1
  Fe  Fe21  1  0.62252787  0.37454333  0.87667916  1
  Fe  Fe22  1  0.12607493  0.12213800  0.87501365  1
  Fe  Fe23  1  0.62077513  0.37506847  0.62067100  1
  Fe  Fe24  1  0.74950140  0.50196386  0.50174987  1
  Fe  Fe25  1  0.62410141  0.12348737  0.62348724  1
  Fe  Fe26  1  0.49914393  0.49970455  0.25024157  1
  Fe  Fe27  1  0.24723541  0.00090251  0.50343856  1
  Fe  Fe28  1  0.49717035  0.24931733  0.25709514  1
  Fe  Fe29  1  0.62303834  0.62403141  0.37636582  1
  Fe  Fe30  1  0.37497077  0.12024450  0.87310186  1
  Fe  Fe31  1  0.49895850  0.75205370  0.25073726  1
  Fe  Fe32  1  0.62261526  0.37583115  0.37784899  1
  Fe  Fe33  1  0.12648470  0.87555259  0.87781335  1
  Fe  Fe34  1  0.62480952  0.62810434  0.12397906  1
  Fe  Fe35  1  0.74625542  0.00062478  0.00333227  1
  Fe  Fe36  1  0.00091711  -0.00080660  0.74897733  1
  Fe  Fe37  1  0.49806789  0.50043907  0.75065702  1
  Fe  Fe38  1  0.25147171  0.24773629  0.49931014  1
  Fe  Fe39  1  0.00121973  0.25146550  -0.00029657  1
  Fe  Fe40  1  0.24753179  -0.00364813  0.24675951  1
  Fe  Fe41  1  0.74942042  0.74836528  0.49745221  1
  Fe  Fe42  1  0.00043410  -0.00177405  0.00355182  1
  Fe  Fe43  1  0.74815192  0.49932268  0.74832412  1
  Fe  Fe44  1  0.49976795  0.74929831  0.49916327  1
  Fe  Fe45  1  0.37513134  0.62778400  0.62532705  1
  Fe  Fe46  1  0.50023757  0.24680276  -0.00030051  1
  Fe  Fe47  1  0.25089072  0.24867706  0.74860963  1
  Fe  Fe48  1  0.87626748  0.37501571  0.62388896  1
  Fe  Fe49  1  0.62369096  0.62521218  0.87442623  1
  Fe  Fe50  1  0.37214686  0.62702984  0.37382071  1
  Fe  Fe51  1  0.49883573  0.00398031  0.49571766  1
  Fe  Fe52  1  0.74938272  0.25060484  0.25131026  1
  Fe  Fe53  1  0.87271331  0.12402966  0.87543856  1
  Fe  Fe54  1  0.87500331  0.62316754  0.87495955  1
  Fe  Fe55  1  0.87860648  0.62205661  0.37347394  1
  Fe  Fe56  1  0.87446375  0.37514011  0.12528795  1
  Fe  Fe57  1  0.12438823  0.12470309  0.12557169  1
  Fe  Fe58  1  0.74738961  0.49938896  0.00248908  1
  Fe  Fe59  1  0.62762462  0.87769829  0.37198852  1
  Fe  Fe60  1  0.87360532  0.87750192  0.87510277  1
  Fe  Fe61  1  0.50005424  0.24744522  0.74979943  1
  Fe  Fe62  1  -0.00021689  0.75062711  0.24900780  1
  Fe  Fe63  1  0.00256333  0.49877009  0.74749890  1
  Fe  Fe64  1  0.87588900  0.87338361  0.62343060  1
  Fe  Fe65  1  0.74887493  0.24982038  0.74930378  1
  Fe  Fe66  1  0.25067436  0.75313892  0.74910697  1
  Fe  Fe67  1  0.87702639  0.12410767  0.62482368  1
  Fe  Fe68  1  0.87582959  0.62695543  0.62674658  1
  Fe  Fe69  1  -0.00249835  0.74925561  -0.00007340  1
  Fe  Fe70  1  0.25182700  0.24786642  0.00018711  1
  Fe  Fe71  1  0.00111845  0.25096504  0.75099977  1
  Fe  Fe72  1  0.37655962  0.37361499  0.62037932  1
  Fe  Fe73  1  0.86931517  0.87097347  0.12751614  1
  Fe  Fe74  1  0.00123670  0.25043072  0.50011938  1
  Fe  Fe75  1  0.12619662  0.62625521  0.12702931  1
  Fe  Fe76  1  0.37164118  0.87553205  0.37631184  1
  Fe  Fe77  1  0.12818892  0.37518459  0.87642275  1
  Fe  Fe78  1  0.25226873  0.49913277  0.75023065  1
  Fe  Fe79  1  0.25011656  0.49905978  0.24957879  1
  Fe  Fe80  1  0.12412575  0.12253437  0.37355934  1
  Fe  Fe81  1  0.12514193  0.87341702  0.37484601  1
  Fe  Fe82  1  0.74885959  0.50058003  0.24840542  1
  Fe  Fe83  1  0.24717948  0.50469972  0.50076947  1
  Fe  Fe84  1  0.00050653  0.49990573  0.00287161  1
  Fe  Fe85  1  0.37412688  0.87828893  0.87579321  1
  Fe  Fe86  1  0.00259600  0.74671362  0.49896124  1
  Fe  Fe87  1  0.37658727  0.87707066  0.12414115  1
  Fe  Fe88  1  0.74991353  0.75131873  0.75112624  1
  Fe  Fe89  1  0.25003321  0.25345497  0.25104949  1
  Co  Co90  1  0.25002716  0.00083958  0.00286186  1
  Co  Co91  1  0.36829637  0.12061656  0.37252703  1
  Co  Co92  1  0.74975540  0.75015969  -0.00435158  1
  Co  Co93  1  0.12712445  0.37330540  0.62409573  1
  Co  Co94  1  0.00300810  0.50288444  0.50351021  1
  Co  Co95  1  0.25191569  0.75318712  0.24762450  1
  Co  Co96  1  0.62422840  0.62635371  0.62625219  1
  Co  Co97  1  0.49738029  0.24435571  0.49488600  1
  Co  Co98  1  0.37650548  0.62511489  0.12773714  1
  Co  Co99  1  0.24770768  -0.00143322  0.74696233  1
  Co  Co100  1  0.37563961  0.62925683  0.87223351  1
  Co  Co101  1  0.62717875  0.12406026  0.87401434  1
  Co  Co102  1  0.74928508  0.74617388  0.25525661  1
  Co  Co103  1  -0.00094324  0.75207627  0.75282499  1
  Co  Co104  1  0.49769038  0.50480216  0.50005745  1
  Co  Co105  1  0.50212936  0.00025813  0.00071151  1
  Co  Co106  1  0.49821399  -0.00196084  0.25268048  1
  Co  Co107  1  0.62698919  0.87262745  0.12823394  1
  Co  Co108  1  0.37632897  0.12348675  0.62551397  1
  Co  Co109  1  0.75308227  0.00113040  0.24969947  1
  Co  Co110  1  0.37497828  0.37820310  0.37843004  1
  Co  Co111  1  0.62779372  0.12295382  0.37342453  1
  Co  Co112  1  0.00111667  -0.00148176  0.50020531  1
  Co  Co113  1  0.50113932  -0.00014757  0.75101212  1
  Co  Co114  1  0.37635078  0.37201843  0.87644978  1
  Co  Co115  1  0.00110433  0.49865545  0.24605208  1
  Co  Co116  1  0.12593830  0.62623036  0.37009146  1
  Co  Co117  1  0.75063269  -0.00070270  0.74794241  1
  Co  Co118  1  0.49862349  0.50207489  -0.00120140  1
  Co  Co119  1  0.12513844  0.87185523  0.12249296  1
  Co  Co120  1  0.12589900  0.62809547  0.62988728  1
  Co  Co121  1  0.62068542  0.37323615  0.12667497  1
  Co  Co122  1  0.87577799  0.87402765  0.37451626  1
  Co  Co123  1  0.12316761  0.12649165  0.62495125  1
  Co  Co124  1  0.12890441  0.37556541  0.12111668  1
  Co  Co125  1  0.00032871  -0.00419080  0.24755355  1
  Co  Co126  1  0.87273442  0.62678098  0.12499294  1
  Co  Co127  1  0.24917560  0.74905606  0.50140473  1
