# generated using pymatgen
data_Fe45Co19
_symmetry_space_group_name_H-M   'P 1'
_cell_length_a   11.41463238
_cell_length_b   11.41510585
_cell_length_c   11.41605742
_cell_angle_alpha   90.00141545
_cell_angle_beta   89.99526447
_cell_angle_gamma   89.99645090
_symmetry_Int_Tables_number   1
_chemical_formula_structural   Fe45Co19
_chemical_formula_sum   'Fe90 Co38'
_cell_volume   1487.50356054
_cell_formula_units_Z   2
loop_
 _symmetry_equiv_pos_site_id
 _symmetry_equiv_pos_as_xyz
  1  'x, y, z'
loop_
 _atom_site_type_symbol
 _atom_site_label
 _atom_site_symmetry_multiplicity
 _atom_site_fract_x
 _atom_site_fract_y
 _atom_site_fract_z
 _atom_site_occupancy
  Fe  Fe0  1  0.87326871  0.37441312  0.12467406  1
  Fe  Fe1  1  0.49789350  0.74832674  0.24724614  1
  Fe  Fe2  1  0.75085872  0.75055289  0.24835163  1
  Fe  Fe3  1  0.25337876  0.25035951  -0.00304702  1
  Fe  Fe4  1  0.87311041  0.12774849  0.12622875  1
  Fe  Fe5  1  0.49897672  0.74817827  0.50431799  1
  Fe  Fe6  1  0.00103950  0.49841827  0.50065848  1
  Fe  Fe7  1  0.74842792  0.25062264  0.49819230  1
  Fe  Fe8  1  0.00107764  -0.00093084  0.00198968  1
  Fe  Fe9  1  0.62460974  0.87396001  0.87448237  1
  Fe  Fe10  1  0.24868809  -0.00069422  0.50001504  1
  Fe  Fe11  1  0.12748412  0.37552709  0.12513743  1
  Fe  Fe12  1  0.87555801  0.12767036  0.37318713  1
  Fe  Fe13  1  0.12450771  0.12775321  0.37298879  1
  Fe  Fe14  1  0.25242449  0.74848291  0.50230156  1
  Fe  Fe15  1  0.37789675  0.62168679  0.37595060  1
  Fe  Fe16  1  -0.00179816  0.74922528  0.50177390  1
  Fe  Fe17  1  0.12414196  0.37376667  0.62545162  1
  Fe  Fe18  1  0.24785558  -0.00376581  -0.00126107  1
  Fe  Fe19  1  0.00376061  0.74868107  -0.00174011  1
  Fe  Fe20  1  0.74869179  0.74997590  0.00052749  1
  Fe  Fe21  1  0.25080315  0.25275346  0.49866142  1
  Fe  Fe22  1  0.37945882  0.62710568  0.87410805  1
  Fe  Fe23  1  0.25283485  0.49939028  0.25164685  1
  Fe  Fe24  1  0.62447237  0.62335456  0.62612410  1
  Fe  Fe25  1  0.12743917  0.87051427  0.12785916  1
  Fe  Fe26  1  0.74974828  0.49750703  0.75168809  1
  Fe  Fe27  1  0.62313187  0.37486615  0.62610228  1
  Fe  Fe28  1  0.25178799  0.25146760  0.75203475  1
  Fe  Fe29  1  0.12567156  0.62626488  0.62831133  1
  Fe  Fe30  1  0.62434793  0.12619598  0.62623428  1
  Fe  Fe31  1  0.87418287  0.62510388  0.12442008  1
  Fe  Fe32  1  0.37719936  0.87569892  0.37764362  1
  Fe  Fe33  1  -0.00119951  0.00076930  0.74870113  1
  Fe  Fe34  1  0.37343467  0.12327105  0.12316078  1
  Fe  Fe35  1  0.12464017  0.12810916  0.62646396  1
  Fe  Fe36  1  0.62512806  0.87589557  0.12457917  1
  Fe  Fe37  1  0.75266061  0.25308431  0.75308152  1
  Fe  Fe38  1  -0.00069712  -0.00153920  0.24829998  1
  Fe  Fe39  1  0.12505513  0.62555749  0.37354454  1
  Fe  Fe40  1  0.75204138  0.75065546  0.74812629  1
  Fe  Fe41  1  0.12456126  0.87233245  0.37374198  1
  Fe  Fe42  1  0.62131985  0.37175208  0.12265546  1
  Fe  Fe43  1  0.87221302  0.62258917  0.62364307  1
  Fe  Fe44  1  0.49622918  0.24958968  0.75342034  1
  Fe  Fe45  1  0.37306999  0.87231344  0.12309394  1
  Fe  Fe46  1  0.25005861  -0.00245519  0.74968732  1
  Fe  Fe47  1  0.62279927  0.62741707  0.87417838  1
  Fe  Fe48  1  0.37804223  0.37894215  0.62445443  1
  Fe  Fe49  1  0.87275256  0.62550273  0.37541004  1
  Fe  Fe50  1  0.49975696  -0.00081869  0.74962299  1
  Fe  Fe51  1  0.74935489  0.00094384  0.50004541  1
  Fe  Fe52  1  0.25244911  0.50154684  0.75092688  1
  Fe  Fe53  1  0.00069234  0.00112298  0.50092849  1
  Fe  Fe54  1  0.75098120  -0.00066093  0.74906387  1
  Fe  Fe55  1  0.87582443  0.12965718  0.62472979  1
  Fe  Fe56  1  0.87485636  0.12654220  0.87511729  1
  Fe  Fe57  1  0.37463752  0.12294333  0.62456222  1
  Fe  Fe58  1  0.25307349  0.25240299  0.25187882  1
  Fe  Fe59  1  0.62587627  0.12848579  0.12363274  1
  Fe  Fe60  1  0.00100684  0.50026729  0.24843357  1
  Fe  Fe61  1  0.37629331  0.87259585  0.87503237  1
  Fe  Fe62  1  0.62208420  0.37277975  0.87785237  1
  Fe  Fe63  1  0.50101722  0.00220610  -0.00197738  1
  Fe  Fe64  1  0.87643550  0.62223172  0.87666376  1
  Fe  Fe65  1  0.24987099  0.49877237  0.49941838  1
  Fe  Fe66  1  0.87380937  0.87314278  0.37616929  1
  Fe  Fe67  1  0.12431469  0.37820432  0.87575417  1
  Fe  Fe68  1  0.74597736  0.49890705  0.25169706  1
  Fe  Fe69  1  0.74777201  0.49878958  -0.00017736  1
  Fe  Fe70  1  -0.00355582  0.49680686  0.74809260  1
  Fe  Fe71  1  0.12613920  0.12492488  0.87479822  1
  Fe  Fe72  1  0.74963366  0.00121281  -0.00046536  1
  Fe  Fe73  1  0.62332572  0.62395266  0.12546568  1
  Fe  Fe74  1  0.12884021  0.62801859  0.12791844  1
  Fe  Fe75  1  0.25086455  -0.00132515  0.25212602  1
  Fe  Fe76  1  0.12485994  0.87189879  0.62800660  1
  Fe  Fe77  1  0.87601959  0.87434951  0.87596867  1
  Fe  Fe78  1  0.74520165  0.49912713  0.49707034  1
  Fe  Fe79  1  0.74944350  -0.00012731  0.25026891  1
  Fe  Fe80  1  0.61751104  0.37120277  0.37298737  1
  Fe  Fe81  1  0.37760769  0.12563309  0.37772298  1
  Fe  Fe82  1  0.62479165  0.87283544  0.37643834  1
  Fe  Fe83  1  0.37885949  0.37729819  0.12306264  1
  Fe  Fe84  1  0.50061148  0.00226221  0.25114415  1
  Fe  Fe85  1  0.87761046  0.37452663  0.37481013  1
  Fe  Fe86  1  0.12726879  0.12594125  0.12573100  1
  Fe  Fe87  1  -0.00009550  0.25206752  -0.00062464  1
  Fe  Fe88  1  0.62580096  0.87548899  0.62397113  1
  Fe  Fe89  1  0.25133172  0.50458201  -0.00158222  1
  Co  Co90  1  0.12315122  0.87671293  0.87083792  1
  Co  Co91  1  0.62389038  0.12639858  0.37583806  1
  Co  Co92  1  0.87615495  0.87572689  0.62457406  1
  Co  Co93  1  0.62421226  0.63041857  0.37411874  1
  Co  Co94  1  0.37620844  0.62064919  0.62636173  1
  Co  Co95  1  0.37346651  0.62618976  0.12331293  1
  Co  Co96  1  -0.00316252  0.74789202  0.75048437  1
  Co  Co97  1  0.75085996  0.25035744  -0.00235537  1
  Co  Co98  1  0.50128805  0.50207415  0.24898844  1
  Co  Co99  1  -0.00273031  0.74937333  0.25012053  1
  Co  Co100  1  0.87483130  0.87355803  0.12201541  1
  Co  Co101  1  0.25146172  0.74802315  0.75221028  1
  Co  Co102  1  0.37497985  0.37843883  0.87612937  1
  Co  Co103  1  0.25499992  0.74947376  0.25402651  1
  Co  Co104  1  0.37933438  0.37657375  0.37609222  1
  Co  Co105  1  0.74999618  0.74953952  0.50346736  1
  Co  Co106  1  0.62624103  0.12549688  0.87297951  1
  Co  Co107  1  0.12136338  0.61969487  0.87070253  1
  Co  Co108  1  0.50216159  0.49912928  0.75253689  1
  Co  Co109  1  0.50425597  0.50165224  0.49929628  1
  Co  Co110  1  0.49739109  0.24678993  0.24746156  1
  Co  Co111  1  0.24650756  0.74794028  -0.00654599  1
  Co  Co112  1  0.00189041  0.25059644  0.49939935  1
  Co  Co113  1  0.50118074  0.50200090  -0.00115759  1
  Co  Co114  1  -0.00038731  0.25308980  0.75251200  1
  Co  Co115  1  0.00130948  0.25155953  0.24770951  1
  Co  Co116  1  0.37277287  0.87678017  0.62453890  1
  Co  Co117  1  0.74786841  0.25189952  0.25161248  1
  Co  Co118  1  0.12419709  0.37577667  0.37388029  1
  Co  Co119  1  0.50187308  0.74974862  0.00254356  1
  Co  Co120  1  0.49867734  0.24929423  0.50367845  1
  Co  Co121  1  0.00160584  0.50086486  0.00519252  1
  Co  Co122  1  0.87302768  0.37454419  0.62119214  1
  Co  Co123  1  0.50203282  0.00054814  0.50095725  1
  Co  Co124  1  0.49596334  0.24622395  -0.00347539  1
  Co  Co125  1  0.49980053  0.75142676  0.74534441  1
  Co  Co126  1  0.37169036  0.12000501  0.87400858  1
  Co  Co127  1  0.87644021  0.37883090  0.87862138  1
