# generated using pymatgen
data_Fe45Co19
_symmetry_space_group_name_H-M   'P 1'
_cell_length_a   11.41457196
_cell_length_b   11.41591099
_cell_length_c   11.41601619
_cell_angle_alpha   89.99567658
_cell_angle_beta   90.00259836
_cell_angle_gamma   90.00797367
_symmetry_Int_Tables_number   1
_chemical_formula_structural   Fe45Co19
_chemical_formula_sum   'Fe90 Co38'
_cell_volume   1487.59522010
_cell_formula_units_Z   2
loop_
 _symmetry_equiv_pos_site_id
 _symmetry_equiv_pos_as_xyz
  1  'x, y, z'
loop_
 _atom_site_type_symbol
 _atom_site_label
 _atom_site_symmetry_multiplicity
 _atom_site_fract_x
 _atom_site_fract_y
 _atom_site_fract_z
 _atom_site_occupancy
  Fe  Fe0  1  0.37456781  0.37557386  0.87571430  1
  Fe  Fe1  1  0.25202504  -0.00345649  0.25007038  1
  Fe  Fe2  1  0.37480849  0.12282021  0.37756396  1
  Fe  Fe3  1  0.12357025  0.37549872  0.62293080  1
  Fe  Fe4  1  -0.00510350  -0.00183192  0.75277868  1
  Fe  Fe5  1  0.25116324  0.24953235  0.50261962  1
  Fe  Fe6  1  0.37289028  0.37720154  0.12350465  1
  Fe  Fe7  1  0.62339856  0.87451900  0.37276169  1
  Fe  Fe8  1  0.25042142  0.75359970  0.49993732  1
  Fe  Fe9  1  0.75058643  0.75023754  0.50215321  1
  Fe  Fe10  1  0.12716009  0.12412052  0.37654218  1
  Fe  Fe11  1  0.50474599  0.49859441  0.00011241  1
  Fe  Fe12  1  0.12489800  0.62542208  0.37389903  1
  Fe  Fe13  1  0.62585518  0.12275525  0.62386954  1
  Fe  Fe14  1  0.24935056  0.75264257  0.24917916  1
  Fe  Fe15  1  0.50187584  0.75007415  0.00229305  1
  Fe  Fe16  1  0.75075059  0.24959391  0.74715189  1
  Fe  Fe17  1  0.12415655  0.87558460  0.62566747  1
  Fe  Fe18  1  0.37531775  0.62721366  0.37597133  1
  Fe  Fe19  1  0.87209979  0.12329089  0.62158187  1
  Fe  Fe20  1  0.87226512  0.37678958  0.87509427  1
  Fe  Fe21  1  0.37545476  0.87298341  0.87539595  1
  Fe  Fe22  1  -0.00136039  0.49908382  0.74785587  1
  Fe  Fe23  1  0.12417630  0.37432843  0.37630595  1
  Fe  Fe24  1  0.74757616  0.00064943  -0.00030330  1
  Fe  Fe25  1  0.49817315  0.24951049  0.24882252  1
  Fe  Fe26  1  0.87534730  0.62624252  0.37506096  1
  Fe  Fe27  1  0.87476500  0.87412346  0.37481209  1
  Fe  Fe28  1  0.49937445  0.50280748  0.25109077  1
  Fe  Fe29  1  0.00152362  0.25188231  0.00066133  1
  Fe  Fe30  1  0.12197494  0.62514369  0.62426000  1
  Fe  Fe31  1  0.62427218  0.12501491  0.37541513  1
  Fe  Fe32  1  0.74996675  0.74402509  -0.00139201  1
  Fe  Fe33  1  0.62748825  0.37512540  0.37067195  1
  Fe  Fe34  1  0.49855252  -0.00359635  0.50240913  1
  Fe  Fe35  1  0.00197620  0.75091994  0.00020679  1
  Fe  Fe36  1  0.37375684  0.62455699  0.12510732  1
  Fe  Fe37  1  0.37757930  0.62333985  0.62260189  1
  Fe  Fe38  1  0.87296756  0.12714905  0.87767844  1
  Fe  Fe39  1  0.25125515  -0.00157203  0.00045903  1
  Fe  Fe40  1  0.50079816  0.50118216  0.75038461  1
  Fe  Fe41  1  -0.00020102  -0.00226616  -0.00229083  1
  Fe  Fe42  1  0.87398082  0.37147169  0.37514765  1
  Fe  Fe43  1  0.00025082  0.24975694  0.24892712  1
  Fe  Fe44  1  0.37484470  0.37548954  0.37643946  1
  Fe  Fe45  1  0.37612440  0.12597078  0.87689377  1
  Fe  Fe46  1  0.12642134  0.12366969  0.12495745  1
  Fe  Fe47  1  -0.00213100  0.25034289  0.74864695  1
  Fe  Fe48  1  0.74775207  0.25485303  0.00338976  1
  Fe  Fe49  1  -0.00049543  -0.00070741  0.49858237  1
  Fe  Fe50  1  0.00155753  0.75036868  0.24793604  1
  Fe  Fe51  1  0.87508287  0.12632303  0.12370868  1
  Fe  Fe52  1  0.37753956  0.62523459  0.87563136  1
  Fe  Fe53  1  0.74965445  0.50589040  0.75151203  1
  Fe  Fe54  1  0.25139284  0.25038692  0.24797695  1
  Fe  Fe55  1  0.62488423  0.87337861  0.12550017  1
  Fe  Fe56  1  0.50057518  -0.00043080  0.75185776  1
  Fe  Fe57  1  0.12568995  0.12464333  0.87428194  1
  Fe  Fe58  1  -0.00161024  -0.00000983  0.25070885  1
  Fe  Fe59  1  0.62518577  0.37863424  0.62631788  1
  Fe  Fe60  1  -0.00147769  0.50034540  0.25048088  1
  Fe  Fe61  1  0.87235008  0.12800689  0.37761726  1
  Fe  Fe62  1  0.12818347  0.37806762  0.12431859  1
  Fe  Fe63  1  0.25030021  0.50122307  0.75032181  1
  Fe  Fe64  1  0.49865988  0.25097457  0.74793806  1
  Fe  Fe65  1  0.12536924  0.12344953  0.62499725  1
  Fe  Fe66  1  0.75031533  0.00111562  0.25038048  1
  Fe  Fe67  1  0.74874848  0.74799404  0.24952029  1
  Fe  Fe68  1  -0.00146151  0.50040859  0.00297539  1
  Fe  Fe69  1  0.25284343  -0.00116923  0.74833368  1
  Fe  Fe70  1  0.25163329  0.25134823  0.74918388  1
  Fe  Fe71  1  0.62307656  0.12589164  0.12566278  1
  Fe  Fe72  1  0.87409163  0.87374163  0.12382085  1
  Fe  Fe73  1  0.12595824  0.37573589  0.87603202  1
  Fe  Fe74  1  0.63047939  0.87501110  0.62866584  1
  Fe  Fe75  1  0.25027347  0.74786342  0.75016795  1
  Fe  Fe76  1  0.50097143  0.25208026  0.00169584  1
  Fe  Fe77  1  0.49795195  -0.00186208  0.24676148  1
  Fe  Fe78  1  0.50107676  0.25287714  0.50185321  1
  Fe  Fe79  1  0.62861636  0.87265129  0.87321328  1
  Fe  Fe80  1  0.50088261  0.75152123  0.50078961  1
  Fe  Fe81  1  -0.00101446  0.75085791  0.50076814  1
  Fe  Fe82  1  0.50224972  0.74839113  0.74829162  1
  Fe  Fe83  1  0.24979058  0.50095941  0.49932915  1
  Fe  Fe84  1  0.62484500  0.12755494  0.87525689  1
  Fe  Fe85  1  -0.00526171  0.75367235  0.75139025  1
  Fe  Fe86  1  0.75192488  0.49999548  0.49985184  1
  Fe  Fe87  1  0.62496845  0.62451289  0.37575903  1
  Fe  Fe88  1  0.12161036  0.62483902  0.87390144  1
  Fe  Fe89  1  0.24666492  0.74849562  0.00005141  1
  Co  Co90  1  0.37588338  0.87273019  0.12390136  1
  Co  Co91  1  0.24937174  0.50384046  -0.00349918  1
  Co  Co92  1  0.75169881  0.00274865  0.75322476  1
  Co  Co93  1  0.87486234  0.62631727  0.12444734  1
  Co  Co94  1  0.74782920  0.49987428  -0.00057432  1
  Co  Co95  1  0.62329071  0.62607009  0.87556871  1
  Co  Co96  1  0.37777952  0.87433197  0.37339021  1
  Co  Co97  1  0.37630300  0.12474341  0.62368761  1
  Co  Co98  1  0.50219192  -0.00169135  -0.00140281  1
  Co  Co99  1  0.25120532  0.49977023  0.25262181  1
  Co  Co100  1  0.12363163  0.87557177  0.37515257  1
  Co  Co101  1  0.24905764  0.24960561  -0.00044896  1
  Co  Co102  1  -0.00013116  0.24899649  0.50167653  1
  Co  Co103  1  0.12362126  0.87694810  0.12537336  1
  Co  Co104  1  0.87735026  0.62429181  0.62429957  1
  Co  Co105  1  0.37579582  0.87290451  0.62759777  1
  Co  Co106  1  -0.00096439  0.50007344  0.49726714  1
  Co  Co107  1  0.87017011  0.87356166  0.87751324  1
  Co  Co108  1  0.50121193  0.49843899  0.49706275  1
  Co  Co109  1  0.62394257  0.62416945  0.62264702  1
  Co  Co110  1  0.62631669  0.37689724  0.13090449  1
  Co  Co111  1  0.75291167  0.74425086  0.74960587  1
  Co  Co112  1  0.50097696  0.74707870  0.24908093  1
  Co  Co113  1  0.87839434  0.62319783  0.87632076  1
  Co  Co114  1  0.87398328  0.37719005  0.62490668  1
  Co  Co115  1  0.37556582  0.37844219  0.62464145  1
  Co  Co116  1  0.75312909  0.50323982  0.25017132  1
  Co  Co117  1  0.25127071  -0.00402222  0.50160852  1
  Co  Co118  1  0.74667253  0.25187767  0.50151301  1
  Co  Co119  1  0.62594763  0.62303783  0.12626427  1
  Co  Co120  1  0.87286097  0.37529675  0.12672061  1
  Co  Co121  1  0.87192657  0.87695682  0.62425963  1
  Co  Co122  1  0.12548858  0.62282718  0.12738628  1
  Co  Co123  1  0.37496217  0.12441488  0.12347369  1
  Co  Co124  1  0.74832993  -0.00212977  0.49593687  1
  Co  Co125  1  0.12685692  0.87563201  0.87305688  1
  Co  Co126  1  0.75020315  0.24597029  0.24863036  1
  Co  Co127  1  0.62656047  0.37431381  0.87165504  1
