# generated using pymatgen
data_Fe45Co19
_symmetry_space_group_name_H-M   'P 1'
_cell_length_a   11.41540724
_cell_length_b   11.41617860
_cell_length_c   11.41385824
_cell_angle_alpha   90.00457028
_cell_angle_beta   89.99039204
_cell_angle_gamma   89.99221088
_symmetry_Int_Tables_number   1
_chemical_formula_structural   Fe45Co19
_chemical_formula_sum   'Fe90 Co38'
_cell_volume   1487.45770929
_cell_formula_units_Z   2
loop_
 _symmetry_equiv_pos_site_id
 _symmetry_equiv_pos_as_xyz
  1  'x, y, z'
loop_
 _atom_site_type_symbol
 _atom_site_label
 _atom_site_symmetry_multiplicity
 _atom_site_fract_x
 _atom_site_fract_y
 _atom_site_fract_z
 _atom_site_occupancy
  Fe  Fe0  1  0.75295167  0.74854609  0.75157283  1
  Fe  Fe1  1  0.75085915  0.50033297  0.75182136  1
  Fe  Fe2  1  0.37030120  0.87586677  0.12491079  1
  Fe  Fe3  1  0.62164236  0.62806354  0.37384314  1
  Fe  Fe4  1  0.75538944  -0.00142179  0.24855332  1
  Fe  Fe5  1  0.24983457  0.50389438  0.25073918  1
  Fe  Fe6  1  0.49779214  0.75257559  0.75107173  1
  Fe  Fe7  1  0.75174098  0.50014164  -0.00081712  1
  Fe  Fe8  1  0.24795435  0.00039598  -0.00109619  1
  Fe  Fe9  1  0.62677182  0.37405696  0.62489205  1
  Fe  Fe10  1  0.87803469  0.62522473  0.62527704  1
  Fe  Fe11  1  0.62382978  0.62510815  0.87511988  1
  Fe  Fe12  1  0.49689639  -0.00222685  0.24999175  1
  Fe  Fe13  1  0.87639736  0.37272214  0.37239843  1
  Fe  Fe14  1  0.24868157  0.24746932  0.00132284  1
  Fe  Fe15  1  0.12662771  0.37497649  0.62615125  1
  Fe  Fe16  1  0.49922047  0.49856587  0.75144358  1
  Fe  Fe17  1  0.62454216  0.37585239  0.37415412  1
  Fe  Fe18  1  0.49841347  0.25035644  0.24745434  1
  Fe  Fe19  1  0.12425585  0.12236370  0.37253090  1
  Fe  Fe20  1  0.74851540  0.00298883  0.49966814  1
  Fe  Fe21  1  0.87341218  0.87740389  0.87604614  1
  Fe  Fe22  1  0.62244091  0.12373351  0.37435291  1
  Fe  Fe23  1  0.75085725  0.24511521  0.75125626  1
  Fe  Fe24  1  0.00087444  0.00044163  0.50211135  1
  Fe  Fe25  1  0.50273573  -0.00405577  -0.00122213  1
  Fe  Fe26  1  0.12236644  0.62821161  0.12666625  1
  Fe  Fe27  1  0.50030147  0.75243166  -0.00022515  1
  Fe  Fe28  1  0.74785412  0.24786741  0.49877891  1
  Fe  Fe29  1  0.50095310  0.24928333  0.74875977  1
  Fe  Fe30  1  0.49847928  0.25258738  0.00389248  1
  Fe  Fe31  1  0.37465289  0.62531317  0.12385955  1
  Fe  Fe32  1  0.62569585  0.37681424  0.12501287  1
  Fe  Fe33  1  0.37626714  0.12682082  0.37767066  1
  Fe  Fe34  1  -0.00199383  -0.00148824  0.00443116  1
  Fe  Fe35  1  0.12053663  0.12345060  0.87072764  1
  Fe  Fe36  1  0.37750244  0.12418751  0.87806791  1
  Fe  Fe37  1  0.12537849  0.37525164  0.37276305  1
  Fe  Fe38  1  0.37372356  0.62463899  0.62455175  1
  Fe  Fe39  1  0.75009211  0.74862913  -0.00259684  1
  Fe  Fe40  1  0.00051231  0.49928593  0.50011064  1
  Fe  Fe41  1  0.12101372  0.62590525  0.37377252  1
  Fe  Fe42  1  0.25180253  0.24718405  0.24796455  1
  Fe  Fe43  1  0.62612153  0.87642748  0.62576882  1
  Fe  Fe44  1  0.87253015  0.87690604  0.62394807  1
  Fe  Fe45  1  0.24866675  0.50226098  0.49951369  1
  Fe  Fe46  1  0.12442468  0.12006013  0.12946622  1
  Fe  Fe47  1  0.87750399  0.12597756  0.37261244  1
  Fe  Fe48  1  0.37643906  0.12624611  0.62109102  1
  Fe  Fe49  1  0.87629153  0.62790846  0.12569386  1
  Fe  Fe50  1  0.74986264  0.74780231  0.49859904  1
  Fe  Fe51  1  0.37490182  0.87052425  0.37491507  1
  Fe  Fe52  1  0.37359242  0.37332406  0.62299358  1
  Fe  Fe53  1  0.74949042  0.00566720  0.75395783  1
  Fe  Fe54  1  0.00069401  0.49862199  0.75053719  1
  Fe  Fe55  1  0.75309408  0.50213917  0.25131309  1
  Fe  Fe56  1  0.62460191  0.87293193  0.37444357  1
  Fe  Fe57  1  0.37452810  0.62505919  0.87520813  1
  Fe  Fe58  1  0.75109113  0.24663898  -0.00021371  1
  Fe  Fe59  1  0.49999191  -0.00025063  0.75138576  1
  Fe  Fe60  1  0.00275159  0.24822917  0.50174145  1
  Fe  Fe61  1  0.87763837  0.37270414  0.87509057  1
  Fe  Fe62  1  0.12731678  0.37597846  0.12589445  1
  Fe  Fe63  1  0.62550595  0.12324369  0.12488768  1
  Fe  Fe64  1  0.12687973  0.87788342  0.86991775  1
  Fe  Fe65  1  -0.00337962  0.75606881  0.25075361  1
  Fe  Fe66  1  0.24770000  0.75161410  -0.00156027  1
  Fe  Fe67  1  0.24835367  0.50058825  -0.00125069  1
  Fe  Fe68  1  0.62555948  0.62539962  0.12515185  1
  Fe  Fe69  1  0.00165263  0.24948896  0.00229366  1
  Fe  Fe70  1  0.00034344  0.49956864  0.00065140  1
  Fe  Fe71  1  0.00049243  0.75215926  0.50195627  1
  Fe  Fe72  1  0.49988796  0.49961748  0.50051259  1
  Fe  Fe73  1  0.12628900  0.87693045  0.37159420  1
  Fe  Fe74  1  0.12508986  0.62455651  0.86999743  1
  Fe  Fe75  1  0.37367002  0.87566469  0.62486475  1
  Fe  Fe76  1  0.37273267  0.37474838  0.87700178  1
  Fe  Fe77  1  0.00175970  0.75203966  -0.00386263  1
  Fe  Fe78  1  0.37361396  0.37387588  0.37543932  1
  Fe  Fe79  1  0.87516142  0.37178757  0.12844786  1
  Fe  Fe80  1  0.49757121  0.50103669  0.24873216  1
  Fe  Fe81  1  0.87368419  0.37317770  0.62436838  1
  Fe  Fe82  1  0.62995175  0.87405848  0.12563574  1
  Fe  Fe83  1  0.24823632  0.24805446  0.75060118  1
  Fe  Fe84  1  0.62463549  0.37378985  0.87612884  1
  Fe  Fe85  1  0.24842638  0.74765562  0.50022149  1
  Fe  Fe86  1  0.25034687  0.00118434  0.49980074  1
  Fe  Fe87  1  0.75100269  0.50215239  0.49784528  1
  Fe  Fe88  1  0.12769079  0.87606620  0.62919840  1
  Fe  Fe89  1  0.62434645  0.62541506  0.62618899  1
  Co  Co90  1  0.50091434  0.75135564  0.50328605  1
  Co  Co91  1  0.62086567  0.12681530  0.87839911  1
  Co  Co92  1  0.87520674  0.12528483  0.62347488  1
  Co  Co93  1  0.49979720  0.49943368  -0.00106256  1
  Co  Co94  1  0.12758817  0.87569697  0.12780550  1
  Co  Co95  1  0.87501022  0.12755105  0.12750870  1
  Co  Co96  1  0.37213538  0.87679378  0.87705559  1
  Co  Co97  1  0.75088785  0.00384852  -0.00125385  1
  Co  Co98  1  0.88076337  0.12473387  0.87600826  1
  Co  Co99  1  0.25393982  0.00086916  0.25197795  1
  Co  Co100  1  0.37146952  0.37760738  0.12463304  1
  Co  Co101  1  0.49854049  0.75142865  0.24581453  1
  Co  Co102  1  0.24569056  0.24887739  0.49996104  1
  Co  Co103  1  0.50374698  0.25214038  0.49911495  1
  Co  Co104  1  -0.00195710  0.75317980  0.75096457  1
  Co  Co105  1  0.00045749  0.25097821  0.74700650  1
  Co  Co106  1  0.25430060  0.00382728  0.74991648  1
  Co  Co107  1  0.25038628  0.49843186  0.74949917  1
  Co  Co108  1  0.62809614  0.87397639  0.87337290  1
  Co  Co109  1  0.49934028  -0.00270966  0.49921159  1
  Co  Co110  1  -0.00124199  0.49882930  0.24791506  1
  Co  Co111  1  0.74630002  0.24921725  0.25086259  1
  Co  Co112  1  0.37616044  0.12064115  0.12194401  1
  Co  Co113  1  0.12352102  0.62582811  0.62811212  1
  Co  Co114  1  0.12532974  0.12254383  0.62755278  1
  Co  Co115  1  -0.00510311  -0.00444890  0.24789898  1
  Co  Co116  1  0.87217950  0.87177396  0.12021644  1
  Co  Co117  1  0.00423521  0.24981348  0.24890996  1
  Co  Co118  1  0.87950109  0.62594723  0.37549949  1
  Co  Co119  1  0.87390046  0.87644539  0.38021540  1
  Co  Co120  1  0.75304253  0.75007930  0.25338280  1
  Co  Co121  1  0.12506654  0.37455775  0.87566311  1
  Co  Co122  1  0.87680663  0.62309959  0.87453981  1
  Co  Co123  1  0.25201518  0.75027554  0.75008997  1
  Co  Co124  1  0.62264060  0.12383891  0.62384374  1
  Co  Co125  1  0.37707594  0.62736657  0.37642315  1
  Co  Co126  1  -0.00327911  -0.00186236  0.74652054  1
  Co  Co127  1  0.24982075  0.74808397  0.25048212  1
