# generated using pymatgen
data_Fe45Co19
_symmetry_space_group_name_H-M   'P 1'
_cell_length_a   11.41382868
_cell_length_b   11.41567670
_cell_length_c   11.41509271
_cell_angle_alpha   89.99984472
_cell_angle_beta   90.00928936
_cell_angle_gamma   89.99995580
_symmetry_Int_Tables_number   1
_chemical_formula_structural   Fe45Co19
_chemical_formula_sum   'Fe90 Co38'
_cell_volume   1487.34749981
_cell_formula_units_Z   2
loop_
 _symmetry_equiv_pos_site_id
 _symmetry_equiv_pos_as_xyz
  1  'x, y, z'
loop_
 _atom_site_type_symbol
 _atom_site_label
 _atom_site_symmetry_multiplicity
 _atom_site_fract_x
 _atom_site_fract_y
 _atom_site_fract_z
 _atom_site_occupancy
  Fe  Fe0  1  0.12436512  0.62518677  0.12524944  1
  Fe  Fe1  1  -0.00022590  -0.00298054  0.74987664  1
  Fe  Fe2  1  0.24775838  0.74936134  0.50093084  1
  Fe  Fe3  1  0.87843981  0.62547599  0.87315247  1
  Fe  Fe4  1  0.37662554  0.12654051  0.37511710  1
  Fe  Fe5  1  -0.00104905  0.24964489  0.24998441  1
  Fe  Fe6  1  0.00103366  0.75077403  0.24969349  1
  Fe  Fe7  1  0.50193816  -0.00062117  0.25222029  1
  Fe  Fe8  1  0.49964650  0.00036602  -0.00096094  1
  Fe  Fe9  1  0.37439496  0.87332501  0.87460455  1
  Fe  Fe10  1  0.37377805  0.37325199  0.12706551  1
  Fe  Fe11  1  0.62237567  0.62672520  0.87652078  1
  Fe  Fe12  1  -0.00130234  0.25006961  0.74820182  1
  Fe  Fe13  1  0.00429855  0.75065337  -0.00197906  1
  Fe  Fe14  1  0.63016478  0.13059312  0.37356191  1
  Fe  Fe15  1  0.49916618  0.25329974  0.75099325  1
  Fe  Fe16  1  0.50406889  -0.00002101  0.49758223  1
  Fe  Fe17  1  0.62430965  0.62143582  0.62244447  1
  Fe  Fe18  1  0.87611726  0.87503034  0.12538201  1
  Fe  Fe19  1  0.87640829  0.62227439  0.62874789  1
  Fe  Fe20  1  0.37583706  0.62712582  0.87352406  1
  Fe  Fe21  1  0.87196367  0.37541233  0.87277353  1
  Fe  Fe22  1  0.49839607  0.49738230  -0.00246456  1
  Fe  Fe23  1  0.25024857  -0.00005971  0.74690277  1
  Fe  Fe24  1  0.74932010  0.50253588  -0.00048769  1
  Fe  Fe25  1  0.62699346  0.87783224  0.62492009  1
  Fe  Fe26  1  0.25025640  0.00026290  0.00055540  1
  Fe  Fe27  1  0.74902761  0.74862609  0.74842224  1
  Fe  Fe28  1  0.37464908  0.12629714  0.12782301  1
  Fe  Fe29  1  0.75415381  -0.00109110  0.25278183  1
  Fe  Fe30  1  0.50044961  -0.00210938  0.75122420  1
  Fe  Fe31  1  -0.00582206  -0.00086312  0.49591689  1
  Fe  Fe32  1  0.49724469  0.24982774  -0.00082200  1
  Fe  Fe33  1  0.62567247  0.12332801  0.12580071  1
  Fe  Fe34  1  0.12192447  0.62335665  0.62668410  1
  Fe  Fe35  1  0.87430654  0.12476851  0.87360741  1
  Fe  Fe36  1  0.62517119  0.12681835  0.87266643  1
  Fe  Fe37  1  -0.00471617  0.25035989  0.50193791  1
  Fe  Fe38  1  0.49955086  0.75213486  0.00443865  1
  Fe  Fe39  1  0.75080158  0.24990560  0.00055602  1
  Fe  Fe40  1  0.87577202  0.12399425  0.12593257  1
  Fe  Fe41  1  0.12927551  0.37229098  0.87352013  1
  Fe  Fe42  1  0.12622574  0.12476065  0.87375222  1
  Fe  Fe43  1  0.87203748  0.87702793  0.62452928  1
  Fe  Fe44  1  0.24955576  0.74958462  0.25071420  1
  Fe  Fe45  1  0.12432887  0.12297839  0.62276344  1
  Fe  Fe46  1  -0.00049648  0.75011924  0.50255033  1
  Fe  Fe47  1  0.37768511  0.62680225  0.37587471  1
  Fe  Fe48  1  0.25016430  0.50186789  -0.00049562  1
  Fe  Fe49  1  0.12552977  0.37488494  0.62353800  1
  Fe  Fe50  1  0.12441776  0.37515082  0.37699685  1
  Fe  Fe51  1  0.25141430  0.50127123  0.49980261  1
  Fe  Fe52  1  0.62454420  0.37578033  0.12507258  1
  Fe  Fe53  1  0.87099364  0.37923734  0.62739835  1
  Fe  Fe54  1  0.37447285  0.87557565  0.12650924  1
  Fe  Fe55  1  0.63009640  0.86770904  0.37242536  1
  Fe  Fe56  1  0.25056800  0.24822487  0.50003317  1
  Fe  Fe57  1  0.24937333  0.50037379  0.25237327  1
  Fe  Fe58  1  0.49941038  0.49838806  0.75128468  1
  Fe  Fe59  1  0.50341261  0.49990736  0.25552460  1
  Fe  Fe60  1  0.37689344  0.62480120  0.62524435  1
  Fe  Fe61  1  0.74953014  -0.00011733  -0.00171330  1
  Fe  Fe62  1  0.12240139  0.12452063  0.37597313  1
  Fe  Fe63  1  0.87159013  0.63006217  0.37497549  1
  Fe  Fe64  1  0.50182735  0.74989636  0.50149268  1
  Fe  Fe65  1  0.62531258  0.87246236  0.87611711  1
  Fe  Fe66  1  0.37530359  0.87415365  0.37618994  1
  Fe  Fe67  1  0.00247421  0.49862651  -0.00359997  1
  Fe  Fe68  1  0.12490067  0.12598562  0.12692576  1
  Fe  Fe69  1  0.74826634  0.50431994  0.25024529  1
  Fe  Fe70  1  -0.00065186  0.50115639  0.25265224  1
  Fe  Fe71  1  0.12397435  0.87618637  0.37723430  1
  Fe  Fe72  1  0.87024781  0.37176512  0.37457743  1
  Fe  Fe73  1  0.62717027  0.37861221  0.62448822  1
  Fe  Fe74  1  -0.00309352  0.50050537  0.49854787  1
  Fe  Fe75  1  0.87529269  0.37848710  0.12481714  1
  Fe  Fe76  1  0.37676237  0.62495309  0.12641530  1
  Fe  Fe77  1  0.37491592  0.87562944  0.62315893  1
  Fe  Fe78  1  0.37585331  0.37307805  0.37609954  1
  Fe  Fe79  1  0.87455981  0.87371458  0.87552003  1
  Fe  Fe80  1  0.24846133  0.00047435  0.25218519  1
  Fe  Fe81  1  0.37851512  0.12541215  0.62429834  1
  Fe  Fe82  1  0.12622586  0.37390982  0.12610682  1
  Fe  Fe83  1  -0.00049666  0.25093943  -0.00067004  1
  Fe  Fe84  1  0.50414324  0.25189392  0.50087669  1
  Fe  Fe85  1  0.74874469  0.74759428  0.00545870  1
  Fe  Fe86  1  0.24593967  0.75215750  0.74976675  1
  Fe  Fe87  1  0.25043609  0.49894569  0.74851168  1
  Fe  Fe88  1  0.00175893  -0.00063430  0.00150239  1
  Fe  Fe89  1  0.86857962  0.12098172  0.62516204  1
  Co  Co90  1  0.61947333  0.62152246  0.12430292  1
  Co  Co91  1  0.75017380  0.74877132  0.50711951  1
  Co  Co92  1  0.62630141  0.87944013  0.12637416  1
  Co  Co93  1  0.12632705  0.87808353  0.87594621  1
  Co  Co94  1  0.74770573  -0.00009909  0.49514637  1
  Co  Co95  1  0.75113544  0.25099906  0.24426579  1
  Co  Co96  1  0.50077413  0.49949262  0.49661656  1
  Co  Co97  1  0.75063864  0.50159764  0.49623781  1
  Co  Co98  1  0.62639992  0.63078526  0.37616268  1
  Co  Co99  1  0.87239013  0.12990873  0.37542337  1
  Co  Co100  1  0.12422183  0.62456592  0.87213577  1
  Co  Co101  1  0.25152342  0.24795975  0.00061438  1
  Co  Co102  1  0.87187900  0.86802614  0.37460598  1
  Co  Co103  1  0.50047892  0.75090736  0.24787090  1
  Co  Co104  1  0.25276542  0.00188156  0.49925149  1
  Co  Co105  1  0.12459965  0.87821561  0.62041243  1
  Co  Co106  1  0.75038876  0.25027442  0.74836996  1
  Co  Co107  1  0.25037141  0.74828577  -0.00074389  1
  Co  Co108  1  0.74711571  0.50332003  0.75372659  1
  Co  Co109  1  0.62665868  0.37355176  0.87648923  1
  Co  Co110  1  0.25038457  0.24810267  0.74663127  1
  Co  Co111  1  0.12379607  0.62486183  0.37643541  1
  Co  Co112  1  0.24890204  0.24972522  0.25284764  1
  Co  Co113  1  0.00122812  0.75499763  0.74879702  1
  Co  Co114  1  0.62462157  0.12293978  0.62846827  1
  Co  Co115  1  0.88116425  0.62290493  0.12272912  1
  Co  Co116  1  0.37113256  0.37493923  0.87451369  1
  Co  Co117  1  -0.00218510  -0.00045310  0.25211178  1
  Co  Co118  1  0.74965557  0.74568531  0.24048122  1
  Co  Co119  1  0.37440541  0.12439307  0.87236778  1
  Co  Co120  1  0.74931566  0.24999511  0.50572444  1
  Co  Co121  1  0.50238559  0.75076430  0.74692586  1
  Co  Co122  1  0.74844701  -0.00221707  0.75353885  1
  Co  Co123  1  0.50096114  0.25048452  0.24896082  1
  Co  Co124  1  0.62929863  0.37192262  0.37456744  1
  Co  Co125  1  0.12596054  0.87405801  0.12572176  1
  Co  Co126  1  0.37516863  0.37494974  0.62282151  1
  Co  Co127  1  0.00167383  0.49581678  0.75221781  1
