# generated using pymatgen
data_Fe45Co19
_symmetry_space_group_name_H-M   'P 1'
_cell_length_a   11.41562470
_cell_length_b   11.41662636
_cell_length_c   11.41571409
_cell_angle_alpha   89.99653607
_cell_angle_beta   89.98652139
_cell_angle_gamma   89.98933251
_symmetry_Int_Tables_number   1
_chemical_formula_structural   Fe45Co19
_chemical_formula_sum   'Fe90 Co38'
_cell_volume   1487.78622511
_cell_formula_units_Z   2
loop_
 _symmetry_equiv_pos_site_id
 _symmetry_equiv_pos_as_xyz
  1  'x, y, z'
loop_
 _atom_site_type_symbol
 _atom_site_label
 _atom_site_symmetry_multiplicity
 _atom_site_fract_x
 _atom_site_fract_y
 _atom_site_fract_z
 _atom_site_occupancy
  Fe  Fe0  1  0.87548971  0.12594961  0.37209334  1
  Fe  Fe1  1  0.37516697  0.62503245  0.62541337  1
  Fe  Fe2  1  0.12361049  0.87441927  0.62214091  1
  Fe  Fe3  1  0.62465113  0.87462684  0.87833985  1
  Fe  Fe4  1  0.75183564  -0.00104307  0.49914461  1
  Fe  Fe5  1  0.24979486  0.00124151  0.49726716  1
  Fe  Fe6  1  0.37687209  0.37448645  0.12813666  1
  Fe  Fe7  1  0.37211161  0.37695700  0.87503783  1
  Fe  Fe8  1  0.87480475  0.12658498  0.87454608  1
  Fe  Fe9  1  0.75260387  0.49961167  0.00157379  1
  Fe  Fe10  1  0.74913254  -0.00096565  0.24909591  1
  Fe  Fe11  1  0.00238365  0.25377201  0.74996120  1
  Fe  Fe12  1  0.12483219  0.62450907  0.37322257  1
  Fe  Fe13  1  0.37390222  0.12461643  0.62871640  1
  Fe  Fe14  1  0.49733816  0.50098710  0.00016492  1
  Fe  Fe15  1  -0.00022134  0.25114737  -0.00131317  1
  Fe  Fe16  1  0.24710494  0.25527963  0.74659006  1
  Fe  Fe17  1  0.74752927  0.25208144  0.25031556  1
  Fe  Fe18  1  0.12472417  0.37118316  0.38169414  1
  Fe  Fe19  1  0.00076394  0.00142755  -0.00022801  1
  Fe  Fe20  1  0.37203660  0.62344275  0.87190164  1
  Fe  Fe21  1  -0.00001918  0.74878402  0.75207094  1
  Fe  Fe22  1  0.62308088  0.37423409  0.12300770  1
  Fe  Fe23  1  0.37339720  0.62414810  0.12992583  1
  Fe  Fe24  1  0.12522215  0.87331212  0.87683138  1
  Fe  Fe25  1  0.87431696  0.12504920  0.62519790  1
  Fe  Fe26  1  -0.00185276  0.49979333  -0.00028850  1
  Fe  Fe27  1  -0.00251008  0.74443661  0.49803812  1
  Fe  Fe28  1  0.49871096  0.00083854  0.25003766  1
  Fe  Fe29  1  0.62357385  0.37494116  0.62027453  1
  Fe  Fe30  1  0.75373567  0.74857175  0.00189941  1
  Fe  Fe31  1  0.12519166  0.37544547  0.12065244  1
  Fe  Fe32  1  0.62592194  0.12621842  0.37665449  1
  Fe  Fe33  1  0.12483751  0.62213384  0.62625306  1
  Fe  Fe34  1  0.62040134  0.37247491  0.37962387  1
  Fe  Fe35  1  0.00115179  -0.00036683  0.75080364  1
  Fe  Fe36  1  0.25231459  0.00096533  -0.00163806  1
  Fe  Fe37  1  0.49932148  0.50008205  0.25435190  1
  Fe  Fe38  1  0.00494249  0.24914867  0.24950474  1
  Fe  Fe39  1  0.75047735  -0.00081446  0.75187212  1
  Fe  Fe40  1  0.25240767  0.49944168  0.49907169  1
  Fe  Fe41  1  0.62467175  0.87499966  0.62341431  1
  Fe  Fe42  1  0.62232207  0.12677349  0.12236315  1
  Fe  Fe43  1  0.75038497  0.25187684  0.74918238  1
  Fe  Fe44  1  0.75233184  0.50299566  0.49745899  1
  Fe  Fe45  1  -0.00115892  0.74678959  0.00053625  1
  Fe  Fe46  1  0.87677094  0.12527311  0.12732205  1
  Fe  Fe47  1  0.62373157  0.12744027  0.87835351  1
  Fe  Fe48  1  0.62243034  0.87373272  0.37510975  1
  Fe  Fe49  1  0.49897964  -0.00052479  0.75397769  1
  Fe  Fe50  1  0.12868064  0.61992377  0.87429137  1
  Fe  Fe51  1  0.37535056  0.87224428  0.37470860  1
  Fe  Fe52  1  0.36997276  0.13097152  0.37061090  1
  Fe  Fe53  1  0.50120769  0.49945208  0.74949687  1
  Fe  Fe54  1  0.24965748  0.74884217  0.50071259  1
  Fe  Fe55  1  0.00051059  0.00339003  0.49723921  1
  Fe  Fe56  1  0.87502050  0.37549509  0.12770040  1
  Fe  Fe57  1  0.49892695  0.75075349  0.75005030  1
  Fe  Fe58  1  0.62646403  0.62549491  0.62475793  1
  Fe  Fe59  1  0.37449153  0.87546515  0.12492620  1
  Fe  Fe60  1  0.37863041  0.37607955  0.62019779  1
  Fe  Fe61  1  0.75412089  0.74846028  0.49760626  1
  Fe  Fe62  1  0.12547175  0.62304257  0.12624361  1
  Fe  Fe63  1  0.49995348  0.25107674  0.75098847  1
  Fe  Fe64  1  0.62405703  0.62884676  0.37349405  1
  Fe  Fe65  1  0.49818232  0.74781873  0.00052352  1
  Fe  Fe66  1  0.37349818  0.12679400  0.12748112  1
  Fe  Fe67  1  0.00015451  0.49734005  0.75166008  1
  Fe  Fe68  1  0.62731324  0.37492564  0.87768268  1
  Fe  Fe69  1  0.62565650  0.62437180  0.12807102  1
  Fe  Fe70  1  0.87764560  0.37685027  0.37449712  1
  Fe  Fe71  1  0.37453394  0.87465032  0.62532919  1
  Fe  Fe72  1  0.25000452  0.74775731  -0.00025017  1
  Fe  Fe73  1  0.24865500  0.49543786  0.25225466  1
  Fe  Fe74  1  0.87654622  0.37719505  0.62237733  1
  Fe  Fe75  1  0.62594741  0.12531328  0.62351408  1
  Fe  Fe76  1  0.24633399  0.75373166  0.24987884  1
  Fe  Fe77  1  0.75147512  0.00080760  0.00050846  1
  Fe  Fe78  1  0.75310869  0.75078579  0.75216835  1
  Fe  Fe79  1  0.62266763  0.87524733  0.12425098  1
  Fe  Fe80  1  0.25112337  0.25146364  0.00118738  1
  Fe  Fe81  1  0.12517293  0.12598195  0.62270255  1
  Fe  Fe82  1  0.87882349  0.87606747  0.12748014  1
  Fe  Fe83  1  0.24854180  -0.00251953  0.75175189  1
  Fe  Fe84  1  0.12667200  0.12794912  0.87520016  1
  Fe  Fe85  1  0.87892977  0.87439546  0.37142969  1
  Fe  Fe86  1  0.49739196  0.00254515  0.49935936  1
  Fe  Fe87  1  0.87521856  0.62187856  0.13424807  1
  Fe  Fe88  1  0.87682488  0.87444298  0.62543131  1
  Fe  Fe89  1  0.62752343  0.62333396  0.87489314  1
  Co  Co90  1  0.25203945  0.25006995  0.50509421  1
  Co  Co91  1  0.12499749  0.87672755  0.12073291  1
  Co  Co92  1  -0.00196377  0.50518490  0.49771377  1
  Co  Co93  1  0.00469744  0.75151344  0.24854324  1
  Co  Co94  1  0.74457171  0.49544609  0.25289643  1
  Co  Co95  1  0.12306897  0.87388652  0.37882397  1
  Co  Co96  1  0.24668761  -0.00285884  0.25169964  1
  Co  Co97  1  0.00668673  0.00132666  0.25159611  1
  Co  Co98  1  0.49861057  0.74911956  0.50145884  1
  Co  Co99  1  0.24475799  0.25491062  0.24685967  1
  Co  Co100  1  0.37211995  0.12840730  0.87259052  1
  Co  Co101  1  0.12751539  0.12396767  0.12342691  1
  Co  Co102  1  0.87297610  0.37494395  0.87535349  1
  Co  Co103  1  0.49609754  0.00137731  -0.00122617  1
  Co  Co104  1  0.87350666  0.62200749  0.87347486  1
  Co  Co105  1  0.87452230  0.62326238  0.62846266  1
  Co  Co106  1  0.25275031  0.50013447  0.00399951  1
  Co  Co107  1  0.37584148  0.37108239  0.37596886  1
  Co  Co108  1  0.37265632  0.62721698  0.37225381  1
  Co  Co109  1  0.75229900  0.24982055  0.00223526  1
  Co  Co110  1  -0.00207641  0.24616084  0.50054465  1
  Co  Co111  1  0.49727655  0.24382036  0.50113163  1
  Co  Co112  1  0.75294453  0.25046706  0.49930118  1
  Co  Co113  1  0.24824214  0.75050722  0.74875788  1
  Co  Co114  1  0.24994141  0.49612314  0.74443780  1
  Co  Co115  1  0.74876791  0.49719056  0.74816766  1
  Co  Co116  1  0.12897086  0.12914569  0.37559992  1
  Co  Co117  1  0.49560410  0.25152737  -0.00095662  1
  Co  Co118  1  0.87639161  0.87576360  0.87608807  1
  Co  Co119  1  0.12053537  0.37721807  0.61861365  1
  Co  Co120  1  0.87611367  0.62269243  0.36548955  1
  Co  Co121  1  0.37388441  0.87228123  0.87523240  1
  Co  Co122  1  0.74984235  0.75316989  0.24947806  1
  Co  Co123  1  0.50307943  0.25015758  0.25051394  1
  Co  Co124  1  0.49892449  0.50482054  0.49702472  1
  Co  Co125  1  0.49976631  0.75017820  0.24825108  1
  Co  Co126  1  0.00694513  0.49565616  0.25006369  1
  Co  Co127  1  0.12839041  0.37792718  0.87796896  1
