# generated using pymatgen
data_Fe45Co19
_symmetry_space_group_name_H-M   'P 1'
_cell_length_a   11.41388218
_cell_length_b   11.41480036
_cell_length_c   11.41532001
_cell_angle_alpha   90.00023392
_cell_angle_beta   89.99869558
_cell_angle_gamma   90.00934246
_symmetry_Int_Tables_number   1
_chemical_formula_structural   Fe45Co19
_chemical_formula_sum   'Fe90 Co38'
_cell_volume   1487.26990556
_cell_formula_units_Z   2
loop_
 _symmetry_equiv_pos_site_id
 _symmetry_equiv_pos_as_xyz
  1  'x, y, z'
loop_
 _atom_site_type_symbol
 _atom_site_label
 _atom_site_symmetry_multiplicity
 _atom_site_fract_x
 _atom_site_fract_y
 _atom_site_fract_z
 _atom_site_occupancy
  Fe  Fe0  1  0.36907131  0.37086938  0.12404077  1
  Fe  Fe1  1  0.62346123  0.62303981  0.37534624  1
  Fe  Fe2  1  0.24872018  0.75006701  0.75107740  1
  Fe  Fe3  1  0.62646345  0.87519982  0.37284724  1
  Fe  Fe4  1  0.37563223  0.12429965  0.87427369  1
  Fe  Fe5  1  0.25170547  0.50163146  0.74867556  1
  Fe  Fe6  1  0.75032736  0.00081395  0.50178212  1
  Fe  Fe7  1  0.87803771  0.62296599  0.12215236  1
  Fe  Fe8  1  0.12366994  0.12533272  0.87317445  1
  Fe  Fe9  1  -0.00178895  0.00038178  0.74906954  1
  Fe  Fe10  1  -0.00098911  0.74778456  0.49831504  1
  Fe  Fe11  1  0.00068880  0.00011364  0.50172353  1
  Fe  Fe12  1  0.37541652  0.62452304  0.37706150  1
  Fe  Fe13  1  0.74963609  0.25023593  0.24982884  1
  Fe  Fe14  1  0.24889918  0.00256552  0.24797334  1
  Fe  Fe15  1  -0.00289860  0.50063189  0.75267023  1
  Fe  Fe16  1  0.87529995  0.62271145  0.37518525  1
  Fe  Fe17  1  0.75137699  0.49735808  0.00082781  1
  Fe  Fe18  1  0.87447516  0.37502802  0.87594799  1
  Fe  Fe19  1  0.36942882  0.37474067  0.37759565  1
  Fe  Fe20  1  0.87475044  0.87583569  0.37426854  1
  Fe  Fe21  1  0.37435439  0.12691532  0.62411851  1
  Fe  Fe22  1  0.87692763  0.12869748  0.12435131  1
  Fe  Fe23  1  0.49892288  0.75232050  0.24729068  1
  Fe  Fe24  1  -0.00086065  0.74787655  0.75165782  1
  Fe  Fe25  1  0.74903315  0.75038403  0.00041078  1
  Fe  Fe26  1  0.49975271  -0.00372694  0.00224305  1
  Fe  Fe27  1  0.62164079  0.62400447  0.12263817  1
  Fe  Fe28  1  0.75154158  0.49961069  0.49994512  1
  Fe  Fe29  1  0.49877375  -0.00061180  0.24707040  1
  Fe  Fe30  1  0.75169136  0.74676192  0.75124857  1
  Fe  Fe31  1  0.37679876  0.62690334  0.62484378  1
  Fe  Fe32  1  0.00025472  -0.00015892  0.00153445  1
  Fe  Fe33  1  0.87734133  0.37446932  0.62680530  1
  Fe  Fe34  1  0.12628229  0.87474536  0.12538471  1
  Fe  Fe35  1  0.49946020  0.74905918  0.75418021  1
  Fe  Fe36  1  0.50116300  0.25240654  -0.00374106  1
  Fe  Fe37  1  0.62659302  0.87398242  0.62622459  1
  Fe  Fe38  1  0.12194426  0.62281452  0.62432216  1
  Fe  Fe39  1  0.87515648  0.87187423  0.62468090  1
  Fe  Fe40  1  0.62511716  0.62492231  0.62325933  1
  Fe  Fe41  1  0.00604776  0.25211783  0.24848552  1
  Fe  Fe42  1  0.87634936  0.12856832  0.62483951  1
  Fe  Fe43  1  0.24800782  -0.00271553  0.74848621  1
  Fe  Fe44  1  0.75034633  0.49935691  0.24899706  1
  Fe  Fe45  1  0.37481170  0.37320591  0.62211159  1
  Fe  Fe46  1  0.74873506  0.25126676  0.49865912  1
  Fe  Fe47  1  0.12613028  0.62024917  0.37456363  1
  Fe  Fe48  1  0.00437004  0.25532549  0.00009432  1
  Fe  Fe49  1  0.50285389  0.24915066  0.75255989  1
  Fe  Fe50  1  0.24854767  0.00088967  -0.00053388  1
  Fe  Fe51  1  0.62248116  0.62126277  0.87835511  1
  Fe  Fe52  1  0.00209989  0.74986259  -0.00044820  1
  Fe  Fe53  1  0.75147990  0.50160175  0.75040236  1
  Fe  Fe54  1  0.37669505  0.62906512  0.11869243  1
  Fe  Fe55  1  0.74708332  0.24763821  0.75370543  1
  Fe  Fe56  1  0.00682582  0.25468815  0.50112572  1
  Fe  Fe57  1  0.50019045  -0.00029886  0.50229877  1
  Fe  Fe58  1  0.12518620  0.87537680  0.37469555  1
  Fe  Fe59  1  0.37306299  0.37619600  0.87480221  1
  Fe  Fe60  1  0.62370166  0.37414489  0.62419690  1
  Fe  Fe61  1  0.49625004  0.49777937  0.24951936  1
  Fe  Fe62  1  0.37364894  0.12532518  0.37810228  1
  Fe  Fe63  1  0.87450486  0.87509294  0.87473976  1
  Fe  Fe64  1  0.24969415  0.74702813  0.24818825  1
  Fe  Fe65  1  0.12502204  0.12359978  0.37533933  1
  Fe  Fe66  1  0.00213054  0.49714858  0.24659710  1
  Fe  Fe67  1  0.62404264  0.12593805  0.37573320  1
  Fe  Fe68  1  0.62515220  0.37428714  0.12525780  1
  Fe  Fe69  1  0.62526841  0.12641754  0.12181863  1
  Fe  Fe70  1  0.87831240  0.12652103  0.37415661  1
  Fe  Fe71  1  0.49850717  0.50017453  0.75032169  1
  Fe  Fe72  1  0.37308138  0.12764380  0.12317348  1
  Fe  Fe73  1  0.87555932  0.87474721  0.12716362  1
  Fe  Fe74  1  0.12449397  0.62300261  0.87677406  1
  Fe  Fe75  1  0.37333771  0.87603239  0.37420411  1
  Fe  Fe76  1  0.24816734  -0.00138812  0.50423009  1
  Fe  Fe77  1  0.37236392  0.87347395  0.87617007  1
  Fe  Fe78  1  0.49834544  0.25139098  0.25262919  1
  Fe  Fe79  1  0.75054402  0.74773857  0.24968851  1
  Fe  Fe80  1  0.87623503  0.37420556  0.37292649  1
  Fe  Fe81  1  0.50092816  0.00079687  0.74848600  1
  Fe  Fe82  1  0.75210473  0.00296082  0.24812618  1
  Fe  Fe83  1  0.24930633  0.74973058  0.50181058  1
  Fe  Fe84  1  0.24713864  0.25104644  0.74902609  1
  Fe  Fe85  1  0.87372782  0.12600185  0.87716521  1
  Fe  Fe86  1  0.62869634  0.87918753  0.87501666  1
  Fe  Fe87  1  0.50035775  0.75162949  0.49961058  1
  Fe  Fe88  1  0.24862033  0.50097112  0.00064246  1
  Fe  Fe89  1  0.00047370  0.74933885  0.25059804  1
  Co  Co90  1  0.24646941  0.74935221  -0.00180834  1
  Co  Co91  1  0.62527805  0.12054278  0.87833194  1
  Co  Co92  1  0.13045575  0.38015826  0.37130628  1
  Co  Co93  1  0.12268696  0.62410381  0.12450669  1
  Co  Co94  1  0.75033871  0.74873943  0.49852095  1
  Co  Co95  1  0.75304088  0.00298598  0.74744914  1
  Co  Co96  1  0.24857398  0.24829317  -0.00539676  1
  Co  Co97  1  0.75309799  -0.00052620  0.00327396  1
  Co  Co98  1  0.00253570  0.49492074  0.00072115  1
  Co  Co99  1  0.24890368  0.24553920  0.25354584  1
  Co  Co100  1  0.13274908  0.37428886  0.12681940  1
  Co  Co101  1  0.24406321  0.25068405  0.50200922  1
  Co  Co102  1  0.87428426  0.37397988  0.12554922  1
  Co  Co103  1  0.62566997  0.37684801  0.37453792  1
  Co  Co104  1  0.37544768  0.87321841  0.62660813  1
  Co  Co105  1  0.62778309  0.87474024  0.12756979  1
  Co  Co106  1  0.62530355  0.37930170  0.87415857  1
  Co  Co107  1  0.49671927  0.49480956  0.00134981  1
  Co  Co108  1  0.62445173  0.12724592  0.62448193  1
  Co  Co109  1  0.50030893  0.25064042  0.49796073  1
  Co  Co110  1  0.12195393  0.87307602  0.62538321  1
  Co  Co111  1  0.87594347  0.62471070  0.62359166  1
  Co  Co112  1  0.87532123  0.62384899  0.87976478  1
  Co  Co113  1  0.12475420  0.12432129  0.62885793  1
  Co  Co114  1  0.00115965  0.00063961  0.24840175  1
  Co  Co115  1  0.36965567  0.87375641  0.12449584  1
  Co  Co116  1  0.00036926  0.25023782  0.75194239  1
  Co  Co117  1  0.74831510  0.25216432  -0.00234090  1
  Co  Co118  1  0.12582635  0.12679348  0.12277312  1
  Co  Co119  1  0.25490151  0.50511857  0.24642836  1
  Co  Co120  1  0.49853177  0.49929870  0.49975128  1
  Co  Co121  1  0.12700169  0.37705824  0.87248018  1
  Co  Co122  1  0.12256299  0.37944132  0.62892913  1
  Co  Co123  1  0.25022832  0.50076353  0.50343655  1
  Co  Co124  1  -0.00092522  0.49759014  0.49806755  1
  Co  Co125  1  0.50259866  0.75583951  -0.00176386  1
  Co  Co126  1  0.12350724  0.87617341  0.87442623  1
  Co  Co127  1  0.37583758  0.62514558  0.87826871  1
