# generated using pymatgen
data_Fe45Co19
_symmetry_space_group_name_H-M   'P 1'
_cell_length_a   11.41443083
_cell_length_b   11.41584643
_cell_length_c   11.41507207
_cell_angle_alpha   90.00898693
_cell_angle_beta   89.98976102
_cell_angle_gamma   90.00960824
_symmetry_Int_Tables_number   1
_chemical_formula_structural   Fe45Co19
_chemical_formula_sum   'Fe90 Co38'
_cell_volume   1487.44534795
_cell_formula_units_Z   2
loop_
 _symmetry_equiv_pos_site_id
 _symmetry_equiv_pos_as_xyz
  1  'x, y, z'
loop_
 _atom_site_type_symbol
 _atom_site_label
 _atom_site_symmetry_multiplicity
 _atom_site_fract_x
 _atom_site_fract_y
 _atom_site_fract_z
 _atom_site_occupancy
  Fe  Fe0  1  0.62873040  0.12344605  0.37573476  1
  Fe  Fe1  1  0.75404850  0.25194462  0.24961359  1
  Fe  Fe2  1  0.12633433  0.87677247  0.87366318  1
  Fe  Fe3  1  0.50225980  0.75050043  0.25178828  1
  Fe  Fe4  1  0.50349923  0.49798117  0.74710715  1
  Fe  Fe5  1  -0.00374200  0.24977593  0.25418678  1
  Fe  Fe6  1  0.74873654  0.74976827  0.24930441  1
  Fe  Fe7  1  0.12071474  0.37428045  0.62389202  1
  Fe  Fe8  1  0.62509130  0.12654458  0.62413788  1
  Fe  Fe9  1  -0.00380676  0.74822607  0.49798239  1
  Fe  Fe10  1  -0.00235982  0.00027241  -0.00168165  1
  Fe  Fe11  1  0.62850953  0.37642170  0.87612155  1
  Fe  Fe12  1  0.62637573  0.62122958  0.87410319  1
  Fe  Fe13  1  0.37397516  0.87856639  0.37904428  1
  Fe  Fe14  1  -0.00156726  0.00014795  0.25014148  1
  Fe  Fe15  1  0.62953797  0.62368706  0.37875892  1
  Fe  Fe16  1  0.75042962  -0.00025865  0.24650071  1
  Fe  Fe17  1  0.37885838  0.87403772  0.12225228  1
  Fe  Fe18  1  0.74827503  0.74931807  -0.00037207  1
  Fe  Fe19  1  0.25211233  0.00008463  0.00116179  1
  Fe  Fe20  1  0.24845221  0.24863194  0.25135110  1
  Fe  Fe21  1  -0.00155784  0.50194509  -0.00390695  1
  Fe  Fe22  1  0.75311151  0.00352331  0.74741206  1
  Fe  Fe23  1  0.37538983  0.37293108  0.62557263  1
  Fe  Fe24  1  0.62379873  0.87668302  0.87484933  1
  Fe  Fe25  1  0.87331344  0.87533394  0.87326855  1
  Fe  Fe26  1  0.87820503  0.36802026  0.62602390  1
  Fe  Fe27  1  0.00123002  0.74838064  0.75312052  1
  Fe  Fe28  1  0.25113647  0.75036486  0.75023986  1
  Fe  Fe29  1  0.12626753  0.37712847  0.87466492  1
  Fe  Fe30  1  0.12317283  0.62499055  0.37457874  1
  Fe  Fe31  1  0.37599859  0.12557823  0.87442773  1
  Fe  Fe32  1  0.49971446  0.75148541  0.75008221  1
  Fe  Fe33  1  0.75179513  0.49811336  0.24677660  1
  Fe  Fe34  1  0.50099985  -0.00013858  0.24870272  1
  Fe  Fe35  1  0.50038118  0.49818691  0.50050312  1
  Fe  Fe36  1  0.75226040  0.25098729  0.00133227  1
  Fe  Fe37  1  0.25271795  0.00009216  0.74540431  1
  Fe  Fe38  1  -0.00268427  0.50028540  0.25303927  1
  Fe  Fe39  1  0.62445349  0.12810466  0.12372407  1
  Fe  Fe40  1  0.50410457  0.75241619  0.50036744  1
  Fe  Fe41  1  0.12055186  0.62363375  0.62577080  1
  Fe  Fe42  1  0.25300469  0.25330873  -0.00087539  1
  Fe  Fe43  1  0.25027851  0.75204849  0.25039813  1
  Fe  Fe44  1  0.75338820  0.50074065  0.50789147  1
  Fe  Fe45  1  0.24908827  0.50068855  0.25033413  1
  Fe  Fe46  1  0.24865383  0.24841738  0.50061549  1
  Fe  Fe47  1  0.24796555  0.50084599  0.74894694  1
  Fe  Fe48  1  0.87138832  0.62290730  0.87018463  1
  Fe  Fe49  1  0.11909487  0.12625630  0.62319227  1
  Fe  Fe50  1  0.87403643  0.87375462  0.37476507  1
  Fe  Fe51  1  0.12151496  0.87541243  0.62494001  1
  Fe  Fe52  1  0.87235166  0.37528101  0.87253368  1
  Fe  Fe53  1  0.87505539  0.87393169  0.12467135  1
  Fe  Fe54  1  0.74661747  0.74940903  0.74605583  1
  Fe  Fe55  1  0.50177719  0.49808156  0.25105689  1
  Fe  Fe56  1  0.49746096  -0.00087419  0.74747503  1
  Fe  Fe57  1  0.49835469  0.49496951  0.00175593  1
  Fe  Fe58  1  0.37577296  0.62362664  0.12493978  1
  Fe  Fe59  1  0.12407060  0.62497598  0.12413275  1
  Fe  Fe60  1  0.37695956  0.12780530  0.12438556  1
  Fe  Fe61  1  0.74939419  -0.00062428  0.00156038  1
  Fe  Fe62  1  0.50119573  0.24931467  0.49734199  1
  Fe  Fe63  1  0.50280396  0.25141855  0.75139403  1
  Fe  Fe64  1  0.37316976  0.37495529  0.37508139  1
  Fe  Fe65  1  0.62920552  0.37610425  0.37675143  1
  Fe  Fe66  1  -0.00370537  0.00381971  0.75019871  1
  Fe  Fe67  1  -0.00187670  0.24862628  -0.00316630  1
  Fe  Fe68  1  0.12353382  0.12538365  0.12492025  1
  Fe  Fe69  1  0.12547665  0.12037696  0.37584597  1
  Fe  Fe70  1  0.37339819  0.12183964  0.37698488  1
  Fe  Fe71  1  -0.00075353  0.74948007  -0.00279874  1
  Fe  Fe72  1  0.62505853  0.12513876  0.87714288  1
  Fe  Fe73  1  0.50169678  0.25174607  0.25186077  1
  Fe  Fe74  1  0.24818101  0.74974152  0.50092805  1
  Fe  Fe75  1  0.37685152  0.62572499  0.62379690  1
  Fe  Fe76  1  0.24811271  0.24899660  0.74890816  1
  Fe  Fe77  1  0.12387879  0.87462729  0.12526978  1
  Fe  Fe78  1  0.24916012  0.50082835  0.50076184  1
  Fe  Fe79  1  0.75459342  -0.00006956  0.50500163  1
  Fe  Fe80  1  0.12443199  0.37657090  0.37668231  1
  Fe  Fe81  1  0.25017752  0.74938091  -0.00212981  1
  Fe  Fe82  1  0.12297564  0.37509068  0.12473250  1
  Fe  Fe83  1  0.12563457  0.87799936  0.37582003  1
  Fe  Fe84  1  0.37579416  0.62553145  0.37617273  1
  Fe  Fe85  1  0.87608563  0.62567409  0.12583648  1
  Fe  Fe86  1  0.37490246  0.62231725  0.87548601  1
  Fe  Fe87  1  0.62448666  0.62387485  0.12365468  1
  Fe  Fe88  1  0.62753108  0.87734726  0.37727301  1
  Fe  Fe89  1  0.12603461  0.12317028  0.87554440  1
  Co  Co90  1  0.50143345  0.00145467  0.50182914  1
  Co  Co91  1  0.62283349  0.62639176  0.62364889  1
  Co  Co92  1  0.74748858  0.24927091  0.75064495  1
  Co  Co93  1  0.25079430  0.49750062  0.00068664  1
  Co  Co94  1  0.87245834  0.12548778  0.87597919  1
  Co  Co95  1  0.75107572  0.75109877  0.50360690  1
  Co  Co96  1  0.12683867  0.62449023  0.87489916  1
  Co  Co97  1  0.62528467  0.87721534  0.62650789  1
  Co  Co98  1  0.74886877  0.49711524  0.74248822  1
  Co  Co99  1  0.74968619  0.24887931  0.49985900  1
  Co  Co100  1  0.87240786  0.12330177  0.37560348  1
  Co  Co101  1  -0.00072079  0.49839260  0.75123424  1
  Co  Co102  1  0.87088562  0.62479684  0.37466115  1
  Co  Co103  1  0.87874588  0.37509229  0.12363183  1
  Co  Co104  1  0.37549606  0.87261785  0.62156037  1
  Co  Co105  1  0.25164190  -0.00104677  0.24689581  1
  Co  Co106  1  0.87739593  0.13205691  0.62514909  1
  Co  Co107  1  0.00162845  0.24871515  0.75589278  1
  Co  Co108  1  0.37349885  0.37420705  0.13017426  1
  Co  Co109  1  -0.00320111  0.50097216  0.50012038  1
  Co  Co110  1  0.87166482  0.37713258  0.37789350  1
  Co  Co111  1  0.62391447  0.37125697  0.62230258  1
  Co  Co112  1  0.24898920  0.00164696  0.50580389  1
  Co  Co113  1  0.87615723  0.12497585  0.12476142  1
  Co  Co114  1  0.62401656  0.87320691  0.12388805  1
  Co  Co115  1  -0.00434493  -0.00034615  0.50085704  1
  Co  Co116  1  0.37538969  0.87640099  0.87581622  1
  Co  Co117  1  -0.00007984  0.75026127  0.25166814  1
  Co  Co118  1  0.62636589  0.37309393  0.12469763  1
  Co  Co119  1  0.87745544  0.87222621  0.62831022  1
  Co  Co120  1  0.50152398  0.00119033  0.00078399  1
  Co  Co121  1  0.49801126  0.25456609  -0.00193397  1
  Co  Co122  1  0.87757343  0.62792240  0.62895972  1
  Co  Co123  1  0.00031853  0.24946317  0.49308566  1
  Co  Co124  1  0.37369366  0.37608095  0.86902009  1
  Co  Co125  1  0.37757182  0.12935790  0.62490611  1
  Co  Co126  1  0.50228540  0.74778524  -0.00265253  1
  Co  Co127  1  0.75186327  0.50037025  0.00175685  1
