# generated using pymatgen
data_Fe45Co19
_symmetry_space_group_name_H-M   'P 1'
_cell_length_a   11.41643689
_cell_length_b   11.41573042
_cell_length_c   11.41517196
_cell_angle_alpha   90.00709689
_cell_angle_beta   90.00438044
_cell_angle_gamma   89.99942402
_symmetry_Int_Tables_number   1
_chemical_formula_structural   Fe45Co19
_chemical_formula_sum   'Fe90 Co38'
_cell_volume   1487.70471197
_cell_formula_units_Z   2
loop_
 _symmetry_equiv_pos_site_id
 _symmetry_equiv_pos_as_xyz
  1  'x, y, z'
loop_
 _atom_site_type_symbol
 _atom_site_label
 _atom_site_symmetry_multiplicity
 _atom_site_fract_x
 _atom_site_fract_y
 _atom_site_fract_z
 _atom_site_occupancy
  Fe  Fe0  1  0.75350902  -0.00161135  -0.00343349  1
  Fe  Fe1  1  0.74607687  0.00100856  0.75424936  1
  Fe  Fe2  1  0.87325960  0.37334542  0.62882138  1
  Fe  Fe3  1  0.37393542  0.62452992  0.62496829  1
  Fe  Fe4  1  0.62434737  0.37383353  0.37443753  1
  Fe  Fe5  1  0.62549550  0.87361994  0.62089105  1
  Fe  Fe6  1  0.49914341  0.49867760  0.49924360  1
  Fe  Fe7  1  0.37572145  0.87647800  0.62400672  1
  Fe  Fe8  1  0.37300314  0.37762771  0.87163422  1
  Fe  Fe9  1  0.25279430  0.49674466  0.49749526  1
  Fe  Fe10  1  0.37044771  0.37946367  0.13086885  1
  Fe  Fe11  1  0.37639129  0.87451821  0.87449133  1
  Fe  Fe12  1  0.74726327  0.00215462  0.49503019  1
  Fe  Fe13  1  0.49979774  0.75196912  0.25021606  1
  Fe  Fe14  1  0.00163685  0.00112955  0.24817824  1
  Fe  Fe15  1  0.24937208  -0.00007444  0.49774091  1
  Fe  Fe16  1  0.87654312  0.37346771  0.37287712  1
  Fe  Fe17  1  0.62543533  0.62243562  0.12151083  1
  Fe  Fe18  1  0.87604961  0.62409043  0.87509435  1
  Fe  Fe19  1  0.74657488  0.24775470  0.75354115  1
  Fe  Fe20  1  0.00281467  0.49872377  0.74850346  1
  Fe  Fe21  1  0.37380009  0.62135573  0.12777470  1
  Fe  Fe22  1  -0.00222122  0.25079103  0.00028735  1
  Fe  Fe23  1  0.87749003  0.12672198  0.37393268  1
  Fe  Fe24  1  -0.00270995  0.49799623  0.50306465  1
  Fe  Fe25  1  0.75149938  0.25353779  -0.00389230  1
  Fe  Fe26  1  -0.00383236  0.75110870  0.50226369  1
  Fe  Fe27  1  0.87488939  0.87541303  0.37171656  1
  Fe  Fe28  1  0.25158823  0.75158375  0.50013909  1
  Fe  Fe29  1  0.75338557  0.75129772  0.00009964  1
  Fe  Fe30  1  0.49859395  0.25046317  0.49932416  1
  Fe  Fe31  1  0.49991668  0.24941916  0.24636420  1
  Fe  Fe32  1  0.87346388  0.12447207  0.12455034  1
  Fe  Fe33  1  0.12293145  0.87534235  0.87677715  1
  Fe  Fe34  1  0.37565342  0.62390105  0.37250125  1
  Fe  Fe35  1  0.00095653  0.74988050  0.74748736  1
  Fe  Fe36  1  0.12937055  0.12464160  0.12350095  1
  Fe  Fe37  1  0.00180159  0.49716690  0.24704929  1
  Fe  Fe38  1  0.62775632  0.87715150  0.12654327  1
  Fe  Fe39  1  0.37581151  0.12426978  0.62435833  1
  Fe  Fe40  1  0.12474019  0.62446016  0.87775381  1
  Fe  Fe41  1  0.62635689  0.62643621  0.62164594  1
  Fe  Fe42  1  0.12430027  0.87496495  0.37638705  1
  Fe  Fe43  1  0.74889245  0.75032297  0.75125028  1
  Fe  Fe44  1  0.62519022  0.62883727  0.37742195  1
  Fe  Fe45  1  0.37469516  0.62452929  0.87481913  1
  Fe  Fe46  1  0.00101308  0.00212296  0.74999189  1
  Fe  Fe47  1  0.24848142  0.75080908  0.74964370  1
  Fe  Fe48  1  0.87788043  0.62488708  0.37222315  1
  Fe  Fe49  1  0.00436350  0.25031724  0.24877348  1
  Fe  Fe50  1  0.24758485  0.74988426  0.25062131  1
  Fe  Fe51  1  0.62527818  0.12331026  0.12289757  1
  Fe  Fe52  1  0.62647785  0.37819844  0.12317186  1
  Fe  Fe53  1  0.87299174  0.87653370  0.62723258  1
  Fe  Fe54  1  0.25321130  0.25012671  0.00096457  1
  Fe  Fe55  1  0.37474978  0.12396895  0.36878353  1
  Fe  Fe56  1  0.12429877  0.62395517  0.12410987  1
  Fe  Fe57  1  0.50304153  -0.00109037  0.49380987  1
  Fe  Fe58  1  0.25136618  0.75020385  0.00041661  1
  Fe  Fe59  1  0.12992009  0.37237811  0.62574040  1
  Fe  Fe60  1  -0.00046458  0.00064914  0.50143744  1
  Fe  Fe61  1  0.25212202  0.25144119  0.49487179  1
  Fe  Fe62  1  0.50157058  0.74976691  0.74865767  1
  Fe  Fe63  1  0.37757736  0.12364937  0.87722107  1
  Fe  Fe64  1  0.24925674  0.00054880  0.75193903  1
  Fe  Fe65  1  0.37222561  0.87909695  0.12830562  1
  Fe  Fe66  1  0.74896083  0.50012922  0.75208783  1
  Fe  Fe67  1  0.50090068  0.24885053  0.75030873  1
  Fe  Fe68  1  0.50333008  0.00052870  0.75102647  1
  Fe  Fe69  1  0.12190586  0.62477589  0.37676595  1
  Fe  Fe70  1  0.74988539  0.50072631  0.24935110  1
  Fe  Fe71  1  0.87215404  0.12492275  0.62704477  1
  Fe  Fe72  1  0.49983358  0.49994376  0.74880992  1
  Fe  Fe73  1  0.49827877  0.75080345  0.00254879  1
  Fe  Fe74  1  0.74899595  0.24833274  0.25012884  1
  Fe  Fe75  1  0.12746151  0.12607042  0.62409624  1
  Fe  Fe76  1  0.62355662  0.62295432  0.87961768  1
  Fe  Fe77  1  0.62427787  0.37338516  0.62494231  1
  Fe  Fe78  1  0.75216815  0.50056050  0.49926273  1
  Fe  Fe79  1  0.75255070  0.74918741  0.24800537  1
  Fe  Fe80  1  0.49718674  0.25367539  0.00215002  1
  Fe  Fe81  1  0.49889059  -0.00118018  0.00196312  1
  Fe  Fe82  1  0.12416095  0.12550047  0.87689659  1
  Fe  Fe83  1  0.12585827  0.62512260  0.62262027  1
  Fe  Fe84  1  -0.00346948  0.49637756  0.00243744  1
  Fe  Fe85  1  -0.00398083  0.75253267  0.00303959  1
  Fe  Fe86  1  0.74938774  0.24851310  0.49925925  1
  Fe  Fe87  1  0.12649233  0.37395294  0.87509624  1
  Fe  Fe88  1  -0.00010019  0.25014427  0.50256495  1
  Fe  Fe89  1  0.12541302  0.87638650  0.12304854  1
  Co  Co90  1  0.87488115  0.62427615  0.62842540  1
  Co  Co91  1  0.87642222  0.62427588  0.12583365  1
  Co  Co92  1  0.37286523  0.12240497  0.12776945  1
  Co  Co93  1  0.00178900  0.24864916  0.74828265  1
  Co  Co94  1  0.37371435  0.37334022  0.62712224  1
  Co  Co95  1  0.49590649  0.49803912  0.00100044  1
  Co  Co96  1  0.37836934  0.37615541  0.36913569  1
  Co  Co97  1  0.12124901  0.37575749  0.37728265  1
  Co  Co98  1  0.87704663  0.37468511  0.87111115  1
  Co  Co99  1  0.24410183  0.49997086  0.25297901  1
  Co  Co100  1  0.24796443  0.50211763  0.75027493  1
  Co  Co101  1  0.24662446  0.25136516  0.25254863  1
  Co  Co102  1  0.62410781  0.12471734  0.62364012  1
  Co  Co103  1  0.74860316  0.00326017  0.25379024  1
  Co  Co104  1  0.87584930  0.12550261  0.87405511  1
  Co  Co105  1  0.62235494  0.12951694  0.37274585  1
  Co  Co106  1  0.62780001  0.86952507  0.37463378  1
  Co  Co107  1  0.00193572  0.75197646  0.24838713  1
  Co  Co108  1  0.50344906  -0.00148520  0.25154636  1
  Co  Co109  1  0.87784723  0.87464434  0.87298703  1
  Co  Co110  1  0.25117198  0.50086730  -0.00019431  1
  Co  Co111  1  0.12795303  0.37434296  0.12240197  1
  Co  Co112  1  0.12350149  0.12465210  0.37664592  1
  Co  Co113  1  0.87395105  0.87797121  0.12782586  1
  Co  Co114  1  0.87378088  0.37233765  0.12828758  1
  Co  Co115  1  0.75638455  0.74889248  0.50023242  1
  Co  Co116  1  0.50524100  0.50189505  0.25058978  1
  Co  Co117  1  0.24581049  -0.00036220  0.25136893  1
  Co  Co118  1  0.75476853  0.49798598  0.00018986  1
  Co  Co119  1  0.62221388  0.12548344  0.88043642  1
  Co  Co120  1  0.62289328  0.87336658  0.87744631  1
  Co  Co121  1  0.12532410  0.87554256  0.62426433  1
  Co  Co122  1  -0.00179907  0.00085060  0.00143773  1
  Co  Co123  1  0.37289433  0.87547649  0.37366485  1
  Co  Co124  1  0.62316713  0.37721965  0.87610904  1
  Co  Co125  1  0.49680986  0.75034482  0.49903199  1
  Co  Co126  1  0.25064411  -0.00037625  -0.00267035  1
  Co  Co127  1  0.25142956  0.24590857  0.75200753  1
