# generated using pymatgen
data_Fe45Co19
_symmetry_space_group_name_H-M   'P 1'
_cell_length_a   11.41502488
_cell_length_b   11.41647619
_cell_length_c   11.41421754
_cell_angle_alpha   90.00650260
_cell_angle_beta   89.99751819
_cell_angle_gamma   90.00711984
_symmetry_Int_Tables_number   1
_chemical_formula_structural   Fe45Co19
_chemical_formula_sum   'Fe90 Co38'
_cell_volume   1487.49349845
_cell_formula_units_Z   2
loop_
 _symmetry_equiv_pos_site_id
 _symmetry_equiv_pos_as_xyz
  1  'x, y, z'
loop_
 _atom_site_type_symbol
 _atom_site_label
 _atom_site_symmetry_multiplicity
 _atom_site_fract_x
 _atom_site_fract_y
 _atom_site_fract_z
 _atom_site_occupancy
  Fe  Fe0  1  0.62529942  0.37525480  0.12536579  1
  Fe  Fe1  1  0.75048177  0.75188022  0.75180322  1
  Fe  Fe2  1  0.49858500  0.74954651  -0.00288408  1
  Fe  Fe3  1  0.37464457  0.87702300  0.87335024  1
  Fe  Fe4  1  0.62694223  0.12370826  0.12691981  1
  Fe  Fe5  1  0.12155553  0.37505218  0.87562916  1
  Fe  Fe6  1  0.25179232  0.49968010  -0.00273586  1
  Fe  Fe7  1  0.62444933  0.37200693  0.62471087  1
  Fe  Fe8  1  0.49977477  0.00196136  -0.00035487  1
  Fe  Fe9  1  0.24896378  -0.00256314  0.50176209  1
  Fe  Fe10  1  0.00163432  -0.00064764  0.24721897  1
  Fe  Fe11  1  0.24870336  0.25211332  0.24952962  1
  Fe  Fe12  1  0.12467662  0.37597148  0.37830041  1
  Fe  Fe13  1  0.62272656  0.62701737  0.62670985  1
  Fe  Fe14  1  0.00151180  0.25103933  0.25030279  1
  Fe  Fe15  1  0.12362742  0.62720614  0.63011007  1
  Fe  Fe16  1  0.62583635  0.37144630  0.87448705  1
  Fe  Fe17  1  0.75312759  0.25079211  0.00023559  1
  Fe  Fe18  1  0.37284176  0.12446706  0.12537550  1
  Fe  Fe19  1  0.12321572  0.37541379  0.12310471  1
  Fe  Fe20  1  0.37734947  0.37614795  0.63010184  1
  Fe  Fe21  1  0.00088732  0.74778026  0.25223085  1
  Fe  Fe22  1  0.49945300  0.24821112  0.49966114  1
  Fe  Fe23  1  0.62636382  0.87690426  0.87641511  1
  Fe  Fe24  1  0.37319469  0.12554862  0.87427770  1
  Fe  Fe25  1  0.87744147  0.87302841  0.62725761  1
  Fe  Fe26  1  0.25014856  0.75058191  -0.00362131  1
  Fe  Fe27  1  0.62532873  0.37674050  0.37503381  1
  Fe  Fe28  1  0.49934265  0.00085136  0.49847059  1
  Fe  Fe29  1  0.87324072  0.62534881  0.37569401  1
  Fe  Fe30  1  0.50301382  0.00334059  0.75150078  1
  Fe  Fe31  1  0.24850880  -0.00268970  0.74749616  1
  Fe  Fe32  1  0.74783119  0.00173862  0.74917965  1
  Fe  Fe33  1  0.62774146  0.12102209  0.37215744  1
  Fe  Fe34  1  0.24740113  0.24994809  -0.00083802  1
  Fe  Fe35  1  0.24940726  0.50134892  0.24819842  1
  Fe  Fe36  1  0.74924760  0.75165945  0.25110313  1
  Fe  Fe37  1  0.12523841  0.87299932  0.37604763  1
  Fe  Fe38  1  -0.00061166  0.50202274  0.24935399  1
  Fe  Fe39  1  0.49871993  0.74833717  0.25084970  1
  Fe  Fe40  1  0.12524838  0.12522227  0.37653666  1
  Fe  Fe41  1  0.37419334  0.37679619  0.37541675  1
  Fe  Fe42  1  0.00050696  0.00118839  0.50285969  1
  Fe  Fe43  1  0.74931063  0.75108594  0.49852937  1
  Fe  Fe44  1  0.49909262  0.50302626  0.50095507  1
  Fe  Fe45  1  0.37511066  0.87431637  0.37456981  1
  Fe  Fe46  1  0.75188836  0.24717276  0.49859930  1
  Fe  Fe47  1  0.75246334  0.50031530  0.24805677  1
  Fe  Fe48  1  0.87892149  0.12436233  0.87235561  1
  Fe  Fe49  1  0.49855000  0.74852418  0.49994681  1
  Fe  Fe50  1  0.87638069  0.62765909  0.62809690  1
  Fe  Fe51  1  0.37347656  0.62415566  0.86774411  1
  Fe  Fe52  1  0.75365865  0.49807041  0.00116768  1
  Fe  Fe53  1  0.37519705  0.37559134  0.12272489  1
  Fe  Fe54  1  0.25138582  0.74942733  0.24622952  1
  Fe  Fe55  1  -0.00105918  0.50226726  0.50154085  1
  Fe  Fe56  1  -0.00528461  0.49952689  -0.00064440  1
  Fe  Fe57  1  0.87850289  0.87166782  0.12310501  1
  Fe  Fe58  1  0.62513333  0.62480801  0.12400096  1
  Fe  Fe59  1  0.25342055  0.74959133  0.50659355  1
  Fe  Fe60  1  0.74998154  0.50162585  0.50164436  1
  Fe  Fe61  1  0.87601381  0.37452869  0.37626660  1
  Fe  Fe62  1  0.49934860  0.24868069  -0.00116269  1
  Fe  Fe63  1  0.75176415  0.75094749  -0.00145806  1
  Fe  Fe64  1  0.24635621  -0.00140115  0.00408006  1
  Fe  Fe65  1  0.74860596  0.49886729  0.74896317  1
  Fe  Fe66  1  0.37499883  0.12429785  0.62594787  1
  Fe  Fe67  1  -0.00065607  0.24800823  0.50543983  1
  Fe  Fe68  1  0.62308551  0.87628285  0.62400195  1
  Fe  Fe69  1  0.87724567  0.87550111  0.37610836  1
  Fe  Fe70  1  0.87622391  0.12816757  0.12729456  1
  Fe  Fe71  1  0.62720901  0.62594905  0.87448530  1
  Fe  Fe72  1  0.75290424  0.00062579  0.00197989  1
  Fe  Fe73  1  0.49883844  0.49957599  -0.00464522  1
  Fe  Fe74  1  0.24966810  0.25137001  0.50267300  1
  Fe  Fe75  1  0.62254468  0.87692786  0.12617735  1
  Fe  Fe76  1  -0.00156811  0.75065949  -0.01019533  1
  Fe  Fe77  1  0.12083609  0.12226508  0.87339272  1
  Fe  Fe78  1  0.12280483  0.62714708  0.12011008  1
  Fe  Fe79  1  0.74968143  0.24719122  0.74856827  1
  Fe  Fe80  1  0.49780359  0.50307678  0.25057355  1
  Fe  Fe81  1  0.75221918  -0.00024455  0.49948181  1
  Fe  Fe82  1  0.24661205  0.25226024  0.74953148  1
  Fe  Fe83  1  0.50036075  0.24887221  0.24986688  1
  Fe  Fe84  1  0.37163290  0.12442757  0.37399168  1
  Fe  Fe85  1  0.25164704  0.50219633  0.50416768  1
  Fe  Fe86  1  0.24753906  -0.00269830  0.24669810  1
  Fe  Fe87  1  -0.00140221  0.49781972  0.75033591  1
  Fe  Fe88  1  0.12831838  0.62587998  0.37719945  1
  Fe  Fe89  1  0.12154904  0.87210470  0.62727197  1
  Co  Co90  1  0.74914428  0.25087028  0.25273033  1
  Co  Co91  1  0.50146692  0.24649379  0.75065094  1
  Co  Co92  1  0.62732639  0.12559614  0.87806025  1
  Co  Co93  1  0.12723327  0.12371132  0.62575709  1
  Co  Co94  1  0.49735561  0.00161092  0.24977379  1
  Co  Co95  1  0.62337214  0.87675708  0.37445131  1
  Co  Co96  1  0.12170010  0.86887803  0.12203407  1
  Co  Co97  1  0.12479890  0.12727071  0.12551992  1
  Co  Co98  1  0.50482186  0.49803101  0.75325258  1
  Co  Co99  1  0.37516971  0.62451782  0.12189821  1
  Co  Co100  1  0.87330033  0.88115223  0.87360618  1
  Co  Co101  1  0.12567447  0.88036813  0.87521799  1
  Co  Co102  1  0.24738212  0.49652504  0.75023755  1
  Co  Co103  1  0.12609260  0.62198041  0.87353491  1
  Co  Co104  1  0.87499677  0.12390680  0.62757397  1
  Co  Co105  1  0.37181456  0.62575219  0.37574439  1
  Co  Co106  1  0.24867474  0.75342447  0.75008411  1
  Co  Co107  1  0.50171387  0.75294120  0.75200859  1
  Co  Co108  1  0.00251768  0.25152189  0.74586568  1
  Co  Co109  1  0.37956166  0.87778330  0.62730707  1
  Co  Co110  1  0.87592071  0.37194604  0.12682836  1
  Co  Co111  1  -0.00023241  0.74819266  0.49937061  1
  Co  Co112  1  0.00007451  0.00064819  0.00321302  1
  Co  Co113  1  0.37713618  0.62329953  0.63283352  1
  Co  Co114  1  0.75485610  -0.00334806  0.24855837  1
  Co  Co115  1  0.37691646  0.87455998  0.12337565  1
  Co  Co116  1  0.62508959  0.12453983  0.62193515  1
  Co  Co117  1  0.87594768  0.62917692  0.12323503  1
  Co  Co118  1  0.62641429  0.62470834  0.37458491  1
  Co  Co119  1  0.00037236  -0.00198883  0.74714054  1
  Co  Co120  1  0.87773110  0.12447111  0.37423241  1
  Co  Co121  1  0.87265704  0.37442269  0.62486295  1
  Co  Co122  1  -0.00025067  0.75150057  0.75817897  1
  Co  Co123  1  0.87486890  0.37265298  0.87154872  1
  Co  Co124  1  0.12430137  0.37732317  0.62267538  1
  Co  Co125  1  0.87104784  0.62206959  0.87318490  1
  Co  Co126  1  -0.00024342  0.24941078  -0.00039589  1
  Co  Co127  1  0.37537171  0.37239393  0.87264185  1
