# generated using pymatgen
data_Fe45Co19
_symmetry_space_group_name_H-M   'P 1'
_cell_length_a   11.41613979
_cell_length_b   11.41491194
_cell_length_c   11.41577975
_cell_angle_alpha   89.99576583
_cell_angle_beta   90.00181334
_cell_angle_gamma   90.01250994
_symmetry_Int_Tables_number   1
_chemical_formula_structural   Fe45Co19
_chemical_formula_sum   'Fe90 Co38'
_cell_volume   1487.63851216
_cell_formula_units_Z   2
loop_
 _symmetry_equiv_pos_site_id
 _symmetry_equiv_pos_as_xyz
  1  'x, y, z'
loop_
 _atom_site_type_symbol
 _atom_site_label
 _atom_site_symmetry_multiplicity
 _atom_site_fract_x
 _atom_site_fract_y
 _atom_site_fract_z
 _atom_site_occupancy
  Fe  Fe0  1  0.37537843  0.87916094  0.62755330  1
  Fe  Fe1  1  0.12306635  0.62777508  0.12488798  1
  Fe  Fe2  1  0.87378509  0.37558912  0.87438217  1
  Fe  Fe3  1  0.62349760  0.62585590  0.87487314  1
  Fe  Fe4  1  0.50189486  0.25336485  0.00152954  1
  Fe  Fe5  1  0.37463767  0.37337084  0.62692710  1
  Fe  Fe6  1  0.00058740  0.50142648  -0.00072289  1
  Fe  Fe7  1  0.87594594  0.12558913  0.37522177  1
  Fe  Fe8  1  0.87394573  0.87445844  0.62589888  1
  Fe  Fe9  1  0.49875813  0.49616243  0.49949668  1
  Fe  Fe10  1  0.62282209  0.87548589  0.37361135  1
  Fe  Fe11  1  0.37161982  0.37381122  0.37007038  1
  Fe  Fe12  1  0.62554668  0.37749588  0.12739051  1
  Fe  Fe13  1  0.25215807  0.50214791  0.74827058  1
  Fe  Fe14  1  0.24953107  0.74916408  -0.00044722  1
  Fe  Fe15  1  0.37736341  0.62460958  0.12612728  1
  Fe  Fe16  1  0.87494728  0.62901812  0.87450703  1
  Fe  Fe17  1  0.00298597  0.49683907  0.49933550  1
  Fe  Fe18  1  0.37514155  0.37471540  0.87446900  1
  Fe  Fe19  1  0.25191603  0.00152934  0.24959639  1
  Fe  Fe20  1  0.00336004  0.25171293  0.50013830  1
  Fe  Fe21  1  0.25213507  0.75052580  0.25079804  1
  Fe  Fe22  1  0.25135750  0.00141572  0.49834362  1
  Fe  Fe23  1  0.87491756  0.12614611  0.87712141  1
  Fe  Fe24  1  0.49880481  0.75377991  0.50156820  1
  Fe  Fe25  1  0.37394669  0.37655173  0.12833007  1
  Fe  Fe26  1  0.62237931  0.62600574  0.12723526  1
  Fe  Fe27  1  0.62253563  0.12139921  0.62723222  1
  Fe  Fe28  1  0.49734174  0.75002906  0.74897636  1
  Fe  Fe29  1  0.74864692  0.50239910  0.74716403  1
  Fe  Fe30  1  0.62475124  0.12423632  0.12423896  1
  Fe  Fe31  1  0.25046552  0.50134437  0.00045849  1
  Fe  Fe32  1  0.74953297  0.00007070  0.50076119  1
  Fe  Fe33  1  0.12730940  0.87762189  0.62650452  1
  Fe  Fe34  1  0.74814028  0.75038708  0.50269057  1
  Fe  Fe35  1  -0.00136547  -0.00545113  -0.00276735  1
  Fe  Fe36  1  0.74920017  0.25114928  0.00035051  1
  Fe  Fe37  1  0.25209317  0.75230298  0.50174835  1
  Fe  Fe38  1  0.74832082  0.24873952  0.50121025  1
  Fe  Fe39  1  0.87438441  0.37433930  0.12689503  1
  Fe  Fe40  1  0.87490256  0.62693798  0.37707329  1
  Fe  Fe41  1  0.87502071  0.12358561  0.12423717  1
  Fe  Fe42  1  0.49978172  0.75193247  -0.00020800  1
  Fe  Fe43  1  0.62519667  0.87257334  0.12667390  1
  Fe  Fe44  1  0.87603109  0.12446233  0.62388146  1
  Fe  Fe45  1  0.12649351  0.37648750  0.87319510  1
  Fe  Fe46  1  0.00236604  0.24954102  0.75079328  1
  Fe  Fe47  1  0.49828886  0.24628140  0.75048715  1
  Fe  Fe48  1  0.12445583  0.12502021  0.37452566  1
  Fe  Fe49  1  0.25041259  -0.00034384  -0.00259583  1
  Fe  Fe50  1  0.25520700  0.00568860  0.75467304  1
  Fe  Fe51  1  0.12633923  0.12431408  0.62637280  1
  Fe  Fe52  1  0.12528413  0.87344977  0.12608636  1
  Fe  Fe53  1  0.00035298  0.50268554  0.74971610  1
  Fe  Fe54  1  0.12856943  0.87236877  0.87176637  1
  Fe  Fe55  1  0.00115788  0.25152512  0.00017337  1
  Fe  Fe56  1  0.37521941  0.62551339  0.87447704  1
  Fe  Fe57  1  0.62277969  0.62674898  0.37509393  1
  Fe  Fe58  1  0.62088990  0.12369625  0.37339493  1
  Fe  Fe59  1  0.24744322  0.25008143  -0.00017369  1
  Fe  Fe60  1  0.87506422  0.37545712  0.62519673  1
  Fe  Fe61  1  0.00043321  -0.00265994  0.25133749  1
  Fe  Fe62  1  0.74881824  0.49846636  0.50202548  1
  Fe  Fe63  1  0.62540917  0.37278090  0.37281702  1
  Fe  Fe64  1  0.74922814  -0.00350389  -0.00266400  1
  Fe  Fe65  1  0.74981603  0.50277050  0.00026093  1
  Fe  Fe66  1  0.74887479  0.24826559  0.74960079  1
  Fe  Fe67  1  0.62435335  0.37671031  0.87325246  1
  Fe  Fe68  1  0.86976309  0.86890626  0.87244165  1
  Fe  Fe69  1  0.00159508  0.50078886  0.25137329  1
  Fe  Fe70  1  0.12629498  0.62680947  0.37570412  1
  Fe  Fe71  1  0.62425762  0.87978961  0.63088899  1
  Fe  Fe72  1  0.87483970  0.37257975  0.37337139  1
  Fe  Fe73  1  0.37710561  0.12329239  0.12203460  1
  Fe  Fe74  1  0.00233192  0.75347078  0.50125115  1
  Fe  Fe75  1  0.24899900  0.49792681  0.50095754  1
  Fe  Fe76  1  0.12562617  0.62537835  0.62492745  1
  Fe  Fe77  1  0.24916106  0.25004926  0.49976176  1
  Fe  Fe78  1  0.12280379  0.12309834  0.12304488  1
  Fe  Fe79  1  0.74989766  -0.00081023  0.24995900  1
  Fe  Fe80  1  0.62069119  0.62264591  0.62287510  1
  Fe  Fe81  1  0.87695573  0.63115775  0.12535649  1
  Fe  Fe82  1  0.37606869  0.62471780  0.37654311  1
  Fe  Fe83  1  0.87494966  0.87443513  0.37549817  1
  Fe  Fe84  1  0.49873221  0.24903207  0.49983978  1
  Fe  Fe85  1  0.50094592  -0.00486171  -0.00472192  1
  Fe  Fe86  1  -0.00162039  -0.00077025  0.75115921  1
  Fe  Fe87  1  0.37679559  0.87829226  0.37321401  1
  Fe  Fe88  1  0.74982778  0.50236950  0.25104279  1
  Fe  Fe89  1  0.12621580  0.37502797  0.12905031  1
  Co  Co90  1  0.37457345  0.12439728  0.62249921  1
  Co  Co91  1  0.12622018  0.37514144  0.62881886  1
  Co  Co92  1  0.74761558  0.74986192  0.00232605  1
  Co  Co93  1  0.74799742  0.74458679  0.74463587  1
  Co  Co94  1  0.74981589  0.74999997  0.25126974  1
  Co  Co95  1  0.37315263  0.87551782  0.12334100  1
  Co  Co96  1  0.49712051  0.75119860  0.25047863  1
  Co  Co97  1  0.50039241  -0.00126822  0.50117292  1
  Co  Co98  1  0.12297002  0.12419027  0.87599987  1
  Co  Co99  1  0.00175584  0.75053695  0.74858817  1
  Co  Co100  1  0.37794610  0.12316723  0.37506603  1
  Co  Co101  1  0.25149537  0.74749153  0.74652561  1
  Co  Co102  1  0.12791469  0.37403806  0.36976654  1
  Co  Co103  1  0.25120558  0.24389522  0.24820941  1
  Co  Co104  1  0.62334358  0.37403634  0.62628972  1
  Co  Co105  1  0.12804957  0.87576578  0.37536864  1
  Co  Co106  1  0.62496760  0.12517916  0.87653160  1
  Co  Co107  1  0.00115993  0.75236879  0.25297689  1
  Co  Co108  1  0.49846741  0.50079030  0.74958033  1
  Co  Co109  1  0.25102064  0.24684751  0.75219896  1
  Co  Co110  1  0.37680142  0.62365185  0.62183227  1
  Co  Co111  1  0.24940823  0.50444492  0.24913565  1
  Co  Co112  1  0.00155177  0.75295082  -0.00376973  1
  Co  Co113  1  0.00046802  0.24837311  0.24885115  1
  Co  Co114  1  0.12656251  0.62518154  0.87413538  1
  Co  Co115  1  0.49524741  0.00264351  0.75593798  1
  Co  Co116  1  0.49884021  0.24931645  0.24805872  1
  Co  Co117  1  0.49914633  -0.00062233  0.24663700  1
  Co  Co118  1  0.49974465  0.49967500  0.25201646  1
  Co  Co119  1  0.49924838  0.49961280  0.00041122  1
  Co  Co120  1  0.37683238  0.12858321  0.88227789  1
  Co  Co121  1  0.00027622  -0.00072418  0.50049118  1
  Co  Co122  1  0.87507583  0.87316485  0.12577377  1
  Co  Co123  1  0.62728530  0.87268485  0.86992245  1
  Co  Co124  1  0.74927263  0.24766264  0.24910064  1
  Co  Co125  1  0.75255988  0.00320716  0.75188572  1
  Co  Co126  1  0.87765506  0.62440837  0.62159480  1
  Co  Co127  1  0.37262498  0.87160440  0.87504373  1
