# generated using pymatgen
data_Fe45Co19
_symmetry_space_group_name_H-M   'P 1'
_cell_length_a   11.41525194
_cell_length_b   11.41433866
_cell_length_c   11.41578190
_cell_angle_alpha   89.99392424
_cell_angle_beta   90.00313386
_cell_angle_gamma   90.00654620
_symmetry_Int_Tables_number   1
_chemical_formula_structural   Fe45Co19
_chemical_formula_sum   'Fe90 Co38'
_cell_volume   1487.44841072
_cell_formula_units_Z   2
loop_
 _symmetry_equiv_pos_site_id
 _symmetry_equiv_pos_as_xyz
  1  'x, y, z'
loop_
 _atom_site_type_symbol
 _atom_site_label
 _atom_site_symmetry_multiplicity
 _atom_site_fract_x
 _atom_site_fract_y
 _atom_site_fract_z
 _atom_site_occupancy
  Fe  Fe0  1  0.62536071  0.62380775  0.12518203  1
  Fe  Fe1  1  0.00127530  0.24885911  0.50065941  1
  Fe  Fe2  1  0.37332856  0.37534538  0.87931561  1
  Fe  Fe3  1  -0.00008039  0.75213252  0.74927810  1
  Fe  Fe4  1  0.37483451  0.87457773  0.12585338  1
  Fe  Fe5  1  0.49966511  0.49882437  0.49999018  1
  Fe  Fe6  1  0.74892962  -0.00073124  0.49792703  1
  Fe  Fe7  1  0.62506720  0.87400684  0.87463523  1
  Fe  Fe8  1  0.62566135  0.62649459  0.37599979  1
  Fe  Fe9  1  0.75146142  0.00123755  0.75246205  1
  Fe  Fe10  1  0.12476228  0.11824405  0.62587558  1
  Fe  Fe11  1  0.12774793  0.37668707  0.87486257  1
  Fe  Fe12  1  0.37352242  0.62425581  0.87529046  1
  Fe  Fe13  1  0.12583794  0.62353633  0.62714799  1
  Fe  Fe14  1  0.49816174  0.00012358  0.75103075  1
  Fe  Fe15  1  0.37317815  0.62573148  0.37562365  1
  Fe  Fe16  1  0.87383874  0.62635639  0.62423151  1
  Fe  Fe17  1  0.87415965  0.87371140  0.37504952  1
  Fe  Fe18  1  0.74986443  0.24906120  0.49999293  1
  Fe  Fe19  1  0.24915307  0.25137567  0.24802616  1
  Fe  Fe20  1  0.37572002  0.62519388  0.62396151  1
  Fe  Fe21  1  0.37494971  0.87423855  0.87521679  1
  Fe  Fe22  1  0.12376916  0.12306428  0.37360212  1
  Fe  Fe23  1  0.12635012  0.37932565  0.12318239  1
  Fe  Fe24  1  0.62534459  0.12551875  0.87646989  1
  Fe  Fe25  1  -0.00452353  0.49597103  0.25203982  1
  Fe  Fe26  1  0.62783569  0.37422351  0.37539500  1
  Fe  Fe27  1  0.87677855  0.12881928  0.37185893  1
  Fe  Fe28  1  0.62597264  0.37567187  0.62492770  1
  Fe  Fe29  1  0.12435639  0.87739604  0.37502713  1
  Fe  Fe30  1  0.24661755  0.74558649  0.00234108  1
  Fe  Fe31  1  0.75170900  0.50231952  0.49831706  1
  Fe  Fe32  1  0.37755222  0.12142063  0.61917461  1
  Fe  Fe33  1  0.74937601  0.24879239  0.75055669  1
  Fe  Fe34  1  -0.00057646  0.49976489  0.49989060  1
  Fe  Fe35  1  0.25231413  0.24646958  0.75058302  1
  Fe  Fe36  1  0.87435676  0.87474360  0.12413559  1
  Fe  Fe37  1  0.00327089  0.74641754  0.00059412  1
  Fe  Fe38  1  0.87650067  0.12407689  0.62590159  1
  Fe  Fe39  1  0.87482643  0.87570292  0.62467497  1
  Fe  Fe40  1  0.49971121  0.50055532  0.75002410  1
  Fe  Fe41  1  0.12578011  0.87722967  0.12430863  1
  Fe  Fe42  1  0.74855412  0.49762440  -0.00033756  1
  Fe  Fe43  1  0.87426549  0.37327700  0.87557247  1
  Fe  Fe44  1  0.12506452  0.62296919  0.37323407  1
  Fe  Fe45  1  0.62144207  0.12426331  0.62111421  1
  Fe  Fe46  1  0.25023613  0.75322602  0.74702896  1
  Fe  Fe47  1  0.00023316  0.25185630  0.00144607  1
  Fe  Fe48  1  0.62463310  0.62535425  0.87379049  1
  Fe  Fe49  1  0.12559852  0.87632580  0.87381845  1
  Fe  Fe50  1  0.75020146  0.00228641  0.25027899  1
  Fe  Fe51  1  0.62474428  0.87533468  0.12719218  1
  Fe  Fe52  1  0.24810328  0.74890983  0.24812913  1
  Fe  Fe53  1  0.49904846  0.25066919  0.74931737  1
  Fe  Fe54  1  0.74932649  0.50168426  0.74920439  1
  Fe  Fe55  1  0.87490605  0.37432106  0.62416964  1
  Fe  Fe56  1  0.87427706  0.87488895  0.87641616  1
  Fe  Fe57  1  0.00072499  0.75095260  0.50084558  1
  Fe  Fe58  1  0.50138741  0.75367113  0.50002018  1
  Fe  Fe59  1  0.25259101  0.00081185  0.25215965  1
  Fe  Fe60  1  0.12644041  0.37607446  0.62597983  1
  Fe  Fe61  1  0.25208473  0.00236703  -0.00124783  1
  Fe  Fe62  1  0.87563796  0.62513861  0.87550470  1
  Fe  Fe63  1  0.50241552  0.25203156  -0.00021883  1
  Fe  Fe64  1  -0.00008874  0.49922293  0.75043509  1
  Fe  Fe65  1  0.62543733  0.87261646  0.62719333  1
  Fe  Fe66  1  0.49958437  0.74937727  0.25000922  1
  Fe  Fe67  1  0.00010167  0.75177826  0.24899448  1
  Fe  Fe68  1  0.24832755  0.75270197  0.50226874  1
  Fe  Fe69  1  0.49889720  0.49941979  0.25048017  1
  Fe  Fe70  1  0.75149412  0.74711914  0.25003946  1
  Fe  Fe71  1  0.50088589  0.24953191  0.25265260  1
  Fe  Fe72  1  0.37550960  0.12774175  0.12435981  1
  Fe  Fe73  1  0.87444914  0.12877715  0.12456729  1
  Fe  Fe74  1  0.12425477  0.12368839  0.87419258  1
  Fe  Fe75  1  -0.00226273  0.00085849  0.00028432  1
  Fe  Fe76  1  0.24874055  0.24857543  0.50103514  1
  Fe  Fe77  1  0.87651031  0.62197732  0.12467830  1
  Fe  Fe78  1  0.12436978  0.12351809  0.12580413  1
  Fe  Fe79  1  0.37525672  0.62225795  0.12500751  1
  Fe  Fe80  1  0.50033705  0.74923363  0.00037632  1
  Fe  Fe81  1  0.62625458  0.37626632  0.12686581  1
  Fe  Fe82  1  0.12559407  0.37613485  0.37664256  1
  Fe  Fe83  1  0.37277875  0.37368972  0.37531233  1
  Fe  Fe84  1  0.49851452  0.00097169  0.25538109  1
  Fe  Fe85  1  0.37351471  0.37511924  0.62370781  1
  Fe  Fe86  1  0.50018542  -0.00090497  0.00063823  1
  Fe  Fe87  1  0.74856097  0.75055813  0.00026799  1
  Fe  Fe88  1  0.62583932  0.12470675  0.12424350  1
  Fe  Fe89  1  -0.00016392  0.24887676  0.74964622  1
  Co  Co90  1  0.24801243  0.24850611  0.00075911  1
  Co  Co91  1  0.25164365  -0.00242163  0.49770438  1
  Co  Co92  1  0.37788842  0.12665407  0.87765670  1
  Co  Co93  1  0.62461762  0.37485115  0.87180601  1
  Co  Co94  1  0.00136208  0.50093386  -0.00277625  1
  Co  Co95  1  0.87250731  0.37519532  0.12385207  1
  Co  Co96  1  0.37308288  0.87134309  0.37296712  1
  Co  Co97  1  0.75014153  0.74980537  0.49983702  1
  Co  Co98  1  0.87416460  0.37072111  0.37651796  1
  Co  Co99  1  0.37589300  0.37413927  0.12213983  1
  Co  Co100  1  0.50133142  -0.00650540  0.49454703  1
  Co  Co101  1  0.62453482  0.62617440  0.62428139  1
  Co  Co102  1  0.24820620  0.50472534  0.00145017  1
  Co  Co103  1  -0.00229184  -0.00082022  0.24879634  1
  Co  Co104  1  0.74756069  0.25179991  -0.00013202  1
  Co  Co105  1  0.62739671  0.87257639  0.37057706  1
  Co  Co106  1  -0.00266312  0.00087774  0.49766747  1
  Co  Co107  1  0.87473213  0.12814178  0.87722331  1
  Co  Co108  1  0.49887619  0.74810944  0.75074145  1
  Co  Co109  1  0.12300652  0.88075230  0.62545664  1
  Co  Co110  1  0.37492312  0.12789643  0.37811911  1
  Co  Co111  1  0.75107773  0.50098884  0.25237275  1
  Co  Co112  1  0.50181470  0.50028681  -0.00021156  1
  Co  Co113  1  0.62395623  0.12614732  0.37862864  1
  Co  Co114  1  0.50038719  0.25411400  0.49912585  1
  Co  Co115  1  0.12590833  0.62501814  0.86947326  1
  Co  Co116  1  0.25382568  0.00121130  0.75120675  1
  Co  Co117  1  0.74796435  0.24949081  0.24966271  1
  Co  Co118  1  0.00285796  0.25375460  0.24781433  1
  Co  Co119  1  0.75106697  0.74914996  0.75075290  1
  Co  Co120  1  0.37736392  0.87739969  0.62558159  1
  Co  Co121  1  0.87728307  0.62656233  0.37475281  1
  Co  Co122  1  0.12116173  0.62070896  0.13056770  1
  Co  Co123  1  0.25016240  0.50084382  0.50047246  1
  Co  Co124  1  0.25217274  0.49886685  0.74918807  1
  Co  Co125  1  0.75007032  -0.00024935  0.00036818  1
  Co  Co126  1  0.25296328  0.49842719  0.24931082  1
  Co  Co127  1  -0.00348379  -0.00016930  0.75262129  1
