# generated using pymatgen
data_Fe45Co19
_symmetry_space_group_name_H-M   'P 1'
_cell_length_a   11.41445179
_cell_length_b   11.41586704
_cell_length_c   11.41371391
_cell_angle_alpha   89.98531226
_cell_angle_beta   90.00511630
_cell_angle_gamma   90.00498608
_symmetry_Int_Tables_number   1
_chemical_formula_structural   Fe45Co19
_chemical_formula_sum   'Fe90 Co38'
_cell_volume   1487.27379193
_cell_formula_units_Z   2
loop_
 _symmetry_equiv_pos_site_id
 _symmetry_equiv_pos_as_xyz
  1  'x, y, z'
loop_
 _atom_site_type_symbol
 _atom_site_label
 _atom_site_symmetry_multiplicity
 _atom_site_fract_x
 _atom_site_fract_y
 _atom_site_fract_z
 _atom_site_occupancy
  Fe  Fe0  1  0.75049149  0.24946515  0.00197907  1
  Fe  Fe1  1  0.25242164  0.50228553  0.75257234  1
  Fe  Fe2  1  0.12751382  0.12547726  0.62334566  1
  Fe  Fe3  1  0.25195876  0.75008795  0.24763720  1
  Fe  Fe4  1  0.74850259  0.24745100  0.49606188  1
  Fe  Fe5  1  0.37449795  0.87653052  0.37395329  1
  Fe  Fe6  1  0.62358439  0.62632353  0.62825811  1
  Fe  Fe7  1  0.50001906  -0.00024199  0.49746519  1
  Fe  Fe8  1  0.74771327  -0.00031749  0.49596017  1
  Fe  Fe9  1  0.87356236  0.37652838  0.62430442  1
  Fe  Fe10  1  0.62299723  0.12276757  0.62573888  1
  Fe  Fe11  1  0.87688895  0.37428968  0.87528359  1
  Fe  Fe12  1  0.00111952  0.49998197  0.25090702  1
  Fe  Fe13  1  -0.00065436  0.25059714  0.74680051  1
  Fe  Fe14  1  0.87521414  0.12407054  0.62303351  1
  Fe  Fe15  1  0.49902215  0.49899414  0.75393399  1
  Fe  Fe16  1  0.12711824  0.62430583  0.12426063  1
  Fe  Fe17  1  0.25046281  0.49994375  0.24951489  1
  Fe  Fe18  1  0.87432069  0.37504234  0.37553255  1
  Fe  Fe19  1  0.87715484  0.12555803  0.87345033  1
  Fe  Fe20  1  0.00050456  0.75014685  0.24892466  1
  Fe  Fe21  1  0.50142792  0.50193491  0.49804738  1
  Fe  Fe22  1  0.87582913  0.62453207  0.87286519  1
  Fe  Fe23  1  0.87376638  0.12498664  0.12721438  1
  Fe  Fe24  1  0.87632377  0.87544320  0.87458120  1
  Fe  Fe25  1  0.12797240  0.37634996  0.62380993  1
  Fe  Fe26  1  0.25075208  0.24822770  -0.00003998  1
  Fe  Fe27  1  0.74867133  0.75234923  0.25028080  1
  Fe  Fe28  1  0.12846744  0.62656262  0.62203899  1
  Fe  Fe29  1  0.37591898  0.62528750  0.88290278  1
  Fe  Fe30  1  0.87409079  0.87593325  0.12315971  1
  Fe  Fe31  1  0.37494649  0.37852271  0.62415547  1
  Fe  Fe32  1  0.12548881  0.62544874  0.87646513  1
  Fe  Fe33  1  0.00030940  0.00009948  0.25134250  1
  Fe  Fe34  1  0.74956461  0.00129731  -0.00114258  1
  Fe  Fe35  1  0.50096864  -0.00167451  0.00171596  1
  Fe  Fe36  1  0.12424851  0.37271725  0.12370117  1
  Fe  Fe37  1  0.74852199  0.24920015  0.74869589  1
  Fe  Fe38  1  0.12557958  0.12824411  0.37779449  1
  Fe  Fe39  1  0.00329052  -0.00201734  0.49913387  1
  Fe  Fe40  1  0.62192549  0.62702575  0.12398365  1
  Fe  Fe41  1  0.25212822  0.25024963  0.25089352  1
  Fe  Fe42  1  0.49792029  0.75530315  0.24318268  1
  Fe  Fe43  1  0.00020671  0.74938257  0.74772938  1
  Fe  Fe44  1  0.37565950  0.37708104  0.12126197  1
  Fe  Fe45  1  0.49889442  0.24916542  0.25046997  1
  Fe  Fe46  1  0.00280718  0.00345481  0.00017558  1
  Fe  Fe47  1  0.12734359  0.37328584  0.37813646  1
  Fe  Fe48  1  0.87685720  0.87360277  0.37619101  1
  Fe  Fe49  1  0.12680847  0.62849420  0.37753387  1
  Fe  Fe50  1  0.37559099  0.37542973  0.37692338  1
  Fe  Fe51  1  0.62566875  0.87293667  0.87453797  1
  Fe  Fe52  1  0.50043295  0.49942748  0.24884678  1
  Fe  Fe53  1  0.87476738  0.62622155  0.37509498  1
  Fe  Fe54  1  0.74712476  0.75019884  0.50060093  1
  Fe  Fe55  1  0.74680619  0.49946411  0.25175806  1
  Fe  Fe56  1  0.12665032  0.87385416  0.87354781  1
  Fe  Fe57  1  0.13071835  0.87188494  0.62418957  1
  Fe  Fe58  1  0.62654175  0.12158008  0.13085713  1
  Fe  Fe59  1  0.74948398  0.74831796  -0.00154080  1
  Fe  Fe60  1  0.62406335  0.37497466  0.62359256  1
  Fe  Fe61  1  0.24667401  0.00385739  -0.00289630  1
  Fe  Fe62  1  0.25345077  0.24948934  0.74905489  1
  Fe  Fe63  1  -0.00222671  0.25045473  0.24989759  1
  Fe  Fe64  1  0.74707779  0.49929920  0.75279803  1
  Fe  Fe65  1  0.49882072  0.75056137  0.50085523  1
  Fe  Fe66  1  0.62542047  0.37297126  0.12615448  1
  Fe  Fe67  1  0.00291100  -0.00007454  0.74873612  1
  Fe  Fe68  1  0.12469917  0.37274006  0.87454472  1
  Fe  Fe69  1  0.37661403  0.62476490  0.37321414  1
  Fe  Fe70  1  0.37263691  0.87694064  0.62720254  1
  Fe  Fe71  1  0.37190283  0.87532405  0.87659536  1
  Fe  Fe72  1  0.00103293  0.50018848  0.49986870  1
  Fe  Fe73  1  0.87393656  0.62423835  0.62602112  1
  Fe  Fe74  1  0.74799709  -0.00076255  0.75011304  1
  Fe  Fe75  1  0.00038355  0.49873357  0.00090487  1
  Fe  Fe76  1  0.49856199  0.24768605  0.49927806  1
  Fe  Fe77  1  0.12714390  0.87757649  0.12576938  1
  Fe  Fe78  1  0.37459778  0.12095657  0.62565689  1
  Fe  Fe79  1  0.62021020  0.36986427  0.87614253  1
  Fe  Fe80  1  0.37822863  0.12640049  0.87297876  1
  Fe  Fe81  1  0.37401509  0.12106586  0.12728613  1
  Fe  Fe82  1  0.49728555  0.75083029  0.75099291  1
  Fe  Fe83  1  0.74611883  0.50183304  0.49676452  1
  Fe  Fe84  1  0.87368082  0.87554253  0.62503152  1
  Fe  Fe85  1  0.24858629  0.00082670  0.25473656  1
  Fe  Fe86  1  0.00134010  0.75038237  0.00156953  1
  Fe  Fe87  1  0.74667666  0.50033755  -0.00134459  1
  Fe  Fe88  1  0.87433400  0.62316581  0.12524234  1
  Fe  Fe89  1  0.62175035  0.12678157  0.87350210  1
  Co  Co90  1  0.49838356  0.25049992  0.74542926  1
  Co  Co91  1  0.25569239  0.75037118  0.49873517  1
  Co  Co92  1  0.62233687  0.37298611  0.37544067  1
  Co  Co93  1  0.00178106  0.50073591  0.74811724  1
  Co  Co94  1  0.49883987  -0.00438706  0.24840956  1
  Co  Co95  1  0.62267294  0.12333209  0.37025263  1
  Co  Co96  1  0.87783177  0.12466091  0.37613075  1
  Co  Co97  1  -0.00178554  0.24881512  0.00199577  1
  Co  Co98  1  0.49961533  0.24594935  0.00569923  1
  Co  Co99  1  0.25462380  0.24953528  0.50134503  1
  Co  Co100  1  0.87435079  0.37713259  0.12560744  1
  Co  Co101  1  0.75313761  -0.00293144  0.25448320  1
  Co  Co102  1  0.62197166  0.62902849  0.87396196  1
  Co  Co103  1  0.50349319  0.49865956  -0.00056825  1
  Co  Co104  1  0.24947991  -0.00106874  0.49718477  1
  Co  Co105  1  0.25127742  0.50181972  0.49793099  1
  Co  Co106  1  -0.00135232  0.75015486  0.50172476  1
  Co  Co107  1  0.50093992  -0.00264098  0.75226384  1
  Co  Co108  1  0.25272340  0.74586836  0.75096433  1
  Co  Co109  1  0.37672189  0.62323777  0.62417827  1
  Co  Co110  1  0.75101170  0.75170938  0.74933155  1
  Co  Co111  1  0.75138502  0.25086023  0.25266991  1
  Co  Co112  1  0.37554278  0.12429470  0.37349581  1
  Co  Co113  1  0.24890126  0.00170097  0.75178300  1
  Co  Co114  1  0.37555527  0.62242972  0.12167354  1
  Co  Co115  1  0.12553696  0.87128425  0.37466966  1
  Co  Co116  1  0.12630113  0.12622375  0.12788096  1
  Co  Co117  1  0.37660161  0.37224083  0.87801183  1
  Co  Co118  1  0.36806212  0.88052807  0.12316130  1
  Co  Co119  1  -0.00078608  0.25192631  0.50179248  1
  Co  Co120  1  0.24833459  0.49755089  0.00032227  1
  Co  Co121  1  0.62112698  0.62918480  0.37241645  1
  Co  Co122  1  0.49887643  0.75570356  0.00396496  1
  Co  Co123  1  0.62279321  0.87458956  0.37442312  1
  Co  Co124  1  0.62333670  0.87503456  0.62504692  1
  Co  Co125  1  0.12315897  0.12906384  0.87256573  1
  Co  Co126  1  0.24890797  0.75055320  0.00296400  1
  Co  Co127  1  0.62980384  0.87731855  0.12426203  1
