# generated using pymatgen
data_Fe45Co19
_symmetry_space_group_name_H-M   'P 1'
_cell_length_a   11.41523782
_cell_length_b   11.41538764
_cell_length_c   11.41498912
_cell_angle_alpha   90.01612114
_cell_angle_beta   90.00022006
_cell_angle_gamma   89.99853736
_symmetry_Int_Tables_number   1
_chemical_formula_structural   Fe45Co19
_chemical_formula_sum   'Fe90 Co38'
_cell_volume   1487.47992184
_cell_formula_units_Z   2
loop_
 _symmetry_equiv_pos_site_id
 _symmetry_equiv_pos_as_xyz
  1  'x, y, z'
loop_
 _atom_site_type_symbol
 _atom_site_label
 _atom_site_symmetry_multiplicity
 _atom_site_fract_x
 _atom_site_fract_y
 _atom_site_fract_z
 _atom_site_occupancy
  Fe  Fe0  1  0.00020029  0.24754656  0.24721976  1
  Fe  Fe1  1  0.75024933  0.24928547  -0.00173891  1
  Fe  Fe2  1  0.37464522  0.12415397  0.37490508  1
  Fe  Fe3  1  0.62628941  0.87324633  0.37565427  1
  Fe  Fe4  1  0.24846270  0.50152847  0.49742788  1
  Fe  Fe5  1  0.37578551  0.37595867  0.12413647  1
  Fe  Fe6  1  0.12400545  0.37488983  0.62605843  1
  Fe  Fe7  1  0.12232687  0.62787472  0.37683459  1
  Fe  Fe8  1  0.49808845  0.50250701  0.75266840  1
  Fe  Fe9  1  0.37478373  0.12716443  0.87899242  1
  Fe  Fe10  1  0.37548107  0.87513711  0.37448590  1
  Fe  Fe11  1  0.75495335  0.74879875  0.00163541  1
  Fe  Fe12  1  0.87461424  0.87506532  0.62514177  1
  Fe  Fe13  1  0.50189887  -0.00071052  0.74949504  1
  Fe  Fe14  1  0.37476640  0.37634715  0.37314742  1
  Fe  Fe15  1  0.49788347  0.74990971  0.74822897  1
  Fe  Fe16  1  0.75007369  0.49864446  0.74718552  1
  Fe  Fe17  1  0.12610441  0.87242497  0.62350901  1
  Fe  Fe18  1  0.00118368  0.00246819  0.24668257  1
  Fe  Fe19  1  0.62622845  0.37613598  0.37565409  1
  Fe  Fe20  1  0.37529092  0.37817842  0.62610104  1
  Fe  Fe21  1  0.50107487  0.74928325  0.00195227  1
  Fe  Fe22  1  0.24960802  0.25076543  0.49880724  1
  Fe  Fe23  1  0.12299504  0.62795984  0.87662582  1
  Fe  Fe24  1  0.24659265  0.00047551  0.24926138  1
  Fe  Fe25  1  0.87464134  0.12345408  0.87507601  1
  Fe  Fe26  1  0.62898944  0.62827363  0.12889625  1
  Fe  Fe27  1  0.24769163  -0.00118787  0.49775950  1
  Fe  Fe28  1  0.12513103  0.62762225  0.62262118  1
  Fe  Fe29  1  0.87636789  0.37647834  0.87444057  1
  Fe  Fe30  1  0.49557446  0.74907052  0.49977973  1
  Fe  Fe31  1  0.62787470  0.12426789  0.12479702  1
  Fe  Fe32  1  0.50078743  0.24922633  0.24884400  1
  Fe  Fe33  1  0.24909726  0.49918286  -0.00028453  1
  Fe  Fe34  1  0.62280877  0.37102767  0.87156912  1
  Fe  Fe35  1  -0.00825304  0.75048817  0.25138166  1
  Fe  Fe36  1  0.75078807  0.25404215  0.50390019  1
  Fe  Fe37  1  0.37641960  0.62488542  0.12504753  1
  Fe  Fe38  1  0.50162996  0.50153929  -0.00126570  1
  Fe  Fe39  1  0.75414184  0.75025725  0.49835536  1
  Fe  Fe40  1  0.87453062  0.37943957  0.37804317  1
  Fe  Fe41  1  0.62705923  0.12787727  0.62771396  1
  Fe  Fe42  1  0.87349090  0.12288526  0.37558667  1
  Fe  Fe43  1  0.12224409  0.87324001  0.37452565  1
  Fe  Fe44  1  0.24936341  0.75108112  0.00166976  1
  Fe  Fe45  1  0.37245675  0.12446983  0.12255650  1
  Fe  Fe46  1  0.24918917  -0.00024816  0.75295066  1
  Fe  Fe47  1  -0.00088850  0.50021035  0.25057254  1
  Fe  Fe48  1  0.25139148  0.74874614  0.25131297  1
  Fe  Fe49  1  0.00078036  -0.00014650  0.50116334  1
  Fe  Fe50  1  0.62492731  0.62741281  0.62552521  1
  Fe  Fe51  1  0.37508086  0.87437273  0.12624803  1
  Fe  Fe52  1  0.24831719  0.50172178  0.24913369  1
  Fe  Fe53  1  0.74873424  -0.00111469  -0.00088824  1
  Fe  Fe54  1  0.62496137  0.37480675  0.12425546  1
  Fe  Fe55  1  0.25118913  0.25043436  0.75222659  1
  Fe  Fe56  1  0.00172217  -0.00122289  0.74947864  1
  Fe  Fe57  1  0.75123827  0.25273765  0.24959237  1
  Fe  Fe58  1  0.50223913  -0.00108991  0.24876358  1
  Fe  Fe59  1  0.87692944  0.62341011  0.62422739  1
  Fe  Fe60  1  0.00116801  -0.00074161  0.00249924  1
  Fe  Fe61  1  0.74788104  -0.00175580  0.74926878  1
  Fe  Fe62  1  -0.00005153  0.25087133  0.49941080  1
  Fe  Fe63  1  0.12185901  0.37447023  0.87821638  1
  Fe  Fe64  1  0.00098497  0.50248273  0.75047009  1
  Fe  Fe65  1  0.62759890  0.62737609  0.87359904  1
  Fe  Fe66  1  0.37264440  0.12214642  0.62397524  1
  Fe  Fe67  1  0.87738610  0.37655619  0.12260768  1
  Fe  Fe68  1  0.62621390  0.87207206  0.87447795  1
  Fe  Fe69  1  0.12445886  0.37390417  0.37321416  1
  Fe  Fe70  1  0.25173706  0.74945347  0.74876060  1
  Fe  Fe71  1  0.75051097  0.50087546  -0.00061621  1
  Fe  Fe72  1  0.12571283  0.12558234  0.87972244  1
  Fe  Fe73  1  0.12285778  0.87205433  0.87659052  1
  Fe  Fe74  1  0.12537973  0.12591769  0.62453467  1
  Fe  Fe75  1  0.87466647  0.12512023  0.62555731  1
  Fe  Fe76  1  0.12035734  0.62663488  0.12423098  1
  Fe  Fe77  1  0.62771089  0.12584441  0.37507919  1
  Fe  Fe78  1  -0.00064622  0.24876743  0.75171835  1
  Fe  Fe79  1  0.49943638  0.25023059  0.50080967  1
  Fe  Fe80  1  0.50177016  -0.00002560  0.00007852  1
  Fe  Fe81  1  0.25105590  0.50073881  0.75401840  1
  Fe  Fe82  1  0.37607215  0.87320673  0.87462386  1
  Fe  Fe83  1  0.63003756  0.62596657  0.37122474  1
  Fe  Fe84  1  0.50189188  0.50121563  0.24995458  1
  Fe  Fe85  1  0.24769427  0.24876206  0.24781973  1
  Fe  Fe86  1  0.87581796  0.87253581  0.87329834  1
  Fe  Fe87  1  0.74966717  -0.00385247  0.24927147  1
  Fe  Fe88  1  0.50268177  -0.00045010  0.50172039  1
  Fe  Fe89  1  0.50183917  0.50168508  0.49889719  1
  Co  Co90  1  0.87423351  0.62169819  0.12689397  1
  Co  Co91  1  0.49982559  0.75061816  0.25032368  1
  Co  Co92  1  0.62566586  0.12685709  0.87267815  1
  Co  Co93  1  0.37456831  0.62742800  0.87724969  1
  Co  Co94  1  0.50273208  0.24823680  0.00267232  1
  Co  Co95  1  0.37347570  0.87713398  0.62533603  1
  Co  Co96  1  0.62021257  0.37407830  0.62915563  1
  Co  Co97  1  0.87518207  0.88196558  0.37596985  1
  Co  Co98  1  -0.00452804  0.74859510  0.00028034  1
  Co  Co99  1  0.62551397  0.87099931  0.62398907  1
  Co  Co100  1  0.87157283  0.61870557  0.37564991  1
  Co  Co101  1  0.75410137  0.25189475  0.74949601  1
  Co  Co102  1  0.75237792  0.75023796  0.74827026  1
  Co  Co103  1  0.87395939  0.62454537  0.87197429  1
  Co  Co104  1  0.37850438  0.37360802  0.87664642  1
  Co  Co105  1  -0.00445708  0.75070595  0.49853005  1
  Co  Co106  1  0.12290069  0.87171668  0.12653203  1
  Co  Co107  1  0.87121749  0.12372576  0.12507866  1
  Co  Co108  1  0.25343150  0.74956345  0.49845619  1
  Co  Co109  1  0.87587695  0.87759247  0.12355963  1
  Co  Co110  1  0.24887818  0.25524884  0.00093552  1
  Co  Co111  1  0.12346564  0.12559517  0.37584533  1
  Co  Co112  1  0.75652513  0.75393036  0.25079753  1
  Co  Co113  1  0.74797893  0.00010106  0.50306271  1
  Co  Co114  1  -0.00220382  0.24772967  0.00125924  1
  Co  Co115  1  0.74702440  0.49875365  0.50510187  1
  Co  Co116  1  0.12781437  0.12476289  0.11975650  1
  Co  Co117  1  0.62651964  0.87296001  0.12413185  1
  Co  Co118  1  0.37345793  0.62195471  0.62516780  1
  Co  Co119  1  0.49540315  0.24679579  0.74822942  1
  Co  Co120  1  -0.00108141  0.50341125  -0.00210528  1
  Co  Co121  1  0.00008675  0.74996041  0.74880334  1
  Co  Co122  1  0.88002247  0.37686004  0.62547352  1
  Co  Co123  1  0.12136512  0.37680091  0.12412234  1
  Co  Co124  1  0.37601287  0.62299098  0.37347939  1
  Co  Co125  1  0.24993942  -0.00542625  -0.00080867  1
  Co  Co126  1  0.00346550  0.50046834  0.49951365  1
  Co  Co127  1  0.75033066  0.49685987  0.24781000  1
