# generated using pymatgen
data_Hf11Zr11Ta10(TiMo)11
_symmetry_space_group_name_H-M   'P 1'
_cell_length_a   9.11200442
_cell_length_b   9.12095310
_cell_length_c   12.59239246
_cell_angle_alpha   90.16968186
_cell_angle_beta   90.01232676
_cell_angle_gamma   90.16817474
_symmetry_Int_Tables_number   1
_chemical_formula_structural   Hf11Zr11Ta10(TiMo)11
_chemical_formula_sum   'Hf11 Zr11 Ta10 Ti11 Mo11'
_cell_volume   1046.54669000
_cell_formula_units_Z   1
loop_
 _symmetry_equiv_pos_site_id
 _symmetry_equiv_pos_as_xyz
  1  'x, y, z'
loop_
 _atom_site_type_symbol
 _atom_site_label
 _atom_site_symmetry_multiplicity
 _atom_site_fract_x
 _atom_site_fract_y
 _atom_site_fract_z
 _atom_site_occupancy
  Hf  Hf0  1  0.82111403  0.14302656  0.49039719  1
  Hf  Hf1  1  0.67351959  0.36115834  0.34700251  1
  Hf  Hf2  1  0.50820145  0.81984150  0.81329522  1
  Hf  Hf3  1  -0.00219154  0.35394865  0.64900561  1
  Hf  Hf4  1  0.50501366  0.84722141  0.51403124  1
  Hf  Hf5  1  0.16444622  0.17681036  0.82813936  1
  Hf  Hf6  1  0.17211376  0.49108013  0.16310662  1
  Hf  Hf7  1  0.51502010  0.16829930  0.18474006  1
  Hf  Hf8  1  0.81785119  0.83554740  0.16671031  1
  Hf  Hf9  1  -0.00202621  0.66667270  0.00192445  1
  Hf  Hf10  1  0.18835270  0.16041749  0.49048887  1
  Zr  Zr11  1  -0.01344262  0.66393266  0.33989138  1
  Zr  Zr12  1  0.18251101  0.14006481  0.19048314  1
  Zr  Zr13  1  0.01496361  0.34926743  0.35331758  1
  Zr  Zr14  1  0.64918068  0.33172794  0.65010797  1
  Zr  Zr15  1  0.34063670  -0.00793220  -0.00253967  1
  Zr  Zr16  1  0.83837343  0.17437701  0.17599482  1
  Zr  Zr17  1  0.82942246  0.83277249  0.81579260  1
  Zr  Zr18  1  0.00019389  0.00299563  0.00140684  1
  Zr  Zr19  1  0.32270432  0.66598253  0.34461048  1
  Zr  Zr20  1  0.16958936  0.83418504  0.81281525  1
  Zr  Zr21  1  0.35770412  0.34283977  -0.00718964  1
  Ta  Ta22  1  0.51819468  0.16947261  0.83110324  1
  Ta  Ta23  1  0.64791033  0.65229925  -0.00291687  1
  Ta  Ta24  1  0.33370070  0.67024078  -0.00060979  1
  Ta  Ta25  1  0.50982478  0.50909348  0.17299169  1
  Ta  Ta26  1  0.48613964  0.83540712  0.17426916  1
  Ta  Ta27  1  0.83006329  0.17164427  0.82585450  1
  Ta  Ta28  1  0.81008539  0.49824258  0.82960804  1
  Ta  Ta29  1  0.83058569  0.82112984  0.52479294  1
  Ta  Ta30  1  0.15881740  0.50881844  0.82913722  1
  Ta  Ta31  1  0.00084305  0.01232763  0.65871794  1
  Ti  Ti32  1  -0.01302257  0.33799243  -0.00767731  1
  Ti  Ti33  1  0.00579430  -0.02863278  0.34269398  1
  Ti  Ti34  1  0.48755792  0.50200651  0.49831795  1
  Ti  Ti35  1  0.66427339  0.00560006  -0.00389814  1
  Ti  Ti36  1  0.34569013  0.02188733  0.66641742  1
  Ti  Ti37  1  0.16548349  0.82760024  0.52007877  1
  Ti  Ti38  1  0.81994121  0.49440609  0.15611848  1
  Ti  Ti39  1  0.33317099  0.33751834  0.67045767  1
  Ti  Ti40  1  0.66537089  0.68388978  0.34227887  1
  Ti  Ti41  1  0.49533684  0.16028377  0.47288940  1
  Ti  Ti42  1  0.33136423  0.64488700  0.66176623  1
  Mo  Mo43  1  0.67901061  0.33432673  -0.00639856  1
  Mo  Mo44  1  0.00584370  0.66408804  0.66209936  1
  Mo  Mo45  1  0.17808709  0.50718767  0.51588410  1
  Mo  Mo46  1  0.66409617  0.01012204  0.66912392  1
  Mo  Mo47  1  0.17288934  0.82042967  0.16835158  1
  Mo  Mo48  1  0.66153926  0.65027889  0.65950592  1
  Mo  Mo49  1  0.67074016  -0.02064660  0.33473972  1
  Mo  Mo50  1  0.33186612  -0.01532092  0.33924473  1
  Mo  Mo51  1  0.48957526  0.49874525  0.82858798  1
  Mo  Mo52  1  0.34904134  0.34227263  0.33540907  1
  Mo  Mo53  1  0.81693326  0.51816485  0.50752861  1
