# generated using pymatgen
data_In5(CuSe4)2
_symmetry_space_group_name_H-M   'P 1'
_cell_length_a   5.97017144
_cell_length_b   5.97017144
_cell_length_c   11.97635358
_cell_angle_alpha   90.00000076
_cell_angle_beta   90.00000003
_cell_angle_gamma   89.99999932
_symmetry_Int_Tables_number   1
_chemical_formula_structural   In5(CuSe4)2
_chemical_formula_sum   'In5 Cu2 Se8'
_cell_volume   426.87253596
_cell_formula_units_Z   1
loop_
 _symmetry_equiv_pos_site_id
 _symmetry_equiv_pos_as_xyz
  1  'x, y, z'
loop_
 _atom_site_type_symbol
 _atom_site_label
 _atom_site_symmetry_multiplicity
 _atom_site_fract_x
 _atom_site_fract_y
 _atom_site_fract_z
 _atom_site_occupancy
  In  In0  1  -0.00000005  0.50000005  0.27038248  1
  In  In1  1  0.49999996  0.00000002  0.72961753  1
  In  In2  1  0.00000007  0.50000008  0.72961748  1
  In  In3  1  0.50000014  -0.00000017  0.27038248  1
  In  In4  1  0.50000005  0.49999992  -0.00000003  1
  Cu  Cu5  1  -0.00000001  0.00000004  0.00000001  1
  Cu  Cu6  1  0.50000000  0.50000002  0.50000000  1
  Se  Se7  1  0.23240279  0.23240286  0.12163417  1
  Se  Se8  1  0.76759713  0.76759724  0.12163427  1
  Se  Se9  1  0.23240280  0.76759718  0.87836582  1
  Se  Se10  1  0.76759706  0.23240282  0.87836588  1
  Se  Se11  1  0.74986686  0.74986678  0.60358921  1
  Se  Se12  1  0.25013319  0.25013317  0.60358922  1
  Se  Se13  1  0.74986682  0.25013316  0.39641077  1
  Se  Se14  1  0.25013320  0.74986684  0.39641073  1
