# generated using pymatgen
data_La12Ce14Pr13Nd13Sm12(BiS2)64
_symmetry_space_group_name_H-M   'P 1'
_cell_length_a   16.13410552
_cell_length_b   16.09865678
_cell_length_c   27.04386729
_cell_angle_alpha   90.27763937
_cell_angle_beta   90.17954083
_cell_angle_gamma   90.03701160
_symmetry_Int_Tables_number   1
_chemical_formula_structural   La12Ce14Pr13Nd13Sm12(BiS2)64
_chemical_formula_sum   'La12 Ce14 Pr13 Nd13 Sm12 Bi64 S128'
_cell_volume   7024.18602103
_cell_formula_units_Z   1
loop_
 _symmetry_equiv_pos_site_id
 _symmetry_equiv_pos_as_xyz
  1  'x, y, z'
loop_
 _atom_type_symbol
 _atom_type_oxidation_number
  La3+  3.0
  Ce3+  3.0
  Pr3+  3.0
  Nd3+  3.0
  Sm3+  3.0
  Bi2+  2.0
  S2-  -2.0
loop_
 _atom_site_type_symbol
 _atom_site_label
 _atom_site_symmetry_multiplicity
 _atom_site_fract_x
 _atom_site_fract_y
 _atom_site_fract_z
 _atom_site_occupancy
  La3+  La0  1  0.86080845  0.26392832  0.41535756  1
  La3+  La1  1  -0.00064709  0.61194806  0.08095120  1
  La3+  La2  1  -0.00212147  0.88485507  0.57769804  1
  La3+  La3  1  0.00077057  0.85885728  0.07281607  1
  La3+  La4  1  0.74864766  0.86795074  0.04419103  1
  La3+  La5  1  0.23259435  0.61482573  0.59612420  1
  La3+  La6  1  0.24310052  0.12904779  0.56389246  1
  La3+  La7  1  0.61616761  0.00093769  0.91179235  1
  La3+  La8  1  0.88604125  -0.01249516  0.90552985  1
  La3+  La9  1  0.62516442  0.73229785  0.92597193  1
  La3+  La10  1  0.75058079  0.10908363  0.06587036  1
  La3+  La11  1  0.37077013  0.73332949  0.91389892  1
  Ce3+  Ce12  1  0.74222852  0.62903014  0.55912353  1
  Ce3+  Ce13  1  0.24220835  0.87623915  0.56267430  1
  Ce3+  Ce14  1  0.61490317  0.75769709  0.45144666  1
  Ce3+  Ce15  1  0.36827855  0.50703282  0.44468485  1
  Ce3+  Ce16  1  0.11774157  0.24784289  0.43296499  1
  Ce3+  Ce17  1  0.11943169  0.73781222  0.93841855  1
  Ce3+  Ce18  1  0.36574588  0.74865596  0.46098667  1
  Ce3+  Ce19  1  -0.01088487  0.62876165  0.56733478  1
  Ce3+  Ce20  1  0.12087756  -0.01396784  0.94847245  1
  Ce3+  Ce21  1  0.12215779  0.48772863  0.94537357  1
  Ce3+  Ce22  1  -0.00432260  0.36446694  0.07926290  1
  Ce3+  Ce23  1  0.62689663  -0.01026008  0.42247695  1
  Ce3+  Ce24  1  0.87703046  0.72651526  0.93771448  1
  Ce3+  Ce25  1  0.87330075  0.23474536  0.94010012  1
  Pr3+  Pr26  1  0.50206330  0.10424064  0.09640458  1
  Pr3+  Pr27  1  0.87310838  0.48490959  0.94714506  1
  Pr3+  Pr28  1  0.49286423  0.37343858  0.56217173  1
  Pr3+  Pr29  1  0.24411391  0.37495980  0.55826811  1
  Pr3+  Pr30  1  0.74540115  0.61625531  0.07054024  1
  Pr3+  Pr31  1  0.12177412  0.23701244  0.94115586  1
  Pr3+  Pr32  1  0.49686652  0.62070976  0.58223668  1
  Pr3+  Pr33  1  0.74405586  0.89187860  0.57309814  1
  Pr3+  Pr34  1  0.62292562  0.48439969  0.93753200  1
  Pr3+  Pr35  1  0.74802296  0.36120449  0.06927180  1
  Pr3+  Pr36  1  0.49600604  0.36808182  0.10140698  1
  Pr3+  Pr37  1  -0.00172349  0.11328911  0.07075257  1
  Pr3+  Pr38  1  0.49821406  0.61332735  0.06087718  1
  Nd3+  Nd39  1  0.60963756  0.24392746  0.41861040  1
  Nd3+  Nd40  1  0.36740209  -0.00171035  0.43590877  1
  Nd3+  Nd41  1  0.37450119  -0.00950493  0.93336793  1
  Nd3+  Nd42  1  0.62144446  0.23597679  0.94884045  1
  Nd3+  Nd43  1  0.25222689  0.36349952  0.06405915  1
  Nd3+  Nd44  1  0.49587980  0.12908941  0.55915494  1
  Nd3+  Nd45  1  0.11874881  0.50266558  0.44073479  1
  Nd3+  Nd46  1  0.49387799  0.88668435  0.57542166  1
  Nd3+  Nd47  1  0.36859942  0.24623682  0.42393557  1
  Nd3+  Nd48  1  0.74234776  0.37485464  0.55321299  1
  Nd3+  Nd49  1  0.25285532  0.11524081  0.06385200  1
  Nd3+  Nd50  1  0.60769518  0.50464596  0.43397893  1
  Nd3+  Nd51  1  0.36975453  0.48494155  0.93068645  1
  Sm3+  Sm52  1  0.74429935  0.12634600  0.54495943  1
  Sm3+  Sm53  1  0.11650377  0.74833288  0.45106472  1
  Sm3+  Sm54  1  0.11160654  -0.00196937  0.43721352  1
  Sm3+  Sm55  1  0.86392899  0.50468985  0.43717564  1
  Sm3+  Sm56  1  0.25456756  0.86302887  0.05119664  1
  Sm3+  Sm57  1  -0.00985701  0.37444055  0.55078462  1
  Sm3+  Sm58  1  0.49945939  0.86816054  0.04881411  1
  Sm3+  Sm59  1  0.86876175  0.75246811  0.44885536  1
  Sm3+  Sm60  1  0.37526759  0.23744180  0.94941831  1
  Sm3+  Sm61  1  -0.00351032  0.13013022  0.56262157  1
  Sm3+  Sm62  1  0.87300197  0.00043369  0.42940813  1
  Sm3+  Sm63  1  0.25362165  0.61419569  0.05502017  1
  Bi2+  Bi64  1  0.02584261  0.09776299  0.28992618  1
  Bi2+  Bi65  1  -0.00877159  0.18870242  0.77726617  1
  Bi2+  Bi66  1  0.11536082  0.39355448  0.22615808  1
  Bi2+  Bi67  1  -0.10282857  0.39140142  0.82755243  1
  Bi2+  Bi68  1  -0.01226353  0.64709662  0.31316400  1
  Bi2+  Bi69  1  0.01085362  0.59487391  0.74291496  1
  Bi2+  Bi70  1  0.10718770  0.88917413  0.28872473  1
  Bi2+  Bi71  1  0.01825450  0.85369627  0.79961108  1
  Bi2+  Bi72  1  0.22095776  0.13846147  0.29619037  1
  Bi2+  Bi73  1  0.24880402  0.13877872  0.78621643  1
  Bi2+  Bi74  1  0.27562189  0.39974200  0.29367420  1
  Bi2+  Bi75  1  0.27890990  0.34928451  0.79646760  1
  Bi2+  Bi76  1  0.25174272  0.59349978  0.31211954  1
  Bi2+  Bi77  1  0.23485546  0.60925891  0.78986150  1
  Bi2+  Bi78  1  0.29407933  0.90832642  0.31756784  1
  Bi2+  Bi79  1  0.24709657  0.94615637  0.76503348  1
  Bi2+  Bi80  1  0.48012871  0.15207153  0.28224342  1
  Bi2+  Bi81  1  0.51006200  0.20985519  0.78006656  1
  Bi2+  Bi82  1  0.53468197  0.42039802  0.29148118  1
  Bi2+  Bi83  1  0.50047831  0.40594741  0.80308669  1
  Bi2+  Bi84  1  0.47169761  0.65870413  0.29774977  1
  Bi2+  Bi85  1  0.50773156  0.64450609  0.79094888  1
  Bi2+  Bi86  1  0.48649881  0.88458520  0.29725214  1
  Bi2+  Bi87  1  0.51276029  0.90874334  0.78013360  1
  Bi2+  Bi88  1  0.74668158  0.11686996  0.30054734  1
  Bi2+  Bi89  1  0.74398767  0.18751437  0.78365464  1
  Bi2+  Bi90  1  0.83110510  0.35278769  0.27163300  1
  Bi2+  Bi91  1  0.69880397  0.37438137  0.82195028  1
  Bi2+  Bi92  1  0.72396527  0.66167215  0.30247809  1
  Bi2+  Bi93  1  0.76568222  0.55893591  0.79215293  1
  Bi2+  Bi94  1  0.71931345  0.82961666  0.24251232  1
  Bi2+  Bi95  1  0.75481933  0.83774027  0.78945325  1
  Bi2+  Bi96  1  0.12933731  0.03011263  0.20258394  1
  Bi2+  Bi97  1  0.09260367  0.04862844  0.71922697  1
  Bi2+  Bi98  1  0.13541744  0.22330815  0.16229720  1
  Bi2+  Bi99  1  0.16169115  0.30442876  0.68803042  1
  Bi2+  Bi100  1  0.12135337  0.60557444  0.21271863  1
  Bi2+  Bi101  1  0.07311739  0.41120114  0.77355220  1
  Bi2+  Bi102  1  0.25883679  0.76476590  0.23065700  1
  Bi2+  Bi103  1  0.12117391  0.78476468  0.71245230  1
  Bi2+  Bi104  1  0.33242599  -0.01423290  0.21340065  1
  Bi2+  Bi105  1  0.34897943  0.06635915  0.69533655  1
  Bi2+  Bi106  1  0.31874654  0.25348501  0.22030449  1
  Bi2+  Bi107  1  0.36134046  0.24943642  0.65105949  1
  Bi2+  Bi108  1  0.37267236  0.51662074  0.21739057  1
  Bi2+  Bi109  1  0.37430721  0.43107237  0.71279500  1
  Bi2+  Bi110  1  0.45518124  0.76197574  0.20227087  1
  Bi2+  Bi111  1  0.36984438  0.79779760  0.71148148  1
  Bi2+  Bi112  1  0.59227986  -0.01340755  0.21955799  1
  Bi2+  Bi113  1  0.62147992  0.08682559  0.70968249  1
  Bi2+  Bi114  1  0.64269714  0.24502816  0.21647222  1
  Bi2+  Bi115  1  0.55886705  0.25574500  0.67030470  1
  Bi2+  Bi116  1  0.67023372  0.50966062  0.22783898  1
  Bi2+  Bi117  1  0.62970442  0.43894547  0.71570450  1
  Bi2+  Bi118  1  0.62871439  0.68379244  0.18067821  1
  Bi2+  Bi119  1  0.62248731  0.71445162  0.70125081  1
  Bi2+  Bi120  1  0.84182404  -0.00740190  0.20970126  1
  Bi2+  Bi121  1  0.84788674  -0.01029426  0.70413681  1
  Bi2+  Bi122  1  0.95262632  0.24557316  0.20460104  1
  Bi2+  Bi123  1  0.86338379  0.24161740  0.69880576  1
  Bi2+  Bi124  1  0.86696300  0.55483927  0.24390979  1
  Bi2+  Bi125  1  0.89438952  0.43982891  0.71114375  1
  Bi2+  Bi126  1  0.91393229  0.76895814  0.20809353  1
  Bi2+  Bi127  1  0.85569335  0.70027023  0.70573852  1
  S2-  S128  1  -0.12577294  0.11585835  0.14591516  1
  S2-  S129  1  -0.03336887  0.02415452  0.64269157  1
  S2-  S130  1  0.03659053  0.48236156  0.15398406  1
  S2-  S131  1  0.00171244  0.33841473  0.64755345  1
  S2-  S132  1  0.04251023  0.73562684  0.15284788  1
  S2-  S133  1  0.07454862  0.60266813  0.65068844  1
  S2-  S134  1  -0.02410584  0.92522728  0.17006751  1
  S2-  S135  1  -0.03299378  0.80221343  0.66908093  1
  S2-  S136  1  0.34419615  0.10593526  0.14911641  1
  S2-  S137  1  0.12727815  0.15007592  0.64178037  1
  S2-  S138  1  0.33600411  0.37901797  0.15176158  1
  S2-  S139  1  0.23908128  0.45630491  0.65054088  1
  S2-  S140  1  0.25706219  0.60822922  0.15463005  1
  S2-  S141  1  0.26327729  0.67642261  0.69343451  1
  S2-  S142  1  0.25441022  0.86371166  0.15087988  1
  S2-  S143  1  0.15881929  0.90098983  0.64657346  1
  S2-  S144  1  0.49839676  0.23491595  0.17184629  1
  S2-  S145  1  0.49458977  0.02983897  0.64252063  1
  S2-  S146  1  0.65196024  0.37756094  0.15602929  1
  S2-  S147  1  0.50974020  0.47458745  0.64579180  1
  S2-  S148  1  0.48892793  0.52664862  0.14920068  1
  S2-  S149  1  0.46964382  0.65600472  0.68631719  1
  S2-  S150  1  0.50371922  0.94029510  0.14022848  1
  S2-  S151  1  0.53314680  0.84585653  0.67535465  1
  S2-  S152  1  0.65605630  0.10420277  0.15491591  1
  S2-  S153  1  0.73198253  0.04435039  0.63325489  1
  S2-  S154  1  0.86810753  0.35402063  0.14833135  1
  S2-  S155  1  0.75550182  0.35917063  0.65353405  1
  S2-  S156  1  0.85487983  0.63211830  0.15286168  1
  S2-  S157  1  0.73275182  0.59968682  0.65518974  1
  S2-  S158  1  0.75163259  0.88808352  0.14636546  1
  S2-  S159  1  0.75505374  0.84274842  0.67532542  1
  S2-  S160  1  0.00115850  -0.02677137  0.36079473  1
  S2-  S161  1  0.05546817  -0.01708553  0.85852692  1
  S2-  S162  1  0.11513018  0.25609342  0.33471590  1
  S2-  S163  1  0.11885940  0.21960198  0.84033375  1
  S2-  S164  1  0.10516567  0.52100108  0.34125744  1
  S2-  S165  1  0.18260886  0.47784301  0.85191343  1
  S2-  S166  1  0.10489392  0.75327979  0.35154250  1
  S2-  S167  1  0.15297348  0.72425794  0.83976451  1
  S2-  S168  1  0.36503288  0.11074311  0.35553131  1
  S2-  S169  1  0.46498672  0.00585289  0.84878937  1
  S2-  S170  1  0.48503680  0.28653121  0.34714987  1
  S2-  S171  1  0.36470459  0.23016343  0.84883579  1
  S2-  S172  1  0.46884107  0.52225631  0.36375276  1
  S2-  S173  1  0.37499023  0.58956253  0.84765204  1
  S2-  S174  1  0.35609978  0.71491367  0.36360423  1
  S2-  S175  1  0.39085698  0.79412243  0.81753689  1
  S2-  S176  1  0.59019545  0.09917953  0.34607108  1
  S2-  S177  1  0.66880555  -0.03055373  0.81245865  1
  S2-  S178  1  0.72035179  0.27689445  0.34091030  1
  S2-  S179  1  0.61926688  0.16494775  0.85515851  1
  S2-  S180  1  0.67145312  0.50531273  0.33854828  1
  S2-  S181  1  0.63138091  0.59034097  0.85514540  1
  S2-  S182  1  0.60289751  0.83831462  0.36466638  1
  S2-  S183  1  0.60309056  0.77847620  0.82672655  1
  S2-  S184  1  0.76953320  -0.02023503  0.34941903  1
  S2-  S185  1  0.87766466  -0.04337288  0.79850373  1
  S2-  S186  1  0.89977009  0.17704926  0.33019723  1
  S2-  S187  1  0.87539269  0.14665621  0.85423664  1
  S2-  S188  1  0.89020942  0.42877033  0.34864301  1
  S2-  S189  1  0.88863667  0.57399830  0.86006325  1
  S2-  S190  1  0.86391545  0.74301711  0.34928847  1
  S2-  S191  1  0.89063090  0.77546767  0.84358561  1
  S2-  S192  1  -0.00714717  0.12871002  0.45277817  1
  S2-  S193  1  -0.00063902  0.11185225  0.96103813  1
  S2-  S194  1  -0.00617660  0.37742615  0.44745663  1
  S2-  S195  1  0.00041609  0.36235314  0.96014709  1
  S2-  S196  1  -0.00956678  0.62494580  0.45818672  1
  S2-  S197  1  0.00372210  0.61183027  0.96508068  1
  S2-  S198  1  -0.00608880  0.87023653  0.46469527  1
  S2-  S199  1  -0.00290525  0.85967962  0.95840203  1
  S2-  S200  1  0.23696686  0.12119473  0.45273206  1
  S2-  S201  1  0.24841059  0.11285197  0.95455046  1
  S2-  S202  1  0.24473648  0.37585584  0.44692072  1
  S2-  S203  1  0.24879547  0.36068275  0.95595050  1
  S2-  S204  1  0.23931409  0.62583895  0.46536390  1
  S2-  S205  1  0.24727711  0.61432151  0.95142295  1
  S2-  S206  1  0.23744070  0.87531978  0.45607896  1
  S2-  S207  1  0.24951487  0.86265841  0.94445887  1
  S2-  S208  1  0.49120350  0.12195510  0.45438693  1
  S2-  S209  1  0.49320955  0.11603506  0.95624116  1
  S2-  S210  1  0.48937101  0.37609241  0.45561898  1
  S2-  S211  1  0.49580737  0.36108644  0.94399083  1
  S2-  S212  1  0.49419776  0.63185332  0.47133596  1
  S2-  S213  1  0.49439457  0.61155002  0.95299587  1
  S2-  S214  1  0.48498278  0.87571350  0.46602903  1
  S2-  S215  1  0.49619869  0.85985940  0.94419443  1
  S2-  S216  1  0.74702736  0.12710437  0.44309766  1
  S2-  S217  1  0.75059755  0.10885095  0.95488841  1
  S2-  S218  1  0.73739407  0.38443699  0.44861592  1
  S2-  S219  1  0.74762031  0.35969148  0.95919110  1
  S2-  S220  1  0.74143347  0.62925449  0.45201510  1
  S2-  S221  1  0.74795353  0.61099891  0.96216032  1
  S2-  S222  1  0.74909304  0.87348329  0.46264643  1
  S2-  S223  1  0.75166452  0.86585468  0.93624403  1
  S2-  S224  1  0.12834681  -0.01265222  0.05452126  1
  S2-  S225  1  0.11835848  0.00578921  0.54056173  1
  S2-  S226  1  0.12366088  0.24107941  0.04793951  1
  S2-  S227  1  0.11638293  0.25514320  0.53816125  1
  S2-  S228  1  0.13084044  0.48912220  0.04985553  1
  S2-  S229  1  0.11283258  0.49635050  0.54608670  1
  S2-  S230  1  0.13295090  0.73847695  0.04432406  1
  S2-  S231  1  0.11970222  0.74755286  0.55563553  1
  S2-  S232  1  0.37287688  -0.01180830  0.03982078  1
  S2-  S233  1  0.36372362  0.00134220  0.54390200  1
  S2-  S234  1  0.37849662  0.24029277  0.05212896  1
  S2-  S235  1  0.36816371  0.24987775  0.53237416  1
  S2-  S236  1  0.37325185  0.48731986  0.03868293  1
  S2-  S237  1  0.36661290  0.50419290  0.55070268  1
  S2-  S238  1  0.37571735  0.74057054  0.04190744  1
  S2-  S239  1  0.36775886  0.75075873  0.56783319  1
  S2-  S240  1  0.62017863  -0.01056193  0.03480989  1
  S2-  S241  1  0.61645975  0.00359281  0.53466938  1
  S2-  S242  1  0.61825479  0.23812467  0.05357483  1
  S2-  S243  1  0.62058154  0.24952832  0.53509020  1
  S2-  S244  1  0.62323627  0.48859596  0.04586625  1
  S2-  S245  1  0.62128532  0.50086435  0.54320047  1
  S2-  S246  1  0.62055853  0.74068540  0.03977871  1
  S2-  S247  1  0.61839044  0.75744308  0.55874835  1
  S2-  S248  1  0.88052336  -0.01504310  0.04371415  1
  S2-  S249  1  0.87116667  0.00780669  0.53579909  1
  S2-  S250  1  0.87621073  0.23813437  0.04412147  1
  S2-  S251  1  0.86798373  0.24988462  0.53824461  1
  S2-  S252  1  0.87065104  0.49062227  0.05214079  1
  S2-  S253  1  0.86776748  0.50009411  0.54515101  1
  S2-  S254  1  0.87239294  0.73890107  0.04629126  1
  S2-  S255  1  0.86504171  0.75575872  0.55425237  1
