# generated using pymatgen
data_La12Ce14Pr13Nd13Sm12(BiS2)64
_symmetry_space_group_name_H-M   'P 1'
_cell_length_a   16.09094960
_cell_length_b   16.09714692
_cell_length_c   27.46996016
_cell_angle_alpha   90.09943721
_cell_angle_beta   89.81105698
_cell_angle_gamma   89.94779841
_symmetry_Int_Tables_number   1
_chemical_formula_structural   La12Ce14Pr13Nd13Sm12(BiS2)64
_chemical_formula_sum   'La12 Ce14 Pr13 Nd13 Sm12 Bi64 S128'
_cell_volume   7115.17217591
_cell_formula_units_Z   1
loop_
 _symmetry_equiv_pos_site_id
 _symmetry_equiv_pos_as_xyz
  1  'x, y, z'
loop_
 _atom_type_symbol
 _atom_type_oxidation_number
  La3+  3.0
  Ce3+  3.0
  Pr3+  3.0
  Nd3+  3.0
  Sm3+  3.0
  Bi2+  2.0
  S2-  -2.0
loop_
 _atom_site_type_symbol
 _atom_site_label
 _atom_site_symmetry_multiplicity
 _atom_site_fract_x
 _atom_site_fract_y
 _atom_site_fract_z
 _atom_site_occupancy
  La3+  La0  1  0.27318694  0.13129197  0.56360408  1
  La3+  La1  1  0.90546182  0.00704258  0.43136849  1
  La3+  La2  1  0.90332705  0.50581676  0.43651844  1
  La3+  La3  1  0.87190321  0.24606070  0.93129937  1
  La3+  La4  1  0.48046948  0.63328412  0.10411124  1
  La3+  La5  1  0.61590917  0.00533253  0.92424031  1
  La3+  La6  1  0.36175835  0.24367741  0.92483236  1
  La3+  La7  1  -0.01356057  0.10822596  0.10770318  1
  La3+  La8  1  0.77449039  0.63019184  0.56896544  1
  La3+  La9  1  0.49202459  0.37203920  0.06336296  1
  La3+  La10  1  0.27336667  0.63666145  0.57168485  1
  La3+  La11  1  -0.00539828  0.37155242  0.06044863  1
  Ce3+  Ce12  1  0.86963469  -0.00124167  0.93436730  1
  Ce3+  Ce13  1  0.02290911  0.37458970  0.57254512  1
  Ce3+  Ce14  1  0.27311339  0.38035704  0.55793604  1
  Ce3+  Ce15  1  0.52651751  0.38185652  0.55645811  1
  Ce3+  Ce16  1  0.74065223  0.61898473  0.05679418  1
  Ce3+  Ce17  1  0.61643982  0.25731505  0.93387401  1
  Ce3+  Ce18  1  0.52088610  0.63490781  0.56253881  1
  Ce3+  Ce19  1  0.74247009  0.87347825  0.04864040  1
  Ce3+  Ce20  1  0.61942571  0.73914686  0.94183479  1
  Ce3+  Ce21  1  0.40515123  0.75601635  0.43245938  1
  Ce3+  Ce22  1  0.86955526  0.50197939  0.89213386  1
  Ce3+  Ce23  1  0.49628856  0.87269229  0.05509336  1
  Ce3+  Ce24  1  0.86689265  0.74264643  0.93904306  1
  Ce3+  Ce25  1  0.74675451  0.37124793  0.05185589  1
  Pr3+  Pr26  1  0.11937791  0.24436449  0.94492986  1
  Pr3+  Pr27  1  0.77554616  0.38462612  0.57454980  1
  Pr3+  Pr28  1  0.02402104  0.63201753  0.57100163  1
  Pr3+  Pr29  1  0.11419157  0.74439070  0.94231975  1
  Pr3+  Pr30  1  0.77502219  0.88182918  0.55617101  1
  Pr3+  Pr31  1  0.15166696  0.01334782  0.42438516  1
  Pr3+  Pr32  1  0.65046112  0.75399179  0.42885412  1
  Pr3+  Pr33  1  0.37125579  0.74255756  0.93329069  1
  Pr3+  Pr34  1  0.52607693  0.14190987  0.57355624  1
  Pr3+  Pr35  1  0.02218095  0.12846084  0.57335561  1
  Pr3+  Pr36  1  0.15292915  0.75205946  0.42812899  1
  Pr3+  Pr37  1  0.27542202  0.88468577  0.54749308  1
  Pr3+  Pr38  1  0.49457356  0.12517884  0.06574305  1
  Nd3+  Nd39  1  0.40460891  0.00994461  0.44141191  1
  Nd3+  Nd40  1  0.02845085  0.88510754  0.56086993  1
  Nd3+  Nd41  1  0.12029862  0.49602545  0.93056362  1
  Nd3+  Nd42  1  0.65269838  0.25311093  0.43713282  1
  Nd3+  Nd43  1  0.11705546  -0.00559445  0.94170383  1
  Nd3+  Nd44  1  0.15008657  0.25651887  0.43693602  1
  Nd3+  Nd45  1  0.65460079  0.50602149  0.43162720  1
  Nd3+  Nd46  1  0.77636536  0.13684164  0.57110613  1
  Nd3+  Nd47  1  0.90114585  0.75445992  0.43406346  1
  Nd3+  Nd48  1  0.37023123  -0.00394900  0.94780448  1
  Nd3+  Nd49  1  0.36739715  0.50115428  0.93072690  1
  Nd3+  Nd50  1  0.14862102  0.50555034  0.44369581  1
  Nd3+  Nd51  1  -0.00775925  0.62072082  0.06014020  1
  Sm3+  Sm52  1  0.24552217  0.37417617  0.05715250  1
  Sm3+  Sm53  1  0.89988015  0.25617033  0.44552117  1
  Sm3+  Sm54  1  0.61793974  0.49699013  0.93928327  1
  Sm3+  Sm55  1  -0.00857685  0.87400793  0.05740184  1
  Sm3+  Sm56  1  0.65093592  0.01190617  0.44864621  1
  Sm3+  Sm57  1  0.40402209  0.25856813  0.44058148  1
  Sm3+  Sm58  1  0.24303925  0.87043090  0.05262884  1
  Sm3+  Sm59  1  0.23966826  0.12129246  0.06395692  1
  Sm3+  Sm60  1  0.24500632  0.62179305  0.05786760  1
  Sm3+  Sm61  1  0.74645538  0.12187685  0.05564559  1
  Sm3+  Sm62  1  0.52541534  0.88536834  0.55998318  1
  Sm3+  Sm63  1  0.39979729  0.51002172  0.44347100  1
  Bi2+  Bi64  1  -0.01285366  0.12674564  0.31135426  1
  Bi2+  Bi65  1  0.01679071  0.10210113  0.79051438  1
  Bi2+  Bi66  1  0.04533983  0.38028578  0.28393635  1
  Bi2+  Bi67  1  -0.00470894  0.38163510  0.77666237  1
  Bi2+  Bi68  1  -0.03593952  0.58957825  0.30050634  1
  Bi2+  Bi69  1  0.01774691  0.64669658  0.78398928  1
  Bi2+  Bi70  1  0.01244834  0.84803002  0.28361598  1
  Bi2+  Bi71  1  0.05701698  0.88639275  0.81162048  1
  Bi2+  Bi72  1  0.24068263  0.02945118  0.29290435  1
  Bi2+  Bi73  1  0.28434203  0.13242720  0.80059369  1
  Bi2+  Bi74  1  0.23390325  0.42357770  0.31142264  1
  Bi2+  Bi75  1  0.25226056  0.40387951  0.75543923  1
  Bi2+  Bi76  1  0.17311373  0.60257175  0.27118840  1
  Bi2+  Bi77  1  0.24638608  0.60758605  0.79783729  1
  Bi2+  Bi78  1  0.21538120  0.83388330  0.30409707  1
  Bi2+  Bi79  1  0.31965323  0.86987501  0.79122914  1
  Bi2+  Bi80  1  0.49721562  0.15167446  0.30030597  1
  Bi2+  Bi81  1  0.51736372  0.08592198  0.79714996  1
  Bi2+  Bi82  1  0.42523019  0.36543515  0.27136364  1
  Bi2+  Bi83  1  0.53363836  0.36689781  0.73334524  1
  Bi2+  Bi84  1  0.45418425  0.64095347  0.30706388  1
  Bi2+  Bi85  1  0.51742364  0.53569890  0.81384864  1
  Bi2+  Bi86  1  0.47955177  0.89326947  0.28319520  1
  Bi2+  Bi87  1  0.48159634  0.78633926  0.75607657  1
  Bi2+  Bi88  1  0.74801588  0.17367015  0.31579389  1
  Bi2+  Bi89  1  0.77023729  0.17845567  0.79226048  1
  Bi2+  Bi90  1  0.69549300  0.35397845  0.25509722  1
  Bi2+  Bi91  1  0.71775539  0.36746413  0.78308701  1
  Bi2+  Bi92  1  0.73664535  0.62928038  0.29176250  1
  Bi2+  Bi93  1  0.74659374  0.71851715  0.79497055  1
  Bi2+  Bi94  1  0.66804060  0.95049175  0.26767519  1
  Bi2+  Bi95  1  0.85784098  0.88258247  0.81956346  1
  Bi2+  Bi96  1  0.12029637  -0.01194839  0.20724642  1
  Bi2+  Bi97  1  0.17783926  -0.03227254  0.70888446  1
  Bi2+  Bi98  1  0.18681474  0.25054887  0.26397112  1
  Bi2+  Bi99  1  0.13290329  0.24607677  0.75933410  1
  Bi2+  Bi100  1  0.08980425  0.48700698  0.19097612  1
  Bi2+  Bi101  1  0.10449536  0.51683254  0.71305569  1
  Bi2+  Bi102  1  0.12453139  0.75540905  0.20852787  1
  Bi2+  Bi103  1  0.06533086  0.80804930  0.70664069  1
  Bi2+  Bi104  1  0.37090018  0.03284644  0.20464827  1
  Bi2+  Bi105  1  0.40832242  -0.03798750  0.69662828  1
  Bi2+  Bi106  1  0.35040100  0.22643979  0.20317440  1
  Bi2+  Bi107  1  0.38402183  0.23260318  0.69928818  1
  Bi2+  Bi108  1  0.33249751  0.49922844  0.20656280  1
  Bi2+  Bi109  1  0.39792801  0.51182275  0.71217959  1
  Bi2+  Bi110  1  0.34179686  0.81970950  0.21594617  1
  Bi2+  Bi111  1  0.30916577  0.72451039  0.71341455  1
  Bi2+  Bi112  1  0.55803540  0.00771009  0.17356458  1
  Bi2+  Bi113  1  0.69711239  -0.04391536  0.75357040  1
  Bi2+  Bi114  1  0.60805082  0.18636266  0.20853813  1
  Bi2+  Bi115  1  0.66883571  0.13601594  0.70426757  1
  Bi2+  Bi116  1  0.61003516  0.50737082  0.21123084  1
  Bi2+  Bi117  1  0.59267268  0.55607957  0.70880987  1
  Bi2+  Bi118  1  0.61823288  0.79938624  0.20130760  1
  Bi2+  Bi119  1  0.64781768  0.74665574  0.69651214  1
  Bi2+  Bi120  1  0.83708789  -0.02404253  0.20976602  1
  Bi2+  Bi121  1  0.88677825  0.00828619  0.72844189  1
  Bi2+  Bi122  1  0.85213253  0.25043450  0.20640924  1
  Bi2+  Bi123  1  0.90719099  0.25680684  0.69379447  1
  Bi2+  Bi124  1  0.85280782  0.49547234  0.18175483  1
  Bi2+  Bi125  1  0.84490158  0.53053285  0.70979692  1
  Bi2+  Bi126  1  0.82721882  0.79552001  0.25827666  1
  Bi2+  Bi127  1  0.87479986  0.78829846  0.70624778  1
  S2-  S128  1  -0.02066013  0.15201124  0.21345098  1
  S2-  S129  1  0.05225411  0.25342052  0.64537818  1
  S2-  S130  1  -0.03155504  0.35794866  0.15970962  1
  S2-  S131  1  -0.09000059  0.40988353  0.64666183  1
  S2-  S132  1  -0.03584629  0.60869222  0.15939289  1
  S2-  S133  1  -0.10272408  0.64454706  0.64504686  1
  S2-  S134  1  -0.01968790  0.94337966  0.14724132  1
  S2-  S135  1  0.07165286  0.99262789  0.63878148  1
  S2-  S136  1  0.15131523  0.11415275  0.14769031  1
  S2-  S137  1  0.29692741  0.11107470  0.66312778  1
  S2-  S138  1  0.22321668  0.39662303  0.15455703  1
  S2-  S139  1  0.28201696  0.34472975  0.65287438  1
  S2-  S140  1  0.31791270  0.62885178  0.14605653  1
  S2-  S141  1  0.14919600  0.63111198  0.64537234  1
  S2-  S142  1  0.22060145  0.87125275  0.14940346  1
  S2-  S143  1  0.27911189  0.86489353  0.64691693  1
  S2-  S144  1  0.49289721  0.24795180  0.14026272  1
  S2-  S145  1  0.52762302  0.05263461  0.66130585  1
  S2-  S146  1  0.48884726  0.47220478  0.14777799  1
  S2-  S147  1  0.51999690  0.28832365  0.63938030  1
  S2-  S148  1  0.52610785  0.64817421  0.21387386  1
  S2-  S149  1  0.40611557  0.63841979  0.63897326  1
  S2-  S150  1  0.47356971  0.80161765  0.14205107  1
  S2-  S151  1  0.51116902  0.83811797  0.65407661  1
  S2-  S152  1  0.81374247  0.11399575  0.14667542  1
  S2-  S153  1  0.89012341  0.10319794  0.64585574  1
  S2-  S154  1  0.74084818  0.36354132  0.14980386  1
  S2-  S155  1  0.74703238  0.25745755  0.64763791  1
  S2-  S156  1  0.73437273  0.60055850  0.15533396  1
  S2-  S157  1  0.72560028  0.51056802  0.64443389  1
  S2-  S158  1  0.75435999  0.86647176  0.14515551  1
  S2-  S159  1  0.75169198  0.87860392  0.65576821  1
  S2-  S160  1  0.02907759  -0.02276722  0.35415535  1
  S2-  S161  1  0.14488355  0.02508788  0.84470311  1
  S2-  S162  1  0.14949705  0.15659321  0.35434672  1
  S2-  S163  1  0.21501562  0.24273490  0.85973723  1
  S2-  S164  1  0.03756170  0.49213233  0.36549993  1
  S2-  S165  1  0.02553960  0.50599161  0.84614394  1
  S2-  S166  1  0.01987271  0.72648308  0.35987371  1
  S2-  S167  1  0.13790441  0.73085119  0.84377041  1
  S2-  S168  1  0.40066545  0.01850254  0.34269315  1
  S2-  S169  1  0.38241845  0.00904915  0.84980193  1
  S2-  S170  1  0.38439600  0.24482588  0.34358504  1
  S2-  S171  1  0.42092096  0.22301999  0.82842816  1
  S2-  S172  1  0.40325829  0.49176518  0.34568198  1
  S2-  S173  1  0.24438266  0.47351070  0.85616522  1
  S2-  S174  1  0.30333543  0.71022163  0.35706544  1
  S2-  S175  1  0.38591949  0.62844108  0.85628208  1
  S2-  S176  1  0.62757176  0.07116283  0.35823720  1
  S2-  S177  1  0.59378311  -0.06143135  0.82991920  1
  S2-  S178  1  0.63383108  0.31108978  0.34422810  1
  S2-  S179  1  0.62671549  0.14848793  0.85692739  1
  S2-  S180  1  0.60690138  0.57309686  0.34321814  1
  S2-  S181  1  0.60455344  0.38953467  0.85964263  1
  S2-  S182  1  0.52288560  0.77199571  0.35637062  1
  S2-  S183  1  0.61184597  0.67552907  0.85143512  1
  S2-  S184  1  0.84107071  0.04375533  0.33732675  1
  S2-  S185  1  0.87731059  0.11004069  0.85787504  1
  S2-  S186  1  0.89459397  0.26113195  0.34648757  1
  S2-  S187  1  0.87308504  0.34333496  0.84604976  1
  S2-  S188  1  0.81983045  0.51883917  0.34585859  1
  S2-  S189  1  0.77314771  0.51878333  0.80380739  1
  S2-  S190  1  0.78023069  0.75840022  0.35809059  1
  S2-  S191  1  0.88855531  0.66961022  0.85177958  1
  S2-  S192  1  0.02463529  0.13580985  0.45822022  1
  S2-  S193  1  -0.00120683  0.11911770  0.95326907  1
  S2-  S194  1  0.02627600  0.37404906  0.46186605  1
  S2-  S195  1  -0.00223570  0.37315147  0.95288181  1
  S2-  S196  1  0.02867361  0.63132913  0.46446386  1
  S2-  S197  1  -0.00731914  0.61772642  0.95585224  1
  S2-  S198  1  0.02893954  0.87725876  0.45651524  1
  S2-  S199  1  -0.00949048  0.87056003  0.95285285  1
  S2-  S200  1  0.28142867  0.13493634  0.45400535  1
  S2-  S201  1  0.24288991  0.11522847  0.96034144  1
  S2-  S202  1  0.27748516  0.38129907  0.45136918  1
  S2-  S203  1  0.24452672  0.37293874  0.95720965  1
  S2-  S204  1  0.27270410  0.62657199  0.46275156  1
  S2-  S205  1  0.24114328  0.62381817  0.95536521  1
  S2-  S206  1  0.27682594  0.88511731  0.44231248  1
  S2-  S207  1  0.24491684  0.86910737  0.94836919  1
  S2-  S208  1  0.52409786  0.13549908  0.46186676  1
  S2-  S209  1  0.48951638  0.12530749  0.95840741  1
  S2-  S210  1  0.52427037  0.38453974  0.45071890  1
  S2-  S211  1  0.48425963  0.37294433  0.95536731  1
  S2-  S212  1  0.52405586  0.62893213  0.45752245  1
  S2-  S213  1  0.49631928  0.61788925  0.95727499  1
  S2-  S214  1  0.53025841  0.88796871  0.45578886  1
  S2-  S215  1  0.49502260  0.86914372  0.94835620  1
  S2-  S216  1  0.77641538  0.13260638  0.46079653  1
  S2-  S217  1  0.74412435  0.12330168  0.95484484  1
  S2-  S218  1  0.77417958  0.37940492  0.45499522  1
  S2-  S219  1  0.74947344  0.37785261  0.94929939  1
  S2-  S220  1  0.77357260  0.63187861  0.45960706  1
  S2-  S221  1  0.74662776  0.61363464  0.95040065  1
  S2-  S222  1  0.77160995  0.88741643  0.45109095  1
  S2-  S223  1  0.74098249  0.87143331  0.94372618  1
  S2-  S224  1  0.11721444  -0.00703054  0.04575626  1
  S2-  S225  1  0.15273852  0.01007730  0.53217242  1
  S2-  S226  1  0.12139302  0.24774892  0.05046890  1
  S2-  S227  1  0.15204697  0.25471001  0.54127236  1
  S2-  S228  1  0.12127057  0.49952246  0.04386047  1
  S2-  S229  1  0.14792391  0.50073077  0.54785112  1
  S2-  S230  1  0.11706860  0.74813554  0.04924428  1
  S2-  S231  1  0.14992580  0.76149386  0.54116886  1
  S2-  S232  1  0.36580403  -0.00358043  0.05359321  1
  S2-  S233  1  0.40439021  0.00961611  0.54715718  1
  S2-  S234  1  0.36043554  0.24430546  0.04228451  1
  S2-  S235  1  0.39720967  0.25742751  0.54291263  1
  S2-  S236  1  0.36476029  0.49994022  0.04223208  1
  S2-  S237  1  0.39866387  0.50250532  0.54681834  1
  S2-  S238  1  0.36600140  0.74742871  0.03956725  1
  S2-  S239  1  0.40337100  0.76296311  0.53874767  1
  S2-  S240  1  0.61990031  0.00018424  0.03833484  1
  S2-  S241  1  0.64978255  0.01019460  0.55224889  1
  S2-  S242  1  0.62374259  0.24536513  0.04069460  1
  S2-  S243  1  0.65143835  0.25980735  0.54134510  1
  S2-  S244  1  0.62026291  0.49450843  0.04325161  1
  S2-  S245  1  0.64313387  0.50864956  0.53856902  1
  S2-  S246  1  0.61650013  0.74368170  0.04779815  1
  S2-  S247  1  0.64667140  0.75837895  0.54356689  1
  S2-  S248  1  0.86965813  -0.00289726  0.04046901  1
  S2-  S249  1  0.90006680  0.00393687  0.54006673  1
  S2-  S250  1  0.87270498  0.24175605  0.04488276  1
  S2-  S251  1  0.89765601  0.25758112  0.54724306  1
  S2-  S252  1  0.86884611  0.49759103  0.05171791  1
  S2-  S253  1  0.90023712  0.50712778  0.54278420  1
  S2-  S254  1  0.86928360  0.74711388  0.04676128  1
  S2-  S255  1  0.90211771  0.76212288  0.54258104  1
