# generated using pymatgen
data_La12Ce14Pr13Nd13Sm12(BiS2)64
_symmetry_space_group_name_H-M   'P 1'
_cell_length_a   16.18131972
_cell_length_b   16.18306561
_cell_length_c   27.11718098
_cell_angle_alpha   90.01463420
_cell_angle_beta   90.10025607
_cell_angle_gamma   90.01249672
_symmetry_Int_Tables_number   1
_chemical_formula_structural   La12Ce14Pr13Nd13Sm12(BiS2)64
_chemical_formula_sum   'La12 Ce14 Pr13 Nd13 Sm12 Bi64 S128'
_cell_volume   7100.98481683
_cell_formula_units_Z   1
loop_
 _symmetry_equiv_pos_site_id
 _symmetry_equiv_pos_as_xyz
  1  'x, y, z'
loop_
 _atom_type_symbol
 _atom_type_oxidation_number
  La3+  3.0
  Ce3+  3.0
  Pr3+  3.0
  Nd3+  3.0
  Sm3+  3.0
  Bi2+  2.0
  S2-  -2.0
loop_
 _atom_site_type_symbol
 _atom_site_label
 _atom_site_symmetry_multiplicity
 _atom_site_fract_x
 _atom_site_fract_y
 _atom_site_fract_z
 _atom_site_occupancy
  La3+  La0  1  -0.01398475  0.86904315  0.58744517  1
  La3+  La1  1  0.88140126  0.49279152  0.94365081  1
  La3+  La2  1  -0.01260395  0.12821308  0.58383791  1
  La3+  La3  1  -0.00784040  0.87322040  0.10260934  1
  La3+  La4  1  0.61664023  -0.00598751  0.42224362  1
  La3+  La5  1  0.25524529  0.37407658  0.57365084  1
  La3+  La6  1  0.74185492  0.87164388  0.56806134  1
  La3+  La7  1  0.24906523  0.63280839  0.58031180  1
  La3+  La8  1  0.51674795  0.62129440  0.09048907  1
  La3+  La9  1  0.75876299  0.36321720  0.06722021  1
  La3+  La10  1  0.38663375  0.48593478  0.93128155  1
  La3+  La11  1  0.87637588  0.24484762  0.91850949  1
  Ce3+  Ce12  1  0.50620894  0.11552448  0.05317781  1
  Ce3+  Ce13  1  0.12774094  0.50187992  0.44128885  1
  Ce3+  Ce14  1  0.86999436  0.25175197  0.44056664  1
  Ce3+  Ce15  1  0.87257122  0.50174000  0.44408267  1
  Ce3+  Ce16  1  0.50057889  0.87601828  0.56164659  1
  Ce3+  Ce17  1  0.75868919  0.62077085  0.05959383  1
  Ce3+  Ce18  1  0.74318157  0.62496602  0.55318866  1
  Ce3+  Ce19  1  0.49121048  0.62382893  0.55848610  1
  Ce3+  Ce20  1  0.37247031  0.00043539  0.44121250  1
  Ce3+  Ce21  1  0.88324472  0.74768433  0.93748087  1
  Ce3+  Ce22  1  0.76384561  0.11187528  0.05379259  1
  Ce3+  Ce23  1  0.63468031  0.23848168  0.93619645  1
  Ce3+  Ce24  1  0.50734889  0.86491868  0.06061210  1
  Ce3+  Ce25  1  0.25430360  0.11595762  0.05836779  1
  Pr3+  Pr26  1  0.12722088  0.24053630  0.93118488  1
  Pr3+  Pr27  1  0.86925422  0.76284661  0.43102843  1
  Pr3+  Pr28  1  0.74374535  0.37821006  0.56030483  1
  Pr3+  Pr29  1  0.61732407  0.24874442  0.43185664  1
  Pr3+  Pr30  1  0.00014992  0.37837310  0.56350840  1
  Pr3+  Pr31  1  0.88946489  -0.01544645  0.91252267  1
  Pr3+  Pr32  1  0.25958908  0.60962276  0.06323494  1
  Pr3+  Pr33  1  0.74361776  0.12772602  0.56621407  1
  Pr3+  Pr34  1  0.87125233  0.01032905  0.44120517  1
  Pr3+  Pr35  1  0.50098732  0.12289433  0.56570834  1
  Pr3+  Pr36  1  0.36717082  0.50012726  0.42997285  1
  Pr3+  Pr37  1  0.36804538  0.74999527  0.43791363  1
  Pr3+  Pr38  1  0.37750709  -0.01196708  0.93952261  1
  Nd3+  Nd39  1  0.13250025  0.49017616  0.93443509  1
  Nd3+  Nd40  1  0.25317432  0.85694579  0.07163389  1
  Nd3+  Nd41  1  0.13463492  -0.01185957  0.93294898  1
  Nd3+  Nd42  1  0.24737131  0.87747107  0.56328415  1
  Nd3+  Nd43  1  0.38156054  0.73706239  0.94176143  1
  Nd3+  Nd44  1  0.24704671  0.12353316  0.56603776  1
  Nd3+  Nd45  1  0.00902035  0.36412404  0.06224475  1
  Nd3+  Nd46  1  0.11750337  0.00253404  0.45459966  1
  Nd3+  Nd47  1  0.38107053  0.24148582  0.93643006  1
  Nd3+  Nd48  1  0.63216497  -0.01020137  0.94159453  1
  Nd3+  Nd49  1  0.11890284  0.75476662  0.44493758  1
  Nd3+  Nd50  1  0.61570274  0.50191743  0.42291413  1
  Nd3+  Nd51  1  0.13340990  0.74117031  0.94159151  1
  Sm3+  Sm52  1  0.61924311  0.74510176  0.43202109  1
  Sm3+  Sm53  1  -0.00351631  0.62818918  0.55619681  1
  Sm3+  Sm54  1  0.37049016  0.24980753  0.44399560  1
  Sm3+  Sm55  1  0.25926137  0.36920138  0.05984904  1
  Sm3+  Sm56  1  0.49382592  0.37688247  0.55785883  1
  Sm3+  Sm57  1  0.00778213  0.11972602  0.05456878  1
  Sm3+  Sm58  1  0.63028844  0.74134061  0.93981619  1
  Sm3+  Sm59  1  0.00797304  0.62212944  0.06233762  1
  Sm3+  Sm60  1  0.63189485  0.49306854  0.94683812  1
  Sm3+  Sm61  1  0.50895864  0.36388858  0.05912236  1
  Sm3+  Sm62  1  0.12142709  0.24946401  0.45155315  1
  Sm3+  Sm63  1  0.75951043  0.86873674  0.05472816  1
  Bi2+  Bi64  1  0.01085256  0.18193514  0.28511984  1
  Bi2+  Bi65  1  0.13175717  0.10537989  0.79157124  1
  Bi2+  Bi66  1  -0.02684138  0.37729054  0.29610665  1
  Bi2+  Bi67  1  0.02166744  0.38998040  0.81126650  1
  Bi2+  Bi68  1  0.01679329  0.56993404  0.28873865  1
  Bi2+  Bi69  1  -0.07372684  0.60463788  0.76179310  1
  Bi2+  Bi70  1  0.01117602  0.83889457  0.32047264  1
  Bi2+  Bi71  1  0.00919803  0.86933656  0.78536295  1
  Bi2+  Bi72  1  0.20852648  0.08593026  0.30472792  1
  Bi2+  Bi73  1  0.32664169  0.12518548  0.80365684  1
  Bi2+  Bi74  1  0.21799815  0.36688708  0.29137874  1
  Bi2+  Bi75  1  0.27163867  0.40629426  0.79197273  1
  Bi2+  Bi76  1  0.20579078  0.56121826  0.26035492  1
  Bi2+  Bi77  1  0.24440583  0.65248999  0.80640568  1
  Bi2+  Bi78  1  0.25015728  0.84591364  0.29212094  1
  Bi2+  Bi79  1  0.23418890  0.87606064  0.78230710  1
  Bi2+  Bi80  1  0.47188720  0.12098872  0.28267128  1
  Bi2+  Bi81  1  0.51561142  0.17446472  0.80086680  1
  Bi2+  Bi82  1  0.51813219  0.34639327  0.28978186  1
  Bi2+  Bi83  1  0.51464182  0.37685404  0.78503515  1
  Bi2+  Bi84  1  0.50984574  0.60808600  0.28544317  1
  Bi2+  Bi85  1  0.47322111  0.64604184  0.77951784  1
  Bi2+  Bi86  1  0.49477861  0.85678423  0.29861814  1
  Bi2+  Bi87  1  0.47989236  0.91655278  0.77480854  1
  Bi2+  Bi88  1  0.76913087  0.18185528  0.29287221  1
  Bi2+  Bi89  1  0.70763424  0.15006773  0.77666044  1
  Bi2+  Bi90  1  0.75541229  0.42520035  0.27562312  1
  Bi2+  Bi91  1  0.73491634  0.40595398  0.79266269  1
  Bi2+  Bi92  1  0.69151287  0.66993893  0.25016933  1
  Bi2+  Bi93  1  0.69579686  0.62074796  0.78444375  1
  Bi2+  Bi94  1  0.74452643  0.92617587  0.28738303  1
  Bi2+  Bi95  1  0.73081808  0.89333063  0.80296359  1
  Bi2+  Bi96  1  0.10537595  0.02006382  0.21447864  1
  Bi2+  Bi97  1  0.24677884  0.02520035  0.70740068  1
  Bi2+  Bi98  1  0.14727317  0.28979064  0.18642302  1
  Bi2+  Bi99  1  0.13758363  0.24821573  0.71718734  1
  Bi2+  Bi100  1  0.07418733  0.47877010  0.18444929  1
  Bi2+  Bi101  1  0.05262764  0.48585914  0.70941114  1
  Bi2+  Bi102  1  0.13926232  0.75247601  0.20969756  1
  Bi2+  Bi103  1  0.09809194  0.73935812  0.70595220  1
  Bi2+  Bi104  1  0.35359837  -0.03517933  0.22255582  1
  Bi2+  Bi105  1  0.42763479  -0.00778327  0.67065991  1
  Bi2+  Bi106  1  0.30737922  0.21157731  0.23602414  1
  Bi2+  Bi107  1  0.41030396  0.24381580  0.71092619  1
  Bi2+  Bi108  1  0.35270906  0.43167329  0.21366984  1
  Bi2+  Bi109  1  0.32282440  0.50055096  0.69998833  1
  Bi2+  Bi110  1  0.38092023  0.77400904  0.21473007  1
  Bi2+  Bi111  1  0.37679786  0.79311666  0.70691413  1
  Bi2+  Bi112  1  0.55223254  -0.00446775  0.20375573  1
  Bi2+  Bi113  1  0.61486572  0.01711815  0.71092861  1
  Bi2+  Bi114  1  0.58127753  0.23871866  0.19936936  1
  Bi2+  Bi115  1  0.61112784  0.29329031  0.69662822  1
  Bi2+  Bi116  1  0.60854801  0.48631250  0.20532634  1
  Bi2+  Bi117  1  0.58616215  0.50877169  0.70803235  1
  Bi2+  Bi118  1  0.66564834  0.83952835  0.19222887  1
  Bi2+  Bi119  1  0.57274543  0.76777740  0.71391693  1
  Bi2+  Bi120  1  0.84640268  0.01547520  0.20303408  1
  Bi2+  Bi121  1  0.90049069  0.01225645  0.71768382  1
  Bi2+  Bi122  1  0.88378492  0.26919046  0.21184377  1
  Bi2+  Bi123  1  0.88206380  0.25697941  0.72057996  1
  Bi2+  Bi124  1  0.88075431  0.48396946  0.19282334  1
  Bi2+  Bi125  1  0.78541150  0.52008862  0.69514166  1
  Bi2+  Bi126  1  0.88386506  0.67244313  0.23004585  1
  Bi2+  Bi127  1  0.83959371  0.75343651  0.71246793  1
  S2-  S128  1  -0.01508025  0.03738723  0.14106169  1
  S2-  S129  1  0.04179661  0.13100739  0.68304830  1
  S2-  S130  1  -0.00105603  0.24607325  0.13523978  1
  S2-  S131  1  -0.02974640  0.34355268  0.66245447  1
  S2-  S132  1  0.00245107  0.71077386  0.14870402  1
  S2-  S133  1  -0.02364696  0.71119605  0.64274820  1
  S2-  S134  1  -0.01603979  0.90654734  0.23507086  1
  S2-  S135  1  0.03841197  0.91070480  0.68714177  1
  S2-  S136  1  0.21482984  0.13037043  0.15442715  1
  S2-  S137  1  0.26638488  0.19262710  0.65674058  1
  S2-  S138  1  0.26021005  0.47966446  0.13584258  1
  S2-  S139  1  0.17804731  0.39298866  0.66462760  1
  S2-  S140  1  0.26285710  0.71759238  0.14544621  1
  S2-  S141  1  0.16819812  0.59772190  0.67346959  1
  S2-  S142  1  0.14948676  0.89203155  0.15000058  1
  S2-  S143  1  0.23579821  0.78818807  0.64789909  1
  S2-  S144  1  0.47803796  0.12374296  0.14915186  1
  S2-  S145  1  0.61915714  0.13849584  0.64050071  1
  S2-  S146  1  0.46788427  0.34331811  0.15439563  1
  S2-  S147  1  0.39884970  0.38008828  0.64219616  1
  S2-  S148  1  0.45825377  0.56442715  0.18141067  1
  S2-  S149  1  0.39514997  0.61113857  0.64134453  1
  S2-  S150  1  0.51208105  0.77561690  0.14548337  1
  S2-  S151  1  0.61186873  0.87702661  0.63939571  1
  S2-  S152  1  0.75058123  0.11751789  0.15295771  1
  S2-  S153  1  0.84531370  0.12292953  0.65403479  1
  S2-  S154  1  0.69005198  0.35044266  0.15983229  1
  S2-  S155  1  0.76425620  0.33193226  0.65800797  1
  S2-  S156  1  0.67749667  0.61498887  0.14602039  1
  S2-  S157  1  0.73930031  0.67573158  0.64607077  1
  S2-  S158  1  0.82662249  0.86849442  0.14531086  1
  S2-  S159  1  0.83912765  0.89408856  0.65460837  1
  S2-  S160  1  0.10217370  -0.01796403  0.35536669  1
  S2-  S161  1  0.03541216  0.00254406  0.84779434  1
  S2-  S162  1  0.13466996  0.23072876  0.35297890  1
  S2-  S163  1  0.16995006  0.30939690  0.84033543  1
  S2-  S164  1  0.23376861  0.50151453  0.36185484  1
  S2-  S165  1  0.13534252  0.53139075  0.83624762  1
  S2-  S166  1  0.15448029  0.74036761  0.34613201  1
  S2-  S167  1  0.12507359  0.76359182  0.84047585  1
  S2-  S168  1  0.45832205  -0.00050763  0.35630044  1
  S2-  S169  1  0.26620216  -0.02968218  0.86133251  1
  S2-  S170  1  0.41932349  0.25037858  0.34891414  1
  S2-  S171  1  0.38556824  0.35102388  0.85837877  1
  S2-  S172  1  0.48380726  0.48193082  0.35154434  1
  S2-  S173  1  0.36495799  0.55115734  0.83581237  1
  S2-  S174  1  0.41034313  0.71702756  0.34157901  1
  S2-  S175  1  0.37848008  0.75460254  0.84166431  1
  S2-  S176  1  0.67874113  0.06855206  0.33484634  1
  S2-  S177  1  0.60594047  -0.02868781  0.84335763  1
  S2-  S178  1  0.66771395  0.30506398  0.33990877  1
  S2-  S179  1  0.73077721  0.25933702  0.85434827  1
  S2-  S180  1  0.63564401  0.63047008  0.35171787  1
  S2-  S181  1  0.61357756  0.48821521  0.84873979  1
  S2-  S182  1  0.63547069  0.85327624  0.35490825  1
  S2-  S183  1  0.65095048  0.75416103  0.84161115  1
  S2-  S184  1  0.86895769  -0.09395269  0.36045802  1
  S2-  S185  1  0.82514036  0.03727290  0.81748657  1
  S2-  S186  1  0.89078984  0.14442925  0.36353786  1
  S2-  S187  1  0.96073833  0.24222054  0.82857483  1
  S2-  S188  1  0.85348253  0.48021964  0.34773805  1
  S2-  S189  1  0.87172644  0.44604817  0.84695536  1
  S2-  S190  1  0.89792503  0.70948200  0.33195133  1
  S2-  S191  1  0.87554353  0.83097517  0.85107135  1
  S2-  S192  1  0.00003529  0.12999840  0.47023228  1
  S2-  S193  1  0.00331416  0.11897576  0.94872610  1
  S2-  S194  1  0.00031847  0.37536289  0.45454257  1
  S2-  S195  1  0.00689267  0.36699580  0.95355557  1
  S2-  S196  1  -0.00204853  0.62641034  0.45090050  1
  S2-  S197  1  0.00687438  0.61839521  0.95239808  1
  S2-  S198  1  -0.00293229  0.87819694  0.46622510  1
  S2-  S199  1  0.01140515  0.86424717  0.94837792  1
  S2-  S200  1  0.24704361  0.12618024  0.45816473  1
  S2-  S201  1  0.25664910  0.12101337  0.95156103  1
  S2-  S202  1  0.24680122  0.36845514  0.46089534  1
  S2-  S203  1  0.25403454  0.36769957  0.95642598  1
  S2-  S204  1  0.24384050  0.63061554  0.46276032  1
  S2-  S205  1  0.25697437  0.61281789  0.95400695  1
  S2-  S206  1  0.24542901  0.87846258  0.45607391  1
  S2-  S207  1  0.25867271  0.85937382  0.96318482  1
  S2-  S208  1  0.49456324  0.12717746  0.45647282  1
  S2-  S209  1  0.50358856  0.11442853  0.94634450  1
  S2-  S210  1  0.49471539  0.37347114  0.45472130  1
  S2-  S211  1  0.51494349  0.36233747  0.95439876  1
  S2-  S212  1  0.49409647  0.62351438  0.45341314  1
  S2-  S213  1  0.51031937  0.61747099  0.94835135  1
  S2-  S214  1  0.49314883  0.87044068  0.45605456  1
  S2-  S215  1  0.50556796  0.86453538  0.95171466  1
  S2-  S216  1  0.74271127  0.13122311  0.45797856  1
  S2-  S217  1  0.75846324  0.11037277  0.94615996  1
  S2-  S218  1  0.74248766  0.38053969  0.45269564  1
  S2-  S219  1  0.75422790  0.37081459  0.95866772  1
  S2-  S220  1  0.74945120  0.62511626  0.44920253  1
  S2-  S221  1  0.75533932  0.61940677  0.95050927  1
  S2-  S222  1  0.74195743  0.87643012  0.45944868  1
  S2-  S223  1  0.75399115  0.86642199  0.95081106  1
  S2-  S224  1  0.13161599  -0.00386633  0.03998905  1
  S2-  S225  1  0.12005665  0.00033297  0.56271514  1
  S2-  S226  1  0.13680740  0.24614898  0.03887750  1
  S2-  S227  1  0.12238343  0.24911143  0.55651396  1
  S2-  S228  1  0.12523521  0.49201068  0.04136542  1
  S2-  S229  1  0.12227254  0.50461763  0.54884492  1
  S2-  S230  1  0.13116722  0.73683566  0.04603369  1
  S2-  S231  1  0.11824571  0.75237167  0.54935711  1
  S2-  S232  1  0.37829856  -0.01239150  0.04857247  1
  S2-  S233  1  0.37097431  0.00085333  0.54665391  1
  S2-  S234  1  0.37992051  0.24456044  0.04339830  1
  S2-  S235  1  0.37608237  0.24502639  0.54691508  1
  S2-  S236  1  0.39320842  0.48985411  0.04204824  1
  S2-  S237  1  0.37066160  0.49930703  0.53729815  1
  S2-  S238  1  0.38686699  0.73610172  0.04674504  1
  S2-  S239  1  0.37352977  0.75633372  0.54570170  1
  S2-  S240  1  0.63294188  -0.01027812  0.04868547  1
  S2-  S241  1  0.61967838  0.00096355  0.53746758  1
  S2-  S242  1  0.63254421  0.23713101  0.04390190  1
  S2-  S243  1  0.61739520  0.25778592  0.54048371  1
  S2-  S244  1  0.63106369  0.49000489  0.05022378  1
  S2-  S245  1  0.61630974  0.50000100  0.54482733  1
  S2-  S246  1  0.63576034  0.74427301  0.04372130  1
  S2-  S247  1  0.61577640  0.74378045  0.53824869  1
  S2-  S248  1  0.88350717  -0.01151531  0.03595628  1
  S2-  S249  1  0.87066512  0.00165209  0.54897820  1
  S2-  S250  1  0.87961216  0.24255168  0.03527222  1
  S2-  S251  1  0.87054185  0.25595425  0.54710625  1
  S2-  S252  1  0.88468089  0.49362620  0.05175917  1
  S2-  S253  1  0.87360931  0.50289467  0.55221551  1
  S2-  S254  1  0.88214748  0.74240822  0.04331186  1
  S2-  S255  1  0.86842929  0.74686647  0.53963420  1
