# generated using pymatgen
data_La12Ce14Pr13Nd13Sm12(BiS2)64
_symmetry_space_group_name_H-M   'P 1'
_cell_length_a   16.20449505
_cell_length_b   16.18993213
_cell_length_c   27.12021226
_cell_angle_alpha   89.99618959
_cell_angle_beta   89.85451025
_cell_angle_gamma   90.03119065
_symmetry_Int_Tables_number   1
_chemical_formula_structural   La12Ce14Pr13Nd13Sm12(BiS2)64
_chemical_formula_sum   'La12 Ce14 Pr13 Nd13 Sm12 Bi64 S128'
_cell_volume   7114.95486648
_cell_formula_units_Z   1
loop_
 _symmetry_equiv_pos_site_id
 _symmetry_equiv_pos_as_xyz
  1  'x, y, z'
loop_
 _atom_type_symbol
 _atom_type_oxidation_number
  La3+  3.0
  Ce3+  3.0
  Pr3+  3.0
  Nd3+  3.0
  Sm3+  3.0
  Bi2+  2.0
  S2-  -2.0
loop_
 _atom_site_type_symbol
 _atom_site_label
 _atom_site_symmetry_multiplicity
 _atom_site_fract_x
 _atom_site_fract_y
 _atom_site_fract_z
 _atom_site_occupancy
  La3+  La0  1  0.74579029  0.12093203  0.56784767  1
  La3+  La1  1  0.50217959  0.38318075  0.09052390  1
  La3+  La2  1  0.00115568  0.87498847  0.56169454  1
  La3+  La3  1  0.49551430  0.88870251  0.59434869  1
  La3+  La4  1  0.88445762  0.51104851  0.91983140  1
  La3+  La5  1  0.37985380  0.51081247  0.41436875  1
  La3+  La6  1  0.12407997  -0.00006327  0.43413577  1
  La3+  La7  1  0.49111228  0.61507332  0.58458052  1
  La3+  La8  1  0.24994554  0.38040345  0.07725803  1
  La3+  La9  1  0.50889241  0.11568822  0.08498826  1
  La3+  La10  1  0.61352690  0.49348164  0.91238608  1
  La3+  La11  1  0.00066474  0.37126444  0.07514367  1
  Ce3+  Ce12  1  0.12458706  -0.00057970  0.94631537  1
  Ce3+  Ce13  1  0.37330259  0.25353287  0.43169349  1
  Ce3+  Ce14  1  0.62150587  0.00004484  0.43191309  1
  Ce3+  Ce15  1  0.87277859  0.25222786  0.44143731  1
  Ce3+  Ce16  1  0.50259898  0.62490951  0.06031927  1
  Ce3+  Ce17  1  0.25355110  0.62437096  0.55549315  1
  Ce3+  Ce18  1  0.25242710  0.62656625  0.05931487  1
  Ce3+  Ce19  1  0.62569587  0.74964593  0.93840311  1
  Ce3+  Ce20  1  -0.00256519  0.62594438  0.55536947  1
  Ce3+  Ce21  1  0.74568087  0.62303929  0.56807767  1
  Ce3+  Ce22  1  0.87015284  0.74963298  0.44386124  1
  Ce3+  Ce23  1  0.62283550  0.50557234  0.44053626  1
  Ce3+  Ce24  1  0.12531232  0.75014943  0.44075271  1
  Ce3+  Ce25  1  0.25427114  0.87485007  0.56029669  1
  Pr3+  Pr26  1  0.61945333  0.75229165  0.45443912  1
  Pr3+  Pr27  1  0.12825549  0.50087424  0.94199551  1
  Pr3+  Pr28  1  0.75181896  0.13044657  0.05583172  1
  Pr3+  Pr29  1  -0.00016774  0.12616500  0.55875231  1
  Pr3+  Pr30  1  0.75063226  0.62387648  0.05270728  1
  Pr3+  Pr31  1  0.37974150  0.25245007  0.95395451  1
  Pr3+  Pr32  1  0.62634751  0.24562139  0.42771931  1
  Pr3+  Pr33  1  0.63164579  0.25299481  0.94038102  1
  Pr3+  Pr34  1  0.37720450  0.00573894  0.93656590  1
  Pr3+  Pr35  1  0.87211303  0.00066703  0.43649937  1
  Pr3+  Pr36  1  0.87083364  0.49922327  0.44488784  1
  Pr3+  Pr37  1  0.74659548  0.36648491  0.57094512  1
  Pr3+  Pr38  1  0.00207832  0.88055777  0.07401179  1
  Nd3+  Nd39  1  0.88496481  0.25596249  0.92620457  1
  Nd3+  Nd40  1  -0.00114263  0.62286995  0.07041061  1
  Nd3+  Nd41  1  0.00131747  0.12658062  0.06628500  1
  Nd3+  Nd42  1  0.75107255  0.87597292  0.05517058  1
  Nd3+  Nd43  1  0.12371846  0.25418330  0.43971445  1
  Nd3+  Nd44  1  0.49701772  0.37536245  0.55404222  1
  Nd3+  Nd45  1  0.37579467  0.75178280  0.44247471  1
  Nd3+  Nd46  1  0.75121429  0.37897126  0.04961550  1
  Nd3+  Nd47  1  0.62868084  0.00111384  0.93277588  1
  Nd3+  Nd48  1  0.37902318  0.75100768  0.93698318  1
  Nd3+  Nd49  1  -0.00038353  0.37705297  0.56364036  1
  Nd3+  Nd50  1  0.25067495  0.37703223  0.55015427  1
  Nd3+  Nd51  1  0.12652712  0.25247802  0.93910260  1
  Sm3+  Sm52  1  0.37663388  0.49651351  0.94338189  1
  Sm3+  Sm53  1  0.50161199  0.87667030  0.05463921  1
  Sm3+  Sm54  1  0.25272047  0.12592052  0.06395038  1
  Sm3+  Sm55  1  0.12189726  0.50011381  0.43982124  1
  Sm3+  Sm56  1  0.87853347  0.74986970  0.94336935  1
  Sm3+  Sm57  1  0.74679220  0.87912469  0.56091660  1
  Sm3+  Sm58  1  0.37387513  0.00061400  0.43429801  1
  Sm3+  Sm59  1  0.49674782  0.12494566  0.54786138  1
  Sm3+  Sm60  1  0.25096979  0.12558388  0.55157632  1
  Sm3+  Sm61  1  0.25460368  0.87767543  0.05448759  1
  Sm3+  Sm62  1  0.87918146  -0.00050058  0.94577014  1
  Sm3+  Sm63  1  0.12622988  0.75155446  0.94777493  1
  Bi2+  Bi64  1  0.00939539  0.12267678  0.29279578  1
  Bi2+  Bi65  1  0.07825667  0.12966591  0.78074988  1
  Bi2+  Bi66  1  -0.01120077  0.37729813  0.30958475  1
  Bi2+  Bi67  1  0.01267737  0.37813840  0.79355995  1
  Bi2+  Bi68  1  -0.00150877  0.63588783  0.26710099  1
  Bi2+  Bi69  1  0.03678253  0.64059032  0.79089010  1
  Bi2+  Bi70  1  -0.00788137  0.83819762  0.28441928  1
  Bi2+  Bi71  1  0.01000259  0.88762420  0.80488120  1
  Bi2+  Bi72  1  0.24014265  0.06562582  0.26139954  1
  Bi2+  Bi73  1  0.26398562  0.16452583  0.81053164  1
  Bi2+  Bi74  1  0.23092487  0.35052022  0.29719762  1
  Bi2+  Bi75  1  0.21027875  0.38702380  0.80556352  1
  Bi2+  Bi76  1  0.19426353  0.68664763  0.25766873  1
  Bi2+  Bi77  1  0.23839548  0.58642030  0.78696098  1
  Bi2+  Bi78  1  0.31616040  0.81489759  0.30560841  1
  Bi2+  Bi79  1  0.25162647  0.89089813  0.77854612  1
  Bi2+  Bi80  1  0.50302893  0.07378217  0.28662583  1
  Bi2+  Bi81  1  0.45106023  0.10522108  0.79893863  1
  Bi2+  Bi82  1  0.49620804  0.37858532  0.29358889  1
  Bi2+  Bi83  1  0.46606955  0.36245922  0.78919750  1
  Bi2+  Bi84  1  0.50736424  0.64450583  0.29402788  1
  Bi2+  Bi85  1  0.50987882  0.62429362  0.79168817  1
  Bi2+  Bi86  1  0.52762962  0.88403288  0.30071230  1
  Bi2+  Bi87  1  0.50765905  0.85611380  0.79798095  1
  Bi2+  Bi88  1  0.76239453  0.06772138  0.27322484  1
  Bi2+  Bi89  1  0.72305125  0.09274622  0.79077382  1
  Bi2+  Bi90  1  0.72596364  0.43552996  0.29364279  1
  Bi2+  Bi91  1  0.73530323  0.35101063  0.78832344  1
  Bi2+  Bi92  1  0.77776507  0.63681364  0.30042544  1
  Bi2+  Bi93  1  0.78520771  0.63979964  0.77939595  1
  Bi2+  Bi94  1  0.70997862  0.82058525  0.29450931  1
  Bi2+  Bi95  1  0.79700315  0.87907862  0.78276663  1
  Bi2+  Bi96  1  0.11725745  -0.06565503  0.21427510  1
  Bi2+  Bi97  1  0.11116129  -0.04910300  0.70964148  1
  Bi2+  Bi98  1  0.09924975  0.21445013  0.20455920  1
  Bi2+  Bi99  1  0.18323537  0.24683494  0.71472497  1
  Bi2+  Bi100  1  0.10176255  0.49653301  0.20948044  1
  Bi2+  Bi101  1  0.13688359  0.48275113  0.71146761  1
  Bi2+  Bi102  1  0.05474867  0.74986083  0.17464241  1
  Bi2+  Bi103  1  0.14069476  0.75675149  0.70710920  1
  Bi2+  Bi104  1  0.38344771  -0.07307006  0.21479135  1
  Bi2+  Bi105  1  0.35987365  0.02378089  0.70683035  1
  Bi2+  Bi106  1  0.37446669  0.24403560  0.21974407  1
  Bi2+  Bi107  1  0.38858696  0.22852408  0.71114639  1
  Bi2+  Bi108  1  0.36225232  0.51886064  0.21063026  1
  Bi2+  Bi109  1  0.35072922  0.48804723  0.70906269  1
  Bi2+  Bi110  1  0.36798518  0.72657202  0.20012273  1
  Bi2+  Bi111  1  0.32862114  0.74512108  0.71817630  1
  Bi2+  Bi112  1  0.64792650  -0.03621147  0.20247424  1
  Bi2+  Bi113  1  0.61632358  0.02290867  0.70824713  1
  Bi2+  Bi114  1  0.64937573  0.23590346  0.20934609  1
  Bi2+  Bi115  1  0.58313260  0.21803720  0.73779778  1
  Bi2+  Bi116  1  0.63339692  0.56627915  0.21755612  1
  Bi2+  Bi117  1  0.60155889  0.50328273  0.71291144  1
  Bi2+  Bi118  1  0.56792962  0.75683946  0.20457088  1
  Bi2+  Bi119  1  0.68885326  0.76686262  0.71402194  1
  Bi2+  Bi120  1  0.89091016  -0.04133161  0.21442493  1
  Bi2+  Bi121  1  0.86049371  0.02133248  0.71258542  1
  Bi2+  Bi122  1  0.89201189  0.25242219  0.23913561  1
  Bi2+  Bi123  1  0.87046245  0.24076360  0.70766701  1
  Bi2+  Bi124  1  0.83431482  0.45410683  0.20212328  1
  Bi2+  Bi125  1  0.88019896  0.50630722  0.69469673  1
  Bi2+  Bi126  1  0.86439953  0.73037533  0.19832745  1
  Bi2+  Bi127  1  0.93341305  0.75739670  0.71331709  1
  S2-  S128  1  -0.03594556  0.23462066  0.14313729  1
  S2-  S129  1  -0.03365414  0.12980482  0.65805634  1
  S2-  S130  1  0.12936805  0.35701834  0.15291729  1
  S2-  S131  1  -0.03550834  0.36997376  0.66217988  1
  S2-  S132  1  -0.02366438  0.50420597  0.14516421  1
  S2-  S133  1  -0.00232354  0.62065200  0.65270808  1
  S2-  S134  1  0.00309382  1.01210631  0.14545600  1
  S2-  S135  1  -0.05157999  0.89626287  0.65701044  1
  S2-  S136  1  0.25238075  0.14846647  0.16313816  1
  S2-  S137  1  0.24982206  0.12136781  0.64977137  1
  S2-  S138  1  0.35603076  0.37097458  0.15851961  1
  S2-  S139  1  0.24501358  0.39211907  0.64983091  1
  S2-  S140  1  0.23842492  0.54786982  0.14724623  1
  S2-  S141  1  0.33770043  0.62462656  0.64157833  1
  S2-  S142  1  0.25139856  0.90492132  0.15189013  1
  S2-  S143  1  0.34113426  0.87880444  0.64623300  1
  S2-  S144  1  0.49924571  0.15475812  0.18594741  1
  S2-  S145  1  0.49661634  0.05639270  0.63784441  1
  S2-  S146  1  0.54468366  0.34860776  0.19226200  1
  S2-  S147  1  0.48554897  0.45196169  0.64417716  1
  S2-  S148  1  0.50098784  0.53974933  0.14616831  1
  S2-  S149  1  0.55660121  0.64738787  0.68059549  1
  S2-  S150  1  0.50797847  0.96079702  0.13956229  1
  S2-  S151  1  0.55450444  0.86228725  0.69258233  1
  S2-  S152  1  0.71549013  0.10470541  0.15281465  1
  S2-  S153  1  0.74808563  0.23321409  0.64658959  1
  S2-  S154  1  0.74590204  0.34530490  0.14905177  1
  S2-  S155  1  0.74282992  0.44188651  0.66301746  1
  S2-  S156  1  0.76650770  0.59979106  0.15281715  1
  S2-  S157  1  0.78247173  0.64679380  0.66373556  1
  S2-  S158  1  0.77515305  0.86544415  0.15380536  1
  S2-  S159  1  0.73961885  0.98936640  0.63727102  1
  S2-  S160  1  0.13167369  0.01927542  0.33375729  1
  S2-  S161  1  0.11813217  0.00574122  0.84927503  1
  S2-  S162  1  0.11203199  0.24677705  0.34045671  1
  S2-  S163  1  0.01961185  0.24272218  0.85845636  1
  S2-  S164  1  0.11003549  0.47184327  0.34233240  1
  S2-  S165  1  0.03302469  0.51105364  0.85837612  1
  S2-  S166  1  0.14979295  0.78295047  0.34563076  1
  S2-  S167  1  0.11025782  0.75987317  0.85011233  1
  S2-  S168  1  0.36211633  0.04188044  0.33757547  1
  S2-  S169  1  0.38169366  -0.05173763  0.84104607  1
  S2-  S170  1  0.37031550  0.26536283  0.33175603  1
  S2-  S171  1  0.35257648  0.29759448  0.85694152  1
  S2-  S172  1  0.32652684  0.47269570  0.31366835  1
  S2-  S173  1  0.45804059  0.50390385  0.85534242  1
  S2-  S174  1  0.37561115  0.66679737  0.35586248  1
  S2-  S175  1  0.39993807  0.73081045  0.83770519  1
  S2-  S176  1  0.63771628  0.09476616  0.35020755  1
  S2-  S177  1  0.61883396  -0.03960660  0.83559674  1
  S2-  S178  1  0.62605761  0.30623332  0.33178567  1
  S2-  S179  1  0.59940082  0.33660799  0.85455686  1
  S2-  S180  1  0.52869334  0.50340894  0.35693801  1
  S2-  S181  1  0.66923853  0.53337810  0.81507480  1
  S2-  S182  1  0.63868473  0.69183131  0.35984454  1
  S2-  S183  1  0.61077081  0.73837644  0.84012477  1
  S2-  S184  1  0.88762720  0.02579386  0.33669564  1
  S2-  S185  1  0.88800334  -0.01921144  0.84765920  1
  S2-  S186  1  0.86244842  0.26264651  0.34548547  1
  S2-  S187  1  0.79078552  0.22438819  0.84118630  1
  S2-  S188  1  0.86668575  0.49598206  0.34403168  1
  S2-  S189  1  0.86243553  0.42337656  0.82798184  1
  S2-  S190  1  0.85880388  0.78765593  0.34850324  1
  S2-  S191  1  0.88156875  0.66740276  0.85639531  1
  S2-  S192  1  -0.00026390  0.12712700  0.45082229  1
  S2-  S193  1  0.00037604  0.12156717  0.95840709  1
  S2-  S194  1  -0.00027218  0.37678882  0.45601707  1
  S2-  S195  1  0.00534623  0.37635706  0.95954569  1
  S2-  S196  1  -0.00115322  0.62509691  0.44699265  1
  S2-  S197  1  0.00524438  0.63233466  0.96346859  1
  S2-  S198  1  -0.00141600  0.87486341  0.45174859  1
  S2-  S199  1  0.00011734  0.87315809  0.96159012  1
  S2-  S200  1  0.24966391  0.12705287  0.44592928  1
  S2-  S201  1  0.25054590  0.12695482  0.95662784  1
  S2-  S202  1  0.24873662  0.37981935  0.44414895  1
  S2-  S203  1  0.25095473  0.37684696  0.96303600  1
  S2-  S204  1  0.24469234  0.62350082  0.44949679  1
  S2-  S205  1  0.25376518  0.62780725  0.95066974  1
  S2-  S206  1  0.25148698  0.87695278  0.45239974  1
  S2-  S207  1  0.25244331  0.87497460  0.94907320  1
  S2-  S208  1  0.49455819  0.12555353  0.44477812  1
  S2-  S209  1  0.50546511  0.12653950  0.95154693  1
  S2-  S210  1  0.49970734  0.37137627  0.44914732  1
  S2-  S211  1  0.49981085  0.37756297  0.96374721  1
  S2-  S212  1  0.49914214  0.62700712  0.46608745  1
  S2-  S213  1  0.50026383  0.62602063  0.95431999  1
  S2-  S214  1  0.49595687  0.87788389  0.44306061  1
  S2-  S215  1  0.50163556  0.87821697  0.95029791  1
  S2-  S216  1  0.75040979  0.12515856  0.45645634  1
  S2-  S217  1  0.75444589  0.12182485  0.94930724  1
  S2-  S218  1  0.74499787  0.37437744  0.45618604  1
  S2-  S219  1  0.75415920  0.38191967  0.94457754  1
  S2-  S220  1  0.74947089  0.62614325  0.46093711  1
  S2-  S221  1  0.74594674  0.62457867  0.94654252  1
  S2-  S222  1  0.74694878  0.87725719  0.45539042  1
  S2-  S223  1  0.75451056  0.87455994  0.94788109  1
  S2-  S224  1  0.13202785  0.00086360  0.05042277  1
  S2-  S225  1  0.12739300  0.00189451  0.54571622  1
  S2-  S226  1  0.13071954  0.24462249  0.04558476  1
  S2-  S227  1  0.12609103  0.25088555  0.54743289  1
  S2-  S228  1  0.12479781  0.50528113  0.04656172  1
  S2-  S229  1  0.12425536  0.50114609  0.54596245  1
  S2-  S230  1  0.12937044  0.75444319  0.05204898  1
  S2-  S231  1  0.12759036  0.74933564  0.54882503  1
  S2-  S232  1  0.37617036  0.00278912  0.04445617  1
  S2-  S233  1  0.37288821  0.00230700  0.53871681  1
  S2-  S234  1  0.38312798  0.24322179  0.05957126  1
  S2-  S235  1  0.37342930  0.24951094  0.54251294  1
  S2-  S236  1  0.37672897  0.50305905  0.04590850  1
  S2-  S237  1  0.37232292  0.49775749  0.53484448  1
  S2-  S238  1  0.37754418  0.75417325  0.04590780  1
  S2-  S239  1  0.38123931  0.75516658  0.54699015  1
  S2-  S240  1  0.62843720  -0.00051087  0.03973264  1
  S2-  S241  1  0.61569229  -0.00377938  0.53744211  1
  S2-  S242  1  0.62112003  0.25028483  0.04951732  1
  S2-  S243  1  0.61774554  0.24746816  0.54218236  1
  S2-  S244  1  0.62613812  0.50020808  0.04462341  1
  S2-  S245  1  0.62413524  0.49786697  0.54831922  1
  S2-  S246  1  0.62517144  0.75375432  0.04742545  1
  S2-  S247  1  0.62084164  0.75761813  0.56174929  1
  S2-  S248  1  0.87321532  0.00093702  0.04936898  1
  S2-  S249  1  0.87689651  -0.00064809  0.54281343  1
  S2-  S250  1  0.87328890  0.25245331  0.03450623  1
  S2-  S251  1  0.87722282  0.25131458  0.54698101  1
  S2-  S252  1  0.87484439  0.50215763  0.03666237  1
  S2-  S253  1  0.87376318  0.49915644  0.55112619  1
  S2-  S254  1  0.87792913  0.75215382  0.04841365  1
  S2-  S255  1  0.86945203  0.75335286  0.55110316  1
