# generated using pymatgen
data_La12Ce14Pr13Nd13Sm12(BiS2)64
_symmetry_space_group_name_H-M   'P 1'
_cell_length_a   16.20989745
_cell_length_b   16.20009274
_cell_length_c   27.13398768
_cell_angle_alpha   89.93429164
_cell_angle_beta   90.15703802
_cell_angle_gamma   89.98480996
_symmetry_Int_Tables_number   1
_chemical_formula_structural   La12Ce14Pr13Nd13Sm12(BiS2)64
_chemical_formula_sum   'La12 Ce14 Pr13 Nd13 Sm12 Bi64 S128'
_cell_volume   7125.40343994
_cell_formula_units_Z   1
loop_
 _symmetry_equiv_pos_site_id
 _symmetry_equiv_pos_as_xyz
  1  'x, y, z'
loop_
 _atom_type_symbol
 _atom_type_oxidation_number
  La3+  3.0
  Ce3+  3.0
  Pr3+  3.0
  Nd3+  3.0
  Sm3+  3.0
  Bi2+  2.0
  S2-  -2.0
loop_
 _atom_site_type_symbol
 _atom_site_label
 _atom_site_symmetry_multiplicity
 _atom_site_fract_x
 _atom_site_fract_y
 _atom_site_fract_z
 _atom_site_occupancy
  La3+  La0  1  -0.00070993  0.37298968  0.56531438  1
  La3+  La1  1  -0.00804522  0.62458979  0.06497447  1
  La3+  La2  1  0.12892640  0.25171685  0.38868434  1
  La3+  La3  1  0.25231208  0.62640705  0.58397142  1
  La3+  La4  1  0.13460441  0.25102184  0.93673606  1
  La3+  La5  1  0.87067688  0.24380947  0.42796085  1
  La3+  La6  1  0.25590715  0.38863777  0.08329894  1
  La3+  La7  1  0.25871365  0.11483471  0.08169619  1
  La3+  La8  1  0.12059205  0.50068659  0.92507849  1
  La3+  La9  1  0.11929085  0.00320372  0.93442424  1
  La3+  La10  1  0.87260963  -0.01144160  0.43302680  1
  La3+  La11  1  0.11748661  0.74976761  0.91673266  1
  Ce3+  Ce12  1  0.62508985  0.24696571  0.43737778  1
  Ce3+  Ce13  1  0.00344366  0.12816006  0.06318272  1
  Ce3+  Ce14  1  0.49686848  0.87352674  0.56215422  1
  Ce3+  Ce15  1  0.37406670  0.50157026  0.93669770  1
  Ce3+  Ce16  1  0.12745129  0.74443129  0.43980384  1
  Ce3+  Ce17  1  0.75215409  0.62684320  0.05242039  1
  Ce3+  Ce18  1  0.49761601  0.37653141  0.06146347  1
  Ce3+  Ce19  1  0.87401524  0.49322117  0.92881910  1
  Ce3+  Ce20  1  0.87392673  0.75045784  0.93490060  1
  Ce3+  Ce21  1  0.75271969  0.12661562  0.06000007  1
  Ce3+  Ce22  1  0.49765108  0.37232822  0.55137999  1
  Ce3+  Ce23  1  0.62165794  0.49842898  0.44035452  1
  Ce3+  Ce24  1  0.62898796  0.75457646  0.93526798  1
  Ce3+  Ce25  1  0.37031382  0.25224539  0.94464692  1
  Pr3+  Pr26  1  0.24948798  0.87426418  0.05043460  1
  Pr3+  Pr27  1  0.36870923  -0.00189543  0.43854402  1
  Pr3+  Pr28  1  0.49875278  0.87691723  0.05052480  1
  Pr3+  Pr29  1  0.49691660  0.12278661  0.55825982  1
  Pr3+  Pr30  1  0.50126869  0.62940912  0.06060584  1
  Pr3+  Pr31  1  0.36521762  0.00170878  0.92035363  1
  Pr3+  Pr32  1  0.12206248  0.50195341  0.43308044  1
  Pr3+  Pr33  1  0.62158098  0.24967034  0.94743799  1
  Pr3+  Pr34  1  0.00489622  0.37642477  0.05980617  1
  Pr3+  Pr35  1  -0.00370936  0.12295412  0.55753470  1
  Pr3+  Pr36  1  0.24380172  0.87695052  0.56994464  1
  Pr3+  Pr37  1  0.49848039  0.62020894  0.56602089  1
  Pr3+  Pr38  1  0.36739051  0.49917757  0.44111653  1
  Nd3+  Nd39  1  0.61801342  -0.00423765  0.44321469  1
  Nd3+  Nd40  1  0.62370392  0.50056516  0.94652770  1
  Nd3+  Nd41  1  0.87298891  0.74967476  0.44132273  1
  Nd3+  Nd42  1  0.12174172  0.00020991  0.43787433  1
  Nd3+  Nd43  1  0.24920534  0.62671815  0.05077739  1
  Nd3+  Nd44  1  0.24487448  0.37368560  0.55929041  1
  Nd3+  Nd45  1  0.49761575  0.12497031  0.05528655  1
  Nd3+  Nd46  1  0.24521173  0.12406884  0.56284619  1
  Nd3+  Nd47  1  0.00086574  0.87660894  0.05915077  1
  Nd3+  Nd48  1  0.36699988  0.24762802  0.43930995  1
  Nd3+  Nd49  1  0.74608904  0.37343573  0.56140030  1
  Nd3+  Nd50  1  -0.00281782  0.87167311  0.56330907  1
  Nd3+  Nd51  1  0.61720877  0.74420285  0.44353201  1
  Sm3+  Sm52  1  0.74682237  0.87178730  0.55812354  1
  Sm3+  Sm53  1  0.75130761  0.87921316  0.05290051  1
  Sm3+  Sm54  1  0.87852616  0.00405147  0.93933667  1
  Sm3+  Sm55  1  0.74797081  0.62373280  0.55477784  1
  Sm3+  Sm56  1  0.62544624  0.00452248  0.94322150  1
  Sm3+  Sm57  1  -0.00057439  0.62396302  0.55933606  1
  Sm3+  Sm58  1  0.36869188  0.74774449  0.44911114  1
  Sm3+  Sm59  1  0.74857393  0.12200400  0.55574183  1
  Sm3+  Sm60  1  0.87552746  0.25428996  0.94351878  1
  Sm3+  Sm61  1  0.38361947  0.75054784  0.92727945  1
  Sm3+  Sm62  1  0.75065273  0.37576500  0.06071223  1
  Sm3+  Sm63  1  0.87314951  0.49697232  0.44760347  1
  Bi2+  Bi64  1  -0.00716342  0.12076663  0.28539027  1
  Bi2+  Bi65  1  0.03002862  0.14104686  0.78791512  1
  Bi2+  Bi66  1  -0.04258897  0.40410207  0.28899677  1
  Bi2+  Bi67  1  -0.03103264  0.37474590  0.78990491  1
  Bi2+  Bi68  1  0.00155070  0.68270228  0.26402210  1
  Bi2+  Bi69  1  -0.04707155  0.63097544  0.77854538  1
  Bi2+  Bi70  1  0.02823432  0.85332138  0.31213155  1
  Bi2+  Bi71  1  -0.04492008  0.89771063  0.78861330  1
  Bi2+  Bi72  1  0.25007054  0.12450583  0.27926085  1
  Bi2+  Bi73  1  0.28394318  0.12922458  0.78746381  1
  Bi2+  Bi74  1  0.25062204  0.38179849  0.28659281  1
  Bi2+  Bi75  1  0.29104765  0.38936877  0.79236664  1
  Bi2+  Bi76  1  0.25734565  0.64328310  0.29840840  1
  Bi2+  Bi77  1  0.26943410  0.63062322  0.78938402  1
  Bi2+  Bi78  1  0.21580180  0.86737264  0.29389332  1
  Bi2+  Bi79  1  0.26694142  0.88845630  0.78846297  1
  Bi2+  Bi80  1  0.50218613  0.10194584  0.28730403  1
  Bi2+  Bi81  1  0.55267236  0.14861529  0.78352003  1
  Bi2+  Bi82  1  0.53018512  0.36043927  0.28157238  1
  Bi2+  Bi83  1  0.50542737  0.33626249  0.79367545  1
  Bi2+  Bi84  1  0.51137939  0.65378527  0.29033602  1
  Bi2+  Bi85  1  0.55949869  0.61649185  0.77643614  1
  Bi2+  Bi86  1  0.46634118  0.84681481  0.28794652  1
  Bi2+  Bi87  1  0.58947082  0.86431954  0.78228880  1
  Bi2+  Bi88  1  0.74110064  0.11561789  0.28832356  1
  Bi2+  Bi89  1  0.78215370  0.02969097  0.81949011  1
  Bi2+  Bi90  1  0.73032772  0.37513316  0.29039686  1
  Bi2+  Bi91  1  0.71979030  0.40702603  0.79988530  1
  Bi2+  Bi92  1  0.75054189  0.57864801  0.29101954  1
  Bi2+  Bi93  1  0.75965903  0.62857188  0.80092248  1
  Bi2+  Bi94  1  0.73540277  0.84806833  0.29021168  1
  Bi2+  Bi95  1  0.76772214  0.82258131  0.82431506  1
  Bi2+  Bi96  1  0.09923582  -0.03367779  0.20812799  1
  Bi2+  Bi97  1  0.10952197  0.02421630  0.70947450  1
  Bi2+  Bi98  1  0.08328829  0.24903109  0.18525427  1
  Bi2+  Bi99  1  0.12684915  0.25882023  0.69410261  1
  Bi2+  Bi100  1  0.12772704  0.50774432  0.20216953  1
  Bi2+  Bi101  1  0.10386320  0.49968441  0.70174217  1
  Bi2+  Bi102  1  0.15502212  0.75797220  0.20354974  1
  Bi2+  Bi103  1  0.11811177  0.75388264  0.70552356  1
  Bi2+  Bi104  1  0.37312011  -0.03462598  0.20085747  1
  Bi2+  Bi105  1  0.40744907  0.03278304  0.71405246  1
  Bi2+  Bi106  1  0.42570571  0.23703059  0.21107966  1
  Bi2+  Bi107  1  0.38074969  0.25058770  0.72131577  1
  Bi2+  Bi108  1  0.43680627  0.50508967  0.21910208  1
  Bi2+  Bi109  1  0.43405640  0.49912103  0.72309390  1
  Bi2+  Bi110  1  0.35438336  0.75970722  0.20672194  1
  Bi2+  Bi111  1  0.40778734  0.77026589  0.70926849  1
  Bi2+  Bi112  1  0.60304204  -0.05916997  0.22398058  1
  Bi2+  Bi113  1  0.65853120  0.00637947  0.71384030  1
  Bi2+  Bi114  1  0.61640447  0.21556974  0.21363579  1
  Bi2+  Bi115  1  0.67561964  0.25672953  0.71438629  1
  Bi2+  Bi116  1  0.62711866  0.48387735  0.20292647  1
  Bi2+  Bi117  1  0.63748707  0.46254184  0.68925533  1
  Bi2+  Bi118  1  0.64979130  0.67942755  0.20917128  1
  Bi2+  Bi119  1  0.65471429  0.73257437  0.70294511  1
  Bi2+  Bi120  1  0.82231716  -0.02164193  0.21885519  1
  Bi2+  Bi121  1  0.85455099  0.00586862  0.70994348  1
  Bi2+  Bi122  1  0.82568909  0.25361716  0.21604525  1
  Bi2+  Bi123  1  0.84724152  0.18758800  0.76384492  1
  Bi2+  Bi124  1  0.87380651  0.50567524  0.20745602  1
  Bi2+  Bi125  1  0.83476227  0.49953832  0.72096568  1
  Bi2+  Bi126  1  0.84118365  0.75117548  0.21150822  1
  Bi2+  Bi127  1  0.85351229  0.77757604  0.71923241  1
  S2-  S128  1  0.00607259  0.09680040  0.16089094  1
  S2-  S129  1  0.01204651  0.13955686  0.65804051  1
  S2-  S130  1  -0.00043580  0.40270438  0.16007266  1
  S2-  S131  1  0.00642895  0.36013250  0.66742436  1
  S2-  S132  1  0.04740135  0.63481506  0.16150019  1
  S2-  S133  1  0.01721106  0.62263647  0.65775500  1
  S2-  S134  1  0.01502019  0.85872557  0.15823484  1
  S2-  S135  1  0.05596301  0.87664053  0.65726122  1
  S2-  S136  1  0.21728042  0.15422080  0.18034606  1
  S2-  S137  1  0.24293524  0.06619966  0.65803824  1
  S2-  S138  1  0.21069519  0.36231101  0.18267289  1
  S2-  S139  1  0.21917268  0.38141212  0.65966042  1
  S2-  S140  1  0.23995907  0.54545209  0.13849876  1
  S2-  S141  1  0.21620833  0.60750374  0.68506292  1
  S2-  S142  1  0.24534710  0.95673238  0.13974409  1
  S2-  S143  1  0.26239273  0.81516868  0.66483312  1
  S2-  S144  1  0.41684203  0.10444561  0.14190485  1
  S2-  S145  1  0.47919067  0.14522972  0.65714782  1
  S2-  S146  1  0.41278676  0.37852105  0.14600777  1
  S2-  S147  1  0.49275624  0.40214502  0.64733835  1
  S2-  S148  1  0.44028536  0.64234037  0.15481488  1
  S2-  S149  1  0.41105348  0.63501484  0.65225072  1
  S2-  S150  1  0.50424101  0.87841770  0.15122662  1
  S2-  S151  1  0.47905517  0.89577627  0.65908585  1
  S2-  S152  1  0.76951857  0.11629990  0.15711820  1
  S2-  S153  1  0.73550178  0.12453293  0.65383214  1
  S2-  S154  1  0.76923517  0.38459503  0.15859180  1
  S2-  S155  1  0.78230668  0.36195915  0.65861909  1
  S2-  S156  1  0.84227895  0.62178474  0.13548132  1
  S2-  S157  1  0.73164143  0.60524622  0.65160961  1
  S2-  S158  1  0.75682398  0.87341282  0.15059013  1
  S2-  S159  1  0.74523521  0.87673508  0.65617251  1
  S2-  S160  1  0.12528912  0.08134613  0.34837843  1
  S2-  S161  1  0.21279391  0.00920615  0.84920593  1
  S2-  S162  1  0.13631038  0.24708407  0.27893413  1
  S2-  S163  1  0.06671702  0.27862190  0.84261821  1
  S2-  S164  1  0.11845425  0.41427731  0.34473436  1
  S2-  S165  1  0.18083372  0.49381799  0.82517920  1
  S2-  S166  1  0.13433690  0.63605646  0.36263588  1
  S2-  S167  1  0.16044142  0.75296992  0.81367734  1
  S2-  S168  1  0.36938933  0.03612211  0.33945580  1
  S2-  S169  1  0.39908412  -0.01810433  0.81896215  1
  S2-  S170  1  0.29904246  0.25218096  0.34768617  1
  S2-  S171  1  0.27815596  0.24796146  0.86083150  1
  S2-  S172  1  0.33367197  0.50662876  0.34189785  1
  S2-  S173  1  0.37918235  0.52220527  0.83863063  1
  S2-  S174  1  0.33570898  0.77349473  0.35322151  1
  S2-  S175  1  0.35331095  0.76165707  0.82937695  1
  S2-  S176  1  0.62266740  0.02335634  0.34509441  1
  S2-  S177  1  0.61011769  0.01266775  0.84589922  1
  S2-  S178  1  0.72990042  0.25016872  0.35911208  1
  S2-  S179  1  0.63787638  0.25710497  0.84786866  1
  S2-  S180  1  0.60305595  0.54809329  0.34840954  1
  S2-  S181  1  0.60144813  0.49276921  0.84825810  1
  S2-  S182  1  0.60024712  0.78043615  0.34716081  1
  S2-  S183  1  0.54633564  0.74154956  0.85106640  1
  S2-  S184  1  0.87762640  0.07608972  0.34511697  1
  S2-  S185  1  0.98868941  0.01212050  0.86059732  1
  S2-  S186  1  0.96597813  0.25876540  0.34435774  1
  S2-  S187  1  0.85753424  0.35195593  0.86205425  1
  S2-  S188  1  0.88876340  0.51408969  0.34918970  1
  S2-  S189  1  0.98585743  0.51331185  0.85338010  1
  S2-  S190  1  0.86901280  0.85237069  0.36078372  1
  S2-  S191  1  0.97164779  0.75169463  0.85422197  1
  S2-  S192  1  -0.00345007  0.11968786  0.45250737  1
  S2-  S193  1  -0.00261872  0.13498735  0.95703227  1
  S2-  S194  1  -0.00500645  0.37774360  0.45679983  1
  S2-  S195  1  0.00278604  0.37125937  0.95505940  1
  S2-  S196  1  -0.00738654  0.62434959  0.45542350  1
  S2-  S197  1  -0.00333352  0.62690310  0.95581709  1
  S2-  S198  1  0.00360743  0.86964097  0.45803477  1
  S2-  S199  1  -0.00284033  0.87499231  0.95401783  1
  S2-  S200  1  0.24532034  0.12394223  0.45556548  1
  S2-  S201  1  0.25108640  0.12199267  0.96156302  1
  S2-  S202  1  0.24364117  0.37208402  0.45357452  1
  S2-  S203  1  0.25116844  0.38263518  0.95786746  1
  S2-  S204  1  0.25053396  0.62486889  0.46762756  1
  S2-  S205  1  0.25009048  0.63107818  0.94263650  1
  S2-  S206  1  0.24582651  0.87423791  0.45905759  1
  S2-  S207  1  0.24951591  0.86802377  0.94365164  1
  S2-  S208  1  0.49539276  0.12478005  0.45060874  1
  S2-  S209  1  0.49572171  0.12384530  0.94796560  1
  S2-  S210  1  0.49514536  0.37156085  0.44423156  1
  S2-  S211  1  0.49815234  0.37606962  0.95404260  1
  S2-  S212  1  0.49158615  0.62387591  0.45781907  1
  S2-  S213  1  0.50073079  0.62623432  0.95304156  1
  S2-  S214  1  0.49328609  0.87138654  0.45430076  1
  S2-  S215  1  0.49984712  0.88154487  0.94426969  1
  S2-  S216  1  0.74502247  0.11571766  0.45362857  1
  S2-  S217  1  0.75265948  0.12755160  0.95298367  1
  S2-  S218  1  0.74746367  0.37800033  0.45484754  1
  S2-  S219  1  0.74435076  0.37389521  0.95837949  1
  S2-  S220  1  0.74914339  0.62505407  0.44995042  1
  S2-  S221  1  0.74953101  0.62395726  0.94625340  1
  S2-  S222  1  0.73971037  0.86957262  0.45529202  1
  S2-  S223  1  0.75134586  0.88364103  0.94910686  1
  S2-  S224  1  0.12223779  0.00108568  0.04295086  1
  S2-  S225  1  0.12063958  -0.00159718  0.54616182  1
  S2-  S226  1  0.13247897  0.25154960  0.05243994  1
  S2-  S227  1  0.12338470  0.24698417  0.55371424  1
  S2-  S228  1  0.12279710  0.50390850  0.03833000  1
  S2-  S229  1  0.12378199  0.50293575  0.54906931  1
  S2-  S230  1  0.12343446  0.75030737  0.04035688  1
  S2-  S231  1  0.12282074  0.74671190  0.55010735  1
  S2-  S232  1  0.37584107  -0.00290518  0.03237457  1
  S2-  S233  1  0.37065830  -0.00139775  0.54740672  1
  S2-  S234  1  0.37320626  0.25057755  0.04826538  1
  S2-  S235  1  0.36981269  0.24877704  0.54739277  1
  S2-  S236  1  0.37940865  0.50608292  0.04233365  1
  S2-  S237  1  0.37091451  0.49684142  0.54933243  1
  S2-  S238  1  0.37522020  0.75104861  0.03654395  1
  S2-  S239  1  0.37195290  0.75223794  0.55181318  1
  S2-  S240  1  0.62572845  0.00263938  0.04910674  1
  S2-  S241  1  0.62449349  -0.00250834  0.55052462  1
  S2-  S242  1  0.62432125  0.25125527  0.05542872  1
  S2-  S243  1  0.62446139  0.24661789  0.54586148  1
  S2-  S244  1  0.62641618  0.50090696  0.05329503  1
  S2-  S245  1  0.62424401  0.49961278  0.54580486  1
  S2-  S246  1  0.62850671  0.75428141  0.04444656  1
  S2-  S247  1  0.62298067  0.74719448  0.55107240  1
  S2-  S248  1  0.87672122  0.00152529  0.04567942  1
  S2-  S249  1  0.87021397  -0.00538111  0.54689481  1
  S2-  S250  1  0.87485214  0.25327485  0.04983753  1
  S2-  S251  1  0.86940029  0.24711475  0.54525441  1
  S2-  S252  1  0.87279786  0.49356340  0.03867582  1
  S2-  S253  1  0.87205408  0.50158118  0.55332064  1
  S2-  S254  1  0.87230262  0.75749353  0.04184132  1
  S2-  S255  1  0.87180335  0.74759766  0.54961819  1
