# generated using pymatgen
data_La12Ce14Pr13Nd13Sm12(BiS2)64
_symmetry_space_group_name_H-M   'P 1'
_cell_length_a   16.19450618
_cell_length_b   16.16281459
_cell_length_c   27.17156888
_cell_angle_alpha   90.06711344
_cell_angle_beta   90.05448017
_cell_angle_gamma   90.04049472
_symmetry_Int_Tables_number   1
_chemical_formula_structural   La12Ce14Pr13Nd13Sm12(BiS2)64
_chemical_formula_sum   'La12 Ce14 Pr13 Nd13 Sm12 Bi64 S128'
_cell_volume   7112.11568945
_cell_formula_units_Z   1
loop_
 _symmetry_equiv_pos_site_id
 _symmetry_equiv_pos_as_xyz
  1  'x, y, z'
loop_
 _atom_type_symbol
 _atom_type_oxidation_number
  La3+  3.0
  Ce3+  3.0
  Pr3+  3.0
  Nd3+  3.0
  Sm3+  3.0
  Bi2+  2.0
  S2-  -2.0
loop_
 _atom_site_type_symbol
 _atom_site_label
 _atom_site_symmetry_multiplicity
 _atom_site_fract_x
 _atom_site_fract_y
 _atom_site_fract_z
 _atom_site_occupancy
  La3+  La0  1  0.26293060  0.12945151  0.57314306  1
  La3+  La1  1  0.23761930  0.38747995  0.11232994  1
  La3+  La2  1  0.74728936  0.37736256  0.57172731  1
  La3+  La3  1  0.50247191  0.36913644  0.07232846  1
  La3+  La4  1  0.24774758  0.62282787  0.57687646  1
  La3+  La5  1  0.38474678  0.51906779  0.41048526  1
  La3+  La6  1  0.37317312  0.24305851  0.41870643  1
  La3+  La7  1  0.88468718  0.00057728  0.39002495  1
  La3+  La8  1  -0.00412682  0.87541447  0.57635759  1
  La3+  La9  1  0.50142446  0.63139072  0.58683172  1
  La3+  La10  1  0.12722106  0.50374686  0.43383986  1
  La3+  La11  1  0.12399546  0.24558636  0.43785117  1
  Ce3+  Ce12  1  0.00542274  0.11862011  0.05846772  1
  Ce3+  Ce13  1  0.74692912  0.88068421  0.56455083  1
  Ce3+  Ce14  1  0.62641501  0.25117191  0.43928463  1
  Ce3+  Ce15  1  0.62835224  0.48297994  0.93108311  1
  Ce3+  Ce16  1  0.75449575  0.86636411  0.05735538  1
  Ce3+  Ce17  1  0.75362375  0.61651724  0.05289953  1
  Ce3+  Ce18  1  0.00992514  0.61451058  0.05097953  1
  Ce3+  Ce19  1  0.25117095  0.87655249  0.56353634  1
  Ce3+  Ce20  1  0.13202275  0.49255265  0.93162618  1
  Ce3+  Ce21  1  0.37313136  -0.00378168  0.43198730  1
  Ce3+  Ce22  1  0.87229781  0.75439268  0.44586294  1
  Ce3+  Ce23  1  0.62382090  0.74857254  0.44986061  1
  Ce3+  Ce24  1  0.87888062  0.48893999  0.93922663  1
  Ce3+  Ce25  1  0.86870100  0.49873358  0.43089105  1
  Pr3+  Pr26  1  0.62795646  0.23742460  0.93671694  1
  Pr3+  Pr27  1  0.75537593  0.11341810  0.06588452  1
  Pr3+  Pr28  1  0.13193679  0.24105796  0.94019048  1
  Pr3+  Pr29  1  0.01069762  0.85997004  0.06614585  1
  Pr3+  Pr30  1  0.12414718  0.75093137  0.44706649  1
  Pr3+  Pr31  1  0.38680295  0.74360461  0.91600463  1
  Pr3+  Pr32  1  0.63035374  0.73659309  0.92970708  1
  Pr3+  Pr33  1  0.62982502  -0.00460149  0.43402200  1
  Pr3+  Pr34  1  -0.00170795  0.12761909  0.56100892  1
  Pr3+  Pr35  1  0.00285486  0.37532390  0.55623353  1
  Pr3+  Pr36  1  0.74931134  0.62349342  0.57306472  1
  Pr3+  Pr37  1  0.87830130  0.74292365  0.93654887  1
  Pr3+  Pr38  1  0.25519971  0.86498415  0.05056785  1
  Nd3+  Nd39  1  0.49972591  0.12419349  0.54690681  1
  Nd3+  Nd40  1  0.25376124  0.12300098  0.07004215  1
  Nd3+  Nd41  1  0.50476864  0.11808135  0.06412109  1
  Nd3+  Nd42  1  0.12101581  0.75394997  0.91187536  1
  Nd3+  Nd43  1  -0.00159143  0.62277389  0.55540643  1
  Nd3+  Nd44  1  0.75238429  0.37362657  0.06870509  1
  Nd3+  Nd45  1  0.50282553  0.86610567  0.05550155  1
  Nd3+  Nd46  1  0.62347629  0.50326704  0.44433514  1
  Nd3+  Nd47  1  0.12162749  -0.00193992  0.45057489  1
  Nd3+  Nd48  1  0.49511529  0.37879322  0.55222704  1
  Nd3+  Nd49  1  0.74706090  0.12934182  0.56672929  1
  Nd3+  Nd50  1  0.50264107  0.61515585  0.05283550  1
  Nd3+  Nd51  1  0.86989071  0.25239483  0.43595840  1
  Sm3+  Sm52  1  0.49940297  0.87840747  0.56290332  1
  Sm3+  Sm53  1  0.37494086  0.75088313  0.45233571  1
  Sm3+  Sm54  1  0.37652260  0.24260315  0.94830035  1
  Sm3+  Sm55  1  0.12928407  -0.00854173  0.94259063  1
  Sm3+  Sm56  1  0.37831017  -0.00628244  0.94285619  1
  Sm3+  Sm57  1  0.87925950  -0.00939768  0.94269514  1
  Sm3+  Sm58  1  0.62897784  -0.00465831  0.93942174  1
  Sm3+  Sm59  1  0.25357823  0.37827636  0.54817738  1
  Sm3+  Sm60  1  0.25463047  0.61831754  0.04486811  1
  Sm3+  Sm61  1  0.87929594  0.24014047  0.94925883  1
  Sm3+  Sm62  1  0.00802478  0.36822431  0.05122968  1
  Sm3+  Sm63  1  0.37856288  0.49019172  0.93781126  1
  Bi2+  Bi64  1  0.02056838  0.12371816  0.29105216  1
  Bi2+  Bi65  1  0.01780576  0.18367199  0.79766077  1
  Bi2+  Bi66  1  -0.02290744  0.39818595  0.28817933  1
  Bi2+  Bi67  1  -0.02590696  0.36519057  0.76189482  1
  Bi2+  Bi68  1  -0.03596908  0.59546527  0.28474294  1
  Bi2+  Bi69  1  0.01681662  0.61853442  0.80099687  1
  Bi2+  Bi70  1  0.01220155  0.86425529  0.29112907  1
  Bi2+  Bi71  1  -0.00125257  0.89311762  0.78689168  1
  Bi2+  Bi72  1  0.23871443  0.06893754  0.27471559  1
  Bi2+  Bi73  1  0.28513207  0.13985327  0.81117303  1
  Bi2+  Bi74  1  0.22967673  0.37860913  0.31111690  1
  Bi2+  Bi75  1  0.23604819  0.35836214  0.75036637  1
  Bi2+  Bi76  1  0.23454105  0.67957353  0.29469360  1
  Bi2+  Bi77  1  0.26313115  0.58388699  0.79269661  1
  Bi2+  Bi78  1  0.30276930  0.89694342  0.31490671  1
  Bi2+  Bi79  1  0.30944609  0.93444790  0.74854545  1
  Bi2+  Bi80  1  0.50243545  0.07545597  0.25297729  1
  Bi2+  Bi81  1  0.48767671  0.09393582  0.79834157  1
  Bi2+  Bi82  1  0.50966444  0.38989669  0.30320231  1
  Bi2+  Bi83  1  0.51696996  0.31136451  0.77818845  1
  Bi2+  Bi84  1  0.50959396  0.67989925  0.29898862  1
  Bi2+  Bi85  1  0.50046731  0.62438304  0.79876297  1
  Bi2+  Bi86  1  0.49438765  0.91933149  0.31996494  1
  Bi2+  Bi87  1  0.57961654  0.92271388  0.77946772  1
  Bi2+  Bi88  1  0.73256089  0.15380232  0.29439509  1
  Bi2+  Bi89  1  0.74724867  0.16918573  0.79706225  1
  Bi2+  Bi90  1  0.73829268  0.42352097  0.28473424  1
  Bi2+  Bi91  1  0.72285168  0.41714243  0.78937053  1
  Bi2+  Bi92  1  0.77959770  0.60466321  0.31765097  1
  Bi2+  Bi93  1  0.76334310  0.70257933  0.80596218  1
  Bi2+  Bi94  1  0.74111727  0.85657891  0.29050248  1
  Bi2+  Bi95  1  0.76204211  0.89688462  0.81498588  1
  Bi2+  Bi96  1  0.15993703  -0.05100194  0.19501720  1
  Bi2+  Bi97  1  0.14228534  0.03408333  0.76380821  1
  Bi2+  Bi98  1  0.04777574  0.26187264  0.21513964  1
  Bi2+  Bi99  1  0.11429856  0.23566544  0.68861433  1
  Bi2+  Bi100  1  0.10011562  0.54366265  0.19869951  1
  Bi2+  Bi101  1  0.09563628  0.47999833  0.69878363  1
  Bi2+  Bi102  1  0.11963984  0.75839573  0.21328674  1
  Bi2+  Bi103  1  0.12469766  0.73794346  0.70538948  1
  Bi2+  Bi104  1  0.35058706  -0.01294207  0.19402256  1
  Bi2+  Bi105  1  0.46591060  -0.02080614  0.68512526  1
  Bi2+  Bi106  1  0.37280550  0.24309799  0.21307059  1
  Bi2+  Bi107  1  0.33708855  0.21312386  0.70733065  1
  Bi2+  Bi108  1  0.36478519  0.52502559  0.20961795  1
  Bi2+  Bi109  1  0.41216107  0.43474939  0.71545282  1
  Bi2+  Bi110  1  0.38629838  0.78955205  0.23383368  1
  Bi2+  Bi111  1  0.37035056  0.74791752  0.70842907  1
  Bi2+  Bi112  1  0.60674894  -0.07536560  0.21440389  1
  Bi2+  Bi113  1  0.66219970  0.01394697  0.67459629  1
  Bi2+  Bi114  1  0.63248080  0.25464005  0.21605846  1
  Bi2+  Bi115  1  0.61924832  0.19503586  0.71042967  1
  Bi2+  Bi116  1  0.61757237  0.51491089  0.20525831  1
  Bi2+  Bi117  1  0.63967557  0.48985963  0.70200256  1
  Bi2+  Bi118  1  0.65228385  0.70946815  0.22293982  1
  Bi2+  Bi119  1  0.64293429  0.76580848  0.72152160  1
  Bi2+  Bi120  1  0.88010500  0.02140146  0.18237418  1
  Bi2+  Bi121  1  0.82851194  0.02418666  0.73397429  1
  Bi2+  Bi122  1  0.84913191  0.26318838  0.21670291  1
  Bi2+  Bi123  1  0.87045461  0.22007599  0.71057792  1
  Bi2+  Bi124  1  0.86597896  0.45321911  0.19591418  1
  Bi2+  Bi125  1  0.84322385  0.54977288  0.74073920  1
  Bi2+  Bi126  1  0.84459652  0.72345987  0.23088172  1
  Bi2+  Bi127  1  0.88234980  0.75292873  0.71407935  1
  S2-  S128  1  0.01866165  0.12287980  0.15620991  1
  S2-  S129  1  -0.00178585  0.12852366  0.66213235  1
  S2-  S130  1  0.06449558  0.39417504  0.14244486  1
  S2-  S131  1  -0.02030789  0.38147038  0.65625534  1
  S2-  S132  1  0.01762918  0.66023099  0.14493154  1
  S2-  S133  1  0.02681417  0.62260291  0.65446547  1
  S2-  S134  1  -0.02021145  0.89759214  0.16315295  1
  S2-  S135  1  0.00761620  0.86741329  0.67808363  1
  S2-  S136  1  0.24941953  0.21977603  0.15403035  1
  S2-  S137  1  0.21312285  0.09967898  0.66882864  1
  S2-  S138  1  0.22797811  0.41796578  0.21948719  1
  S2-  S139  1  0.22588986  0.39535065  0.64526142  1
  S2-  S140  1  0.24630762  0.56704204  0.13931260  1
  S2-  S141  1  0.23630923  0.63000181  0.67998030  1
  S2-  S142  1  0.23110667  0.80886461  0.14390568  1
  S2-  S143  1  0.24320393  0.84873591  0.66122088  1
  S2-  S144  1  0.50613889  0.16983077  0.15964602  1
  S2-  S145  1  0.42255927  0.13443659  0.63545307  1
  S2-  S146  1  0.40145295  0.38120843  0.15661115  1
  S2-  S147  1  0.53079795  0.37661656  0.64994085  1
  S2-  S148  1  0.49613207  0.58840771  0.15198159  1
  S2-  S149  1  0.43634725  0.58892324  0.68185711  1
  S2-  S150  1  0.48010931  0.85425144  0.15360662  1
  S2-  S151  1  0.49272715  0.79732729  0.65166622  1
  S2-  S152  1  0.74825579  0.14374783  0.16528887  1
  S2-  S153  1  0.74463421  0.24922683  0.64237617  1
  S2-  S154  1  0.63328121  0.36760025  0.14321702  1
  S2-  S155  1  0.78300340  0.49408469  0.64592651  1
  S2-  S156  1  0.75802882  0.55276158  0.14326510  1
  S2-  S157  1  0.63963661  0.63692415  0.65417637  1
  S2-  S158  1  0.74778224  0.92523355  0.14866331  1
  S2-  S159  1  0.76933156  0.82538416  0.65784638  1
  S2-  S160  1  0.05949085  -0.00655198  0.35688669  1
  S2-  S161  1  0.12599206  -0.07499045  0.85203750  1
  S2-  S162  1  0.13540902  0.23903272  0.33789618  1
  S2-  S163  1  0.15701663  0.24923254  0.84056749  1
  S2-  S164  1  0.16941381  0.53237774  0.33808947  1
  S2-  S165  1  0.12849383  0.49851364  0.83393209  1
  S2-  S166  1  0.11580384  0.76062126  0.34629205  1
  S2-  S167  1  0.15347241  0.71330238  0.81196241  1
  S2-  S168  1  0.34022002  0.09770281  0.35606644  1
  S2-  S169  1  0.37769540  -0.02266806  0.84492035  1
  S2-  S170  1  0.38533644  0.28786592  0.31839310  1
  S2-  S171  1  0.41431261  0.24181032  0.85169973  1
  S2-  S172  1  0.37117936  0.48196548  0.30891771  1
  S2-  S173  1  0.39239185  0.50045849  0.83851129  1
  S2-  S174  1  0.37046519  0.67829507  0.36296412  1
  S2-  S175  1  0.35105757  0.71773201  0.81484363  1
  S2-  S176  1  0.72101804  0.01051581  0.34815290  1
  S2-  S177  1  0.62504190  0.10703006  0.86471495  1
  S2-  S178  1  0.61285119  0.25780442  0.34103359  1
  S2-  S179  1  0.62511028  0.35303022  0.86049778  1
  S2-  S180  1  0.54898096  0.53551977  0.35623103  1
  S2-  S181  1  0.63194885  0.57138929  0.84493637  1
  S2-  S182  1  0.61717597  0.78691697  0.35389248  1
  S2-  S183  1  0.52829369  0.76154239  0.85032342  1
  S2-  S184  1  0.90478145  -0.00324255  0.27752049  1
  S2-  S185  1  0.89864033  -0.00310137  0.84486041  1
  S2-  S186  1  0.88208103  0.16429782  0.34877202  1
  S2-  S187  1  0.87222103  0.24748190  0.85163824  1
  S2-  S188  1  0.85637601  0.37636476  0.36055090  1
  S2-  S189  1  0.89251216  0.51078160  0.84309697  1
  S2-  S190  1  0.88312844  0.82960430  0.35726262  1
  S2-  S191  1  0.97286204  0.76169540  0.85283087  1
  S2-  S192  1  -0.00401219  0.12194694  0.45497917  1
  S2-  S193  1  0.00415402  0.11417752  0.95113453  1
  S2-  S194  1  0.00313298  0.37576325  0.44951442  1
  S2-  S195  1  0.00468907  0.36439290  0.94594901  1
  S2-  S196  1  -0.00373856  0.62592935  0.44790861  1
  S2-  S197  1  0.00596181  0.61709362  0.94619573  1
  S2-  S198  1  -0.00145135  0.87504087  0.46639318  1
  S2-  S199  1  0.00350166  0.87163087  0.95813116  1
  S2-  S200  1  0.24599328  0.12157574  0.46117270  1
  S2-  S201  1  0.25426497  0.11383930  0.95925302  1
  S2-  S202  1  0.25575137  0.37900301  0.44243546  1
  S2-  S203  1  0.25734629  0.36669075  0.94190170  1
  S2-  S204  1  0.25146106  0.62645491  0.46288222  1
  S2-  S205  1  0.25634879  0.62129316  0.93919981  1
  S2-  S206  1  0.24916884  0.87432832  0.45620915  1
  S2-  S207  1  0.25741488  0.86587261  0.94393690  1
  S2-  S208  1  0.50366867  0.12183832  0.44181362  1
  S2-  S209  1  0.49819778  0.11497708  0.95892329  1
  S2-  S210  1  0.49535460  0.37851013  0.44569329  1
  S2-  S211  1  0.49705892  0.36567672  0.96030751  1
  S2-  S212  1  0.49783241  0.62917249  0.46791036  1
  S2-  S213  1  0.50204615  0.61486987  0.94783432  1
  S2-  S214  1  0.49868054  0.87383415  0.45830690  1
  S2-  S215  1  0.50514258  0.87411640  0.95023731  1
  S2-  S216  1  0.74833565  0.12739407  0.45891051  1
  S2-  S217  1  0.76010837  0.11378259  0.95875403  1
  S2-  S218  1  0.74277621  0.37761276  0.46079223  1
  S2-  S219  1  0.75884111  0.36329196  0.96034362  1
  S2-  S220  1  0.74883102  0.62530902  0.46033181  1
  S2-  S221  1  0.75583672  0.61496042  0.94856491  1
  S2-  S222  1  0.75033483  0.87541503  0.45897442  1
  S2-  S223  1  0.75118984  0.86937116  0.95076201  1
  S2-  S224  1  0.13181434  -0.00696476  0.04828688  1
  S2-  S225  1  0.12514715  0.00192107  0.55752729  1
  S2-  S226  1  0.12959676  0.24405448  0.04647808  1
  S2-  S227  1  0.13043575  0.25100924  0.54626695  1
  S2-  S228  1  0.13356582  0.49096519  0.03724487  1
  S2-  S229  1  0.12645753  0.50048956  0.54257289  1
  S2-  S230  1  0.13122699  0.74047445  0.03043779  1
  S2-  S231  1  0.12362643  0.74999965  0.55408472  1
  S2-  S232  1  0.37829924  -0.00595544  0.04891239  1
  S2-  S233  1  0.37554028  -0.00370227  0.54136349  1
  S2-  S234  1  0.38003024  0.23939529  0.05056804  1
  S2-  S235  1  0.37440288  0.25479070  0.53276300  1
  S2-  S236  1  0.37526417  0.49449792  0.04201909  1
  S2-  S237  1  0.37283793  0.50172479  0.55559724  1
  S2-  S238  1  0.38019835  0.74050057  0.03571162  1
  S2-  S239  1  0.37200403  0.75076725  0.55511794  1
  S2-  S240  1  0.62675671  -0.00813431  0.04485360  1
  S2-  S241  1  0.62220863  0.00131690  0.54325206  1
  S2-  S242  1  0.63193511  0.23743970  0.04480279  1
  S2-  S243  1  0.61758285  0.25070984  0.54411753  1
  S2-  S244  1  0.62905108  0.49385322  0.03894973  1
  S2-  S245  1  0.62005459  0.50296719  0.54912133  1
  S2-  S246  1  0.62758102  0.74220201  0.04357851  1
  S2-  S247  1  0.62502314  0.75561013  0.55267919  1
  S2-  S248  1  0.88344216  -0.01070238  0.04735863  1
  S2-  S249  1  0.87179786  0.00450707  0.56618432  1
  S2-  S250  1  0.88039208  0.24678499  0.05490008  1
  S2-  S251  1  0.87604762  0.25243872  0.54401701  1
  S2-  S252  1  0.88395065  0.49010207  0.04495906  1
  S2-  S253  1  0.87861229  0.49966179  0.53867874  1
  S2-  S254  1  0.87979210  0.74152030  0.04526183  1
  S2-  S255  1  0.87439269  0.74746147  0.55281761  1
