# generated using pymatgen
data_La12Ce14Pr13Nd13Sm12(BiS2)64
_symmetry_space_group_name_H-M   'P 1'
_cell_length_a   16.15964914
_cell_length_b   16.12719096
_cell_length_c   27.21780966
_cell_angle_alpha   89.96075249
_cell_angle_beta   89.73817106
_cell_angle_gamma   89.88849986
_symmetry_Int_Tables_number   1
_chemical_formula_structural   La12Ce14Pr13Nd13Sm12(BiS2)64
_chemical_formula_sum   'La12 Ce14 Pr13 Nd13 Sm12 Bi64 S128'
_cell_volume   7093.13738719
_cell_formula_units_Z   1
loop_
 _symmetry_equiv_pos_site_id
 _symmetry_equiv_pos_as_xyz
  1  'x, y, z'
loop_
 _atom_type_symbol
 _atom_type_oxidation_number
  La3+  3.0
  Ce3+  3.0
  Pr3+  3.0
  Nd3+  3.0
  Sm3+  3.0
  Bi2+  2.0
  S2-  -2.0
loop_
 _atom_site_type_symbol
 _atom_site_label
 _atom_site_symmetry_multiplicity
 _atom_site_fract_x
 _atom_site_fract_y
 _atom_site_fract_z
 _atom_site_occupancy
  La3+  La0  1  0.37176329  0.00275156  0.43227715  1
  La3+  La1  1  -0.00464116  0.35092786  0.08954209  1
  La3+  La2  1  0.11356202  0.50179103  0.42004436  1
  La3+  La3  1  0.37285268  -0.01353292  0.92619589  1
  La3+  La4  1  0.11062059  0.76238836  0.38486233  1
  La3+  La5  1  -0.00670579  0.86409935  0.08159114  1
  La3+  La6  1  0.62542348  0.23796757  0.89414046  1
  La3+  La7  1  0.23713551  0.38603434  0.57636065  1
  La3+  La8  1  0.48220372  0.12868472  0.57886592  1
  La3+  La9  1  0.86328648  0.50083308  0.42733972  1
  La3+  La10  1  0.25621484  0.60901719  0.08802681  1
  La3+  La11  1  0.26195643  0.35661144  0.07544745  1
  Ce3+  Ce12  1  0.75301884  0.85946743  0.05742234  1
  Ce3+  Ce13  1  0.12437744  0.48815504  0.95856184  1
  Ce3+  Ce14  1  0.12797967  -0.01654303  0.95070449  1
  Ce3+  Ce15  1  0.50193025  0.86271306  0.05969522  1
  Ce3+  Ce16  1  0.63150697  -0.00857000  0.94106007  1
  Ce3+  Ce17  1  0.74177797  0.62796403  0.55989862  1
  Ce3+  Ce18  1  0.37502755  0.73529364  0.93947413  1
  Ce3+  Ce19  1  0.36542871  0.25584588  0.44727309  1
  Ce3+  Ce20  1  0.11910993  0.25606217  0.43912952  1
  Ce3+  Ce21  1  0.62720694  0.48340591  0.94130102  1
  Ce3+  Ce22  1  0.73988993  0.87566477  0.55336783  1
  Ce3+  Ce23  1  0.62782169  0.73743221  0.94470737  1
  Ce3+  Ce24  1  0.26315135  0.86418923  0.07393914  1
  Ce3+  Ce25  1  0.50152580  0.35691163  0.04847676  1
  Pr3+  Pr26  1  0.75219938  0.11692487  0.05883373  1
  Pr3+  Pr27  1  0.61608381  0.75184371  0.42870543  1
  Pr3+  Pr28  1  -0.01114478  0.37629410  0.55781949  1
  Pr3+  Pr29  1  0.50411700  0.60788992  0.06438263  1
  Pr3+  Pr30  1  0.49055655  0.87299631  0.56285257  1
  Pr3+  Pr31  1  0.36381668  0.50133701  0.43680432  1
  Pr3+  Pr32  1  -0.01226642  0.62616160  0.55533360  1
  Pr3+  Pr33  1  0.23891900  0.63145937  0.55938884  1
  Pr3+  Pr34  1  0.37113934  0.48917113  0.93485943  1
  Pr3+  Pr35  1  0.87750724  0.24617222  0.92404934  1
  Pr3+  Pr36  1  0.12584493  0.00240042  0.42969141  1
  Pr3+  Pr37  1  0.86591753  0.75276125  0.43066131  1
  Pr3+  Pr38  1  0.61456306  0.24762428  0.44250292  1
  Nd3+  Nd39  1  0.23893977  0.87204039  0.55869933  1
  Nd3+  Nd40  1  0.12635507  0.23978788  0.94203321  1
  Nd3+  Nd41  1  0.87838269  0.48915790  0.93632287  1
  Nd3+  Nd42  1  0.74039352  0.12713880  0.56422836  1
  Nd3+  Nd43  1  0.75159901  0.35292469  0.06484867  1
  Nd3+  Nd44  1  0.36833548  0.24034823  0.91906123  1
  Nd3+  Nd45  1  0.25723447  0.11262856  0.06135639  1
  Nd3+  Nd46  1  0.00357718  0.11316689  0.05883843  1
  Nd3+  Nd47  1  0.89509703  0.74597712  0.92695843  1
  Nd3+  Nd48  1  -0.01380389  0.60823349  0.07749952  1
  Nd3+  Nd49  1  0.36804656  0.74979481  0.43073625  1
  Nd3+  Nd50  1  -0.00813270  0.87548527  0.55441651  1
  Nd3+  Nd51  1  0.86605777  0.24657019  0.43807378  1
  Sm3+  Sm52  1  0.49231638  0.62567477  0.55200861  1
  Sm3+  Sm53  1  0.12678379  0.73585803  0.96361050  1
  Sm3+  Sm54  1  0.74175475  0.37452247  0.55962161  1
  Sm3+  Sm55  1  -0.00695095  0.12598469  0.55263020  1
  Sm3+  Sm56  1  0.86882385  0.00040831  0.44302395  1
  Sm3+  Sm57  1  0.24087981  0.12561209  0.56049284  1
  Sm3+  Sm58  1  0.50263849  0.11418856  0.04649538  1
  Sm3+  Sm59  1  0.88024909  -0.01205112  0.94557305  1
  Sm3+  Sm60  1  0.75201334  0.60720435  0.05611424  1
  Sm3+  Sm61  1  0.62269003  0.49975272  0.44125135  1
  Sm3+  Sm62  1  0.61200658  0.00410208  0.44566983  1
  Sm3+  Sm63  1  0.49156948  0.37819315  0.55650664  1
  Bi2+  Bi64  1  0.06970890  0.15058196  0.29999864  1
  Bi2+  Bi65  1  -0.00409242  0.15005688  0.81820958  1
  Bi2+  Bi66  1  0.00066980  0.34206992  0.29191129  1
  Bi2+  Bi67  1  0.01784261  0.33472190  0.78488288  1
  Bi2+  Bi68  1  -0.06795381  0.61000640  0.27784736  1
  Bi2+  Bi69  1  0.00666296  0.63362983  0.80237394  1
  Bi2+  Bi70  1  -0.04851548  0.90620856  0.28460181  1
  Bi2+  Bi71  1  0.05886259  0.88274314  0.80418404  1
  Bi2+  Bi72  1  0.27208230  0.14403748  0.29542155  1
  Bi2+  Bi73  1  0.24859310  0.10705652  0.79090734  1
  Bi2+  Bi74  1  0.28036224  0.34409470  0.29839954  1
  Bi2+  Bi75  1  0.23499538  0.38022160  0.80319651  1
  Bi2+  Bi76  1  0.28051957  0.63770394  0.29026218  1
  Bi2+  Bi77  1  0.27330228  0.64523787  0.76835454  1
  Bi2+  Bi78  1  0.24637867  0.89401191  0.27236185  1
  Bi2+  Bi79  1  0.26502027  0.84854099  0.78852519  1
  Bi2+  Bi80  1  0.56531757  0.11538441  0.27926418  1
  Bi2+  Bi81  1  0.51719873  0.08340203  0.78004378  1
  Bi2+  Bi82  1  0.53601579  0.43499456  0.28354199  1
  Bi2+  Bi83  1  0.49095703  0.43068745  0.77622418  1
  Bi2+  Bi84  1  0.54881424  0.63412274  0.28817415  1
  Bi2+  Bi85  1  0.47624578  0.62425328  0.79269200  1
  Bi2+  Bi86  1  0.49550269  0.90016898  0.29017702  1
  Bi2+  Bi87  1  0.52509185  0.82696519  0.79543040  1
  Bi2+  Bi88  1  0.76089987  0.12203714  0.28800851  1
  Bi2+  Bi89  1  0.82029096  0.14113641  0.76386908  1
  Bi2+  Bi90  1  0.72742980  0.36942523  0.29445069  1
  Bi2+  Bi91  1  0.76216629  0.40615627  0.78722493  1
  Bi2+  Bi92  1  0.73242040  0.67698928  0.32224563  1
  Bi2+  Bi93  1  0.74825306  0.64854119  0.78588143  1
  Bi2+  Bi94  1  0.69453065  0.86519728  0.29427158  1
  Bi2+  Bi95  1  0.81891275  0.82795736  0.78736822  1
  Bi2+  Bi96  1  0.13796237  0.02737380  0.21030014  1
  Bi2+  Bi97  1  0.15582214  -0.01106921  0.70009167  1
  Bi2+  Bi98  1  0.12317334  0.23482277  0.20420191  1
  Bi2+  Bi99  1  0.11053236  0.18563602  0.72244510  1
  Bi2+  Bi100  1  0.14620056  0.51427763  0.22859465  1
  Bi2+  Bi101  1  0.12618596  0.51311504  0.75242745  1
  Bi2+  Bi102  1  0.08209591  0.75647071  0.18896622  1
  Bi2+  Bi103  1  0.14031803  0.77344259  0.71321098  1
  Bi2+  Bi104  1  0.34336495  0.08213163  0.19432907  1
  Bi2+  Bi105  1  0.34624029  -0.01924599  0.71437590  1
  Bi2+  Bi106  1  0.46824605  0.24968036  0.21855575  1
  Bi2+  Bi107  1  0.39741463  0.23753903  0.70461455  1
  Bi2+  Bi108  1  0.40097708  0.48420757  0.20385200  1
  Bi2+  Bi109  1  0.36300010  0.47736907  0.69256465  1
  Bi2+  Bi110  1  0.43647686  0.76721451  0.21147858  1
  Bi2+  Bi111  1  0.40634192  0.73677191  0.69127961  1
  Bi2+  Bi112  1  0.61122563  -0.02583559  0.20041927  1
  Bi2+  Bi113  1  0.67018461  -0.05339508  0.76449218  1
  Bi2+  Bi114  1  0.63207998  0.34976014  0.19075495  1
  Bi2+  Bi115  1  0.64003109  0.25408887  0.70015804  1
  Bi2+  Bi116  1  0.60859980  0.55835607  0.18335809  1
  Bi2+  Bi117  1  0.63809380  0.52845812  0.73001595  1
  Bi2+  Bi118  1  0.62656174  0.77293039  0.18885518  1
  Bi2+  Bi119  1  0.61360621  0.79576854  0.69468203  1
  Bi2+  Bi120  1  0.80274626  -0.01209108  0.20861657  1
  Bi2+  Bi121  1  0.96169165  0.01960738  0.72783465  1
  Bi2+  Bi122  1  0.84573958  0.23610132  0.20658391  1
  Bi2+  Bi123  1  0.89933311  0.29178067  0.69121898  1
  Bi2+  Bi124  1  0.78847186  0.50033558  0.21323207  1
  Bi2+  Bi125  1  0.92384680  0.53784025  0.70332323  1
  Bi2+  Bi126  1  0.81776060  0.73291833  0.21800628  1
  Bi2+  Bi127  1  0.89565205  0.76307244  0.68808367  1
  S2-  S128  1  -0.02589580  0.18837644  0.14657226  1
  S2-  S129  1  -0.01540045  0.14736864  0.64984684  1
  S2-  S130  1  0.05619348  0.38547366  0.18852125  1
  S2-  S131  1  0.01394769  0.40392753  0.65564996  1
  S2-  S132  1  0.02398575  0.59437292  0.18048995  1
  S2-  S133  1  0.02277344  0.65039448  0.65464266  1
  S2-  S134  1  0.01124169  0.93820272  0.17925997  1
  S2-  S135  1  -0.01688760  0.88867343  0.65425965  1
  S2-  S136  1  0.26004032  0.21536305  0.14296891  1
  S2-  S137  1  0.33552793  0.12072375  0.64346297  1
  S2-  S138  1  0.25201947  0.46714148  0.15504149  1
  S2-  S139  1  0.27484929  0.32839421  0.67500777  1
  S2-  S140  1  0.21755846  0.66103716  0.18984434  1
  S2-  S141  1  0.23424820  0.52597614  0.64103987  1
  S2-  S142  1  0.20777885  0.87495982  0.16873285  1
  S2-  S143  1  0.25236637  0.75935083  0.63709236  1
  S2-  S144  1  0.48755140  0.12083472  0.14590184  1
  S2-  S145  1  0.54126599  0.12958501  0.67539432  1
  S2-  S146  1  0.42634351  0.35543069  0.13761547  1
  S2-  S147  1  0.50670509  0.34413206  0.65272524  1
  S2-  S148  1  0.40724515  0.62568609  0.14832104  1
  S2-  S149  1  0.47129343  0.60451737  0.64932413  1
  S2-  S150  1  0.40502213  0.87847924  0.13936403  1
  S2-  S151  1  0.47235887  0.90178865  0.66191715  1
  S2-  S152  1  0.72405193  0.21423601  0.14258713  1
  S2-  S153  1  0.74979845  0.14032615  0.66321762  1
  S2-  S154  1  0.85258090  0.37975941  0.14843294  1
  S2-  S155  1  0.75936552  0.36888144  0.65763547  1
  S2-  S156  1  0.83868065  0.61736645  0.13976110  1
  S2-  S157  1  0.81113520  0.61477839  0.64858190  1
  S2-  S158  1  0.83933142  0.85253177  0.14209541  1
  S2-  S159  1  0.75627648  0.85608903  0.65012667  1
  S2-  S160  1  0.07155206  -0.07003145  0.34340896  1
  S2-  S161  1  0.17579695  -0.01923846  0.85608971  1
  S2-  S162  1  0.14097002  0.35510202  0.35717519  1
  S2-  S163  1  0.22062484  0.24351440  0.85672643  1
  S2-  S164  1  0.14330748  0.60225826  0.33714165  1
  S2-  S165  1  0.13397137  0.49920821  0.86006360  1
  S2-  S166  1  0.12353397  0.78228353  0.27756132  1
  S2-  S167  1  0.06215245  0.74261598  0.87091927  1
  S2-  S168  1  0.26236909  0.00237646  0.35387985  1
  S2-  S169  1  0.38712621  0.10471710  0.84888838  1
  S2-  S170  1  0.39029335  0.24009770  0.35131418  1
  S2-  S171  1  0.37933594  0.38095737  0.85124987  1
  S2-  S172  1  0.33803883  0.48999135  0.33648385  1
  S2-  S173  1  0.35140443  0.62017907  0.86477843  1
  S2-  S174  1  0.27999713  0.77731040  0.34562782  1
  S2-  S175  1  0.38521168  0.84970998  0.86068659  1
  S2-  S176  1  0.51199732  0.01992334  0.36511759  1
  S2-  S177  1  0.64027685  0.05508670  0.84997081  1
  S2-  S178  1  0.64502412  0.22982143  0.34410036  1
  S2-  S179  1  0.55684827  0.23758837  0.79533620  1
  S2-  S180  1  0.72492557  0.50185721  0.36047046  1
  S2-  S181  1  0.63886562  0.41561770  0.85078685  1
  S2-  S182  1  0.49390475  0.75756868  0.35487775  1
  S2-  S183  1  0.61868987  0.70242938  0.84844513  1
  S2-  S184  1  0.85880169  0.01085074  0.34506621  1
  S2-  S185  1  0.90708313  -0.10247584  0.86348273  1
  S2-  S186  1  0.87114491  0.28803604  0.34113425  1
  S2-  S187  1  0.77271558  0.23161611  0.84116885  1
  S2-  S188  1  0.96445681  0.49430931  0.34304543  1
  S2-  S189  1  0.89228411  0.39041077  0.85021097  1
  S2-  S190  1  0.94303750  0.75464346  0.33931588  1
  S2-  S191  1  0.87387197  0.61463068  0.85948476  1
  S2-  S192  1  -0.00631298  0.12433529  0.44755274  1
  S2-  S193  1  0.00253529  0.11098091  0.95300009  1
  S2-  S194  1  -0.01260037  0.37150188  0.45204233  1
  S2-  S195  1  0.00409356  0.36229359  0.95428506  1
  S2-  S196  1  -0.01020106  0.62958565  0.44695509  1
  S2-  S197  1  0.00178692  0.61310645  0.96885019  1
  S2-  S198  1  -0.00936481  0.87817564  0.44993298  1
  S2-  S199  1  0.00578119  0.86556102  0.97293923  1
  S2-  S200  1  0.24268554  0.13184222  0.45650732  1
  S2-  S201  1  0.24840506  0.11152152  0.95662862  1
  S2-  S202  1  0.24273972  0.37858989  0.46261593  1
  S2-  S203  1  0.24926821  0.36434740  0.96304192  1
  S2-  S204  1  0.24400890  0.62705873  0.45067412  1
  S2-  S205  1  0.24632951  0.61394913  0.97371775  1
  S2-  S206  1  0.24130438  0.87345965  0.45493288  1
  S2-  S207  1  0.24926517  0.85797038  0.96507420  1
  S2-  S208  1  0.48991409  0.13008771  0.46776612  1
  S2-  S209  1  0.50811076  0.11668242  0.94406406  1
  S2-  S210  1  0.49634767  0.37991060  0.45054850  1
  S2-  S211  1  0.50465258  0.35637770  0.94499895  1
  S2-  S212  1  0.49745506  0.61912072  0.44795303  1
  S2-  S213  1  0.50500153  0.61115698  0.95670785  1
  S2-  S214  1  0.49511982  0.87563134  0.45734059  1
  S2-  S215  1  0.50890771  0.86551600  0.95504733  1
  S2-  S216  1  0.74098246  0.12168777  0.45565017  1
  S2-  S217  1  0.75997293  0.11156140  0.95200053  1
  S2-  S218  1  0.74103784  0.36970784  0.45558478  1
  S2-  S219  1  0.75146672  0.36196681  0.95489236  1
  S2-  S220  1  0.73988057  0.62992204  0.45659714  1
  S2-  S221  1  0.74787526  0.61071200  0.95386375  1
  S2-  S222  1  0.73864169  0.88174482  0.44640772  1
  S2-  S223  1  0.75427596  0.86280279  0.95096776  1
  S2-  S224  1  0.12943945  -0.01145490  0.05748289  1
  S2-  S225  1  0.11818490  0.00309642  0.54404015  1
  S2-  S226  1  0.12565037  0.23803525  0.04715704  1
  S2-  S227  1  0.11757692  0.24960433  0.54974949  1
  S2-  S228  1  0.11435152  0.48384953  0.06277622  1
  S2-  S229  1  0.11075911  0.50212792  0.53731823  1
  S2-  S230  1  0.12254815  0.73565758  0.06723447  1
  S2-  S231  1  0.11107552  0.75277510  0.54454866  1
  S2-  S232  1  0.37992556  -0.00822940  0.03682430  1
  S2-  S233  1  0.36265680  -0.00274709  0.54428350  1
  S2-  S234  1  0.37909485  0.23206054  0.03155608  1
  S2-  S235  1  0.36305278  0.25933803  0.55115008  1
  S2-  S236  1  0.38023338  0.48695870  0.04180582  1
  S2-  S237  1  0.37205648  0.50211071  0.54297075  1
  S2-  S238  1  0.38055642  0.73693507  0.04573089  1
  S2-  S239  1  0.37223713  0.74844816  0.53783159  1
  S2-  S240  1  0.62881499  -0.01065638  0.04859332  1
  S2-  S241  1  0.61389185  0.00299257  0.55175129  1
  S2-  S242  1  0.62389344  0.23564037  0.03800761  1
  S2-  S243  1  0.61636083  0.25255982  0.54993065  1
  S2-  S244  1  0.62933695  0.48180104  0.04787565  1
  S2-  S245  1  0.61787187  0.49958594  0.54728308  1
  S2-  S246  1  0.62955225  0.73465873  0.05104080  1
  S2-  S247  1  0.61564278  0.74929285  0.54197188  1
  S2-  S248  1  0.87616353  -0.00794849  0.04933314  1
  S2-  S249  1  0.86676057  0.00416300  0.54852499  1
  S2-  S250  1  0.87893058  0.23632207  0.03690233  1
  S2-  S251  1  0.86518570  0.24827823  0.54512773  1
  S2-  S252  1  0.87403158  0.48187543  0.04250246  1
  S2-  S253  1  0.86163804  0.49802913  0.54005662  1
  S2-  S254  1  0.87332796  0.73560876  0.03784715  1
  S2-  S255  1  0.86486496  0.75415565  0.53931537  1
