# generated using pymatgen
data_La12Ce14Pr13Nd13Sm12(BiS2)64
_symmetry_space_group_name_H-M   'P 1'
_cell_length_a   16.15337269
_cell_length_b   16.18201963
_cell_length_c   27.27224462
_cell_angle_alpha   89.92795598
_cell_angle_beta   90.23632785
_cell_angle_gamma   89.99855201
_symmetry_Int_Tables_number   1
_chemical_formula_structural   La12Ce14Pr13Nd13Sm12(BiS2)64
_chemical_formula_sum   'La12 Ce14 Pr13 Nd13 Sm12 Bi64 S128'
_cell_volume   7128.74011495
_cell_formula_units_Z   1
loop_
 _symmetry_equiv_pos_site_id
 _symmetry_equiv_pos_as_xyz
  1  'x, y, z'
loop_
 _atom_type_symbol
 _atom_type_oxidation_number
  La3+  3.0
  Ce3+  3.0
  Pr3+  3.0
  Nd3+  3.0
  Sm3+  3.0
  Bi2+  2.0
  S2-  -2.0
loop_
 _atom_site_type_symbol
 _atom_site_label
 _atom_site_symmetry_multiplicity
 _atom_site_fract_x
 _atom_site_fract_y
 _atom_site_fract_z
 _atom_site_occupancy
  La3+  La0  1  0.75364766  0.11441002  0.58151491  1
  La3+  La1  1  0.50567966  0.63742583  0.07252827  1
  La3+  La2  1  0.24926728  0.87448929  0.57256802  1
  La3+  La3  1  0.38187234  0.00890517  0.90771344  1
  La3+  La4  1  0.50342889  0.37229860  0.56706863  1
  La3+  La5  1  0.37078024  0.26674514  0.91678272  1
  La3+  La6  1  0.25581822  0.62076515  0.57961373  1
  La3+  La7  1  -0.00288385  0.63245135  0.60644437  1
  La3+  La8  1  0.88883445  0.50905566  0.90390197  1
  La3+  La9  1  0.11945844  0.26094367  0.92944948  1
  La3+  La10  1  0.49906196  0.87616368  0.57549074  1
  La3+  La11  1  0.00418069  0.37081490  0.07082719  1
  Ce3+  Ce12  1  0.24746779  0.37528932  0.56947302  1
  Ce3+  Ce13  1  0.62844013  0.51438877  0.93088941  1
  Ce3+  Ce14  1  0.50308420  0.88348629  0.06198102  1
  Ce3+  Ce15  1  0.87132190  0.25467144  0.92738028  1
  Ce3+  Ce16  1  0.74983347  0.62665448  0.55735338  1
  Ce3+  Ce17  1  0.12470099  0.74710897  0.44841940  1
  Ce3+  Ce18  1  0.62088596  0.75955800  0.43490669  1
  Ce3+  Ce19  1  0.00172868  0.88386816  0.05159996  1
  Ce3+  Ce20  1  0.62216653  0.50240310  0.44014825  1
  Ce3+  Ce21  1  0.62296957  0.00812490  0.94460282  1
  Ce3+  Ce22  1  0.62804977  0.24632522  0.44989373  1
  Ce3+  Ce23  1  -0.00350622  0.37650476  0.56993419  1
  Ce3+  Ce24  1  0.49897799  0.62489769  0.55877954  1
  Ce3+  Ce25  1  0.12459584  -0.00096866  0.44783146  1
  Pr3+  Pr26  1  0.37840058  0.75879570  0.93121946  1
  Pr3+  Pr27  1  0.75378565  0.38211419  0.04665635  1
  Pr3+  Pr28  1  0.36539595  0.49955075  0.43495249  1
  Pr3+  Pr29  1  0.37375788  0.00081681  0.44440894  1
  Pr3+  Pr30  1  0.12373118  0.50769853  0.94569357  1
  Pr3+  Pr31  1  -0.00084278  0.87208634  0.56098514  1
  Pr3+  Pr32  1  0.25536248  0.63124957  0.05948562  1
  Pr3+  Pr33  1  0.87468863  0.25090670  0.44013908  1
  Pr3+  Pr34  1  0.25787464  0.88481541  0.06044643  1
  Pr3+  Pr35  1  0.37273102  0.25108187  0.44743539  1
  Pr3+  Pr36  1  0.49556080  0.12896794  0.06563214  1
  Pr3+  Pr37  1  0.00141426  0.63201098  0.06092007  1
  Pr3+  Pr38  1  0.26596944  0.37740963  0.06711123  1
  Nd3+  Nd39  1  0.87451674  0.74769672  0.43344075  1
  Nd3+  Nd40  1  0.75537391  0.88147944  0.05958393  1
  Nd3+  Nd41  1  0.62350751  0.26053918  0.92370605  1
  Nd3+  Nd42  1  0.37779535  0.51112998  0.93858706  1
  Nd3+  Nd43  1  0.75708225  0.37740350  0.57107150  1
  Nd3+  Nd44  1  0.37164456  0.74993680  0.44017858  1
  Nd3+  Nd45  1  0.75760337  0.62999972  0.05433790  1
  Nd3+  Nd46  1  0.00310955  0.13170198  0.05335821  1
  Nd3+  Nd47  1  0.62789336  0.75680428  0.93571153  1
  Nd3+  Nd48  1  0.62420659  0.01087441  0.43644209  1
  Nd3+  Nd49  1  0.87874307  0.75849940  0.92839512  1
  Nd3+  Nd50  1  0.75129972  0.13640202  0.06034531  1
  Nd3+  Nd51  1  -0.00138689  0.12486282  0.56226084  1
  Sm3+  Sm52  1  0.13079847  0.00701067  0.94093798  1
  Sm3+  Sm53  1  0.87527072  0.50037189  0.44640013  1
  Sm3+  Sm54  1  0.75054772  0.87122856  0.55234567  1
  Sm3+  Sm55  1  0.25042884  0.12750466  0.56348687  1
  Sm3+  Sm56  1  0.87455118  0.00634201  0.94045176  1
  Sm3+  Sm57  1  0.12174653  0.25115559  0.45270203  1
  Sm3+  Sm58  1  0.50470310  0.38017830  0.05084770  1
  Sm3+  Sm59  1  0.50272397  0.11939400  0.57404144  1
  Sm3+  Sm60  1  0.12839649  0.75920063  0.94581648  1
  Sm3+  Sm61  1  0.25929285  0.13293880  0.04741842  1
  Sm3+  Sm62  1  0.87448200  -0.00043024  0.44126156  1
  Sm3+  Sm63  1  0.12272004  0.50102913  0.45201219  1
  Bi2+  Bi64  1  -0.01123785  0.06378249  0.26860712  1
  Bi2+  Bi65  1  0.00141045  0.10680560  0.79297399  1
  Bi2+  Bi66  1  -0.01661330  0.36700177  0.30241873  1
  Bi2+  Bi67  1  -0.00693118  0.37870887  0.78675647  1
  Bi2+  Bi68  1  -0.02845679  0.59897701  0.29593916  1
  Bi2+  Bi69  1  0.01550703  0.64211166  0.78895380  1
  Bi2+  Bi70  1  0.01975287  0.87074896  0.25108613  1
  Bi2+  Bi71  1  -0.02166813  0.83813740  0.78581222  1
  Bi2+  Bi72  1  0.26952019  0.07561142  0.29753106  1
  Bi2+  Bi73  1  0.22608321  0.11907800  0.78551404  1
  Bi2+  Bi74  1  0.24850789  0.34501434  0.30196668  1
  Bi2+  Bi75  1  0.23198106  0.38337905  0.78210598  1
  Bi2+  Bi76  1  0.30040054  0.62884572  0.31492555  1
  Bi2+  Bi77  1  0.22094748  0.66257177  0.76030310  1
  Bi2+  Bi78  1  0.21007274  0.87903421  0.28739079  1
  Bi2+  Bi79  1  0.23570725  0.85338451  0.79092941  1
  Bi2+  Bi80  1  0.49281232  0.18838095  0.28350952  1
  Bi2+  Bi81  1  0.55898086  0.11695079  0.79080820  1
  Bi2+  Bi82  1  0.52273651  0.35883875  0.23310039  1
  Bi2+  Bi83  1  0.47636201  0.38017262  0.78625483  1
  Bi2+  Bi84  1  0.53603527  0.59394017  0.29320722  1
  Bi2+  Bi85  1  0.40724208  0.64090774  0.81409721  1
  Bi2+  Bi86  1  0.48944563  0.88709278  0.29084268  1
  Bi2+  Bi87  1  0.52736760  0.79784496  0.81296129  1
  Bi2+  Bi88  1  0.74997767  0.15189007  0.29907267  1
  Bi2+  Bi89  1  0.74530262  0.02984769  0.76626002  1
  Bi2+  Bi90  1  0.71435619  0.32565959  0.25255020  1
  Bi2+  Bi91  1  0.71631260  0.33189765  0.78230148  1
  Bi2+  Bi92  1  0.79781983  0.68953930  0.29144572  1
  Bi2+  Bi93  1  0.70701639  0.69194708  0.77494135  1
  Bi2+  Bi94  1  0.76676794  0.91003247  0.29498762  1
  Bi2+  Bi95  1  0.79279297  0.86266148  0.81892731  1
  Bi2+  Bi96  1  0.15286224  0.02040432  0.20392326  1
  Bi2+  Bi97  1  0.12105202  0.02437501  0.70057579  1
  Bi2+  Bi98  1  0.12857807  0.20170226  0.25541167  1
  Bi2+  Bi99  1  0.06032040  0.22200534  0.70350695  1
  Bi2+  Bi100  1  0.12884801  0.49330414  0.27329313  1
  Bi2+  Bi101  1  0.10946999  0.41254382  0.69206196  1
  Bi2+  Bi102  1  0.12479227  0.70457290  0.25526580  1
  Bi2+  Bi103  1  0.13948704  0.83175616  0.69411398  1
  Bi2+  Bi104  1  0.35775761  0.00451219  0.19227942  1
  Bi2+  Bi105  1  0.41011408  0.01959107  0.70811133  1
  Bi2+  Bi106  1  0.32670500  0.26658944  0.20360429  1
  Bi2+  Bi107  1  0.25285795  0.26334469  0.69381777  1
  Bi2+  Bi108  1  0.34229582  0.49411691  0.19650305  1
  Bi2+  Bi109  1  0.36575205  0.52165078  0.71721062  1
  Bi2+  Bi110  1  0.39079486  0.72756271  0.19612362  1
  Bi2+  Bi111  1  0.42701711  0.76549618  0.71562200  1
  Bi2+  Bi112  1  0.57426323  0.03498135  0.23251436  1
  Bi2+  Bi113  1  0.63453158  -0.11167928  0.71527129  1
  Bi2+  Bi114  1  0.60005520  0.20518138  0.18033561  1
  Bi2+  Bi115  1  0.58541334  0.29129913  0.69086434  1
  Bi2+  Bi116  1  0.69261655  0.52268758  0.24138906  1
  Bi2+  Bi117  1  0.56691920  0.55100206  0.75632314  1
  Bi2+  Bi118  1  0.64210681  0.79135963  0.24212512  1
  Bi2+  Bi119  1  0.59756075  0.69137635  0.67581046  1
  Bi2+  Bi120  1  0.85168017  -0.01918603  0.19861350  1
  Bi2+  Bi121  1  0.92598943  -0.01193273  0.71275285  1
  Bi2+  Bi122  1  0.88772853  0.25699724  0.18897649  1
  Bi2+  Bi123  1  0.83594472  0.23311431  0.71038922  1
  Bi2+  Bi124  1  0.86192390  0.50373884  0.18362234  1
  Bi2+  Bi125  1  0.82814891  0.49488338  0.70521051  1
  Bi2+  Bi126  1  0.85534984  0.74012887  0.18067544  1
  Bi2+  Bi127  1  0.83689166  0.78899344  0.70503572  1
  S2-  S128  1  0.01496285  0.20456709  0.14183889  1
  S2-  S129  1  -0.10089527  0.11820820  0.64356450  1
  S2-  S130  1  -0.01710516  0.40090438  0.17080993  1
  S2-  S131  1  -0.11306420  0.36562528  0.64626463  1
  S2-  S132  1  -0.02544858  0.63229299  0.16026694  1
  S2-  S133  1  -0.00628872  0.55009323  0.69808225  1
  S2-  S134  1  -0.03021657  0.86833283  0.14671676  1
  S2-  S135  1  -0.01909655  0.79158040  0.64930811  1
  S2-  S136  1  0.35102674  0.14552378  0.13162449  1
  S2-  S137  1  0.27330388  0.08177576  0.65747745  1
  S2-  S138  1  0.21541143  0.37419344  0.16430482  1
  S2-  S139  1  0.25591112  0.47861716  0.64590835  1
  S2-  S140  1  0.26083630  0.62303899  0.16020526  1
  S2-  S141  1  0.16105640  0.66954256  0.66198529  1
  S2-  S142  1  0.29425442  0.85119579  0.15802489  1
  S2-  S143  1  0.36352898  0.87830220  0.65077652  1
  S2-  S144  1  0.50159868  -0.00426530  0.13900752  1
  S2-  S145  1  0.47154476  0.18626690  0.66446984  1
  S2-  S146  1  0.41911033  0.36781164  0.13604400  1
  S2-  S147  1  0.47266354  0.40884660  0.66406588  1
  S2-  S148  1  0.47393204  0.57886569  0.16974911  1
  S2-  S149  1  0.40471887  0.63800419  0.64193129  1
  S2-  S150  1  0.50963128  0.77515296  0.13961610  1
  S2-  S151  1  0.53337779  0.99639972  0.64849444  1
  S2-  S152  1  0.79126504  0.11923344  0.15771023  1
  S2-  S153  1  0.70166476  0.15676217  0.67841935  1
  S2-  S154  1  0.76618992  0.36532340  0.14698672  1
  S2-  S155  1  0.69392059  0.42615923  0.66137795  1
  S2-  S156  1  0.72957824  0.62081829  0.15320992  1
  S2-  S157  1  0.82259772  0.63228811  0.64671463  1
  S2-  S158  1  0.72844967  0.86620837  0.15829535  1
  S2-  S159  1  0.75322558  0.92384801  0.64534474  1
  S2-  S160  1  0.13357991  -0.00289259  0.35136750  1
  S2-  S161  1  0.18237147  -0.00585628  0.84767358  1
  S2-  S162  1  0.10945535  0.26848393  0.35550423  1
  S2-  S163  1  0.22795600  0.25344708  0.85003235  1
  S2-  S164  1  0.21510470  0.50111636  0.36852834  1
  S2-  S165  1  0.05269454  0.50171989  0.85238601  1
  S2-  S166  1  0.17654415  0.74118249  0.35570764  1
  S2-  S167  1  0.14361171  0.73238091  0.84938956  1
  S2-  S168  1  0.40451042  0.00891591  0.34578983  1
  S2-  S169  1  0.38892648  0.07879628  0.80952953  1
  S2-  S170  1  0.37520040  0.26751987  0.34743078  1
  S2-  S171  1  0.50135653  0.24453421  0.84791056  1
  S2-  S172  1  0.42043864  0.50924311  0.33649728  1
  S2-  S173  1  0.35579042  0.42170918  0.85392905  1
  S2-  S174  1  0.40373210  0.75051004  0.34099022  1
  S2-  S175  1  0.37391147  0.86521184  0.84978648  1
  S2-  S176  1  0.62150400  -0.08550118  0.35423001  1
  S2-  S177  1  0.56841974  -0.00380672  0.85192275  1
  S2-  S178  1  0.62768484  0.15041520  0.36763173  1
  S2-  S179  1  0.74845035  0.23338461  0.85449436  1
  S2-  S180  1  0.64291155  0.48759246  0.34375856  1
  S2-  S181  1  0.61446473  0.42810422  0.84332695  1
  S2-  S182  1  0.63733179  0.71173202  0.34106269  1
  S2-  S183  1  0.63081027  0.64315763  0.85982138  1
  S2-  S184  1  0.86112247  0.03977079  0.34571769  1
  S2-  S185  1  0.86865895  0.04169309  0.84436178  1
  S2-  S186  1  0.87097746  0.25935614  0.33939289  1
  S2-  S187  1  0.99202537  0.25937743  0.85366921  1
  S2-  S188  1  0.88524643  0.47685780  0.34831606  1
  S2-  S189  1  0.83939199  0.45057399  0.80915508  1
  S2-  S190  1  0.89203022  0.81042874  0.34064360  1
  S2-  S191  1  0.88760109  0.65648609  0.84652517  1
  S2-  S192  1  -0.00112116  0.12423523  0.45557423  1
  S2-  S193  1  0.00180347  0.12396084  0.94881146  1
  S2-  S194  1  -0.00011556  0.37681221  0.46096311  1
  S2-  S195  1  -0.00482148  0.38590629  0.95814438  1
  S2-  S196  1  -0.00023746  0.62216237  0.44446265  1
  S2-  S197  1  0.00396507  0.63788646  0.95476654  1
  S2-  S198  1  -0.00120615  0.87509895  0.45323378  1
  S2-  S199  1  0.00398218  0.88460478  0.94465266  1
  S2-  S200  1  0.24567452  0.12759412  0.45739013  1
  S2-  S201  1  0.25346450  0.12840255  0.94576270  1
  S2-  S202  1  0.24384654  0.37210157  0.46394754  1
  S2-  S203  1  0.24827887  0.38748957  0.95862239  1
  S2-  S204  1  0.24863190  0.62540605  0.46715231  1
  S2-  S205  1  0.25036268  0.63364525  0.95187420  1
  S2-  S206  1  0.24920398  0.87552064  0.46083246  1
  S2-  S207  1  0.24999899  0.88184282  0.95376514  1
  S2-  S208  1  0.49667309  0.12731192  0.46574837  1
  S2-  S209  1  0.50037554  0.13087821  0.95197812  1
  S2-  S210  1  0.50133516  0.37264382  0.45533834  1
  S2-  S211  1  0.50407005  0.38894419  0.94985502  1
  S2-  S212  1  0.49779169  0.62631999  0.45189585  1
  S2-  S213  1  0.49997678  0.63484438  0.95808785  1
  S2-  S214  1  0.49566884  0.87732797  0.45979882  1
  S2-  S215  1  0.50409118  0.87915949  0.95484384  1
  S2-  S216  1  0.75679092  0.12334817  0.46514549  1
  S2-  S217  1  0.75020439  0.12644314  0.95513859  1
  S2-  S218  1  0.75077305  0.37650284  0.45866941  1
  S2-  S219  1  0.75538478  0.39105351  0.94220212  1
  S2-  S220  1  0.75056152  0.62500039  0.44987046  1
  S2-  S221  1  0.76316342  0.63040561  0.95062339  1
  S2-  S222  1  0.75335226  0.87676366  0.44957034  1
  S2-  S223  1  0.75216574  0.88222040  0.95193947  1
  S2-  S224  1  0.13097285  0.01004879  0.04661395  1
  S2-  S225  1  0.12499244  0.00184307  0.55438134  1
  S2-  S226  1  0.13473255  0.25402328  0.03982217  1
  S2-  S227  1  0.12259711  0.24908714  0.55757769  1
  S2-  S228  1  0.12810271  0.50513285  0.05366066  1
  S2-  S229  1  0.11378953  0.50609861  0.55487858  1
  S2-  S230  1  0.12868810  0.75862579  0.05133256  1
  S2-  S231  1  0.12276164  0.74762474  0.55111659  1
  S2-  S232  1  0.37661901  0.00613636  0.03330404  1
  S2-  S233  1  0.37347088  0.00527363  0.54974008  1
  S2-  S234  1  0.38159606  0.25784102  0.02887061  1
  S2-  S235  1  0.37290849  0.24856493  0.55394170  1
  S2-  S236  1  0.38207518  0.50911216  0.04355391  1
  S2-  S237  1  0.37926625  0.49490139  0.54230503  1
  S2-  S238  1  0.37555857  0.75656953  0.03958380  1
  S2-  S239  1  0.37520162  0.75382288  0.54514701  1
  S2-  S240  1  0.63327139  0.00834755  0.04871964  1
  S2-  S241  1  0.62831914  -0.00213865  0.54277626  1
  S2-  S242  1  0.62525979  0.25684559  0.03816417  1
  S2-  S243  1  0.63089786  0.24619885  0.55587585  1
  S2-  S244  1  0.62655696  0.50714705  0.04415705  1
  S2-  S245  1  0.62620752  0.50146136  0.54757003  1
  S2-  S246  1  0.63581335  0.75612615  0.04089926  1
  S2-  S247  1  0.62450358  0.75273359  0.54367929  1
  S2-  S248  1  0.87690607  0.00943141  0.04519524  1
  S2-  S249  1  0.87673855  -0.00601965  0.54452644  1
  S2-  S250  1  0.87674052  0.25403946  0.03646424  1
  S2-  S251  1  0.87488788  0.24853004  0.54597460  1
  S2-  S252  1  0.88117088  0.50437582  0.04948447  1
  S2-  S253  1  0.87929141  0.50679334  0.54955635  1
  S2-  S254  1  0.87862644  0.75835860  0.03766545  1
  S2-  S255  1  0.87504124  0.74925398  0.54058203  1
