# generated using pymatgen
data_La12Ce14Pr13Nd13Sm12(BiS2)64
_symmetry_space_group_name_H-M   'P 1'
_cell_length_a   16.11578312
_cell_length_b   16.12539642
_cell_length_c   27.23051096
_cell_angle_alpha   90.10306440
_cell_angle_beta   90.00650495
_cell_angle_gamma   89.93289727
_symmetry_Int_Tables_number   1
_chemical_formula_structural   La12Ce14Pr13Nd13Sm12(BiS2)64
_chemical_formula_sum   'La12 Ce14 Pr13 Nd13 Sm12 Bi64 S128'
_cell_volume   7076.46888508
_cell_formula_units_Z   1
loop_
 _symmetry_equiv_pos_site_id
 _symmetry_equiv_pos_as_xyz
  1  'x, y, z'
loop_
 _atom_type_symbol
 _atom_type_oxidation_number
  La3+  3.0
  Ce3+  3.0
  Pr3+  3.0
  Nd3+  3.0
  Sm3+  3.0
  Bi2+  2.0
  S2-  -2.0
loop_
 _atom_site_type_symbol
 _atom_site_label
 _atom_site_symmetry_multiplicity
 _atom_site_fract_x
 _atom_site_fract_y
 _atom_site_fract_z
 _atom_site_occupancy
  La3+  La0  1  0.88101784  0.25777201  0.41205538  1
  La3+  La1  1  0.14686960  0.74963283  0.93042637  1
  La3+  La2  1  0.01135759  0.37678929  0.59413685  1
  La3+  La3  1  0.64112082  0.49649580  0.92100756  1
  La3+  La4  1  0.75745256  0.12104928  0.56736628  1
  La3+  La5  1  0.76971115  0.13032622  0.07257447  1
  La3+  La6  1  0.62833710  0.49050643  0.42663507  1
  La3+  La7  1  0.90238213  0.49273691  0.92215197  1
  La3+  La8  1  0.25768623  0.12262102  0.56614838  1
  La3+  La9  1  0.50534890  0.86603137  0.56936996  1
  La3+  La10  1  0.88662581  -0.01203095  0.93172550  1
  La3+  La11  1  0.63418309  -0.00616100  0.41842052  1
  Ce3+  Ce12  1  0.38298253  0.49655580  0.44314399  1
  Ce3+  Ce13  1  0.26727794  0.86966417  0.07197471  1
  Ce3+  Ce14  1  0.51657109  0.36977697  0.05243350  1
  Ce3+  Ce15  1  0.25466479  0.37346472  0.55449276  1
  Ce3+  Ce16  1  0.12738948  0.24825230  0.43879245  1
  Ce3+  Ce17  1  0.89913978  0.74533142  0.93699879  1
  Ce3+  Ce18  1  0.01774586  0.86951755  0.06361210  1
  Ce3+  Ce19  1  0.51036019  0.62266421  0.55876786  1
  Ce3+  Ce20  1  0.87599955  -0.00142457  0.43579891  1
  Ce3+  Ce21  1  0.38145262  -0.00549614  0.43814562  1
  Ce3+  Ce22  1  0.77017626  0.61262675  0.05061941  1
  Ce3+  Ce23  1  0.01144877  0.12527670  0.06648704  1
  Ce3+  Ce24  1  0.39446585  -0.00564189  0.95385403  1
  Ce3+  Ce25  1  0.63346494  0.24491357  0.43887265  1
  Pr3+  Pr26  1  0.00557476  0.87432230  0.56148536  1
  Pr3+  Pr27  1  0.52705502  0.86792052  0.08168830  1
  Pr3+  Pr28  1  0.25486375  0.62118081  0.55555006  1
  Pr3+  Pr29  1  0.26636932  0.61316545  0.07696648  1
  Pr3+  Pr30  1  0.89777357  0.23648462  0.91988071  1
  Pr3+  Pr31  1  0.12870325  0.00022334  0.44071754  1
  Pr3+  Pr32  1  0.14401119  0.49441946  0.93901110  1
  Pr3+  Pr33  1  0.50545892  0.37134560  0.56863019  1
  Pr3+  Pr34  1  0.74974506  0.37330545  0.57621728  1
  Pr3+  Pr35  1  0.26650460  0.36132509  0.06572755  1
  Pr3+  Pr36  1  0.14351318  -0.00384797  0.94544952  1
  Pr3+  Pr37  1  0.63319918  0.74433010  0.42514998  1
  Pr3+  Pr38  1  0.39060640  0.24151492  0.93997642  1
  Nd3+  Nd39  1  0.88848772  0.49344608  0.44084215  1
  Nd3+  Nd40  1  0.63796438  -0.00738934  0.94614050  1
  Nd3+  Nd41  1  0.01402331  0.36635050  0.06196344  1
  Nd3+  Nd42  1  0.02159153  0.61585894  0.06900044  1
  Nd3+  Nd43  1  0.27538916  0.11071242  0.08398679  1
  Nd3+  Nd44  1  0.77551668  0.87014218  0.07059012  1
  Nd3+  Nd45  1  0.75290785  0.87325870  0.56283591  1
  Nd3+  Nd46  1  0.64077133  0.74637161  0.94505112  1
  Nd3+  Nd47  1  0.88048181  0.74637990  0.44627110  1
  Nd3+  Nd48  1  0.14270505  0.24009668  0.93622330  1
  Nd3+  Nd49  1  0.38103828  0.24701498  0.44022035  1
  Nd3+  Nd50  1  0.64248756  0.24262620  0.93538589  1
  Nd3+  Nd51  1  0.12913019  0.74711359  0.43947868  1
  Sm3+  Sm52  1  0.50879600  0.11815816  0.55567291  1
  Sm3+  Sm53  1  0.38940662  0.49522046  0.94009844  1
  Sm3+  Sm54  1  0.25231887  0.87253380  0.55737435  1
  Sm3+  Sm55  1  0.52291504  0.12359630  0.07461581  1
  Sm3+  Sm56  1  0.38121680  0.74739406  0.44050452  1
  Sm3+  Sm57  1  0.00552393  0.62105677  0.56484855  1
  Sm3+  Sm58  1  0.76854091  0.37527774  0.05256532  1
  Sm3+  Sm59  1  0.38964747  0.74594130  0.94907660  1
  Sm3+  Sm60  1  0.12730368  0.49413070  0.43844843  1
  Sm3+  Sm61  1  0.75598038  0.61919878  0.55469455  1
  Sm3+  Sm62  1  0.51638311  0.61812518  0.05644068  1
  Sm3+  Sm63  1  0.00276949  0.12770022  0.55510385  1
  Bi2+  Bi64  1  0.02568579  0.06572752  0.28927538  1
  Bi2+  Bi65  1  0.11026874  0.10656634  0.81265383  1
  Bi2+  Bi66  1  -0.00673320  0.38835674  0.29533137  1
  Bi2+  Bi67  1  -0.02238545  0.38537026  0.79553281  1
  Bi2+  Bi68  1  0.01661041  0.63060676  0.28052041  1
  Bi2+  Bi69  1  -0.00182210  0.67493940  0.72089571  1
  Bi2+  Bi70  1  -0.03887574  0.82439870  0.29227799  1
  Bi2+  Bi71  1  -0.00716143  0.84773165  0.79959612  1
  Bi2+  Bi72  1  0.22099972  0.16200830  0.31482862  1
  Bi2+  Bi73  1  0.27672098  0.19721471  0.82458189  1
  Bi2+  Bi74  1  0.21047161  0.35979261  0.28987383  1
  Bi2+  Bi75  1  0.24293683  0.38899933  0.79796858  1
  Bi2+  Bi76  1  0.27035606  0.54228563  0.30279248  1
  Bi2+  Bi77  1  0.16899211  0.67288124  0.80253391  1
  Bi2+  Bi78  1  0.23447829  0.79429558  0.27287314  1
  Bi2+  Bi79  1  0.28632106  0.94565043  0.81244812  1
  Bi2+  Bi80  1  0.45687814  0.14084067  0.24923367  1
  Bi2+  Bi81  1  0.46392563  0.13491517  0.76000017  1
  Bi2+  Bi82  1  0.49270849  0.34191922  0.30403980  1
  Bi2+  Bi83  1  0.44263051  0.40026519  0.79976515  1
  Bi2+  Bi84  1  0.51650957  0.67352637  0.29925329  1
  Bi2+  Bi85  1  0.53402354  0.63935662  0.79482252  1
  Bi2+  Bi86  1  0.48357766  0.86463893  0.28689852  1
  Bi2+  Bi87  1  0.46313009  0.91100696  0.75949876  1
  Bi2+  Bi88  1  0.71843317  0.08849283  0.28789142  1
  Bi2+  Bi89  1  0.75254957  0.13012617  0.80317774  1
  Bi2+  Bi90  1  0.74661892  0.34752161  0.27989478  1
  Bi2+  Bi91  1  0.72567037  0.37544971  0.78067689  1
  Bi2+  Bi92  1  0.78901486  0.61701629  0.29022964  1
  Bi2+  Bi93  1  0.72118882  0.66720795  0.75403207  1
  Bi2+  Bi94  1  0.74264459  0.79747815  0.22939317  1
  Bi2+  Bi95  1  0.70863778  0.86758518  0.79871856  1
  Bi2+  Bi96  1  0.09982062  -0.00703288  0.19185260  1
  Bi2+  Bi97  1  0.06874362  0.00600452  0.71690641  1
  Bi2+  Bi98  1  0.12822972  0.19471084  0.21680081  1
  Bi2+  Bi99  1  0.16998973  0.25762122  0.72484404  1
  Bi2+  Bi100  1  0.14467021  0.52096804  0.21192071  1
  Bi2+  Bi101  1  0.14265462  0.53638075  0.72767076  1
  Bi2+  Bi102  1  0.06884714  0.79408097  0.19452753  1
  Bi2+  Bi103  1  0.20079104  0.79598004  0.70934804  1
  Bi2+  Bi104  1  0.27875346  -0.01539976  0.26344242  1
  Bi2+  Bi105  1  0.32060135  0.02843355  0.71074218  1
  Bi2+  Bi106  1  0.34705950  0.34404009  0.20281186  1
  Bi2+  Bi107  1  0.34390617  0.36035039  0.68352309  1
  Bi2+  Bi108  1  0.44418743  0.50479927  0.24366159  1
  Bi2+  Bi109  1  0.35500475  0.55623929  0.70213376  1
  Bi2+  Bi110  1  0.33250191  0.66491784  0.21662498  1
  Bi2+  Bi111  1  0.36624963  0.73987450  0.76699908  1
  Bi2+  Bi112  1  0.55437709  -0.00676560  0.19946290  1
  Bi2+  Bi113  1  0.64429736  0.05978885  0.69437878  1
  Bi2+  Bi114  1  0.60485328  0.25365134  0.21188182  1
  Bi2+  Bi115  1  0.52338937  0.29545429  0.70412657  1
  Bi2+  Bi116  1  0.67113901  0.50315742  0.22244781  1
  Bi2+  Bi117  1  0.54238988  0.56039140  0.68789068  1
  Bi2+  Bi118  1  0.60314342  0.68284873  0.19507490  1
  Bi2+  Bi119  1  0.64800683  0.80444454  0.68550311  1
  Bi2+  Bi120  1  0.89028148  -0.03097838  0.22464182  1
  Bi2+  Bi121  1  0.88279080  -0.00991858  0.75332425  1
  Bi2+  Bi122  1  0.88666353  0.22377315  0.20347506  1
  Bi2+  Bi123  1  0.87959102  0.22098463  0.69659418  1
  Bi2+  Bi124  1  0.87325891  0.46930103  0.20027237  1
  Bi2+  Bi125  1  0.86316255  0.52951843  0.71169519  1
  Bi2+  Bi126  1  0.88665627  0.67618325  0.19355334  1
  Bi2+  Bi127  1  0.84996976  0.80624539  0.70403630  1
  S2-  S128  1  -0.10890618  0.09157510  0.14682921  1
  S2-  S129  1  -0.03164055  0.10435169  0.65144694  1
  S2-  S130  1  0.01955408  0.25230604  0.14125002  1
  S2-  S131  1  0.00678472  0.31558407  0.69523534  1
  S2-  S132  1  0.00215579  0.48363891  0.13997052  1
  S2-  S133  1  0.01173580  0.53268391  0.64900573  1
  S2-  S134  1  -0.09280602  0.86956300  0.14058678  1
  S2-  S135  1  0.07337824  0.87174349  0.65480192  1
  S2-  S136  1  0.24957270  0.24467612  0.14558127  1
  S2-  S137  1  0.20370273  0.12278185  0.66204290  1
  S2-  S138  1  0.26887838  0.47482783  0.14579040  1
  S2-  S139  1  0.17975283  0.37660368  0.64118031  1
  S2-  S140  1  0.13727975  0.65698084  0.14638025  1
  S2-  S141  1  0.22591501  0.63993568  0.65430112  1
  S2-  S142  1  0.25887885  0.96567106  0.15482280  1
  S2-  S143  1  0.30674991  0.88030076  0.64993609  1
  S2-  S144  1  0.41710620  0.11112529  0.15571739  1
  S2-  S145  1  0.47781383  0.14368249  0.65208253  1
  S2-  S146  1  0.50438710  0.34450909  0.14883612  1
  S2-  S147  1  0.61083393  0.40655707  0.64674808  1
  S2-  S148  1  0.46250823  0.60825290  0.14968976  1
  S2-  S149  1  0.51197472  0.71748224  0.64132344  1
  S2-  S150  1  0.46097048  0.86073505  0.17823386  1
  S2-  S151  1  0.53373030  0.93129193  0.66231310  1
  S2-  S152  1  0.64510061  0.12197828  0.14941819  1
  S2-  S153  1  0.71337515  0.19219979  0.65968613  1
  S2-  S154  1  0.78801522  0.28398235  0.13815165  1
  S2-  S155  1  0.81756907  0.38520596  0.67298813  1
  S2-  S156  1  0.75101508  0.50220794  0.12624672  1
  S2-  S157  1  0.74928428  0.60527605  0.65338953  1
  S2-  S158  1  0.66950405  0.88437038  0.15097981  1
  S2-  S159  1  0.75691956  0.98685865  0.64039426  1
  S2-  S160  1  0.15353046  -0.01027909  0.34092339  1
  S2-  S161  1  0.12955328  -0.08179563  0.85392650  1
  S2-  S162  1  0.03527081  0.26757892  0.35607017  1
  S2-  S163  1  0.04364683  0.25315489  0.85230038  1
  S2-  S164  1  0.02227940  0.51590608  0.36096201  1
  S2-  S165  1  0.04303932  0.49057229  0.85520363  1
  S2-  S166  1  0.11019603  0.74806915  0.34102739  1
  S2-  S167  1  0.01757693  0.71619650  0.86100179  1
  S2-  S168  1  0.40228642  -0.01347172  0.33984395  1
  S2-  S169  1  0.43651681  -0.03058162  0.86047162  1
  S2-  S170  1  0.38627911  0.21376297  0.34126067  1
  S2-  S171  1  0.44967475  0.23065658  0.84477872  1
  S2-  S172  1  0.46480616  0.48470645  0.35852467  1
  S2-  S173  1  0.39935057  0.53757571  0.84424427  1
  S2-  S174  1  0.36968949  0.75286796  0.34196777  1
  S2-  S175  1  0.29502708  0.74482528  0.86509703  1
  S2-  S176  1  0.62140648  0.13594110  0.35616263  1
  S2-  S177  1  0.66200218  0.00459774  0.84608511  1
  S2-  S178  1  0.63820013  0.35430008  0.36020121  1
  S2-  S179  1  0.65280312  0.25021284  0.83450240  1
  S2-  S180  1  0.64684365  0.61554394  0.35360363  1
  S2-  S181  1  0.60802207  0.46593446  0.82291226  1
  S2-  S182  1  0.60953918  0.86002577  0.34877685  1
  S2-  S183  1  0.58839984  0.76882143  0.85084163  1
  S2-  S184  1  0.78442241  -0.00917480  0.35311665  1
  S2-  S185  1  0.89926914  0.07798008  0.84545669  1
  S2-  S186  1  0.83176276  0.20188028  0.31345003  1
  S2-  S187  1  0.84859370  0.27589049  0.82095917  1
  S2-  S188  1  0.85217334  0.40808794  0.35417561  1
  S2-  S189  1  0.83498785  0.48505214  0.82495899  1
  S2-  S190  1  0.83937540  0.75334266  0.34978976  1
  S2-  S191  1  0.85167486  0.85126880  0.86206760  1
  S2-  S192  1  0.00076062  0.12372877  0.44976527  1
  S2-  S193  1  0.01800442  0.11701455  0.95673456  1
  S2-  S194  1  0.00861915  0.37149461  0.46290702  1
  S2-  S195  1  0.02083308  0.36509379  0.95565308  1
  S2-  S196  1  0.00687458  0.62494807  0.46121554  1
  S2-  S197  1  0.02277677  0.61800359  0.96319904  1
  S2-  S198  1  0.00498145  0.87259020  0.45199094  1
  S2-  S199  1  0.01799657  0.87086450  0.95987141  1
  S2-  S200  1  0.25606592  0.12235700  0.45584903  1
  S2-  S201  1  0.26944664  0.11676844  0.96215765  1
  S2-  S202  1  0.25436134  0.37330301  0.44669213  1
  S2-  S203  1  0.26851266  0.36860283  0.95286289  1
  S2-  S204  1  0.25338864  0.62167803  0.44756161  1
  S2-  S205  1  0.27015011  0.61686446  0.96315331  1
  S2-  S206  1  0.25398658  0.87051216  0.45051970  1
  S2-  S207  1  0.27094895  0.87296838  0.96608038  1
  S2-  S208  1  0.50153492  0.12031625  0.45282858  1
  S2-  S209  1  0.51920828  0.12061391  0.96109445  1
  S2-  S210  1  0.50215733  0.36853897  0.46170876  1
  S2-  S211  1  0.51474993  0.37183275  0.94543235  1
  S2-  S212  1  0.50303263  0.62580388  0.45440963  1
  S2-  S213  1  0.51226970  0.62111496  0.95136047  1
  S2-  S214  1  0.50154088  0.86854749  0.45617529  1
  S2-  S215  1  0.51581900  0.86466510  0.96911931  1
  S2-  S216  1  0.76572269  0.13025883  0.45673339  1
  S2-  S217  1  0.76248593  0.11928486  0.95284507  1
  S2-  S218  1  0.76189899  0.36873501  0.46443350  1
  S2-  S219  1  0.76593652  0.37026511  0.94370729  1
  S2-  S220  1  0.76256618  0.61777666  0.45252620  1
  S2-  S221  1  0.76759075  0.62186880  0.94106192  1
  S2-  S222  1  0.75685552  0.86964945  0.45795926  1
  S2-  S223  1  0.76013443  0.86674555  0.96570216  1
  S2-  S224  1  0.14043136  -0.00198453  0.05194869  1
  S2-  S225  1  0.12945801  -0.00047372  0.54747628  1
  S2-  S226  1  0.14326817  0.23897059  0.04055455  1
  S2-  S227  1  0.12859031  0.24599013  0.54654351  1
  S2-  S228  1  0.14451282  0.48981144  0.04440096  1
  S2-  S229  1  0.12835106  0.49959175  0.54210665  1
  S2-  S230  1  0.14556011  0.74944274  0.04318693  1
  S2-  S231  1  0.12918351  0.74701908  0.54626995  1
  S2-  S232  1  0.40033232  -0.01113032  0.05702901  1
  S2-  S233  1  0.38026027  -0.00434794  0.54598006  1
  S2-  S234  1  0.39582521  0.23897520  0.04675629  1
  S2-  S235  1  0.38103149  0.24710307  0.54742961  1
  S2-  S236  1  0.39326793  0.49401723  0.04398646  1
  S2-  S237  1  0.38183378  0.49831719  0.55000919  1
  S2-  S238  1  0.39067875  0.74195290  0.05443493  1
  S2-  S239  1  0.37465104  0.74797854  0.54463084  1
  S2-  S240  1  0.64427720  -0.00249723  0.04969372  1
  S2-  S241  1  0.62748631  -0.00460814  0.53849755  1
  S2-  S242  1  0.64088202  0.25021824  0.04131965  1
  S2-  S243  1  0.62617141  0.24499172  0.54678937  1
  S2-  S244  1  0.63539730  0.49593833  0.02975577  1
  S2-  S245  1  0.63186500  0.50044564  0.53889653  1
  S2-  S246  1  0.64455722  0.73703302  0.05202319  1
  S2-  S247  1  0.63687339  0.74543067  0.53859839  1
  S2-  S248  1  0.89140662  -0.00401054  0.03957619  1
  S2-  S249  1  0.88514285  -0.00349092  0.54146800  1
  S2-  S250  1  0.88966759  0.24876128  0.03149125  1
  S2-  S251  1  0.88562282  0.25312453  0.56264277  1
  S2-  S252  1  0.89319074  0.49336294  0.03168394  1
  S2-  S253  1  0.88210006  0.49848621  0.54950249  1
  S2-  S254  1  0.89379597  0.73713108  0.04454062  1
  S2-  S255  1  0.88092824  0.74577364  0.55386525  1
