# generated using pymatgen
data_La12Ce14Pr13Nd13Sm12(BiS2)64
_symmetry_space_group_name_H-M   'P 1'
_cell_length_a   16.09819252
_cell_length_b   16.14259597
_cell_length_c   27.32810393
_cell_angle_alpha   90.18115042
_cell_angle_beta   90.07965920
_cell_angle_gamma   90.05876295
_symmetry_Int_Tables_number   1
_chemical_formula_structural   La12Ce14Pr13Nd13Sm12(BiS2)64
_chemical_formula_sum   'La12 Ce14 Pr13 Nd13 Sm12 Bi64 S128'
_cell_volume   7101.61580611
_cell_formula_units_Z   1
loop_
 _symmetry_equiv_pos_site_id
 _symmetry_equiv_pos_as_xyz
  1  'x, y, z'
loop_
 _atom_type_symbol
 _atom_type_oxidation_number
  La3+  3.0
  Ce3+  3.0
  Pr3+  3.0
  Nd3+  3.0
  Sm3+  3.0
  Bi2+  2.0
  S2-  -2.0
loop_
 _atom_site_type_symbol
 _atom_site_label
 _atom_site_symmetry_multiplicity
 _atom_site_fract_x
 _atom_site_fract_y
 _atom_site_fract_z
 _atom_site_occupancy
  La3+  La0  1  0.51790084  0.13351811  0.59342154  1
  La3+  La1  1  0.51713377  0.86436346  0.58525255  1
  La3+  La2  1  0.62453968  0.75590120  0.41489995  1
  La3+  La3  1  0.26164023  0.12378589  0.56417999  1
  La3+  La4  1  0.00517785  0.60679331  0.61650581  1
  La3+  La5  1  0.86039298  0.50578550  0.92486365  1
  La3+  La6  1  0.75971932  0.37451959  0.07112619  1
  La3+  La7  1  0.00196267  0.13143960  0.10692858  1
  La3+  La8  1  0.75110981  0.87854173  0.06917656  1
  La3+  La9  1  0.49907618  0.87702671  0.07692749  1
  La3+  La10  1  0.38712347  0.74980461  0.90908562  1
  La3+  La11  1  0.88933359  -0.01150785  0.41472993  1
  Ce3+  Ce12  1  0.37786629  0.00137440  0.93424066  1
  Ce3+  Ce13  1  0.37567241  0.50743968  0.94104635  1
  Ce3+  Ce14  1  0.12533939  0.24785736  0.94264687  1
  Ce3+  Ce15  1  0.51296212  0.62529569  0.55598402  1
  Ce3+  Ce16  1  0.24943760  0.37420985  0.05059676  1
  Ce3+  Ce17  1  0.62909989  -0.00394130  0.44429577  1
  Ce3+  Ce18  1  0.38466727  0.24654776  0.44104661  1
  Ce3+  Ce19  1  0.00720591  0.37481924  0.55285869  1
  Ce3+  Ce20  1  0.00554497  0.11713266  0.56761644  1
  Ce3+  Ce21  1  0.63379793  0.24511016  0.43788600  1
  Ce3+  Ce22  1  0.25180607  0.87582441  0.05236299  1
  Ce3+  Ce23  1  0.13250043  0.24310024  0.44302060  1
  Ce3+  Ce24  1  0.13337043  0.49992867  0.43708549  1
  Ce3+  Ce25  1  0.00310219  0.37747630  0.05473110  1
  Pr3+  Pr26  1  0.37962618  0.24810249  0.92314510  1
  Pr3+  Pr27  1  0.11900565  0.49712460  0.93097996  1
  Pr3+  Pr28  1  0.12628681  0.00243689  0.94081942  1
  Pr3+  Pr29  1  0.88078898  0.75409075  0.93194757  1
  Pr3+  Pr30  1  0.74577360  0.12691214  0.06607963  1
  Pr3+  Pr31  1  0.62263235  0.50453448  0.94939784  1
  Pr3+  Pr32  1  0.49720820  0.62682029  0.08710210  1
  Pr3+  Pr33  1  0.87196530  0.24805365  0.93999897  1
  Pr3+  Pr34  1  0.75436346  0.62654775  0.07203063  1
  Pr3+  Pr35  1  0.62277333  -0.00311011  0.93733507  1
  Pr3+  Pr36  1  0.88541620  0.49861650  0.42641741  1
  Pr3+  Pr37  1  0.50020452  0.37405736  0.05990932  1
  Pr3+  Pr38  1  0.00934567  0.87384469  0.56757634  1
  Nd3+  Nd39  1  0.00023425  0.62733215  0.06018419  1
  Nd3+  Nd40  1  0.13357411  0.74859345  0.44373440  1
  Nd3+  Nd41  1  0.25626782  0.37546523  0.55346546  1
  Nd3+  Nd42  1  0.88427247  0.24228172  0.43915245  1
  Nd3+  Nd43  1  0.12996210  0.74954227  0.93186100  1
  Nd3+  Nd44  1  0.63008777  0.24894549  0.92993263  1
  Nd3+  Nd45  1  0.25409332  0.62507442  0.56521982  1
  Nd3+  Nd46  1  0.76381786  0.62396607  0.54956810  1
  Nd3+  Nd47  1  0.75852759  0.12077866  0.55796544  1
  Nd3+  Nd48  1  0.25118678  0.62710510  0.06187669  1
  Nd3+  Nd49  1  0.00017612  0.87889257  0.06831869  1
  Nd3+  Nd50  1  0.51066753  0.37505722  0.55784473  1
  Nd3+  Nd51  1  0.25275030  0.12626437  0.06321877  1
  Sm3+  Sm52  1  0.76236830  0.37470707  0.55192020  1
  Sm3+  Sm53  1  0.75876613  0.87273047  0.55488108  1
  Sm3+  Sm54  1  0.50367967  0.12810065  0.06059958  1
  Sm3+  Sm55  1  0.38547688  0.74959232  0.44545013  1
  Sm3+  Sm56  1  0.62251750  0.75115003  0.95141792  1
  Sm3+  Sm57  1  0.87637225  0.00015511  0.94674275  1
  Sm3+  Sm58  1  0.88302957  0.74830288  0.43990052  1
  Sm3+  Sm59  1  0.26243387  0.87467508  0.56015739  1
  Sm3+  Sm60  1  0.38358963  0.49847119  0.44453570  1
  Sm3+  Sm61  1  0.63474435  0.49749793  0.43710252  1
  Sm3+  Sm62  1  0.38889453  -0.00222811  0.45422926  1
  Sm3+  Sm63  1  0.13568824  -0.00422869  0.44008215  1
  Bi2+  Bi64  1  0.01007537  0.14406962  0.29860160  1
  Bi2+  Bi65  1  -0.01392744  0.12420049  0.79123104  1
  Bi2+  Bi66  1  0.03466195  0.45537055  0.22730982  1
  Bi2+  Bi67  1  -0.01672954  0.32580687  0.78669994  1
  Bi2+  Bi68  1  0.02372968  0.61711393  0.29124289  1
  Bi2+  Bi69  1  0.00275494  0.61774211  0.81562620  1
  Bi2+  Bi70  1  0.07110137  0.88703851  0.28365810  1
  Bi2+  Bi71  1  -0.08702603  0.86350209  0.78888107  1
  Bi2+  Bi72  1  0.26314676  0.12842434  0.29775987  1
  Bi2+  Bi73  1  0.21629739  0.14874786  0.79706244  1
  Bi2+  Bi74  1  0.23050739  0.42317139  0.28905731  1
  Bi2+  Bi75  1  0.29204581  0.33569697  0.79017216  1
  Bi2+  Bi76  1  0.21959708  0.66542627  0.27129889  1
  Bi2+  Bi77  1  0.26645641  0.61463055  0.78285657  1
  Bi2+  Bi78  1  0.26532202  0.93182882  0.31543862  1
  Bi2+  Bi79  1  0.23416041  0.87306241  0.78223478  1
  Bi2+  Bi80  1  0.48347869  0.10913003  0.28235348  1
  Bi2+  Bi81  1  0.49478229  0.12602693  0.79343132  1
  Bi2+  Bi82  1  0.42209804  0.37301708  0.28648615  1
  Bi2+  Bi83  1  0.49328206  0.40255148  0.78962598  1
  Bi2+  Bi84  1  0.41783296  0.63859133  0.28142337  1
  Bi2+  Bi85  1  0.51838634  0.63319062  0.78662036  1
  Bi2+  Bi86  1  0.50484395  0.87510213  0.29184919  1
  Bi2+  Bi87  1  0.50611145  0.86560614  0.78181962  1
  Bi2+  Bi88  1  0.74838150  0.16443584  0.29151018  1
  Bi2+  Bi89  1  0.78740758  0.12375488  0.78562089  1
  Bi2+  Bi90  1  0.68257247  0.40730517  0.28653712  1
  Bi2+  Bi91  1  0.77227101  0.37561444  0.79036439  1
  Bi2+  Bi92  1  0.82493738  0.61348375  0.29181456  1
  Bi2+  Bi93  1  0.73136565  0.59105961  0.78257087  1
  Bi2+  Bi94  1  0.76202871  0.85974680  0.29715437  1
  Bi2+  Bi95  1  0.70922228  0.85584118  0.78821311  1
  Bi2+  Bi96  1  0.18486737  0.00470717  0.21825693  1
  Bi2+  Bi97  1  0.06662448  -0.03808432  0.74315974  1
  Bi2+  Bi98  1  0.22972888  0.26272951  0.21601964  1
  Bi2+  Bi99  1  0.08348174  0.19753642  0.69475765  1
  Bi2+  Bi100  1  0.12309531  0.60288916  0.17377013  1
  Bi2+  Bi101  1  0.13477294  0.37864274  0.71976961  1
  Bi2+  Bi102  1  0.09960937  0.79488795  0.18177275  1
  Bi2+  Bi103  1  0.12970885  0.75475527  0.70999502  1
  Bi2+  Bi104  1  0.43762732  -0.01274426  0.19431540  1
  Bi2+  Bi105  1  0.32750030  -0.01194317  0.70705559  1
  Bi2+  Bi106  1  0.38479650  0.17071196  0.16910989  1
  Bi2+  Bi107  1  0.36179086  0.24744395  0.69770036  1
  Bi2+  Bi108  1  0.34292912  0.46751734  0.19203419  1
  Bi2+  Bi109  1  0.38831951  0.48405430  0.70556717  1
  Bi2+  Bi110  1  0.35067353  0.80391818  0.22978620  1
  Bi2+  Bi111  1  0.38283869  0.67727153  0.70174187  1
  Bi2+  Bi112  1  0.62949431  0.03642610  0.21675467  1
  Bi2+  Bi113  1  0.67725722  0.00731207  0.71665943  1
  Bi2+  Bi114  1  0.53847710  0.26141795  0.21035216  1
  Bi2+  Bi115  1  0.62744313  0.31492039  0.72123748  1
  Bi2+  Bi116  1  0.56415856  0.53501933  0.23532815  1
  Bi2+  Bi117  1  0.59480993  0.50692329  0.70423880  1
  Bi2+  Bi118  1  0.62406378  0.76012711  0.20688609  1
  Bi2+  Bi119  1  0.66812032  0.72312718  0.70537313  1
  Bi2+  Bi120  1  0.87998905  -0.01647045  0.21310110  1
  Bi2+  Bi121  1  0.85669726  0.03526185  0.66970186  1
  Bi2+  Bi122  1  0.84601707  0.25580268  0.21261451  1
  Bi2+  Bi123  1  0.88515939  0.22326201  0.69920068  1
  Bi2+  Bi124  1  0.84366364  0.49260495  0.20145528  1
  Bi2+  Bi125  1  0.86159777  0.47936871  0.69943296  1
  Bi2+  Bi126  1  0.91984959  0.73727197  0.21813566  1
  Bi2+  Bi127  1  0.83266526  0.83493057  0.68543204  1
  S2-  S128  1  0.00094859  0.19785794  0.20862393  1
  S2-  S129  1  0.02264086  0.00180431  0.64125460  1
  S2-  S130  1  -0.05743211  0.38067641  0.14587164  1
  S2-  S131  1  0.00582089  0.43209953  0.64471060  1
  S2-  S132  1  -0.11092481  0.62390884  0.13991909  1
  S2-  S133  1  -0.01689932  0.59525410  0.72417898  1
  S2-  S134  1  0.00688701  0.97497535  0.15393143  1
  S2-  S135  1  -0.00277013  0.77453200  0.65159890  1
  S2-  S136  1  0.16777082  0.13054157  0.15025503  1
  S2-  S137  1  0.23978622  0.12768077  0.66384790  1
  S2-  S138  1  0.20613866  0.38210299  0.14499670  1
  S2-  S139  1  0.26518675  0.38219894  0.65214395  1
  S2-  S140  1  0.34825370  0.60926375  0.14586991  1
  S2-  S141  1  0.17304758  0.62255623  0.65348906  1
  S2-  S142  1  0.24954179  0.87457440  0.15069139  1
  S2-  S143  1  0.22967128  0.87406330  0.65599407  1
  S2-  S144  1  0.61414090  0.15097574  0.13976960  1
  S2-  S145  1  0.45466658  0.10446485  0.68885276  1
  S2-  S146  1  0.50451167  0.41399936  0.15850352  1
  S2-  S147  1  0.50619201  0.29353577  0.64537485  1
  S2-  S148  1  0.48684229  0.76145034  0.15708635  1
  S2-  S149  1  0.52355620  0.70453909  0.64180984  1
  S2-  S150  1  0.63387273  0.90635396  0.14894112  1
  S2-  S151  1  0.45466159  0.89450061  0.68455495  1
  S2-  S152  1  0.83630332  0.12022859  0.15358791  1
  S2-  S153  1  0.67117414  0.12592844  0.64574515  1
  S2-  S154  1  0.72813103  0.37081393  0.17066728  1
  S2-  S155  1  0.75116404  0.36558112  0.64944526  1
  S2-  S156  1  0.64624705  0.62074714  0.15736583  1
  S2-  S157  1  0.82731207  0.60527164  0.64131844  1
  S2-  S158  1  0.83680595  0.85520311  0.15952009  1
  S2-  S159  1  0.66957527  0.87267793  0.64103466  1
  S2-  S160  1  0.04057808  0.00179556  0.35794534  1
  S2-  S161  1  0.15055856  -0.00236501  0.84016890  1
  S2-  S162  1  0.13525335  0.22386249  0.34564644  1
  S2-  S163  1  0.14420707  0.27683048  0.84700586  1
  S2-  S164  1  0.08939260  0.47481443  0.34326605  1
  S2-  S165  1  0.15805543  0.53705518  0.83490507  1
  S2-  S166  1  0.16503086  0.77942417  0.34685817  1
  S2-  S167  1  0.01082665  0.77760683  0.85885432  1
  S2-  S168  1  0.41619492  -0.01404581  0.35708647  1
  S2-  S169  1  0.40053640  -0.10032657  0.85208144  1
  S2-  S170  1  0.38843595  0.23477962  0.34351251  1
  S2-  S171  1  0.35921018  0.11285169  0.85514536  1
  S2-  S172  1  0.35839198  0.50877892  0.34764581  1
  S2-  S173  1  0.39301204  0.59104412  0.85641033  1
  S2-  S174  1  0.46697525  0.74611075  0.35907414  1
  S2-  S175  1  0.23638521  0.74856573  0.84890601  1
  S2-  S176  1  0.62999210  -0.08634910  0.35776619  1
  S2-  S177  1  0.61071942  0.05831168  0.84220647  1
  S2-  S178  1  0.63324797  0.26651718  0.34099035  1
  S2-  S179  1  0.51577801  0.26047412  0.85298491  1
  S2-  S180  1  0.59520316  0.50957164  0.34172788  1
  S2-  S181  1  0.70278642  0.48092619  0.86040827  1
  S2-  S182  1  0.68775310  0.71914093  0.31955009  1
  S2-  S183  1  0.55562945  0.75122136  0.85935586  1
  S2-  S184  1  0.82462893  0.02572368  0.31875307  1
  S2-  S185  1  0.87106716  0.00388720  0.84750890  1
  S2-  S186  1  0.89044542  0.24003481  0.33919685  1
  S2-  S187  1  0.76199457  0.24835268  0.85938196  1
  S2-  S188  1  0.82943302  0.45844224  0.33324869  1
  S2-  S189  1  0.96522775  0.46103290  0.84815306  1
  S2-  S190  1  0.89101349  0.83036735  0.35440945  1
  S2-  S191  1  0.84120562  0.64572684  0.85400581  1
  S2-  S192  1  0.00883161  0.11993580  0.45907029  1
  S2-  S193  1  -0.00215068  0.12431098  0.94330735  1
  S2-  S194  1  0.00757189  0.37002983  0.44699175  1
  S2-  S195  1  -0.00181985  0.37038141  0.95204017  1
  S2-  S196  1  0.00779243  0.62741310  0.43879772  1
  S2-  S197  1  0.00072970  0.62434590  0.95434695  1
  S2-  S198  1  0.01253482  0.87137796  0.45848989  1
  S2-  S199  1  0.00136301  0.88134558  0.96094075  1
  S2-  S200  1  0.26080824  0.11896694  0.45517096  1
  S2-  S201  1  0.25041995  0.12815944  0.95718756  1
  S2-  S202  1  0.25856005  0.37318052  0.44803302  1
  S2-  S203  1  0.25333258  0.37542728  0.94535306  1
  S2-  S204  1  0.26168652  0.62473897  0.45508663  1
  S2-  S205  1  0.24815022  0.62392789  0.95584602  1
  S2-  S206  1  0.26309371  0.87455772  0.45583329  1
  S2-  S207  1  0.25228701  0.87696607  0.94942099  1
  S2-  S208  1  0.50850581  0.12364598  0.45442863  1
  S2-  S209  1  0.50340111  0.12702496  0.95725513  1
  S2-  S210  1  0.50866458  0.37628191  0.45109058  1
  S2-  S211  1  0.49885762  0.37921117  0.95283888  1
  S2-  S212  1  0.50874049  0.61917334  0.45207735  1
  S2-  S213  1  0.50034193  0.62890473  0.96589610  1
  S2-  S214  1  0.50541432  0.87206538  0.46636105  1
  S2-  S215  1  0.50099376  0.87466528  0.96400520  1
  S2-  S216  1  0.75911203  0.11840314  0.44899010  1
  S2-  S217  1  0.75027715  0.11872376  0.95804176  1
  S2-  S218  1  0.75882083  0.37203439  0.44718496  1
  S2-  S219  1  0.74903549  0.37444610  0.96264922  1
  S2-  S220  1  0.75719734  0.62368535  0.44264496  1
  S2-  S221  1  0.74534418  0.63227600  0.96393953  1
  S2-  S222  1  0.75838159  0.87240584  0.45264221  1
  S2-  S223  1  0.75039724  0.87445468  0.95410000  1
  S2-  S224  1  0.12590829  0.00345553  0.04674791  1
  S2-  S225  1  0.14006905  -0.00250129  0.54332444  1
  S2-  S226  1  0.12097113  0.24750821  0.04771605  1
  S2-  S227  1  0.13202662  0.24814598  0.55002499  1
  S2-  S228  1  0.12545699  0.50123178  0.04000422  1
  S2-  S229  1  0.13151925  0.50146653  0.54341793  1
  S2-  S230  1  0.12494389  0.75181550  0.04219498  1
  S2-  S231  1  0.13926851  0.75300162  0.54746823  1
  S2-  S232  1  0.37819411  0.00463534  0.04624975  1
  S2-  S233  1  0.39093022  -0.00044683  0.55939279  1
  S2-  S234  1  0.37600363  0.25126110  0.03888532  1
  S2-  S235  1  0.38437776  0.25035223  0.54661603  1
  S2-  S236  1  0.37498535  0.49811280  0.04466279  1
  S2-  S237  1  0.38362002  0.50047501  0.54958781  1
  S2-  S238  1  0.37305700  0.75159111  0.04890581  1
  S2-  S239  1  0.38159152  0.74803996  0.54945460  1
  S2-  S240  1  0.62294778  0.00286693  0.04331867  1
  S2-  S241  1  0.62981999  0.00024889  0.54739583  1
  S2-  S242  1  0.62666913  0.25532755  0.03912878  1
  S2-  S243  1  0.63668059  0.25212284  0.54270081  1
  S2-  S244  1  0.62735391  0.49874776  0.05434339  1
  S2-  S245  1  0.63726991  0.49770048  0.54392833  1
  S2-  S246  1  0.62718779  0.75017316  0.05293681  1
  S2-  S247  1  0.63860329  0.74538018  0.53595577  1
  S2-  S248  1  0.87833149  0.00374524  0.04916509  1
  S2-  S249  1  0.88060745  -0.00383709  0.53906589  1
  S2-  S250  1  0.88194317  0.24489426  0.04743964  1
  S2-  S251  1  0.88274084  0.24726973  0.54623311  1
  S2-  S252  1  0.87724700  0.50098148  0.03863852  1
  S2-  S253  1  0.88478676  0.49707182  0.53405316  1
  S2-  S254  1  0.87887441  0.75503591  0.04179280  1
  S2-  S255  1  0.88228516  0.75083996  0.54221333  1
