# generated using pymatgen
data_La12Ce14Pr13Nd13Sm12(BiS2)64
_symmetry_space_group_name_H-M   'P 1'
_cell_length_a   16.19088869
_cell_length_b   16.18993638
_cell_length_c   27.08760540
_cell_angle_alpha   90.01467552
_cell_angle_beta   90.00303856
_cell_angle_gamma   89.96031338
_symmetry_Int_Tables_number   1
_chemical_formula_structural   La12Ce14Pr13Nd13Sm12(BiS2)64
_chemical_formula_sum   'La12 Ce14 Pr13 Nd13 Sm12 Bi64 S128'
_cell_volume   7100.45737353
_cell_formula_units_Z   1
loop_
 _symmetry_equiv_pos_site_id
 _symmetry_equiv_pos_as_xyz
  1  'x, y, z'
loop_
 _atom_type_symbol
 _atom_type_oxidation_number
  La3+  3.0
  Ce3+  3.0
  Pr3+  3.0
  Nd3+  3.0
  Sm3+  3.0
  Bi2+  2.0
  S2-  -2.0
loop_
 _atom_site_type_symbol
 _atom_site_label
 _atom_site_symmetry_multiplicity
 _atom_site_fract_x
 _atom_site_fract_y
 _atom_site_fract_z
 _atom_site_occupancy
  La3+  La0  1  0.74514174  0.12706480  0.06511996  1
  La3+  La1  1  0.87628975  0.74847009  0.39807766  1
  La3+  La2  1  0.50188015  0.37693725  0.57324260  1
  La3+  La3  1  0.12714184  0.00940274  0.43425167  1
  La3+  La4  1  0.74544599  0.87508433  0.06295023  1
  La3+  La5  1  0.38420318  0.00863835  0.43695783  1
  La3+  La6  1  0.48656288  0.11679350  0.08814006  1
  La3+  La7  1  -0.00893712  0.38271079  0.57814152  1
  La3+  La8  1  0.62805353  0.24216569  0.39084289  1
  La3+  La9  1  0.37693549  0.50463238  0.43735975  1
  La3+  La10  1  0.74698496  0.62314120  0.06892312  1
  La3+  La11  1  0.86755347  -0.00593471  0.92316161  1
  Ce3+  Ce12  1  0.61999866  0.00172195  0.94636905  1
  Ce3+  Ce13  1  0.24898388  0.63038927  0.55853077  1
  Ce3+  Ce14  1  0.87144210  0.74729741  0.94301642  1
  Ce3+  Ce15  1  0.63399187  0.74997337  0.44637176  1
  Ce3+  Ce16  1  0.24939647  0.37987414  0.55609846  1
  Ce3+  Ce17  1  0.12492659  0.50442835  0.44433966  1
  Ce3+  Ce18  1  0.62855421  0.49831969  0.44005969  1
  Ce3+  Ce19  1  0.50539350  0.87155828  0.56114809  1
  Ce3+  Ce20  1  0.00306447  0.88260822  0.55066679  1
  Ce3+  Ce21  1  0.36829112  0.74892392  0.94003810  1
  Ce3+  Ce22  1  0.12042747  0.75126932  0.94602333  1
  Ce3+  Ce23  1  0.38130847  0.75324689  0.44326864  1
  Ce3+  Ce24  1  0.49406894  0.87432464  0.05335484  1
  Ce3+  Ce25  1  0.61954175  0.49669519  0.94466689  1
  Pr3+  Pr26  1  0.00221182  0.13167442  0.57311466  1
  Pr3+  Pr27  1  0.88102185  0.50094298  0.42521796  1
  Pr3+  Pr28  1  0.25552182  0.13174373  0.56480812  1
  Pr3+  Pr29  1  0.14065289  0.76249336  0.41333694  1
  Pr3+  Pr30  1  -0.00489953  0.88053963  0.06698697  1
  Pr3+  Pr31  1  0.62148632  0.74506075  0.93471504  1
  Pr3+  Pr32  1  0.24629390  0.62442252  0.06480766  1
  Pr3+  Pr33  1  0.37378921  0.25017713  0.94020643  1
  Pr3+  Pr34  1  0.76290003  0.62661737  0.56426851  1
  Pr3+  Pr35  1  0.87515085  0.00644109  0.43631560  1
  Pr3+  Pr36  1  0.76301064  0.87420496  0.56459210  1
  Pr3+  Pr37  1  -0.00372717  0.12610138  0.05488224  1
  Pr3+  Pr38  1  0.88068295  0.25378427  0.43646505  1
  Nd3+  Nd39  1  0.48818460  0.38693636  0.08688082  1
  Nd3+  Nd40  1  0.00072441  0.63561723  0.54997056  1
  Nd3+  Nd41  1  0.75415150  0.12920662  0.56218362  1
  Nd3+  Nd42  1  0.24836900  0.37284765  0.06168557  1
  Nd3+  Nd43  1  0.74425969  0.37460837  0.06068853  1
  Nd3+  Nd44  1  0.24678913  0.87156636  0.06413166  1
  Nd3+  Nd45  1  0.12133934  0.24942148  0.93980400  1
  Nd3+  Nd46  1  0.12151120  0.49931570  0.94470988  1
  Nd3+  Nd47  1  0.50632882  0.12688264  0.56161750  1
  Nd3+  Nd48  1  0.25491438  0.87926915  0.55990403  1
  Nd3+  Nd49  1  0.50416786  0.62065048  0.56909101  1
  Nd3+  Nd50  1  0.37167605  0.00084103  0.93812942  1
  Nd3+  Nd51  1  0.87044697  0.25004006  0.94020563  1
  Sm3+  Sm52  1  0.75189689  0.37740778  0.54848311  1
  Sm3+  Sm53  1  0.38519295  0.25681410  0.44127758  1
  Sm3+  Sm54  1  0.87102025  0.50012283  0.94325970  1
  Sm3+  Sm55  1  0.49485303  0.62597041  0.05728655  1
  Sm3+  Sm56  1  -0.00300824  0.37464546  0.05589690  1
  Sm3+  Sm57  1  0.63045590  0.00517304  0.44757995  1
  Sm3+  Sm58  1  0.37087488  0.49931394  0.93972609  1
  Sm3+  Sm59  1  0.12662722  0.25322730  0.44068265  1
  Sm3+  Sm60  1  0.61847094  0.25098711  0.95174074  1
  Sm3+  Sm61  1  0.24737078  0.12170259  0.06353342  1
  Sm3+  Sm62  1  0.12231331  0.00079371  0.94084354  1
  Sm3+  Sm63  1  -0.00358158  0.62383539  0.05824317  1
  Bi2+  Bi64  1  -0.00071500  0.15031667  0.29362810  1
  Bi2+  Bi65  1  -0.03005570  0.13972028  0.79394490  1
  Bi2+  Bi66  1  -0.00862384  0.34794925  0.33365300  1
  Bi2+  Bi67  1  -0.00361361  0.39992059  0.80190992  1
  Bi2+  Bi68  1  0.02013699  0.54345783  0.29380230  1
  Bi2+  Bi69  1  0.00115413  0.60232519  0.78520832  1
  Bi2+  Bi70  1  0.02337625  0.88940523  0.29088179  1
  Bi2+  Bi71  1  0.01068782  0.79828873  0.76990840  1
  Bi2+  Bi72  1  0.25838155  0.13073945  0.29481485  1
  Bi2+  Bi73  1  0.20878774  0.10575337  0.79145224  1
  Bi2+  Bi74  1  0.19212092  0.33630493  0.29935923  1
  Bi2+  Bi75  1  0.22992935  0.39465627  0.77926171  1
  Bi2+  Bi76  1  0.29657375  0.59818983  0.29509936  1
  Bi2+  Bi77  1  0.27485108  0.65607385  0.79101131  1
  Bi2+  Bi78  1  0.27194148  0.85081738  0.27714713  1
  Bi2+  Bi79  1  0.25151325  0.85316954  0.79788862  1
  Bi2+  Bi80  1  0.50470656  0.12421822  0.28285660  1
  Bi2+  Bi81  1  0.49097910  0.14987789  0.79500849  1
  Bi2+  Bi82  1  0.49424980  0.38611205  0.28175866  1
  Bi2+  Bi83  1  0.49865085  0.35168988  0.79613176  1
  Bi2+  Bi84  1  0.50925899  0.65222027  0.29555314  1
  Bi2+  Bi85  1  0.50145094  0.60636407  0.78969311  1
  Bi2+  Bi86  1  0.49950659  0.85411041  0.28263748  1
  Bi2+  Bi87  1  0.44372997  0.90772188  0.78470485  1
  Bi2+  Bi88  1  0.75774338  0.09847237  0.29447788  1
  Bi2+  Bi89  1  0.70026481  0.18128075  0.78186981  1
  Bi2+  Bi90  1  0.82350557  0.42226404  0.28585314  1
  Bi2+  Bi91  1  0.74260104  0.36615173  0.73814313  1
  Bi2+  Bi92  1  0.69313213  0.56156124  0.31322307  1
  Bi2+  Bi93  1  0.74707954  0.62475754  0.79592840  1
  Bi2+  Bi94  1  0.69932682  0.86191254  0.28261833  1
  Bi2+  Bi95  1  0.76634560  0.87682247  0.80162482  1
  Bi2+  Bi96  1  0.13348645  0.06195973  0.21658870  1
  Bi2+  Bi97  1  0.10834025  -0.03798386  0.74148378  1
  Bi2+  Bi98  1  0.14405190  0.25660811  0.19672493  1
  Bi2+  Bi99  1  0.09739730  0.26675918  0.73507593  1
  Bi2+  Bi100  1  0.13738318  0.45957437  0.20995127  1
  Bi2+  Bi101  1  0.11468982  0.47558386  0.69837913  1
  Bi2+  Bi102  1  0.15019479  0.70909502  0.24800623  1
  Bi2+  Bi103  1  0.11790521  0.67522646  0.70165051  1
  Bi2+  Bi104  1  0.34546105  -0.00645548  0.20491832  1
  Bi2+  Bi105  1  0.36640285  0.00030643  0.69181451  1
  Bi2+  Bi106  1  0.33352577  0.26848099  0.22697502  1
  Bi2+  Bi107  1  0.34838159  0.23653442  0.70773745  1
  Bi2+  Bi108  1  0.31203269  0.53656923  0.18746237  1
  Bi2+  Bi109  1  0.37755358  0.49344173  0.73156295  1
  Bi2+  Bi110  1  0.39501596  0.74085650  0.20707631  1
  Bi2+  Bi111  1  0.34963839  0.75914510  0.70575820  1
  Bi2+  Bi112  1  0.61458131  -0.02998738  0.20212702  1
  Bi2+  Bi113  1  0.60655761  0.00983777  0.75844772  1
  Bi2+  Bi114  1  0.68344954  0.25721602  0.18813311  1
  Bi2+  Bi115  1  0.57653767  0.27032607  0.70128901  1
  Bi2+  Bi116  1  0.59284443  0.52158421  0.21740558  1
  Bi2+  Bi117  1  0.62660086  0.51743214  0.71734273  1
  Bi2+  Bi118  1  0.60363149  0.73390245  0.20291194  1
  Bi2+  Bi119  1  0.60313234  0.78297926  0.70345942  1
  Bi2+  Bi120  1  0.88867459  -0.01049972  0.20011011  1
  Bi2+  Bi121  1  0.88194265  -0.02880732  0.69382035  1
  Bi2+  Bi122  1  0.90586203  0.27209537  0.22959365  1
  Bi2+  Bi123  1  0.86043381  0.21524395  0.70894670  1
  Bi2+  Bi124  1  0.92884269  0.48925217  0.19505044  1
  Bi2+  Bi125  1  0.92205132  0.47754422  0.70203904  1
  Bi2+  Bi126  1  0.87594000  0.74560473  0.20427827  1
  Bi2+  Bi127  1  0.84161586  0.72939007  0.69450201  1
  S2-  S128  1  -0.00526477  0.07696164  0.15135073  1
  S2-  S129  1  0.01692286  0.02977632  0.65723158  1
  S2-  S130  1  -0.00339865  0.33391778  0.15128877  1
  S2-  S131  1  0.00435917  0.25527308  0.64814596  1
  S2-  S132  1  -0.01657255  0.63512068  0.15648902  1
  S2-  S133  1  -0.09664856  0.61941313  0.63381409  1
  S2-  S134  1  -0.00877897  0.85876326  0.16871932  1
  S2-  S135  1  -0.06329860  0.83956707  0.63708217  1
  S2-  S136  1  0.34107054  0.13205980  0.14670310  1
  S2-  S137  1  0.24825654  0.11575637  0.66609737  1
  S2-  S138  1  0.34191687  0.37605218  0.14581425  1
  S2-  S139  1  0.28106145  0.34179267  0.64909228  1
  S2-  S140  1  0.23915635  0.70602095  0.15507225  1
  S2-  S141  1  0.26966218  0.62681474  0.65521488  1
  S2-  S142  1  0.21759027  0.94229307  0.15341438  1
  S2-  S143  1  0.25269594  0.88670882  0.65973878  1
  S2-  S144  1  0.55998748  0.12771509  0.18102019  1
  S2-  S145  1  0.47479869  0.13865461  0.66011805  1
  S2-  S146  1  0.54928063  0.34774105  0.17992634  1
  S2-  S147  1  0.49228024  0.49039478  0.65013215  1
  S2-  S148  1  0.47936599  0.54525312  0.14348091  1
  S2-  S149  1  0.48927458  0.70570481  0.65661752  1
  S2-  S150  1  0.48212510  0.94166260  0.14342972  1
  S2-  S151  1  0.51054998  0.90811209  0.65676305  1
  S2-  S152  1  0.77671681  0.10793159  0.16435237  1
  S2-  S153  1  0.77388151  0.09557310  0.66034177  1
  S2-  S154  1  0.76675745  0.39671958  0.15798735  1
  S2-  S155  1  0.81786105  0.39361466  0.63864442  1
  S2-  S156  1  0.74934673  0.64895611  0.16919718  1
  S2-  S157  1  0.69787734  0.64600465  0.66207582  1
  S2-  S158  1  0.77612280  0.87365243  0.16185848  1
  S2-  S159  1  0.73793514  0.87228685  0.66675273  1
  S2-  S160  1  0.14996564  -0.08446188  0.34854493  1
  S2-  S161  1  0.09066284  0.01168270  0.84404061  1
  S2-  S162  1  0.12215773  0.14116134  0.36361861  1
  S2-  S163  1  0.14614667  0.23227003  0.84186118  1
  S2-  S164  1  0.16387984  0.52845868  0.35012733  1
  S2-  S165  1  0.13690457  0.48389222  0.84586106  1
  S2-  S166  1  0.04156987  0.73914952  0.33028009  1
  S2-  S167  1  0.13089790  0.76173250  0.84899146  1
  S2-  S168  1  0.37936980  0.03251687  0.33661172  1
  S2-  S169  1  0.33116200  0.00400734  0.84092138  1
  S2-  S170  1  0.45974852  0.24930779  0.35161869  1
  S2-  S171  1  0.37378385  0.24620319  0.83838507  1
  S2-  S172  1  0.39409815  0.46970832  0.33819129  1
  S2-  S173  1  0.40988934  0.48239386  0.84428183  1
  S2-  S174  1  0.29460132  0.74719155  0.35804162  1
  S2-  S175  1  0.41268446  0.71731039  0.84688026  1
  S2-  S176  1  0.61907311  0.05957936  0.35347056  1
  S2-  S177  1  0.66907377  -0.00759367  0.85406529  1
  S2-  S178  1  0.63724418  0.22459859  0.28280636  1
  S2-  S179  1  0.63020399  0.28240162  0.85512800  1
  S2-  S180  1  0.61731248  0.41411663  0.35278729  1
  S2-  S181  1  0.63768929  0.53916549  0.84949672  1
  S2-  S182  1  0.70206272  0.74824123  0.35714713  1
  S2-  S183  1  0.65855795  0.76144709  0.83493366  1
  S2-  S184  1  0.90054684  0.02111872  0.33551477  1
  S2-  S185  1  0.87067753  0.02064385  0.82226500  1
  S2-  S186  1  0.79384097  0.22187224  0.35039796  1
  S2-  S187  1  0.89542699  0.27165172  0.84250387  1
  S2-  S188  1  0.86531020  0.59923460  0.34142813  1
  S2-  S189  1  0.86588332  0.54048970  0.84722102  1
  S2-  S190  1  0.86723384  0.81859864  0.29935561  1
  S2-  S191  1  0.88739082  0.80587276  0.85143952  1
  S2-  S192  1  -0.00004833  0.13025286  0.46186156  1
  S2-  S193  1  -0.00433509  0.12403104  0.94805731  1
  S2-  S194  1  0.00608387  0.37676112  0.46135316  1
  S2-  S195  1  -0.00404082  0.37578929  0.95137380  1
  S2-  S196  1  0.00542025  0.63193573  0.44472664  1
  S2-  S197  1  -0.00365505  0.62255289  0.95231289  1
  S2-  S198  1  -0.00071966  0.87779692  0.44254289  1
  S2-  S199  1  -0.00211809  0.87917479  0.95649519  1
  S2-  S200  1  0.26039449  0.13529834  0.45658003  1
  S2-  S201  1  0.24568320  0.12435321  0.95532101  1
  S2-  S202  1  0.25286020  0.37409846  0.44894988  1
  S2-  S203  1  0.24703686  0.37505228  0.95337358  1
  S2-  S204  1  0.24995862  0.63003537  0.45487427  1
  S2-  S205  1  0.24619380  0.62259387  0.95438057  1
  S2-  S206  1  0.26053141  0.88371687  0.45420589  1
  S2-  S207  1  0.24562303  0.87744338  0.95481494  1
  S2-  S208  1  0.50966081  0.13358702  0.45632426  1
  S2-  S209  1  0.49700781  0.12536819  0.95436801  1
  S2-  S210  1  0.50065720  0.38004235  0.46287364  1
  S2-  S211  1  0.49454714  0.37603411  0.95838921  1
  S2-  S212  1  0.50513799  0.62775800  0.45566278  1
  S2-  S213  1  0.49461074  0.62229642  0.95367055  1
  S2-  S214  1  0.50802877  0.87895597  0.45029081  1
  S2-  S215  1  0.49608209  0.87373723  0.94619223  1
  S2-  S216  1  0.74829837  0.13003749  0.45670870  1
  S2-  S217  1  0.74551427  0.12822517  0.95450290  1
  S2-  S218  1  0.75510004  0.37695454  0.44573978  1
  S2-  S219  1  0.74822534  0.37515966  0.95329916  1
  S2-  S220  1  0.75368510  0.62225938  0.45550270  1
  S2-  S221  1  0.74734839  0.62296472  0.95924838  1
  S2-  S222  1  0.75219568  0.88309786  0.45290843  1
  S2-  S223  1  0.74458536  0.87173335  0.95520118  1
  S2-  S224  1  0.12323989  0.00163980  0.04533330  1
  S2-  S225  1  0.13227235  0.00590105  0.54459534  1
  S2-  S226  1  0.12390870  0.25008287  0.04655742  1
  S2-  S227  1  0.12850453  0.25503487  0.54610853  1
  S2-  S228  1  0.12038835  0.49847729  0.05254997  1
  S2-  S229  1  0.12228771  0.50448627  0.55200159  1
  S2-  S230  1  0.11694456  0.75026255  0.05178219  1
  S2-  S231  1  0.12787875  0.75790415  0.54582241  1
  S2-  S232  1  0.36641899  -0.00195696  0.04328016  1
  S2-  S233  1  0.38123479  0.00401368  0.54675919  1
  S2-  S234  1  0.37204687  0.24822942  0.04676076  1
  S2-  S235  1  0.38153648  0.25247885  0.54677983  1
  S2-  S236  1  0.36920456  0.50206451  0.04220348  1
  S2-  S237  1  0.37316793  0.50474047  0.54629212  1
  S2-  S238  1  0.37171786  0.74838305  0.04788176  1
  S2-  S239  1  0.37800067  0.75161472  0.54807863  1
  S2-  S240  1  0.61901216  0.00207411  0.05142893  1
  S2-  S241  1  0.63112152  0.00094059  0.55263141  1
  S2-  S242  1  0.61353156  0.25151953  0.05729674  1
  S2-  S243  1  0.63105191  0.25421072  0.56074338  1
  S2-  S244  1  0.61980494  0.49946386  0.05158808  1
  S2-  S245  1  0.63273021  0.50176617  0.54874899  1
  S2-  S246  1  0.61879548  0.74816395  0.04675730  1
  S2-  S247  1  0.63186279  0.75093795  0.55072100  1
  S2-  S248  1  0.87000859  0.00109371  0.04067264  1
  S2-  S249  1  0.87807339  0.00644826  0.54414636  1
  S2-  S250  1  0.87176019  0.25262971  0.04797173  1
  S2-  S251  1  0.87413272  0.25306673  0.54390667  1
  S2-  S252  1  0.87404791  0.49787525  0.04867123  1
  S2-  S253  1  0.87939248  0.50068374  0.53307536  1
  S2-  S254  1  0.87440943  0.74912460  0.05018311  1
  S2-  S255  1  0.87878893  0.75473587  0.53030820  1
