# generated using pymatgen
data_La12Ce14Pr13Nd13Sm12(BiS2)64
_symmetry_space_group_name_H-M   'P 1'
_cell_length_a   16.09964950
_cell_length_b   16.12070303
_cell_length_c   27.42309477
_cell_angle_alpha   89.93324302
_cell_angle_beta   89.58481182
_cell_angle_gamma   89.94205206
_symmetry_Int_Tables_number   1
_chemical_formula_structural   La12Ce14Pr13Nd13Sm12(BiS2)64
_chemical_formula_sum   'La12 Ce14 Pr13 Nd13 Sm12 Bi64 S128'
_cell_volume   7117.13080468
_cell_formula_units_Z   1
loop_
 _symmetry_equiv_pos_site_id
 _symmetry_equiv_pos_as_xyz
  1  'x, y, z'
loop_
 _atom_type_symbol
 _atom_type_oxidation_number
  La3+  3.0
  Ce3+  3.0
  Pr3+  3.0
  Nd3+  3.0
  Sm3+  3.0
  Bi2+  2.0
  S2-  -2.0
loop_
 _atom_site_type_symbol
 _atom_site_label
 _atom_site_symmetry_multiplicity
 _atom_site_fract_x
 _atom_site_fract_y
 _atom_site_fract_z
 _atom_site_occupancy
  La3+  La0  1  0.12278098  0.01039396  0.93139284  1
  La3+  La1  1  0.13007917  0.50863305  0.42990708  1
  La3+  La2  1  0.51478899  0.63455250  0.58891719  1
  La3+  La3  1  0.73310386  0.13102001  0.07666485  1
  La3+  La4  1  0.62038555  0.00870156  0.93528099  1
  La3+  La5  1  0.88218484  0.24736933  0.38422761  1
  La3+  La6  1  0.62581110  0.75311669  0.43332164  1
  La3+  La7  1  0.10550491  0.75551201  0.90054215  1
  La3+  La8  1  0.25774054  0.37923235  0.56548174  1
  La3+  La9  1  0.73511423  0.62922284  0.07389013  1
  La3+  La10  1  0.61781631  0.51873716  0.92324178  1
  La3+  La11  1  0.00586140  0.62426460  0.57035730  1
  Ce3+  Ce12  1  0.24253596  0.63030559  0.07017067  1
  Ce3+  Ce13  1  0.49414852  0.38342223  0.05026046  1
  Ce3+  Ce14  1  -0.00743881  0.87993694  0.06169164  1
  Ce3+  Ce15  1  0.24160144  0.13359286  0.06448709  1
  Ce3+  Ce16  1  0.12905047  0.26235571  0.42888643  1
  Ce3+  Ce17  1  0.74140464  0.38440344  0.05322011  1
  Ce3+  Ce18  1  0.38414157  0.25517639  0.44528363  1
  Ce3+  Ce19  1  0.73202720  0.88146229  0.07443693  1
  Ce3+  Ce20  1  0.50649175  0.87814238  0.56556889  1
  Ce3+  Ce21  1  0.49100607  0.13440282  0.05403254  1
  Ce3+  Ce22  1  0.00367793  0.37925060  0.55407338  1
  Ce3+  Ce23  1  0.48811479  0.62891467  0.06838035  1
  Ce3+  Ce24  1  0.62902171  0.50308716  0.44543588  1
  Ce3+  Ce25  1  0.87489847  0.74939197  0.42508554  1
  Pr3+  Pr26  1  -0.01434560  0.63333632  0.07479632  1
  Pr3+  Pr27  1  0.76273580  0.63254358  0.56589032  1
  Pr3+  Pr28  1  0.51788473  0.36962781  0.58006417  1
  Pr3+  Pr29  1  0.62208079  0.25784277  0.93220778  1
  Pr3+  Pr30  1  0.24991014  0.87806048  0.55897454  1
  Pr3+  Pr31  1  0.86972309  0.25464542  0.94313400  1
  Pr3+  Pr32  1  0.50664408  0.12480775  0.56854627  1
  Pr3+  Pr33  1  0.75891044  0.12787206  0.55129449  1
  Pr3+  Pr34  1  0.88308936  0.00331243  0.42873691  1
  Pr3+  Pr35  1  -0.01064178  0.88372051  0.58932631  1
  Pr3+  Pr36  1  0.62606549  0.25558155  0.43270856  1
  Pr3+  Pr37  1  0.62665209  0.00767014  0.43639864  1
  Pr3+  Pr38  1  0.23932762  0.37998228  0.06248207  1
  Nd3+  Nd39  1  0.87061774  0.51897524  0.93784761  1
  Nd3+  Nd40  1  0.36597740  0.25893401  0.94017414  1
  Nd3+  Nd41  1  0.38366660  0.50624314  0.45603117  1
  Nd3+  Nd42  1  0.87617810  0.50488672  0.43117903  1
  Nd3+  Nd43  1  0.36305416  0.75776902  0.93899153  1
  Nd3+  Nd44  1  0.75767334  0.87821126  0.55164369  1
  Nd3+  Nd45  1  0.36656695  0.00471064  0.94348775  1
  Nd3+  Nd46  1  0.00611930  0.13159510  0.55497444  1
  Nd3+  Nd47  1  0.36482295  0.51093224  0.94207179  1
  Nd3+  Nd48  1  -0.00021959  0.12744250  0.07374033  1
  Nd3+  Nd49  1  0.48549362  0.88201760  0.06762707  1
  Nd3+  Nd50  1  0.11759786  0.51085428  0.94727316  1
  Nd3+  Nd51  1  0.24158221  0.88129710  0.06557970  1
  Sm3+  Sm52  1  0.25078705  0.63107904  0.56436702  1
  Sm3+  Sm53  1  0.12954152  0.00321048  0.43707549  1
  Sm3+  Sm54  1  0.11715131  0.25647859  0.94079266  1
  Sm3+  Sm55  1  0.86586767  0.75914632  0.94865226  1
  Sm3+  Sm56  1  0.75581955  0.37849114  0.55381888  1
  Sm3+  Sm57  1  0.37779282  0.00310226  0.45036967  1
  Sm3+  Sm58  1  0.86942030  0.00397554  0.95244461  1
  Sm3+  Sm59  1  0.61584920  0.75817688  0.94657681  1
  Sm3+  Sm60  1  0.12648342  0.75110439  0.44224268  1
  Sm3+  Sm61  1  -0.01118816  0.38203945  0.05806032  1
  Sm3+  Sm62  1  0.38473882  0.75262271  0.44695304  1
  Sm3+  Sm63  1  0.24936726  0.12717209  0.55171490  1
  Bi2+  Bi64  1  0.12103633  0.09273826  0.27900862  1
  Bi2+  Bi65  1  -0.01662309  0.16895796  0.79279981  1
  Bi2+  Bi66  1  0.03274493  0.35796317  0.28705103  1
  Bi2+  Bi67  1  0.00594871  0.36492684  0.77881932  1
  Bi2+  Bi68  1  0.02279015  0.66699390  0.28631613  1
  Bi2+  Bi69  1  -0.04839890  0.61526006  0.79918782  1
  Bi2+  Bi70  1  -0.04331626  0.85174482  0.30900699  1
  Bi2+  Bi71  1  -0.03165423  0.89170896  0.78542071  1
  Bi2+  Bi72  1  0.30638283  0.14769898  0.29542585  1
  Bi2+  Bi73  1  0.24258818  0.15526260  0.79649344  1
  Bi2+  Bi74  1  0.28289286  0.34048834  0.28300459  1
  Bi2+  Bi75  1  0.19300621  0.34506466  0.81943163  1
  Bi2+  Bi76  1  0.29133406  0.63975657  0.30392724  1
  Bi2+  Bi77  1  0.22404169  0.53815830  0.79766735  1
  Bi2+  Bi78  1  0.25261423  0.84127879  0.29388026  1
  Bi2+  Bi79  1  0.24167181  0.90283725  0.79534975  1
  Bi2+  Bi80  1  0.50930530  0.12256640  0.30271843  1
  Bi2+  Bi81  1  0.51583038  0.06851150  0.78098085  1
  Bi2+  Bi82  1  0.47271476  0.39364827  0.29393398  1
  Bi2+  Bi83  1  0.37282449  0.33186871  0.76200792  1
  Bi2+  Bi84  1  0.49218709  0.62766528  0.29600578  1
  Bi2+  Bi85  1  0.50051043  0.59771948  0.79919434  1
  Bi2+  Bi86  1  0.46019950  0.87974651  0.29014569  1
  Bi2+  Bi87  1  0.45586189  0.85413653  0.81110944  1
  Bi2+  Bi88  1  0.74646212  0.11875164  0.28387372  1
  Bi2+  Bi89  1  0.75375265  0.10192372  0.81833909  1
  Bi2+  Bi90  1  0.75683321  0.38977868  0.28859932  1
  Bi2+  Bi91  1  0.79264092  0.34812077  0.72421425  1
  Bi2+  Bi92  1  0.76185638  0.63519056  0.28761127  1
  Bi2+  Bi93  1  0.73916595  0.58718122  0.80250273  1
  Bi2+  Bi94  1  0.77379712  0.86794357  0.27083426  1
  Bi2+  Bi95  1  0.75176280  0.93908816  0.73412484  1
  Bi2+  Bi96  1  0.21209876  -0.05544108  0.19628712  1
  Bi2+  Bi97  1  0.12841907  -0.00175785  0.69471483  1
  Bi2+  Bi98  1  0.16458438  0.26326769  0.20215340  1
  Bi2+  Bi99  1  0.14423893  0.25269427  0.70766176  1
  Bi2+  Bi100  1  0.19116426  0.56315117  0.21677349  1
  Bi2+  Bi101  1  0.09102590  0.50849178  0.71194860  1
  Bi2+  Bi102  1  0.15176662  0.75686787  0.20773982  1
  Bi2+  Bi103  1  0.16021874  0.75027770  0.71509845  1
  Bi2+  Bi104  1  0.39240368  0.01591645  0.20907507  1
  Bi2+  Bi105  1  0.38205307  -0.03713817  0.71630269  1
  Bi2+  Bi106  1  0.35185018  0.20364956  0.18333051  1
  Bi2+  Bi107  1  0.38951138  0.15947488  0.70595456  1
  Bi2+  Bi108  1  0.39269922  0.47637170  0.19884349  1
  Bi2+  Bi109  1  0.32264915  0.51747501  0.69979426  1
  Bi2+  Bi110  1  0.39809684  0.74418138  0.21809448  1
  Bi2+  Bi111  1  0.33545484  0.71799372  0.76532116  1
  Bi2+  Bi112  1  0.60552066  0.01807940  0.20436066  1
  Bi2+  Bi113  1  0.57334518  -0.03057179  0.68053142  1
  Bi2+  Bi114  1  0.53551910  0.25783038  0.21910159  1
  Bi2+  Bi115  1  0.65529392  0.20680130  0.71807344  1
  Bi2+  Bi116  1  0.62213157  0.53364626  0.23278564  1
  Bi2+  Bi117  1  0.59170038  0.48742038  0.70212271  1
  Bi2+  Bi118  1  0.66146385  0.75442783  0.20805478  1
  Bi2+  Bi119  1  0.60034763  0.79439245  0.73678883  1
  Bi2+  Bi120  1  0.96147662  0.00400275  0.23762771  1
  Bi2+  Bi121  1  0.87872559  0.09483604  0.71245142  1
  Bi2+  Bi122  1  0.84645947  0.25950138  0.17881307  1
  Bi2+  Bi123  1  0.95654340  0.27301386  0.67520317  1
  Bi2+  Bi124  1  0.90129260  0.49454311  0.19369299  1
  Bi2+  Bi125  1  0.84092990  0.52091157  0.69063608  1
  Bi2+  Bi126  1  0.93976250  0.76805406  0.19884320  1
  Bi2+  Bi127  1  0.78844138  0.75396143  0.71183899  1
  S2-  S128  1  -0.05360758  0.13339433  0.16886072  1
  S2-  S129  1  -0.00073289  0.03891464  0.64100308  1
  S2-  S130  1  -0.01227793  0.35411087  0.15477787  1
  S2-  S131  1  -0.01458512  0.47417486  0.63667087  1
  S2-  S132  1  0.04449700  0.56205202  0.16291325  1
  S2-  S133  1  -0.11559434  0.66315052  0.64306153  1
  S2-  S134  1  0.01226706  0.91440651  0.15698727  1
  S2-  S135  1  0.03019892  0.84846622  0.68770817  1
  S2-  S136  1  0.14357936  0.12863475  0.14282617  1
  S2-  S137  1  0.21036580  0.11929632  0.64697593  1
  S2-  S138  1  0.23873223  0.41908521  0.15965921  1
  S2-  S139  1  0.20470364  0.39533032  0.66077652  1
  S2-  S140  1  0.36635659  0.62968887  0.14333746  1
  S2-  S141  1  0.14409044  0.63696387  0.64225680  1
  S2-  S142  1  0.35895380  0.87786071  0.14165875  1
  S2-  S143  1  0.24776124  0.87639745  0.65884004  1
  S2-  S144  1  0.57369198  0.14691034  0.13814701  1
  S2-  S145  1  0.52619497  0.21999504  0.65065962  1
  S2-  S146  1  0.50721549  0.38802987  0.14731371  1
  S2-  S147  1  0.44215853  0.40398379  0.67080276  1
  S2-  S148  1  0.60409083  0.62596200  0.14516063  1
  S2-  S149  1  0.46084821  0.60310527  0.68792752  1
  S2-  S150  1  0.59530181  0.88527181  0.14602749  1
  S2-  S151  1  0.51657676  0.79464990  0.64861784  1
  S2-  S152  1  0.75067674  0.09548887  0.17807376  1
  S2-  S153  1  0.73598050  0.12316070  0.65205397  1
  S2-  S154  1  0.76128403  0.41244561  0.14917026  1
  S2-  S155  1  0.67231604  0.37487243  0.64147857  1
  S2-  S156  1  0.85112081  0.62869628  0.14994930  1
  S2-  S157  1  0.65979985  0.60759546  0.65022406  1
  S2-  S158  1  0.79530631  0.85429276  0.16642262  1
  S2-  S159  1  0.82688425  0.88084844  0.64246048  1
  S2-  S160  1  0.15023089  -0.03539665  0.34229479  1
  S2-  S161  1  0.08769098  -0.08434184  0.84844223  1
  S2-  S162  1  0.04882280  0.22091043  0.34485419  1
  S2-  S163  1  0.10132656  0.14883327  0.86456887  1
  S2-  S164  1  0.14980339  0.39807829  0.35071207  1
  S2-  S165  1  0.09027381  0.58815502  0.86105157  1
  S2-  S166  1  0.13712588  0.64598510  0.36240915  1
  S2-  S167  1  0.05088960  0.74914410  0.79736593  1
  S2-  S168  1  0.40566680  0.00391771  0.35428762  1
  S2-  S169  1  0.28193911  0.01938008  0.85839294  1
  S2-  S170  1  0.48878553  0.26446255  0.36681683  1
  S2-  S171  1  0.38228991  0.23830106  0.84244988  1
  S2-  S172  1  0.38924905  0.51609876  0.35690403  1
  S2-  S173  1  0.38606797  0.51335561  0.84326942  1
  S2-  S174  1  0.48956255  0.75887253  0.36583020  1
  S2-  S175  1  0.26503657  0.75334970  0.85624940  1
  S2-  S176  1  0.64432392  0.01728055  0.33596827  1
  S2-  S177  1  0.59016382  -0.04929528  0.84283121  1
  S2-  S178  1  0.71483287  0.26113039  0.34320856  1
  S2-  S179  1  0.61715130  0.19185080  0.83947011  1
  S2-  S180  1  0.67788130  0.50857817  0.35072324  1
  S2-  S181  1  0.61369841  0.47022845  0.82382554  1
  S2-  S182  1  0.73264772  0.76312950  0.35172634  1
  S2-  S183  1  0.62015254  0.67333578  0.86172385  1
  S2-  S184  1  0.87221087  0.08356339  0.33943470  1
  S2-  S185  1  0.86026454  -0.02858599  0.85553148  1
  S2-  S186  1  0.88272825  0.26595261  0.27068732  1
  S2-  S187  1  0.84032304  0.23452723  0.84528123  1
  S2-  S188  1  0.89675287  0.41333525  0.34529579  1
  S2-  S189  1  0.85332783  0.48463364  0.84113150  1
  S2-  S190  1  0.89345681  0.62613312  0.35516391  1
  S2-  S191  1  0.85350090  0.71042143  0.85369006  1
  S2-  S192  1  0.00805942  0.12677647  0.45052544  1
  S2-  S193  1  -0.01083606  0.12937624  0.96533890  1
  S2-  S194  1  0.00337145  0.37864574  0.45105986  1
  S2-  S195  1  -0.00635126  0.38351391  0.95076725  1
  S2-  S196  1  0.00406985  0.62997102  0.45991831  1
  S2-  S197  1  -0.00749704  0.64082726  0.96459529  1
  S2-  S198  1  0.00827484  0.87613517  0.44084317  1
  S2-  S199  1  -0.00764994  0.87721580  0.95675319  1
  S2-  S200  1  0.25367623  0.12855129  0.44743389  1
  S2-  S201  1  0.24472426  0.13802904  0.95997100  1
  S2-  S202  1  0.26073976  0.37985464  0.45735718  1
  S2-  S203  1  0.23985276  0.38254304  0.95507131  1
  S2-  S204  1  0.25981669  0.63351289  0.46191961  1
  S2-  S205  1  0.24007725  0.63304379  0.96162773  1
  S2-  S206  1  0.25648196  0.87463871  0.45222563  1
  S2-  S207  1  0.24021258  0.87982880  0.96015899  1
  S2-  S208  1  0.50080229  0.12502697  0.46195651  1
  S2-  S209  1  0.49071746  0.13262966  0.94832326  1
  S2-  S210  1  0.50440419  0.38150715  0.46893910  1
  S2-  S211  1  0.49329476  0.38355969  0.94322798  1
  S2-  S212  1  0.50530008  0.62875938  0.46620482  1
  S2-  S213  1  0.48796883  0.63506217  0.95848221  1
  S2-  S214  1  0.50221487  0.88371285  0.46100454  1
  S2-  S215  1  0.49036428  0.88042272  0.95850303  1
  S2-  S216  1  0.75639561  0.13047562  0.44690809  1
  S2-  S217  1  0.74487714  0.13030820  0.96099707  1
  S2-  S218  1  0.75401202  0.37708313  0.45193998  1
  S2-  S219  1  0.74516197  0.38601702  0.94643680  1
  S2-  S220  1  0.75151299  0.62862054  0.45848860  1
  S2-  S221  1  0.74317305  0.63560417  0.96308762  1
  S2-  S222  1  0.75432895  0.88443408  0.44748027  1
  S2-  S223  1  0.74046920  0.88005614  0.96013082  1
  S2-  S224  1  0.11948628  0.00390747  0.04336699  1
  S2-  S225  1  0.12624051  0.00042838  0.54074356  1
  S2-  S226  1  0.11223227  0.25949544  0.04413336  1
  S2-  S227  1  0.13111784  0.25451094  0.54170482  1
  S2-  S228  1  0.11454484  0.50479002  0.05076158  1
  S2-  S229  1  0.13581002  0.50345489  0.53951936  1
  S2-  S230  1  0.11864724  0.75481031  0.06543902  1
  S2-  S231  1  0.12241831  0.76050762  0.54519490  1
  S2-  S232  1  0.36551759  0.01182746  0.04749272  1
  S2-  S233  1  0.37573291  0.00435300  0.55493098  1
  S2-  S234  1  0.36753648  0.25952642  0.04596590  1
  S2-  S235  1  0.37748573  0.24818148  0.55226044  1
  S2-  S236  1  0.36514265  0.50243542  0.04589565  1
  S2-  S237  1  0.38055892  0.51141704  0.56059458  1
  S2-  S238  1  0.36482463  0.75494924  0.04281579  1
  S2-  S239  1  0.37758161  0.75210776  0.55157202  1
  S2-  S240  1  0.61269152  0.00686771  0.04266782  1
  S2-  S241  1  0.63200731  0.00277274  0.54374462  1
  S2-  S242  1  0.61877951  0.25998561  0.03850463  1
  S2-  S243  1  0.63344451  0.24916209  0.53958562  1
  S2-  S244  1  0.61555073  0.50642490  0.03660379  1
  S2-  S245  1  0.63025229  0.50357712  0.54763780  1
  S2-  S246  1  0.61093215  0.75725980  0.04720387  1
  S2-  S247  1  0.63329365  0.75629668  0.54496115  1
  S2-  S248  1  0.86349750  0.00641822  0.05679659  1
  S2-  S249  1  0.88362148  0.00257781  0.53602389  1
  S2-  S250  1  0.86621078  0.25474874  0.05018952  1
  S2-  S251  1  0.87928439  0.25504155  0.55059864  1
  S2-  S252  1  0.86872723  0.50516383  0.04393075  1
  S2-  S253  1  0.87492363  0.50087995  0.53790154  1
  S2-  S254  1  0.86162902  0.76122733  0.05178359  1
  S2-  S255  1  0.88531777  0.76150996  0.53590678  1
