# generated using pymatgen
data_La12Ce14Pr13Nd13Sm12(BiS2)64
_symmetry_space_group_name_H-M   'P 1'
_cell_length_a   16.10331464
_cell_length_b   16.07491551
_cell_length_c   27.46328907
_cell_angle_alpha   90.02147647
_cell_angle_beta   89.99406036
_cell_angle_gamma   90.02618002
_symmetry_Int_Tables_number   1
_chemical_formula_structural   La12Ce14Pr13Nd13Sm12(BiS2)64
_chemical_formula_sum   'La12 Ce14 Pr13 Nd13 Sm12 Bi64 S128'
_cell_volume   7109.12985994
_cell_formula_units_Z   1
loop_
 _symmetry_equiv_pos_site_id
 _symmetry_equiv_pos_as_xyz
  1  'x, y, z'
loop_
 _atom_type_symbol
 _atom_type_oxidation_number
  La3+  3.0
  Ce3+  3.0
  Pr3+  3.0
  Nd3+  3.0
  Sm3+  3.0
  Bi2+  2.0
  S2-  -2.0
loop_
 _atom_site_type_symbol
 _atom_site_label
 _atom_site_symmetry_multiplicity
 _atom_site_fract_x
 _atom_site_fract_y
 _atom_site_fract_z
 _atom_site_occupancy
  La3+  La0  1  0.38670744  0.49652359  0.42832218  1
  La3+  La1  1  -0.00539657  0.88885820  0.10194739  1
  La3+  La2  1  0.11618468  0.76670399  0.93200623  1
  La3+  La3  1  0.89602642  0.26525925  0.42345086  1
  La3+  La4  1  0.89405160  0.00438432  0.42631272  1
  La3+  La5  1  0.87970549  0.26250712  0.91959919  1
  La3+  La6  1  0.61103898  0.02245058  0.91387626  1
  La3+  La7  1  0.26783642  0.37721702  0.57017076  1
  La3+  La8  1  0.86378689  0.76950185  0.93088727  1
  La3+  La9  1  0.49736204  0.14337328  0.07271595  1
  La3+  La10  1  0.50322993  0.88184021  0.58825555  1
  La3+  La11  1  0.86794892  0.52313309  0.90064674  1
  Ce3+  Ce12  1  -0.01065796  0.15194060  0.07148827  1
  Ce3+  Ce13  1  0.24350553  0.39494375  0.05915268  1
  Ce3+  Ce14  1  0.37385836  0.51672532  0.94378914  1
  Ce3+  Ce15  1  0.37085231  0.02108612  0.94144532  1
  Ce3+  Ce16  1  0.76943690  0.87592078  0.55710081  1
  Ce3+  Ce17  1  0.74760824  0.89554875  0.06379598  1
  Ce3+  Ce18  1  0.62320294  0.51566544  0.93532378  1
  Ce3+  Ce19  1  0.49677800  0.39647111  0.07119502  1
  Ce3+  Ce20  1  0.62388719  0.76784061  0.94421777  1
  Ce3+  Ce21  1  0.64176461  0.00288295  0.44776024  1
  Ce3+  Ce22  1  0.02275255  0.38193354  0.57702225  1
  Ce3+  Ce23  1  0.49477182  0.89349682  0.06807223  1
  Ce3+  Ce24  1  0.61868197  0.26891673  0.93756138  1
  Ce3+  Ce25  1  0.49515560  0.64364543  0.06848591  1
  Pr3+  Pr26  1  0.51404668  0.63006190  0.56213922  1
  Pr3+  Pr27  1  0.02139394  0.63864688  0.60114800  1
  Pr3+  Pr28  1  0.11559743  0.01393850  0.93819368  1
  Pr3+  Pr29  1  0.23966708  0.64693527  0.06176320  1
  Pr3+  Pr30  1  0.77405584  0.12749999  0.56135618  1
  Pr3+  Pr31  1  0.14156977  0.00457987  0.43840460  1
  Pr3+  Pr32  1  0.51591910  0.37909455  0.56798863  1
  Pr3+  Pr33  1  0.37308895  0.76560378  0.94070847  1
  Pr3+  Pr34  1  0.26462507  0.87896729  0.55476645  1
  Pr3+  Pr35  1  0.74816018  0.64189865  0.06004324  1
  Pr3+  Pr36  1  0.24032535  0.14134807  0.06274624  1
  Pr3+  Pr37  1  0.13924155  0.25724662  0.44020175  1
  Pr3+  Pr38  1  0.89293807  0.50628532  0.44530918  1
  Nd3+  Nd39  1  0.39624568  0.00693465  0.43227191  1
  Nd3+  Nd40  1  0.13229310  0.51928196  0.90581688  1
  Nd3+  Nd41  1  0.12043291  0.26804567  0.94012090  1
  Nd3+  Nd42  1  0.14731842  0.75323399  0.42479145  1
  Nd3+  Nd43  1  0.27307882  0.63358722  0.56428002  1
  Nd3+  Nd44  1  0.64221080  0.50341056  0.44330443  1
  Nd3+  Nd45  1  0.74795201  0.39110435  0.04729743  1
  Nd3+  Nd46  1  0.37025035  0.26986581  0.94433941  1
  Nd3+  Nd47  1  -0.00667170  0.64464038  0.05449326  1
  Nd3+  Nd48  1  0.39416345  0.74800871  0.42703988  1
  Nd3+  Nd49  1  0.76800750  0.62916198  0.56603864  1
  Nd3+  Nd50  1  0.77920871  0.37862483  0.56571856  1
  Nd3+  Nd51  1  0.26927585  0.12713737  0.55260825  1
  Sm3+  Sm52  1  0.39916522  0.25040808  0.43451204  1
  Sm3+  Sm53  1  0.86993195  0.01790283  0.94961496  1
  Sm3+  Sm54  1  0.01793412  0.87411563  0.55235971  1
  Sm3+  Sm55  1  0.24125235  0.89453806  0.05353421  1
  Sm3+  Sm56  1  -0.00701459  0.39241845  0.04677323  1
  Sm3+  Sm57  1  0.64490062  0.25287443  0.44726874  1
  Sm3+  Sm58  1  0.52754786  0.12902237  0.57088621  1
  Sm3+  Sm59  1  0.63996126  0.75539094  0.44817613  1
  Sm3+  Sm60  1  0.89360666  0.75069531  0.44090219  1
  Sm3+  Sm61  1  0.14225455  0.50711660  0.45174755  1
  Sm3+  Sm62  1  0.74569975  0.14224076  0.05198781  1
  Sm3+  Sm63  1  0.01055159  0.12874291  0.56105464  1
  Bi2+  Bi64  1  -0.04065967  0.12071844  0.30097949  1
  Bi2+  Bi65  1  0.03798182  0.08012649  0.81456237  1
  Bi2+  Bi66  1  0.00362041  0.39079205  0.22967593  1
  Bi2+  Bi67  1  -0.01323225  0.32985127  0.77737409  1
  Bi2+  Bi68  1  0.00127309  0.58770966  0.23471685  1
  Bi2+  Bi69  1  0.01730402  0.59789746  0.78327074  1
  Bi2+  Bi70  1  -0.00524380  0.86378789  0.30390125  1
  Bi2+  Bi71  1  -0.00792276  0.86569065  0.78729728  1
  Bi2+  Bi72  1  0.28596074  0.14010791  0.29837894  1
  Bi2+  Bi73  1  0.23454164  0.09567676  0.80732214  1
  Bi2+  Bi74  1  0.25698745  0.36915674  0.29960984  1
  Bi2+  Bi75  1  0.33012246  0.36795594  0.80125929  1
  Bi2+  Bi76  1  0.24510642  0.63388826  0.30829493  1
  Bi2+  Bi77  1  0.28251339  0.65701989  0.79312921  1
  Bi2+  Bi78  1  0.29254773  0.93537559  0.30165670  1
  Bi2+  Bi79  1  0.22616070  0.90369706  0.77804878  1
  Bi2+  Bi80  1  0.51722554  0.06665975  0.23683431  1
  Bi2+  Bi81  1  0.42406254  0.16128287  0.75717572  1
  Bi2+  Bi82  1  0.48302032  0.31749435  0.24530025  1
  Bi2+  Bi83  1  0.50174855  0.44129250  0.83525355  1
  Bi2+  Bi84  1  0.49997573  0.71408783  0.29468912  1
  Bi2+  Bi85  1  0.51566532  0.62669323  0.78888887  1
  Bi2+  Bi86  1  0.48951920  0.91256592  0.30451300  1
  Bi2+  Bi87  1  0.49090345  0.89380038  0.79417926  1
  Bi2+  Bi88  1  0.67808312  0.11851435  0.29479094  1
  Bi2+  Bi89  1  0.75020117  0.12425997  0.79641043  1
  Bi2+  Bi90  1  0.73115210  0.35167841  0.31838854  1
  Bi2+  Bi91  1  0.64215461  0.31608871  0.80062295  1
  Bi2+  Bi92  1  0.77070347  0.53945265  0.31691729  1
  Bi2+  Bi93  1  0.75664444  0.66127036  0.79391505  1
  Bi2+  Bi94  1  0.74219199  0.82494510  0.29978944  1
  Bi2+  Bi95  1  0.71413400  0.86826816  0.73550627  1
  Bi2+  Bi96  1  0.15065095  0.02597497  0.24161918  1
  Bi2+  Bi97  1  0.08335529  -0.04868866  0.69458296  1
  Bi2+  Bi98  1  0.11805335  0.23734889  0.26446546  1
  Bi2+  Bi99  1  0.11992710  0.14463658  0.71434850  1
  Bi2+  Bi100  1  0.18066268  0.48263185  0.21093846  1
  Bi2+  Bi101  1  0.16704187  0.49227022  0.71463543  1
  Bi2+  Bi102  1  0.13924682  0.76926559  0.21037906  1
  Bi2+  Bi103  1  0.15193613  0.74787338  0.72164210  1
  Bi2+  Bi104  1  0.37415340  -0.10090087  0.19871713  1
  Bi2+  Bi105  1  0.35337956  -0.00745671  0.70756119  1
  Bi2+  Bi106  1  0.33768430  0.21939314  0.19416014  1
  Bi2+  Bi107  1  0.27208270  0.27030663  0.70464931  1
  Bi2+  Bi108  1  0.39714626  0.49203455  0.21972449  1
  Bi2+  Bi109  1  0.40464574  0.49336561  0.71920750  1
  Bi2+  Bi110  1  0.37559416  0.69395848  0.20658580  1
  Bi2+  Bi111  1  0.41907388  0.74186366  0.70836264  1
  Bi2+  Bi112  1  0.64132383  -0.09536146  0.21450676  1
  Bi2+  Bi113  1  0.59909342  0.08318844  0.72405906  1
  Bi2+  Bi114  1  0.66491593  0.27859280  0.20980039  1
  Bi2+  Bi115  1  0.53802019  0.29036129  0.70515037  1
  Bi2+  Bi116  1  0.58378147  0.52203635  0.24219582  1
  Bi2+  Bi117  1  0.60319121  0.48381548  0.71836937  1
  Bi2+  Bi118  1  0.64234410  0.70393957  0.21363719  1
  Bi2+  Bi119  1  0.64387956  0.67071347  0.69713227  1
  Bi2+  Bi120  1  0.80035068  0.02464001  0.20466699  1
  Bi2+  Bi121  1  0.89159705  0.02047573  0.74505884  1
  Bi2+  Bi122  1  0.85579553  0.23617212  0.18650990  1
  Bi2+  Bi123  1  0.80628730  0.23782418  0.68913684  1
  Bi2+  Bi124  1  0.83370415  0.49150805  0.21402438  1
  Bi2+  Bi125  1  0.85459486  0.48471087  0.70080028  1
  Bi2+  Bi126  1  0.87840577  0.74058517  0.21505191  1
  Bi2+  Bi127  1  0.88391025  0.77375467  0.70982876  1
  S2-  S128  1  -0.05216014  0.10046831  0.16402309  1
  S2-  S129  1  -0.10350164  0.12610978  0.63662877  1
  S2-  S130  1  -0.01743022  0.30785051  0.13304190  1
  S2-  S131  1  -0.08019581  0.34070434  0.65439489  1
  S2-  S132  1  0.00690248  0.72424327  0.14441128  1
  S2-  S133  1  0.01444024  0.51889688  0.67724599  1
  S2-  S134  1  0.04412499  0.91331024  0.20369598  1
  S2-  S135  1  0.02712170  0.80341498  0.64196211  1
  S2-  S136  1  0.23769968  0.09764133  0.15945176  1
  S2-  S137  1  0.26612610  0.11638019  0.65076630  1
  S2-  S138  1  0.23991552  0.34976049  0.15301707  1
  S2-  S139  1  0.15467409  0.36906249  0.64941631  1
  S2-  S140  1  0.22253883  0.63648690  0.16148117  1
  S2-  S141  1  0.18214560  0.63447007  0.65086376  1
  S2-  S142  1  0.22855461  0.85720690  0.14888788  1
  S2-  S143  1  0.34715626  0.85485248  0.64193250  1
  S2-  S144  1  0.48213450  0.01553828  0.14395961  1
  S2-  S145  1  0.49265821  0.02789780  0.64766588  1
  S2-  S146  1  0.49635076  0.27569964  0.14441113  1
  S2-  S147  1  0.39547894  0.37724954  0.64350203  1
  S2-  S148  1  0.51336104  0.52349420  0.14240448  1
  S2-  S149  1  0.40062617  0.62673432  0.63868882  1
  S2-  S150  1  0.48333761  0.76745167  0.13986650  1
  S2-  S151  1  0.57301090  0.82502778  0.67701056  1
  S2-  S152  1  0.70874411  0.13620127  0.14854969  1
  S2-  S153  1  0.67242425  0.14381467  0.64516717  1
  S2-  S154  1  0.74747160  0.38227920  0.14701451  1
  S2-  S155  1  0.72315989  0.39087868  0.65998835  1
  S2-  S156  1  0.77665878  0.63980473  0.15942884  1
  S2-  S157  1  0.85712851  0.63654110  0.65108216  1
  S2-  S158  1  0.83702183  0.88189292  0.14960898  1
  S2-  S159  1  0.79757801  0.89834840  0.65231840  1
  S2-  S160  1  0.07370475  0.00605746  0.34653026  1
  S2-  S161  1  0.11469799  -0.10514232  0.85873240  1
  S2-  S162  1  0.03952721  0.24909101  0.35777763  1
  S2-  S163  1  0.03874973  0.24873589  0.85345091  1
  S2-  S164  1  0.18382688  0.49980580  0.35544556  1
  S2-  S165  1  0.09967173  0.45118685  0.81197468  1
  S2-  S166  1  0.09222315  0.73921054  0.32538565  1
  S2-  S167  1  0.13215692  0.66541626  0.84786214  1
  S2-  S168  1  0.41335568  0.12818216  0.36162650  1
  S2-  S169  1  0.45057784  0.00667936  0.85725153  1
  S2-  S170  1  0.38624647  0.36417810  0.36008016  1
  S2-  S171  1  0.34840645  0.21434632  0.85124170  1
  S2-  S172  1  0.39688630  0.61509868  0.35464008  1
  S2-  S173  1  0.29283356  0.51851003  0.85739534  1
  S2-  S174  1  0.27701939  0.78020384  0.35313276  1
  S2-  S175  1  0.37423525  0.77896239  0.84054369  1
  S2-  S176  1  0.63888999  -0.01387001  0.35125152  1
  S2-  S177  1  0.63857980  -0.05309786  0.82189899  1
  S2-  S178  1  0.60857419  0.24818775  0.35135859  1
  S2-  S179  1  0.60539657  0.17647940  0.85475686  1
  S2-  S180  1  0.61094654  0.47889548  0.34684848  1
  S2-  S181  1  0.70912472  0.53058287  0.85045041  1
  S2-  S182  1  0.65026223  0.72101765  0.35291098  1
  S2-  S183  1  0.72166278  0.76926688  0.86385171  1
  S2-  S184  1  0.86776258  -0.01686173  0.32678619  1
  S2-  S185  1  0.86260581  0.02458306  0.85111660  1
  S2-  S186  1  0.82843246  0.19725551  0.33641862  1
  S2-  S187  1  0.83863441  0.26805916  0.82091802  1
  S2-  S188  1  0.88615569  0.42007986  0.35847245  1
  S2-  S189  1  0.89738833  0.46922147  0.80127657  1
  S2-  S190  1  0.87919807  0.75505235  0.34338581  1
  S2-  S191  1  0.90765889  0.67346896  0.84710058  1
  S2-  S192  1  0.01510585  0.12743545  0.45796175  1
  S2-  S193  1  -0.00390564  0.13985674  0.96039962  1
  S2-  S194  1  0.02118452  0.38523277  0.46409166  1
  S2-  S195  1  -0.00228812  0.40127420  0.94270496  1
  S2-  S196  1  0.01910398  0.62917492  0.44077707  1
  S2-  S197  1  -0.00273051  0.63178018  0.95143942  1
  S2-  S198  1  0.01804454  0.87401663  0.44870536  1
  S2-  S199  1  -0.01332242  0.89287624  0.95200236  1
  S2-  S200  1  0.26484946  0.13105571  0.44891226  1
  S2-  S201  1  0.24081402  0.14173544  0.95582919  1
  S2-  S202  1  0.26300828  0.37517540  0.46305343  1
  S2-  S203  1  0.24137106  0.39350272  0.95285377  1
  S2-  S204  1  0.26538675  0.62997631  0.45789342  1
  S2-  S205  1  0.24471729  0.64061898  0.95648272  1
  S2-  S206  1  0.26927492  0.88526315  0.45142113  1
  S2-  S207  1  0.24922247  0.89313125  0.95094518  1
  S2-  S208  1  0.52326072  0.12958049  0.46522862  1
  S2-  S209  1  0.49333474  0.14520283  0.96170375  1
  S2-  S210  1  0.52108183  0.37570818  0.46133810  1
  S2-  S211  1  0.49532192  0.39140592  0.96232419  1
  S2-  S212  1  0.52056554  0.62750367  0.45651521  1
  S2-  S213  1  0.49901575  0.64167359  0.95505283  1
  S2-  S214  1  0.51547943  0.87686621  0.44641891  1
  S2-  S215  1  0.49875707  0.89095739  0.95896538  1
  S2-  S216  1  0.76782083  0.12847162  0.45423877  1
  S2-  S217  1  0.74503498  0.14251280  0.94884594  1
  S2-  S218  1  0.76430160  0.37992227  0.45991957  1
  S2-  S219  1  0.75224905  0.39013803  0.94248264  1
  S2-  S220  1  0.76584283  0.63164511  0.46019620  1
  S2-  S221  1  0.74928083  0.63509663  0.95673384  1
  S2-  S222  1  0.76890266  0.87495835  0.45122094  1
  S2-  S223  1  0.74035535  0.90318149  0.95744418  1
  S2-  S224  1  0.11156027  0.01328566  0.05122521  1
  S2-  S225  1  0.13709597  0.00490509  0.54588458  1
  S2-  S226  1  0.11984818  0.26862788  0.04325673  1
  S2-  S227  1  0.13841083  0.24661347  0.54765967  1
  S2-  S228  1  0.11438873  0.51576180  0.05543235  1
  S2-  S229  1  0.14081271  0.51190241  0.55280341  1
  S2-  S230  1  0.11597526  0.77347030  0.04094418  1
  S2-  S231  1  0.14192171  0.75347018  0.53683735  1
  S2-  S232  1  0.36488777  0.01659293  0.04535117  1
  S2-  S233  1  0.39234318  0.00441968  0.53865619  1
  S2-  S234  1  0.36569509  0.26761814  0.04773489  1
  S2-  S235  1  0.39785902  0.24544845  0.54469277  1
  S2-  S236  1  0.36613403  0.52076487  0.04980799  1
  S2-  S237  1  0.39239063  0.50211711  0.53832423  1
  S2-  S238  1  0.36438863  0.77000453  0.04489577  1
  S2-  S239  1  0.39651807  0.75883541  0.53494879  1
  S2-  S240  1  0.62364067  0.01847732  0.04656218  1
  S2-  S241  1  0.64134209  -0.00328551  0.55179804  1
  S2-  S242  1  0.62351525  0.26798129  0.04290606  1
  S2-  S243  1  0.64519792  0.25913296  0.55013306  1
  S2-  S244  1  0.62403864  0.51768648  0.04160207  1
  S2-  S245  1  0.64299665  0.50452233  0.55142278  1
  S2-  S246  1  0.62522517  0.76804630  0.04887718  1
  S2-  S247  1  0.63958913  0.75650957  0.55231454  1
  S2-  S248  1  0.87226842  0.01936606  0.05224578  1
  S2-  S249  1  0.89614223  -0.00300167  0.53678624  1
  S2-  S250  1  0.86865726  0.26591549  0.03113969  1
  S2-  S251  1  0.89700517  0.25682051  0.53708429  1
  S2-  S252  1  0.87402560  0.51464955  0.05281508  1
  S2-  S253  1  0.89781066  0.50924636  0.55136328  1
  S2-  S254  1  0.87074903  0.77002651  0.04192896  1
  S2-  S255  1  0.89593180  0.75055969  0.54423127  1
