# generated using pymatgen
data_La12Ce14Pr13Nd13Sm12(BiS2)64
_symmetry_space_group_name_H-M   'P 1'
_cell_length_a   16.19418031
_cell_length_b   16.16893403
_cell_length_c   27.19580993
_cell_angle_alpha   89.87229986
_cell_angle_beta   89.96414560
_cell_angle_gamma   89.91050681
_symmetry_Int_Tables_number   1
_chemical_formula_structural   La12Ce14Pr13Nd13Sm12(BiS2)64
_chemical_formula_sum   'La12 Ce14 Pr13 Nd13 Sm12 Bi64 S128'
_cell_volume   7120.99472777
_cell_formula_units_Z   1
loop_
 _symmetry_equiv_pos_site_id
 _symmetry_equiv_pos_as_xyz
  1  'x, y, z'
loop_
 _atom_type_symbol
 _atom_type_oxidation_number
  La3+  3.0
  Ce3+  3.0
  Pr3+  3.0
  Nd3+  3.0
  Sm3+  3.0
  Bi2+  2.0
  S2-  -2.0
loop_
 _atom_site_type_symbol
 _atom_site_label
 _atom_site_symmetry_multiplicity
 _atom_site_fract_x
 _atom_site_fract_y
 _atom_site_fract_z
 _atom_site_occupancy
  La3+  La0  1  0.51096799  0.12467444  0.59805907  1
  La3+  La1  1  0.62598088  0.49061326  0.42166178  1
  La3+  La2  1  0.00633679  0.36829014  0.07068001  1
  La3+  La3  1  0.88136834  0.75137239  0.42912407  1
  La3+  La4  1  0.63090600  0.26077101  0.89985092  1
  La3+  La5  1  0.00765264  0.87943897  0.60959673  1
  La3+  La6  1  0.63282990  0.76022739  0.41855684  1
  La3+  La7  1  0.38124051  0.76078205  0.41202773  1
  La3+  La8  1  0.51036563  0.63145114  0.08473097  1
  La3+  La9  1  0.88774471  0.24905172  0.42776137  1
  La3+  La10  1  0.24273198  0.12982793  0.58296239  1
  La3+  La11  1  0.75017865  0.86301102  0.57163846  1
  Ce3+  Ce12  1  0.75558823  0.12457718  0.56298065  1
  Ce3+  Ce13  1  0.25445774  0.87463544  0.56649381  1
  Ce3+  Ce14  1  0.87821888  0.00374486  0.94188361  1
  Ce3+  Ce15  1  0.13070995  0.25522135  0.93610736  1
  Ce3+  Ce16  1  0.38727605  0.74840015  0.93858299  1
  Ce3+  Ce17  1  0.12824776  0.50191926  0.94806147  1
  Ce3+  Ce18  1  0.00313715  0.63134279  0.56116097  1
  Ce3+  Ce19  1  0.88042608  0.50084961  0.94698290  1
  Ce3+  Ce20  1  0.00831468  0.12561065  0.05566769  1
  Ce3+  Ce21  1  0.63161414  0.50101894  0.94316659  1
  Ce3+  Ce22  1  0.13053568  -0.00341995  0.44974358  1
  Ce3+  Ce23  1  0.88002252  0.75176788  0.93554954  1
  Ce3+  Ce24  1  0.25643422  0.37737372  0.05509859  1
  Ce3+  Ce25  1  0.38640771  0.50226695  0.95016365  1
  Pr3+  Pr26  1  0.39559901  -0.00574420  0.91570821  1
  Pr3+  Pr27  1  0.00731845  0.88047639  0.05845814  1
  Pr3+  Pr28  1  0.13054358  0.75214555  0.93636795  1
  Pr3+  Pr29  1  0.51360543  0.37623514  0.57414749  1
  Pr3+  Pr30  1  0.25978132  0.12449047  0.05278846  1
  Pr3+  Pr31  1  0.37865377  0.00283489  0.44820447  1
  Pr3+  Pr32  1  0.75460467  0.37262940  0.06666038  1
  Pr3+  Pr33  1  0.00269866  0.63527105  0.07511790  1
  Pr3+  Pr34  1  0.00593055  0.37756185  0.56111307  1
  Pr3+  Pr35  1  0.37733460  0.49992971  0.43548017  1
  Pr3+  Pr36  1  0.13371222  0.00544445  0.92868016  1
  Pr3+  Pr37  1  0.63188990  0.00122383  0.44280345  1
  Pr3+  Pr38  1  0.50711831  0.37586351  0.06507439  1
  Nd3+  Nd39  1  0.49745069  0.87934408  0.06643966  1
  Nd3+  Nd40  1  0.25818106  0.37344118  0.56135017  1
  Nd3+  Nd41  1  0.75918819  0.62839869  0.06797529  1
  Nd3+  Nd42  1  0.13143531  0.50149438  0.44686417  1
  Nd3+  Nd43  1  0.38173749  0.24775174  0.44959407  1
  Nd3+  Nd44  1  0.13307577  0.24720390  0.43254524  1
  Nd3+  Nd45  1  0.50438381  0.62540512  0.54541068  1
  Nd3+  Nd46  1  0.25622205  0.62807558  0.05631836  1
  Nd3+  Nd47  1  0.63274093  0.24899626  0.43784471  1
  Nd3+  Nd48  1  0.50549618  0.12730440  0.05056757  1
  Nd3+  Nd49  1  0.75466609  0.37299494  0.55967584  1
  Nd3+  Nd50  1  0.50469240  0.87147612  0.56460873  1
  Nd3+  Nd51  1  0.75243406  0.12713743  0.05743254  1
  Sm3+  Sm52  1  0.88213978  -0.00182981  0.45291614  1
  Sm3+  Sm53  1  0.87880124  0.25325722  0.93905984  1
  Sm3+  Sm54  1  0.75521741  0.87710267  0.05672293  1
  Sm3+  Sm55  1  0.75167590  0.62598647  0.54611032  1
  Sm3+  Sm56  1  0.63128299  0.74979507  0.94699943  1
  Sm3+  Sm57  1  0.25803312  0.62649387  0.55342220  1
  Sm3+  Sm58  1  0.12904146  0.75180653  0.44391398  1
  Sm3+  Sm59  1  0.00328204  0.12867590  0.56125028  1
  Sm3+  Sm60  1  0.62957451  0.00157339  0.94205510  1
  Sm3+  Sm61  1  0.25780760  0.87704792  0.04917517  1
  Sm3+  Sm62  1  0.38316632  0.25260645  0.93844908  1
  Sm3+  Sm63  1  0.88152048  0.49779287  0.44343330  1
  Bi2+  Bi64  1  0.04622168  0.11402363  0.26705839  1
  Bi2+  Bi65  1  -0.03663040  0.16503225  0.77658645  1
  Bi2+  Bi66  1  0.00485996  0.38114711  0.29689811  1
  Bi2+  Bi67  1  0.03642902  0.33959319  0.80986229  1
  Bi2+  Bi68  1  -0.00729580  0.70954590  0.31207766  1
  Bi2+  Bi69  1  0.02742966  0.60750271  0.78142110  1
  Bi2+  Bi70  1  0.04540988  0.89614554  0.28789513  1
  Bi2+  Bi71  1  -0.00601364  0.87429975  0.80833102  1
  Bi2+  Bi72  1  0.26045396  0.03108944  0.29611430  1
  Bi2+  Bi73  1  0.25409937  0.15421425  0.76652010  1
  Bi2+  Bi74  1  0.23842329  0.27548172  0.29786388  1
  Bi2+  Bi75  1  0.21839525  0.42293490  0.77654620  1
  Bi2+  Bi76  1  0.18695278  0.62157158  0.30616906  1
  Bi2+  Bi77  1  0.32256444  0.64073320  0.77484133  1
  Bi2+  Bi78  1  0.20930461  0.88778221  0.22326152  1
  Bi2+  Bi79  1  0.24838921  0.81792890  0.78940157  1
  Bi2+  Bi80  1  0.49360800  0.14901915  0.29259686  1
  Bi2+  Bi81  1  0.48070387  0.10377873  0.78851971  1
  Bi2+  Bi82  1  0.48595468  0.34662827  0.26743811  1
  Bi2+  Bi83  1  0.48159071  0.39848575  0.80125242  1
  Bi2+  Bi84  1  0.47988128  0.60895628  0.28534207  1
  Bi2+  Bi85  1  0.51176619  0.64657896  0.81681673  1
  Bi2+  Bi86  1  0.47992442  0.88888413  0.29006462  1
  Bi2+  Bi87  1  0.51235982  0.84303154  0.78588831  1
  Bi2+  Bi88  1  0.74946566  0.11705003  0.29828611  1
  Bi2+  Bi89  1  0.76914559  0.11984995  0.79804979  1
  Bi2+  Bi90  1  0.73895147  0.39379893  0.29919645  1
  Bi2+  Bi91  1  0.82683349  0.39524635  0.78346528  1
  Bi2+  Bi92  1  0.74766902  0.65078231  0.27620518  1
  Bi2+  Bi93  1  0.73320268  0.57316432  0.77848312  1
  Bi2+  Bi94  1  0.81316670  0.90518324  0.28892375  1
  Bi2+  Bi95  1  0.75303124  0.86262073  0.79149082  1
  Bi2+  Bi96  1  0.05500890  -0.01450801  0.17678745  1
  Bi2+  Bi97  1  0.14735494  0.00332044  0.72096380  1
  Bi2+  Bi98  1  0.14131320  0.24779758  0.20338255  1
  Bi2+  Bi99  1  0.09058726  0.26090572  0.70141938  1
  Bi2+  Bi100  1  0.11567881  0.48456872  0.22227965  1
  Bi2+  Bi101  1  0.07532939  0.47458247  0.70217755  1
  Bi2+  Bi102  1  0.09846463  0.67961068  0.20779321  1
  Bi2+  Bi103  1  0.14155019  0.72210323  0.71180207  1
  Bi2+  Bi104  1  0.38212899  0.05754554  0.21018049  1
  Bi2+  Bi105  1  0.37398660  -0.07420371  0.71395498  1
  Bi2+  Bi106  1  0.36971552  0.25232173  0.18785247  1
  Bi2+  Bi107  1  0.35247787  0.30858721  0.72182470  1
  Bi2+  Bi108  1  0.30900816  0.44196673  0.25930447  1
  Bi2+  Bi109  1  0.34357873  0.49617658  0.69304488  1
  Bi2+  Bi110  1  0.36416244  0.74651103  0.19348628  1
  Bi2+  Bi111  1  0.41369384  0.74982318  0.68758244  1
  Bi2+  Bi112  1  0.62048434  -0.00279028  0.25008376  1
  Bi2+  Bi113  1  0.65812610  -0.02135984  0.71729797  1
  Bi2+  Bi114  1  0.63119123  0.19894751  0.21632364  1
  Bi2+  Bi115  1  0.63462475  0.28183066  0.70528883  1
  Bi2+  Bi116  1  0.63977101  0.47961591  0.21126894  1
  Bi2+  Bi117  1  0.56192765  0.52538961  0.72902493  1
  Bi2+  Bi118  1  0.63712704  0.75872439  0.21091509  1
  Bi2+  Bi119  1  0.62817544  0.72987709  0.70449217  1
  Bi2+  Bi120  1  0.88305916  0.04545652  0.21832819  1
  Bi2+  Bi121  1  0.85633206  0.04208178  0.70400834  1
  Bi2+  Bi122  1  0.88097305  0.28798719  0.19753423  1
  Bi2+  Bi123  1  0.83295719  0.23921749  0.69661510  1
  Bi2+  Bi124  1  0.91209887  0.57094173  0.24335790  1
  Bi2+  Bi125  1  0.88718949  0.53332882  0.70910539  1
  Bi2+  Bi126  1  0.87568381  0.77475184  0.20060099  1
  Bi2+  Bi127  1  0.85969035  0.74157555  0.71186769  1
  S2-  S128  1  0.00504883  0.21914341  0.13801408  1
  S2-  S129  1  0.08821402  0.11724748  0.64654766  1
  S2-  S130  1  -0.01226747  0.41898832  0.16788946  1
  S2-  S131  1  -0.04893115  0.33810732  0.65331116  1
  S2-  S132  1  -0.12609259  0.62474742  0.14620392  1
  S2-  S133  1  0.00013987  0.71504766  0.64818620  1
  S2-  S134  1  0.01787290  0.77964151  0.14048980  1
  S2-  S135  1  0.00207027  0.93338946  0.71404187  1
  S2-  S136  1  0.24740449  0.13612559  0.15358643  1
  S2-  S137  1  0.29631131  0.06761757  0.67395332  1
  S2-  S138  1  0.26467996  0.37253876  0.15271274  1
  S2-  S139  1  0.23527152  0.28151407  0.64403861  1
  S2-  S140  1  0.24968146  0.65231053  0.15445529  1
  S2-  S141  1  0.25332778  0.62818674  0.65166529  1
  S2-  S142  1  0.31767211  0.89573016  0.13965635  1
  S2-  S143  1  0.17085102  0.86781807  0.65386891  1
  S2-  S144  1  0.50527105  0.13005498  0.15002876  1
  S2-  S145  1  0.50365938  0.03773590  0.69033501  1
  S2-  S146  1  0.52997839  0.38615509  0.16595628  1
  S2-  S147  1  0.49028199  0.26812861  0.65669247  1
  S2-  S148  1  0.44763484  0.60933198  0.18227020  1
  S2-  S149  1  0.51824131  0.62839191  0.64529781  1
  S2-  S150  1  0.51576791  0.82387200  0.16052934  1
  S2-  S151  1  0.61712810  0.86701925  0.64260094  1
  S2-  S152  1  0.76372844  0.18267408  0.15214452  1
  S2-  S153  1  0.67204260  0.13620888  0.64912835  1
  S2-  S154  1  0.77063008  0.39974830  0.16731864  1
  S2-  S155  1  0.65578505  0.40095656  0.64017673  1
  S2-  S156  1  0.65216096  0.62306836  0.14832362  1
  S2-  S157  1  0.75183716  0.68789899  0.63852621  1
  S2-  S158  1  0.75116933  0.85946131  0.15456476  1
  S2-  S159  1  0.84554165  0.87763748  0.65566565  1
  S2-  S160  1  0.12220390  0.03410095  0.35289613  1
  S2-  S161  1  0.11068672  -0.01987710  0.82971033  1
  S2-  S162  1  0.02335892  0.25064402  0.35462645  1
  S2-  S163  1  0.15444104  0.22271491  0.84183163  1
  S2-  S164  1  0.12506579  0.46974819  0.34915858  1
  S2-  S165  1  0.11534619  0.50192305  0.85042742  1
  S2-  S166  1  0.14739676  0.78379824  0.34684115  1
  S2-  S167  1  0.10294206  0.74320090  0.83727737  1
  S2-  S168  1  0.36301853  -0.08030294  0.35808665  1
  S2-  S169  1  0.33171604  0.04855191  0.82563694  1
  S2-  S170  1  0.35616033  0.19944427  0.35337372  1
  S2-  S171  1  0.43200213  0.25452477  0.84499266  1
  S2-  S172  1  0.42055731  0.46761070  0.33939648  1
  S2-  S173  1  0.39190063  0.52699597  0.85370035  1
  S2-  S174  1  0.33951342  0.67061770  0.32578404  1
  S2-  S175  1  0.38274062  0.84039645  0.85537354  1
  S2-  S176  1  0.61248114  -0.06830674  0.35118381  1
  S2-  S177  1  0.54567263  0.00028397  0.85566092  1
  S2-  S178  1  0.61284539  0.34503507  0.35500232  1
  S2-  S179  1  0.61899392  0.20060949  0.80104321  1
  S2-  S180  1  0.63612553  0.55535305  0.32586250  1
  S2-  S181  1  0.62132074  0.42024677  0.85619252  1
  S2-  S182  1  0.51913971  0.74768228  0.34101564  1
  S2-  S183  1  0.63692284  0.76591478  0.84806784  1
  S2-  S184  1  0.86638642  0.01669426  0.35500875  1
  S2-  S185  1  0.86187708  -0.02056293  0.84513303  1
  S2-  S186  1  0.80649046  0.25942064  0.33762875  1
  S2-  S187  1  0.79410162  0.26566410  0.85444546  1
  S2-  S188  1  0.87685935  0.47370680  0.34562326  1
  S2-  S189  1  0.84878886  0.52185988  0.85131872  1
  S2-  S190  1  0.76862574  0.76952918  0.35199101  1
  S2-  S191  1  0.86459811  0.75660653  0.83677020  1
  S2-  S192  1  0.00647281  0.12215791  0.45783357  1
  S2-  S193  1  0.00399571  0.12884810  0.94663113  1
  S2-  S194  1  0.00761264  0.37845393  0.45553433  1
  S2-  S195  1  0.00330954  0.37449537  0.95701487  1
  S2-  S196  1  0.00610521  0.62306739  0.45284122  1
  S2-  S197  1  0.00454611  0.62839379  0.95798423  1
  S2-  S198  1  0.00491422  0.87524178  0.44703344  1
  S2-  S199  1  0.00584842  0.87959957  0.95033073  1
  S2-  S200  1  0.25205546  0.12572265  0.46425608  1
  S2-  S201  1  0.26191631  0.12739349  0.94557509  1
  S2-  S202  1  0.25462590  0.37264853  0.45446101  1
  S2-  S203  1  0.25908024  0.37795112  0.94737000  1
  S2-  S204  1  0.25563952  0.62878808  0.44926301  1
  S2-  S205  1  0.25644813  0.62653120  0.94937305  1
  S2-  S206  1  0.25400153  0.87211309  0.46003762  1
  S2-  S207  1  0.25559231  0.87787113  0.94615522  1
  S2-  S208  1  0.50672192  0.12601447  0.44919835  1
  S2-  S209  1  0.51336361  0.13521197  0.94646382  1
  S2-  S210  1  0.50072619  0.37271069  0.46086855  1
  S2-  S211  1  0.50650981  0.37388774  0.95824990  1
  S2-  S212  1  0.50168343  0.62387856  0.44145360  1
  S2-  S213  1  0.51064726  0.62688248  0.96416773  1
  S2-  S214  1  0.50308667  0.87707978  0.45911661  1
  S2-  S215  1  0.51166870  0.87311275  0.95891375  1
  S2-  S216  1  0.75794981  0.12514917  0.45533197  1
  S2-  S217  1  0.74940400  0.12771976  0.95042470  1
  S2-  S218  1  0.75948087  0.37405753  0.45448083  1
  S2-  S219  1  0.75528404  0.37582439  0.95891148  1
  S2-  S220  1  0.75606790  0.61856379  0.44279085  1
  S2-  S221  1  0.75497870  0.62873563  0.95787881  1
  S2-  S222  1  0.75819961  0.87972101  0.46028589  1
  S2-  S223  1  0.75204733  0.87789280  0.95159864  1
  S2-  S224  1  0.13491917  0.00098501  0.03767058  1
  S2-  S225  1  0.12331824  -0.00619486  0.55336455  1
  S2-  S226  1  0.13608005  0.24989559  0.04154583  1
  S2-  S227  1  0.12463977  0.25307475  0.53946970  1
  S2-  S228  1  0.12816102  0.50483560  0.05540456  1
  S2-  S229  1  0.13331922  0.50190962  0.55335561  1
  S2-  S230  1  0.13548888  0.75452311  0.04236759  1
  S2-  S231  1  0.13275754  0.74812316  0.54746064  1
  S2-  S232  1  0.38320932  0.00122892  0.03269168  1
  S2-  S233  1  0.38377453  0.00163950  0.55673000  1
  S2-  S234  1  0.38180006  0.25242377  0.04370446  1
  S2-  S235  1  0.38237689  0.24608436  0.55325545  1
  S2-  S236  1  0.38318891  0.50444322  0.05681965  1
  S2-  S237  1  0.38024936  0.49816346  0.54464039  1
  S2-  S238  1  0.38147247  0.75072472  0.04527921  1
  S2-  S239  1  0.37934520  0.74985544  0.54515901  1
  S2-  S240  1  0.62938381  -0.00019182  0.04857195  1
  S2-  S241  1  0.62665592  0.00399735  0.54904782  1
  S2-  S242  1  0.62913555  0.25008360  0.05177856  1
  S2-  S243  1  0.62978829  0.24807114  0.54350836  1
  S2-  S244  1  0.63213745  0.50038844  0.04979935  1
  S2-  S245  1  0.63029628  0.50252856  0.53404142  1
  S2-  S246  1  0.63068631  0.75774442  0.04963833  1
  S2-  S247  1  0.62685472  0.74587559  0.53173428  1
  S2-  S248  1  0.87840407  0.00301778  0.04977181  1
  S2-  S249  1  0.88586050  0.00082551  0.55697238  1
  S2-  S250  1  0.87776378  0.24822719  0.04164708  1
  S2-  S251  1  0.87978151  0.24939900  0.54152494  1
  S2-  S252  1  0.88179251  0.49823171  0.05072944  1
  S2-  S253  1  0.87669845  0.50239058  0.54937479  1
  S2-  S254  1  0.87818918  0.75756507  0.04193685  1
  S2-  S255  1  0.87866336  0.74679922  0.53808214  1
