# generated using pymatgen
data_La12Ce14Pr13Nd13Sm12(BiS2)64
_symmetry_space_group_name_H-M   'P 1'
_cell_length_a   16.06693473
_cell_length_b   16.16969527
_cell_length_c   27.20153827
_cell_angle_alpha   90.16363630
_cell_angle_beta   89.97878091
_cell_angle_gamma   90.01085140
_symmetry_Int_Tables_number   1
_chemical_formula_structural   La12Ce14Pr13Nd13Sm12(BiS2)64
_chemical_formula_sum   'La12 Ce14 Pr13 Nd13 Sm12 Bi64 S128'
_cell_volume   7066.86053126
_cell_formula_units_Z   1
loop_
 _symmetry_equiv_pos_site_id
 _symmetry_equiv_pos_as_xyz
  1  'x, y, z'
loop_
 _atom_type_symbol
 _atom_type_oxidation_number
  La3+  3.0
  Ce3+  3.0
  Pr3+  3.0
  Nd3+  3.0
  Sm3+  3.0
  Bi2+  2.0
  S2-  -2.0
loop_
 _atom_site_type_symbol
 _atom_site_label
 _atom_site_symmetry_multiplicity
 _atom_site_fract_x
 _atom_site_fract_y
 _atom_site_fract_z
 _atom_site_occupancy
  La3+  La0  1  0.74372468  0.37428967  0.58461942  1
  La3+  La1  1  0.24635105  0.88800383  0.07074381  1
  La3+  La2  1  0.25808631  0.62703102  0.56963762  1
  La3+  La3  1  0.87122378  -0.00051534  0.92661808  1
  La3+  La4  1  0.74885521  0.12476500  0.08991553  1
  La3+  La5  1  0.13302110  0.74871308  0.93047289  1
  La3+  La6  1  0.12434964  0.50075489  0.43434516  1
  La3+  La7  1  0.25702539  0.63582338  0.08809097  1
  La3+  La8  1  0.13222911  0.75911917  0.39662703  1
  La3+  La9  1  0.13180048  0.25198351  0.42224573  1
  La3+  La10  1  0.12902198  0.25939864  0.91464526  1
  La3+  La11  1  0.01253552  0.36861545  0.57830077  1
  Ce3+  Ce12  1  0.50737750  0.37232727  0.54784383  1
  Ce3+  Ce13  1  0.37050593  -0.00005316  0.93334574  1
  Ce3+  Ce14  1  0.75279297  0.37660377  0.06863732  1
  Ce3+  Ce15  1  0.37823602  0.50164799  0.43664056  1
  Ce3+  Ce16  1  0.37665298  0.74768715  0.43762777  1
  Ce3+  Ce17  1  0.50017665  0.37466550  0.05557814  1
  Ce3+  Ce18  1  0.25499631  0.37123520  0.55600898  1
  Ce3+  Ce19  1  0.23807092  0.37292160  0.07592242  1
  Ce3+  Ce20  1  0.62430979  0.25033561  0.93771902  1
  Ce3+  Ce21  1  0.24277768  0.12524449  0.05632622  1
  Ce3+  Ce22  1  0.62442439  0.00064866  0.92742854  1
  Ce3+  Ce23  1  0.36799308  0.25183387  0.94735718  1
  Ce3+  Ce24  1  0.50353060  0.62553333  0.56136591  1
  Ce3+  Ce25  1  0.50317346  0.12674170  0.05199107  1
  Pr3+  Pr26  1  0.88075903  0.24888120  0.44155501  1
  Pr3+  Pr27  1  0.12676548  -0.00071592  0.43948221  1
  Pr3+  Pr28  1  0.36903821  0.50226598  0.95187546  1
  Pr3+  Pr29  1  0.75559749  0.62514753  0.57303828  1
  Pr3+  Pr30  1  0.38460145  0.24513869  0.43267725  1
  Pr3+  Pr31  1  0.50430062  0.62316350  0.07276276  1
  Pr3+  Pr32  1  -0.00126730  0.87918763  0.05579316  1
  Pr3+  Pr33  1  0.88037775  0.74474514  0.44190865  1
  Pr3+  Pr34  1  0.12409176  0.50590845  0.94147088  1
  Pr3+  Pr35  1  0.25834931  0.12439777  0.56329645  1
  Pr3+  Pr36  1  0.12354589  -0.00379371  0.91826128  1
  Pr3+  Pr37  1  -0.00421385  0.37592041  0.05807803  1
  Pr3+  Pr38  1  0.25455555  0.87276108  0.56505254  1
  Nd3+  Nd39  1  0.63420828  0.74624254  0.43779868  1
  Nd3+  Nd40  1  0.74928124  0.88061430  0.06087263  1
  Nd3+  Nd41  1  0.50827183  0.12516974  0.56761171  1
  Nd3+  Nd42  1  0.50338805  0.88221356  0.05635151  1
  Nd3+  Nd43  1  0.37914153  -0.00344543  0.44008085  1
  Nd3+  Nd44  1  0.86709324  0.49528127  0.92539711  1
  Nd3+  Nd45  1  0.88036357  0.49579248  0.45162494  1
  Nd3+  Nd46  1  0.63589829  0.24501358  0.42978999  1
  Nd3+  Nd47  1  -0.00340693  0.62466242  0.06265829  1
  Nd3+  Nd48  1  0.00537592  0.87011494  0.56595089  1
  Nd3+  Nd49  1  0.87386609  0.74899662  0.93946028  1
  Nd3+  Nd50  1  0.62018903  0.50265366  0.93472236  1
  Nd3+  Nd51  1  0.01140893  0.61650037  0.57697613  1
  Sm3+  Sm52  1  0.01209761  0.12819023  0.57072849  1
  Sm3+  Sm53  1  0.37419706  0.74973409  0.94955069  1
  Sm3+  Sm54  1  -0.00600563  0.12889239  0.04768010  1
  Sm3+  Sm55  1  0.63267589  -0.00226905  0.44216277  1
  Sm3+  Sm56  1  0.88436455  -0.00194191  0.45325197  1
  Sm3+  Sm57  1  0.74900460  0.62392718  0.05002218  1
  Sm3+  Sm58  1  0.86903256  0.25336869  0.93761007  1
  Sm3+  Sm59  1  0.50722610  0.87330143  0.55122687  1
  Sm3+  Sm60  1  0.63277466  0.49795294  0.44206171  1
  Sm3+  Sm61  1  0.62110352  0.75026414  0.94520359  1
  Sm3+  Sm62  1  0.75649719  0.87371012  0.56086962  1
  Sm3+  Sm63  1  0.75282434  0.12598900  0.56428011  1
  Bi2+  Bi64  1  -0.01635873  0.11426733  0.27887709  1
  Bi2+  Bi65  1  0.03239079  0.08162707  0.75998784  1
  Bi2+  Bi66  1  -0.00777122  0.37112158  0.29883590  1
  Bi2+  Bi67  1  0.00643542  0.37711408  0.79052698  1
  Bi2+  Bi68  1  -0.00400262  0.62544902  0.29076170  1
  Bi2+  Bi69  1  -0.01708812  0.66187379  0.79730809  1
  Bi2+  Bi70  1  -0.02166586  0.89197959  0.29223101  1
  Bi2+  Bi71  1  -0.00980228  0.87800877  0.78294353  1
  Bi2+  Bi72  1  0.21909899  0.12648848  0.30187569  1
  Bi2+  Bi73  1  0.30860087  0.13788469  0.78432364  1
  Bi2+  Bi74  1  0.26176478  0.38791403  0.28013108  1
  Bi2+  Bi75  1  0.27373895  0.40002928  0.79454095  1
  Bi2+  Bi76  1  0.25599156  0.63069401  0.28351509  1
  Bi2+  Bi77  1  0.25085780  0.62492212  0.79489710  1
  Bi2+  Bi78  1  0.25845028  0.89271597  0.28606920  1
  Bi2+  Bi79  1  0.25784261  0.86944582  0.79118390  1
  Bi2+  Bi80  1  0.51582993  0.20181774  0.31588426  1
  Bi2+  Bi81  1  0.51342257  0.13692747  0.80251984  1
  Bi2+  Bi82  1  0.55631264  0.39049653  0.29924372  1
  Bi2+  Bi83  1  0.48446057  0.34784159  0.77902477  1
  Bi2+  Bi84  1  0.53054461  0.66038952  0.30115493  1
  Bi2+  Bi85  1  0.47135380  0.61710040  0.78196104  1
  Bi2+  Bi86  1  0.54252340  0.85157319  0.28838450  1
  Bi2+  Bi87  1  0.49755928  0.94259760  0.81703289  1
  Bi2+  Bi88  1  0.70888479  0.15211052  0.28177275  1
  Bi2+  Bi89  1  0.72163010  0.09548624  0.77658206  1
  Bi2+  Bi90  1  0.75415364  0.36044716  0.28281421  1
  Bi2+  Bi91  1  0.74862830  0.34855751  0.78503420  1
  Bi2+  Bi92  1  0.73221941  0.63112187  0.28731001  1
  Bi2+  Bi93  1  0.69917276  0.62564657  0.78994750  1
  Bi2+  Bi94  1  0.73373197  0.89472043  0.31019855  1
  Bi2+  Bi95  1  0.66624804  0.83713949  0.81243312  1
  Bi2+  Bi96  1  0.12592460  0.01538879  0.21074175  1
  Bi2+  Bi97  1  0.20396692  0.00459149  0.71630455  1
  Bi2+  Bi98  1  0.13550179  0.21445654  0.21192841  1
  Bi2+  Bi99  1  0.12953101  0.24303185  0.70745437  1
  Bi2+  Bi100  1  0.10839325  0.47698080  0.19520912  1
  Bi2+  Bi101  1  0.11942044  0.48698108  0.71966890  1
  Bi2+  Bi102  1  0.09688133  0.75377906  0.17946426  1
  Bi2+  Bi103  1  0.10931337  0.74967274  0.69528999  1
  Bi2+  Bi104  1  0.39520367  0.07568271  0.25491139  1
  Bi2+  Bi105  1  0.40814691  0.00952988  0.71318890  1
  Bi2+  Bi106  1  0.33271435  0.24596298  0.21393426  1
  Bi2+  Bi107  1  0.35573203  0.27583266  0.70039389  1
  Bi2+  Bi108  1  0.47007425  0.51843826  0.22596889  1
  Bi2+  Bi109  1  0.38641585  0.47597685  0.70487097  1
  Bi2+  Bi110  1  0.40782296  0.77560793  0.21226035  1
  Bi2+  Bi111  1  0.40293961  0.75292361  0.70838702  1
  Bi2+  Bi112  1  0.59051036  -0.01090180  0.20448083  1
  Bi2+  Bi113  1  0.61114066  -0.06552456  0.71941844  1
  Bi2+  Bi114  1  0.58802889  0.25798940  0.20934102  1
  Bi2+  Bi115  1  0.57919360  0.22312553  0.70463000  1
  Bi2+  Bi116  1  0.64720766  0.53427371  0.17643551  1
  Bi2+  Bi117  1  0.59130054  0.48956503  0.70898523  1
  Bi2+  Bi118  1  0.62499006  0.73475517  0.20157571  1
  Bi2+  Bi119  1  0.58915129  0.68104080  0.68570559  1
  Bi2+  Bi120  1  0.84451246  -0.00919200  0.22993585  1
  Bi2+  Bi121  1  0.86436187  -0.01361557  0.72023445  1
  Bi2+  Bi122  1  0.88333393  0.25389234  0.19933928  1
  Bi2+  Bi123  1  0.84745624  0.17099827  0.69961898  1
  Bi2+  Bi124  1  0.83383869  0.50007605  0.21675027  1
  Bi2+  Bi125  1  0.86734714  0.55106768  0.71749589  1
  Bi2+  Bi126  1  0.81322514  0.79065626  0.22397268  1
  Bi2+  Bi127  1  0.78093852  0.73051981  0.70473186  1
  S2-  S128  1  -0.08472971  0.13250684  0.13799142  1
  S2-  S129  1  -0.00856682  0.23769115  0.64863163  1
  S2-  S130  1  0.09579882  0.33370611  0.13946116  1
  S2-  S131  1  -0.02338400  0.46159830  0.66717788  1
  S2-  S132  1  0.00367601  0.60689447  0.16281579  1
  S2-  S133  1  -0.05055699  0.68540763  0.66576230  1
  S2-  S134  1  0.02490765  0.90431535  0.15502653  1
  S2-  S135  1  0.04228605  0.88447213  0.66412491  1
  S2-  S136  1  0.24217929  0.02812851  0.13707646  1
  S2-  S137  1  0.14629552  0.11016897  0.64215521  1
  S2-  S138  1  0.27268951  0.41093101  0.17389967  1
  S2-  S139  1  0.17184931  0.36535995  0.64340603  1
  S2-  S140  1  0.20216703  0.60783819  0.18582887  1
  S2-  S141  1  0.14743691  0.59885548  0.64895537  1
  S2-  S142  1  0.25946647  0.79395658  0.15480586  1
  S2-  S143  1  0.26261407  0.79106603  0.65546150  1
  S2-  S144  1  0.57245210  0.12049433  0.14227065  1
  S2-  S145  1  0.38248422  0.13320685  0.64059481  1
  S2-  S146  1  0.52405120  0.39473132  0.15190308  1
  S2-  S147  1  0.57520637  0.35896862  0.63710978  1
  S2-  S148  1  0.40720372  0.63169805  0.15651216  1
  S2-  S149  1  0.39433034  0.61844656  0.64012986  1
  S2-  S150  1  0.47530405  0.90836562  0.15407854  1
  S2-  S151  1  0.48828519  0.88419267  0.64912174  1
  S2-  S152  1  0.73358068  0.26733994  0.14951574  1
  S2-  S153  1  0.63586436  0.11927937  0.63932046  1
  S2-  S154  1  0.88552885  0.39832709  0.13942036  1
  S2-  S155  1  0.77854288  0.31401644  0.68126857  1
  S2-  S156  1  0.78866656  0.62064767  0.14489760  1
  S2-  S157  1  0.74081495  0.51595585  0.65171033  1
  S2-  S158  1  0.74107479  0.97399818  0.14549422  1
  S2-  S159  1  0.75633905  0.88744634  0.65873640  1
  S2-  S160  1  0.13449540  -0.07939855  0.34837961  1
  S2-  S161  1  0.12009434  -0.14474079  0.84795493  1
  S2-  S162  1  0.12797657  0.38662856  0.35008261  1
  S2-  S163  1  0.07776874  0.22103326  0.81348904  1
  S2-  S164  1  0.12920279  0.60035342  0.34918662  1
  S2-  S165  1  0.12897465  0.40936941  0.85521928  1
  S2-  S166  1  0.12443337  0.74693536  0.27396401  1
  S2-  S167  1  0.12424430  0.62156544  0.85772432  1
  S2-  S168  1  0.37474890  -0.02302914  0.34042664  1
  S2-  S169  1  0.26616456  0.00828247  0.85356376  1
  S2-  S170  1  0.28874672  0.25862641  0.34916858  1
  S2-  S171  1  0.29170792  0.26271239  0.85990738  1
  S2-  S172  1  0.34321567  0.50715391  0.33919485  1
  S2-  S173  1  0.36538627  0.52333436  0.85121473  1
  S2-  S174  1  0.29775670  0.75631664  0.34955769  1
  S2-  S175  1  0.30593542  0.74601777  0.85829908  1
  S2-  S176  1  0.64768180  0.03621522  0.34715677  1
  S2-  S177  1  0.74355297  -0.01322833  0.85317502  1
  S2-  S178  1  0.76560755  0.24807794  0.36183574  1
  S2-  S179  1  0.66889757  0.24068162  0.84163411  1
  S2-  S180  1  0.68391783  0.48759808  0.34835509  1
  S2-  S181  1  0.69702481  0.48223188  0.84566546  1
  S2-  S182  1  0.75249021  0.74288904  0.36470665  1
  S2-  S183  1  0.57313592  0.70423658  0.85400086  1
  S2-  S184  1  0.91491617  0.00613553  0.35585526  1
  S2-  S185  1  0.98581795  0.01085757  0.84920480  1
  S2-  S186  1  0.98973797  0.23241473  0.35797148  1
  S2-  S187  1  0.87465709  0.30629811  0.84149544  1
  S2-  S188  1  0.92966161  0.50066362  0.35216094  1
  S2-  S189  1  0.91894021  0.52376623  0.83005440  1
  S2-  S190  1  0.96850737  0.75131708  0.35335808  1
  S2-  S191  1  0.87791563  0.77695985  0.84074531  1
  S2-  S192  1  0.00485825  0.12158523  0.46419334  1
  S2-  S193  1  -0.00277535  0.13599736  0.94436596  1
  S2-  S194  1  0.00357430  0.37196389  0.46369586  1
  S2-  S195  1  -0.00619152  0.37782219  0.95059771  1
  S2-  S196  1  0.00168617  0.62241138  0.46595825  1
  S2-  S197  1  -0.00773214  0.62477602  0.95522064  1
  S2-  S198  1  0.00505091  0.87245909  0.45918431  1
  S2-  S199  1  -0.00222536  0.87170504  0.95039933  1
  S2-  S200  1  0.25609650  0.12121377  0.45296058  1
  S2-  S201  1  0.24538456  0.12608431  0.95279569  1
  S2-  S202  1  0.26022732  0.37444084  0.45243100  1
  S2-  S203  1  0.24724754  0.37804421  0.96611249  1
  S2-  S204  1  0.25640830  0.62568433  0.45687967  1
  S2-  S205  1  0.25195236  0.62885908  0.96942877  1
  S2-  S206  1  0.25349848  0.87354440  0.45680017  1
  S2-  S207  1  0.25267814  0.87627026  0.96087068  1
  S2-  S208  1  0.50793912  0.11926062  0.45502889  1
  S2-  S209  1  0.49601370  0.12684874  0.94597088  1
  S2-  S210  1  0.50845736  0.37385511  0.44196884  1
  S2-  S211  1  0.49674829  0.37629857  0.94718175  1
  S2-  S212  1  0.50806413  0.62371320  0.45083364  1
  S2-  S213  1  0.49787680  0.62569668  0.96392248  1
  S2-  S214  1  0.50853800  0.87233611  0.44549921  1
  S2-  S215  1  0.49874319  0.87385982  0.95039410  1
  S2-  S216  1  0.75688361  0.11673779  0.46012051  1
  S2-  S217  1  0.74905154  0.12909652  0.94714053  1
  S2-  S218  1  0.75146383  0.37594649  0.46261935  1
  S2-  S219  1  0.74512156  0.37707659  0.95523782  1
  S2-  S220  1  0.75337187  0.61899334  0.46415559  1
  S2-  S221  1  0.74572648  0.62710386  0.94560527  1
  S2-  S222  1  0.75689739  0.87841197  0.45756430  1
  S2-  S223  1  0.74595702  0.86935979  0.95540017  1
  S2-  S224  1  0.11605176  0.00643615  0.03363135  1
  S2-  S225  1  0.12861067  -0.00494898  0.54570308  1
  S2-  S226  1  0.12068660  0.24587056  0.03472531  1
  S2-  S227  1  0.13385623  0.24491671  0.53732308  1
  S2-  S228  1  0.12444249  0.50562845  0.05144144  1
  S2-  S229  1  0.13344456  0.49595498  0.54291079  1
  S2-  S230  1  0.12177787  0.75020814  0.04816065  1
  S2-  S231  1  0.12777867  0.74976367  0.55506917  1
  S2-  S232  1  0.37857268  0.00492599  0.04043403  1
  S2-  S233  1  0.38374423  -0.00473102  0.54530781  1
  S2-  S234  1  0.37246810  0.24981012  0.05449295  1
  S2-  S235  1  0.38353418  0.24966536  0.53921141  1
  S2-  S236  1  0.37351616  0.49848286  0.05771522  1
  S2-  S237  1  0.38186575  0.49437561  0.54209872  1
  S2-  S238  1  0.38194756  0.75620646  0.05153811  1
  S2-  S239  1  0.38416837  0.75337915  0.54194977  1
  S2-  S240  1  0.62753256  0.00412949  0.03579402  1
  S2-  S241  1  0.63162759  -0.00621864  0.54572182  1
  S2-  S242  1  0.62536311  0.25257442  0.04206387  1
  S2-  S243  1  0.63104257  0.24557501  0.53605029  1
  S2-  S244  1  0.62565588  0.50041530  0.04160316  1
  S2-  S245  1  0.62591913  0.50335784  0.54599324  1
  S2-  S246  1  0.62635329  0.75203437  0.05104848  1
  S2-  S247  1  0.63219488  0.75135688  0.54545449  1
  S2-  S248  1  0.87232506  0.00202268  0.03686972  1
  S2-  S249  1  0.88022867  0.00173364  0.55852550  1
  S2-  S250  1  0.86922283  0.25079544  0.03939928  1
  S2-  S251  1  0.87297215  0.24729704  0.54997123  1
  S2-  S252  1  0.87143208  0.50555798  0.03438789  1
  S2-  S253  1  0.87926689  0.49644621  0.55589981  1
  S2-  S254  1  0.87097636  0.75242437  0.04752256  1
  S2-  S255  1  0.87736147  0.75044471  0.55088425  1
