# generated using pymatgen
data_La12Ce14Pr13Nd13Sm12(BiS2)64
_symmetry_space_group_name_H-M   'P 1'
_cell_length_a   16.15285009
_cell_length_b   16.18469665
_cell_length_c   27.16509457
_cell_angle_alpha   90.05722463
_cell_angle_beta   89.94177033
_cell_angle_gamma   90.01785764
_symmetry_Int_Tables_number   1
_chemical_formula_structural   La12Ce14Pr13Nd13Sm12(BiS2)64
_chemical_formula_sum   'La12 Ce14 Pr13 Nd13 Sm12 Bi64 S128'
_cell_volume   7101.73538238
_cell_formula_units_Z   1
loop_
 _symmetry_equiv_pos_site_id
 _symmetry_equiv_pos_as_xyz
  1  'x, y, z'
loop_
 _atom_type_symbol
 _atom_type_oxidation_number
  La3+  3.0
  Ce3+  3.0
  Pr3+  3.0
  Nd3+  3.0
  Sm3+  3.0
  Bi2+  2.0
  S2-  -2.0
loop_
 _atom_site_type_symbol
 _atom_site_label
 _atom_site_symmetry_multiplicity
 _atom_site_fract_x
 _atom_site_fract_y
 _atom_site_fract_z
 _atom_site_occupancy
  La3+  La0  1  0.23735143  0.87181943  0.56317912  1
  La3+  La1  1  0.85794877  -0.00400948  0.40794374  1
  La3+  La2  1  0.87037405  -0.01592017  0.91397278  1
  La3+  La3  1  0.12689033  0.49364076  0.93230713  1
  La3+  La4  1  0.25566955  0.61176579  0.08623780  1
  La3+  La5  1  0.85649155  0.26293912  0.41703905  1
  La3+  La6  1  0.25063981  0.87680712  0.08442043  1
  La3+  La7  1  0.10563155  0.49204075  0.42901583  1
  La3+  La8  1  0.87443636  0.49499338  0.89766748  1
  La3+  La9  1  -0.01870799  0.38005395  0.57826342  1
  La3+  La10  1  0.73119527  0.64033888  0.58720069  1
  La3+  La11  1  0.61432400  0.50216225  0.44015433  1
  Ce3+  Ce12  1  0.86133395  0.75083664  0.43964835  1
  Ce3+  Ce13  1  0.37215148  0.24610139  0.94585361  1
  Ce3+  Ce14  1  0.50130505  0.37043934  0.06073499  1
  Ce3+  Ce15  1  0.87619729  0.74682674  0.94751867  1
  Ce3+  Ce16  1  0.00019104  0.86925766  0.06351829  1
  Ce3+  Ce17  1  0.49803005  0.87101464  0.05667052  1
  Ce3+  Ce18  1  0.48644842  0.12820202  0.55551351  1
  Ce3+  Ce19  1  0.73989203  0.12785421  0.55748167  1
  Ce3+  Ce20  1  0.62947447  0.24581639  0.93734840  1
  Ce3+  Ce21  1  0.37106105  -0.00440741  0.94442271  1
  Ce3+  Ce22  1  0.74728437  0.61812316  0.06254898  1
  Ce3+  Ce23  1  0.23594338  0.12812378  0.55825876  1
  Ce3+  Ce24  1  0.36940733  0.74070770  0.95342438  1
  Ce3+  Ce25  1  0.61490870  0.00457153  0.43705531  1
  Pr3+  Pr26  1  0.10791588  0.24981212  0.44124772  1
  Pr3+  Pr27  1  0.62277008  0.74163339  0.94106495  1
  Pr3+  Pr28  1  0.11115226  0.24296577  0.92730025  1
  Pr3+  Pr29  1  0.22674453  0.37560337  0.57213498  1
  Pr3+  Pr30  1  0.75043472  0.11642778  0.06204692  1
  Pr3+  Pr31  1  0.24546362  0.12327045  0.06473475  1
  Pr3+  Pr32  1  0.36216689  0.74055406  0.42090015  1
  Pr3+  Pr33  1  -0.00560548  0.36898550  0.05558664  1
  Pr3+  Pr34  1  0.62151817  -0.00758730  0.93564891  1
  Pr3+  Pr35  1  0.35943025  0.49351915  0.43634293  1
  Pr3+  Pr36  1  0.48719592  0.87626206  0.54994503  1
  Pr3+  Pr37  1  0.13470358  0.74416468  0.94090493  1
  Pr3+  Pr38  1  0.11570679  0.00183078  0.43571603  1
  Nd3+  Nd39  1  0.73564265  0.37837462  0.57254360  1
  Nd3+  Nd40  1  0.86105268  0.50445229  0.44984204  1
  Nd3+  Nd41  1  0.61469190  0.75242138  0.43671982  1
  Nd3+  Nd42  1  0.24480542  0.36644171  0.06202591  1
  Nd3+  Nd43  1  0.37415701  0.49222782  0.93927752  1
  Nd3+  Nd44  1  0.12743254  -0.00933020  0.94307826  1
  Nd3+  Nd45  1  0.86673375  0.24200844  0.92611717  1
  Nd3+  Nd46  1  0.62495263  0.49663817  0.93553344  1
  Nd3+  Nd47  1  -0.01718179  0.62899183  0.56867069  1
  Nd3+  Nd48  1  -0.01526443  0.88026783  0.55851805  1
  Nd3+  Nd49  1  0.74920654  0.87008896  0.06476447  1
  Nd3+  Nd50  1  0.11015510  0.75652669  0.42970078  1
  Nd3+  Nd51  1  0.23401507  0.62370368  0.55068659  1
  Sm3+  Sm52  1  0.50169189  0.12147636  0.05562901  1
  Sm3+  Sm53  1  0.48635644  0.37998332  0.55993460  1
  Sm3+  Sm54  1  0.36103791  0.00115167  0.44115137  1
  Sm3+  Sm55  1  0.61502151  0.25088881  0.44624335  1
  Sm3+  Sm56  1  0.75162396  0.37066122  0.05416434  1
  Sm3+  Sm57  1  -0.00550692  0.11867488  0.05076143  1
  Sm3+  Sm58  1  0.00189342  0.61833747  0.05359264  1
  Sm3+  Sm59  1  0.48696763  0.63106028  0.56080441  1
  Sm3+  Sm60  1  -0.01652782  0.12493722  0.54987642  1
  Sm3+  Sm61  1  0.36093460  0.25480336  0.44157588  1
  Sm3+  Sm62  1  0.73890456  0.88459616  0.55714320  1
  Sm3+  Sm63  1  0.50659612  0.61814209  0.07090782  1
  Bi2+  Bi64  1  0.08946443  0.20963536  0.29577326  1
  Bi2+  Bi65  1  -0.04575235  0.14972650  0.75140076  1
  Bi2+  Bi66  1  0.00270687  0.44033106  0.29251664  1
  Bi2+  Bi67  1  0.02986122  0.36349530  0.79041826  1
  Bi2+  Bi68  1  0.00099299  0.64296943  0.30053301  1
  Bi2+  Bi69  1  0.05087069  0.63463263  0.77346620  1
  Bi2+  Bi70  1  -0.01668220  0.88390493  0.27981329  1
  Bi2+  Bi71  1  -0.00437742  0.88778089  0.79472967  1
  Bi2+  Bi72  1  0.27347594  0.14463566  0.31431327  1
  Bi2+  Bi73  1  0.27167698  0.10610434  0.76834227  1
  Bi2+  Bi74  1  0.26013430  0.33987833  0.26953101  1
  Bi2+  Bi75  1  0.28397072  0.39344775  0.79218894  1
  Bi2+  Bi76  1  0.27053815  0.63194385  0.29228976  1
  Bi2+  Bi77  1  0.28120546  0.62985404  0.78876213  1
  Bi2+  Bi78  1  0.23518582  0.87607491  0.28858876  1
  Bi2+  Bi79  1  0.22047771  0.87363221  0.80787521  1
  Bi2+  Bi80  1  0.47238637  0.13912125  0.30150256  1
  Bi2+  Bi81  1  0.52516535  0.07385957  0.82105049  1
  Bi2+  Bi82  1  0.47823734  0.33958939  0.30290703  1
  Bi2+  Bi83  1  0.50755661  0.43263573  0.82757198  1
  Bi2+  Bi84  1  0.51173454  0.54879517  0.27336751  1
  Bi2+  Bi85  1  0.47903621  0.62237434  0.81637078  1
  Bi2+  Bi86  1  0.54148484  0.89565188  0.25610590  1
  Bi2+  Bi87  1  0.51433567  0.88290511  0.80045519  1
  Bi2+  Bi88  1  0.78565859  0.13560786  0.29336997  1
  Bi2+  Bi89  1  0.70503535  0.12270976  0.78230260  1
  Bi2+  Bi90  1  0.74805298  0.38929953  0.29134944  1
  Bi2+  Bi91  1  0.69258052  0.38327128  0.79380772  1
  Bi2+  Bi92  1  0.78118450  0.65534264  0.31777084  1
  Bi2+  Bi93  1  0.67726091  0.63547697  0.77382387  1
  Bi2+  Bi94  1  0.72338900  0.86122159  0.29882387  1
  Bi2+  Bi95  1  0.75583003  0.86918897  0.78502225  1
  Bi2+  Bi96  1  0.15331062  0.07643360  0.22483265  1
  Bi2+  Bi97  1  0.10340756  0.00077285  0.69000646  1
  Bi2+  Bi98  1  0.19392973  0.24642591  0.17408013  1
  Bi2+  Bi99  1  0.21904376  0.25652185  0.70438306  1
  Bi2+  Bi100  1  0.11375475  0.49707796  0.19988809  1
  Bi2+  Bi101  1  0.15970883  0.49329096  0.69208432  1
  Bi2+  Bi102  1  0.09981942  0.74863580  0.19541834  1
  Bi2+  Bi103  1  0.12260364  0.75040631  0.69562891  1
  Bi2+  Bi104  1  0.40378071  0.02241565  0.20906498  1
  Bi2+  Bi105  1  0.41176957  -0.00123715  0.72117047  1
  Bi2+  Bi106  1  0.37952486  0.22004530  0.20290988  1
  Bi2+  Bi107  1  0.43521726  0.21361933  0.76001475  1
  Bi2+  Bi108  1  0.40289984  0.43750139  0.20512550  1
  Bi2+  Bi109  1  0.42504000  0.49480997  0.73025507  1
  Bi2+  Bi110  1  0.41469774  0.75434345  0.21488999  1
  Bi2+  Bi111  1  0.39842178  0.76003020  0.74002097  1
  Bi2+  Bi112  1  0.64605724  0.04095389  0.20482608  1
  Bi2+  Bi113  1  0.60482865  0.00724080  0.70637595  1
  Bi2+  Bi114  1  0.62837322  0.23832090  0.25899887  1
  Bi2+  Bi115  1  0.60818375  0.27579779  0.70894131  1
  Bi2+  Bi116  1  0.65739915  0.48109737  0.20490608  1
  Bi2+  Bi117  1  0.66342275  0.49253608  0.69547936  1
  Bi2+  Bi118  1  0.67057176  0.75196966  0.20730710  1
  Bi2+  Bi119  1  0.58531695  0.78037163  0.69706563  1
  Bi2+  Bi120  1  0.89358530  0.02129806  0.18755721  1
  Bi2+  Bi121  1  0.84074146  -0.06788922  0.69256706  1
  Bi2+  Bi122  1  0.89301103  0.27521568  0.19418013  1
  Bi2+  Bi123  1  0.79476397  0.21710490  0.69566174  1
  Bi2+  Bi124  1  0.85996443  0.54344066  0.23479594  1
  Bi2+  Bi125  1  0.87862426  0.50333837  0.71099881  1
  Bi2+  Bi126  1  0.86188444  0.74073744  0.22067778  1
  Bi2+  Bi127  1  0.86459676  0.68758655  0.74986250  1
  S2-  S128  1  -0.01207034  0.13733454  0.14997645  1
  S2-  S129  1  -0.00130160  0.10523732  0.64965248  1
  S2-  S130  1  0.00820365  0.37031027  0.15755114  1
  S2-  S131  1  0.10062886  0.33797862  0.65403611  1
  S2-  S132  1  0.01699310  0.61323829  0.15177621  1
  S2-  S133  1  0.01698746  0.51962775  0.64737862  1
  S2-  S134  1  0.01155707  0.89760480  0.16163378  1
  S2-  S135  1  -0.00397791  0.86296463  0.65922455  1
  S2-  S136  1  0.25760330  0.02408365  0.14877888  1
  S2-  S137  1  0.23274588  0.09617074  0.65457899  1
  S2-  S138  1  0.25240800  0.46018573  0.14482360  1
  S2-  S139  1  0.30072253  0.39690833  0.66368220  1
  S2-  S140  1  0.21376662  0.63490893  0.19009414  1
  S2-  S141  1  0.22919754  0.63637274  0.65053597  1
  S2-  S142  1  0.24980937  0.82729286  0.18440987  1
  S2-  S143  1  0.21958955  0.87240528  0.66404083  1
  S2-  S144  1  0.53023205  0.11660373  0.15284195  1
  S2-  S145  1  0.49304109  0.10882255  0.65234359  1
  S2-  S146  1  0.54126262  0.37575786  0.15618941  1
  S2-  S147  1  0.52262299  0.39984933  0.65584854  1
  S2-  S148  1  0.41847304  0.62728469  0.15668668  1
  S2-  S149  1  0.58216710  0.63004928  0.64407471  1
  S2-  S150  1  0.47467659  0.88177356  0.15356298  1
  S2-  S151  1  0.44948539  0.82097557  0.64224539  1
  S2-  S152  1  0.77831270  0.14625085  0.16119425  1
  S2-  S153  1  0.75182351  0.05469749  0.64635226  1
  S2-  S154  1  0.78119319  0.36795184  0.15252461  1
  S2-  S155  1  0.84918315  0.36751713  0.65078347  1
  S2-  S156  1  0.63928945  0.61974279  0.14157238  1
  S2-  S157  1  0.86861714  0.64838185  0.65068526  1
  S2-  S158  1  0.75872314  0.92391498  0.15957529  1
  S2-  S159  1  0.73844570  0.81454942  0.64690698  1
  S2-  S160  1  0.10275181  -0.07130972  0.34521340  1
  S2-  S161  1  0.10839358  -0.01541885  0.84277858  1
  S2-  S162  1  0.09851626  0.35039373  0.36069060  1
  S2-  S163  1  0.17048482  0.30227091  0.83740100  1
  S2-  S164  1  0.13723395  0.54026704  0.33008133  1
  S2-  S165  1  0.03125367  0.50184617  0.84576767  1
  S2-  S166  1  0.14871588  0.73903676  0.33115027  1
  S2-  S167  1  0.07864384  0.75993544  0.84269533  1
  S2-  S168  1  0.32032115  -0.01604807  0.34633543  1
  S2-  S169  1  0.31606077  -0.02121326  0.85187888  1
  S2-  S170  1  0.34304471  0.36388994  0.36436014  1
  S2-  S171  1  0.39139506  0.29423503  0.85264597  1
  S2-  S172  1  0.38973126  0.58742454  0.35258889  1
  S2-  S173  1  0.25926125  0.51484864  0.86329791  1
  S2-  S174  1  0.36351050  0.77622986  0.31999390  1
  S2-  S175  1  0.27813253  0.74583422  0.87064896  1
  S2-  S176  1  0.70113301  0.01164608  0.35241474  1
  S2-  S177  1  0.72408895  -0.00913886  0.85356473  1
  S2-  S178  1  0.69930779  0.25871106  0.36031376  1
  S2-  S179  1  0.73294904  0.24281094  0.85704844  1
  S2-  S180  1  0.62060393  0.48433270  0.33968790  1
  S2-  S181  1  0.71880888  0.53044999  0.85199909  1
  S2-  S182  1  0.62616715  0.72345838  0.33865618  1
  S2-  S183  1  0.64248140  0.77791858  0.84249632  1
  S2-  S184  1  0.91478616  0.02214093  0.30711370  1
  S2-  S185  1  0.91421971  0.03483694  0.81317219  1
  S2-  S186  1  0.91405834  0.22449209  0.32015879  1
  S2-  S187  1  0.98048947  0.23667280  0.84881094  1
  S2-  S188  1  0.86844601  0.42214900  0.36170382  1
  S2-  S189  1  0.86886030  0.41147793  0.80270404  1
  S2-  S190  1  0.87261360  0.83759751  0.35480117  1
  S2-  S191  1  0.87204468  0.82578079  0.85996869  1
  S2-  S192  1  -0.01722254  0.12372385  0.44304773  1
  S2-  S193  1  -0.00635058  0.10932105  0.94690006  1
  S2-  S194  1  -0.01983643  0.37407666  0.46533576  1
  S2-  S195  1  -0.01105813  0.37339311  0.94820520  1
  S2-  S196  1  -0.01230312  0.62798692  0.45261316  1
  S2-  S197  1  -0.00292319  0.62096495  0.94883191  1
  S2-  S198  1  -0.01141882  0.87941376  0.45311994  1
  S2-  S199  1  0.00425395  0.86774257  0.95755964  1
  S2-  S200  1  0.24052729  0.12853187  0.45177785  1
  S2-  S201  1  0.24500668  0.12347639  0.95326068  1
  S2-  S202  1  0.23380378  0.37243653  0.46496558  1
  S2-  S203  1  0.24788407  0.36612623  0.95727216  1
  S2-  S204  1  0.23212915  0.62404125  0.44545142  1
  S2-  S205  1  0.25015762  0.61608869  0.97207957  1
  S2-  S206  1  0.24073862  0.87294980  0.45284373  1
  S2-  S207  1  0.25080547  0.87270695  0.97155513  1
  S2-  S208  1  0.48556043  0.12981662  0.44804788  1
  S2-  S209  1  0.49935948  0.12250669  0.95180613  1
  S2-  S210  1  0.49144282  0.37243622  0.45556208  1
  S2-  S211  1  0.50288942  0.36906942  0.95587581  1
  S2-  S212  1  0.49023222  0.62728450  0.45608108  1
  S2-  S213  1  0.49788181  0.61759109  0.96126742  1
  S2-  S214  1  0.48553946  0.87682904  0.44131806  1
  S2-  S215  1  0.49466326  0.86754960  0.94998807  1
  S2-  S216  1  0.74057440  0.12743593  0.45367489  1
  S2-  S217  1  0.74894659  0.11487373  0.95506582  1
  S2-  S218  1  0.73515138  0.37679623  0.46506218  1
  S2-  S219  1  0.75415956  0.37876947  0.94995055  1
  S2-  S220  1  0.73659990  0.62887863  0.45741862  1
  S2-  S221  1  0.75384996  0.62205705  0.95632686  1
  S2-  S222  1  0.73590484  0.87746316  0.45302035  1
  S2-  S223  1  0.74573809  0.86687477  0.95932791  1
  S2-  S224  1  0.12039803  -0.00119431  0.05012092  1
  S2-  S225  1  0.11242121  0.00175366  0.54318222  1
  S2-  S226  1  0.11787507  0.24252276  0.03793522  1
  S2-  S227  1  0.10749452  0.24526198  0.54656462  1
  S2-  S228  1  0.12049567  0.49246312  0.04395733  1
  S2-  S229  1  0.10954038  0.50321281  0.54057022  1
  S2-  S230  1  0.12676008  0.74370558  0.05451993  1
  S2-  S231  1  0.10868473  0.75063316  0.54169917  1
  S2-  S232  1  0.37777313  0.00103072  0.04898175  1
  S2-  S233  1  0.36115471  0.00120444  0.54678105  1
  S2-  S234  1  0.37598528  0.24443164  0.05276948  1
  S2-  S235  1  0.36256809  0.25518400  0.54873667  1
  S2-  S236  1  0.38015744  0.49265354  0.04644923  1
  S2-  S237  1  0.36594424  0.50401985  0.54717371  1
  S2-  S238  1  0.37454085  0.74525165  0.05755105  1
  S2-  S239  1  0.36095774  0.74621216  0.53527654  1
  S2-  S240  1  0.62275025  -0.00555022  0.04520533  1
  S2-  S241  1  0.61112211  0.00245020  0.54342242  1
  S2-  S242  1  0.62798025  0.24484328  0.04601722  1
  S2-  S243  1  0.61119849  0.25411086  0.55148931  1
  S2-  S244  1  0.62743930  0.49175524  0.04219424  1
  S2-  S245  1  0.61092597  0.50221794  0.54750873  1
  S2-  S246  1  0.62270011  0.74844225  0.04765758  1
  S2-  S247  1  0.61284527  0.75584050  0.54188199  1
  S2-  S248  1  0.87489015  -0.00787131  0.04498276  1
  S2-  S249  1  0.86292945  0.00162956  0.53949239  1
  S2-  S250  1  0.87091183  0.24297171  0.03758377  1
  S2-  S251  1  0.86235962  0.24869632  0.54645346  1
  S2-  S252  1  0.87345183  0.49789437  0.05252511  1
  S2-  S253  1  0.85250483  0.50947047  0.55286083  1
  S2-  S254  1  0.87431209  0.74334306  0.05551335  1
  S2-  S255  1  0.86152230  0.75751010  0.54426821  1
