# generated using pymatgen
data_La12Ce14Pr13Nd13Sm12(BiS2)64
_symmetry_space_group_name_H-M   'P 1'
_cell_length_a   16.17893234
_cell_length_b   16.22961405
_cell_length_c   27.07258634
_cell_angle_alpha   89.96383750
_cell_angle_beta   89.80019845
_cell_angle_gamma   90.07982104
_symmetry_Int_Tables_number   1
_chemical_formula_structural   La12Ce14Pr13Nd13Sm12(BiS2)64
_chemical_formula_sum   'La12 Ce14 Pr13 Nd13 Sm12 Bi64 S128'
_cell_volume   7108.60935159
_cell_formula_units_Z   1
loop_
 _symmetry_equiv_pos_site_id
 _symmetry_equiv_pos_as_xyz
  1  'x, y, z'
loop_
 _atom_type_symbol
 _atom_type_oxidation_number
  La3+  3.0
  Ce3+  3.0
  Pr3+  3.0
  Nd3+  3.0
  Sm3+  3.0
  Bi2+  2.0
  S2-  -2.0
loop_
 _atom_site_type_symbol
 _atom_site_label
 _atom_site_symmetry_multiplicity
 _atom_site_fract_x
 _atom_site_fract_y
 _atom_site_fract_z
 _atom_site_occupancy
  La3+  La0  1  0.23989303  0.38938305  0.56917129  1
  La3+  La1  1  0.85774404  0.01773821  0.40850735  1
  La3+  La2  1  0.73696460  0.12476131  0.58623675  1
  La3+  La3  1  0.88816933  0.25283531  0.90979429  1
  La3+  La4  1  0.00143037  0.62906454  0.11026007  1
  La3+  La5  1  0.37263606  0.49900405  0.42126925  1
  La3+  La6  1  -0.00803982  0.88140453  0.07983604  1
  La3+  La7  1  0.23602043  0.63749834  0.56906743  1
  La3+  La8  1  0.88738226  -0.01255647  0.91849106  1
  La3+  La9  1  0.37059128  0.76527121  0.41705483  1
  La3+  La10  1  0.26366047  0.61391845  0.08954461  1
  La3+  La11  1  0.48612814  0.38612951  0.57155736  1
  Ce3+  Ce12  1  0.86608780  0.75865402  0.43848866  1
  Ce3+  Ce13  1  -0.01329350  0.63318221  0.55974652  1
  Ce3+  Ce14  1  0.11546515  0.25614593  0.44697682  1
  Ce3+  Ce15  1  0.25208437  0.37322892  0.06423095  1
  Ce3+  Ce16  1  0.12212907  -0.00417615  0.94821392  1
  Ce3+  Ce17  1  0.50164634  0.87374099  0.05903634  1
  Ce3+  Ce18  1  0.62459891  0.49801477  0.94029598  1
  Ce3+  Ce19  1  0.37585688  0.74655648  0.94836763  1
  Ce3+  Ce20  1  0.12021620  0.50937047  0.43972976  1
  Ce3+  Ce21  1  0.36694325  0.00971140  0.43290694  1
  Ce3+  Ce22  1  0.74152644  0.38010788  0.56144268  1
  Ce3+  Ce23  1  0.50256234  0.62136632  0.05680457  1
  Ce3+  Ce24  1  0.12531833  0.24824169  0.94440680  1
  Ce3+  Ce25  1  0.13043573  0.50109140  0.95217730  1
  Pr3+  Pr26  1  0.86490116  0.25476975  0.44433629  1
  Pr3+  Pr27  1  0.88046604  0.74524887  0.94334836  1
  Pr3+  Pr28  1  0.62617423  0.24760873  0.92797716  1
  Pr3+  Pr29  1  0.74154910  0.88051383  0.56311894  1
  Pr3+  Pr30  1  0.50207747  0.12114944  0.05209594  1
  Pr3+  Pr31  1  0.24272778  0.88039698  0.56232795  1
  Pr3+  Pr32  1  0.48676864  0.13076973  0.56638102  1
  Pr3+  Pr33  1  0.48829100  0.87918744  0.55618966  1
  Pr3+  Pr34  1  0.87833239  0.49887056  0.93537504  1
  Pr3+  Pr35  1  0.86766170  0.50900052  0.43446340  1
  Pr3+  Pr36  1  -0.00165059  0.37375422  0.06508257  1
  Pr3+  Pr37  1  0.37353547  -0.00638890  0.93759850  1
  Pr3+  Pr38  1  -0.00648366  0.12505977  0.06858209  1
  Nd3+  Nd39  1  0.37503450  0.24751352  0.93803483  1
  Nd3+  Nd40  1  0.61971125  0.75710992  0.44132473  1
  Nd3+  Nd41  1  -0.01085541  0.88408063  0.55442739  1
  Nd3+  Nd42  1  0.75391099  0.62038547  0.06332603  1
  Nd3+  Nd43  1  0.50293101  0.36896500  0.05988572  1
  Nd3+  Nd44  1  0.12848693  0.74192413  0.95745800  1
  Nd3+  Nd45  1  0.36744815  0.25504986  0.44120863  1
  Nd3+  Nd46  1  -0.00964806  0.13074198  0.56642722  1
  Nd3+  Nd47  1  0.11521991  0.00765178  0.44459984  1
  Nd3+  Nd48  1  0.75641767  0.12434687  0.04455939  1
  Nd3+  Nd49  1  0.48747276  0.63215835  0.55233508  1
  Nd3+  Nd50  1  -0.01188572  0.38104728  0.55777042  1
  Nd3+  Nd51  1  0.11514945  0.75890583  0.43098392  1
  Sm3+  Sm52  1  0.75388424  0.87269637  0.05267254  1
  Sm3+  Sm53  1  0.24285387  0.13185597  0.55733448  1
  Sm3+  Sm54  1  0.25176648  0.12195454  0.05543403  1
  Sm3+  Sm55  1  0.62924525  -0.00277743  0.93831043  1
  Sm3+  Sm56  1  0.74512473  0.63125860  0.56466121  1
  Sm3+  Sm57  1  0.75398025  0.37108004  0.04721640  1
  Sm3+  Sm58  1  0.37533598  0.49698822  0.93885960  1
  Sm3+  Sm59  1  0.62526829  0.74669682  0.94497734  1
  Sm3+  Sm60  1  0.61807302  0.50666596  0.44898055  1
  Sm3+  Sm61  1  0.61785960  0.25569734  0.45254913  1
  Sm3+  Sm62  1  0.61911105  0.01024442  0.44571692  1
  Sm3+  Sm63  1  0.25065021  0.87112072  0.06675949  1
  Bi2+  Bi64  1  0.01039828  0.12060757  0.30413604  1
  Bi2+  Bi65  1  -0.02116524  0.10949750  0.79481896  1
  Bi2+  Bi66  1  -0.00616787  0.32956989  0.27974724  1
  Bi2+  Bi67  1  0.02247015  0.40491262  0.78521976  1
  Bi2+  Bi68  1  0.00220504  0.61858941  0.30047520  1
  Bi2+  Bi69  1  -0.03147722  0.62759889  0.78363141  1
  Bi2+  Bi70  1  0.01833438  0.86641606  0.29362202  1
  Bi2+  Bi71  1  0.02358732  0.84622900  0.79755062  1
  Bi2+  Bi72  1  0.30932552  0.13482837  0.32036764  1
  Bi2+  Bi73  1  0.25418849  0.09837952  0.79337089  1
  Bi2+  Bi74  1  0.25776718  0.31538107  0.29091169  1
  Bi2+  Bi75  1  0.26471352  0.38359457  0.80386715  1
  Bi2+  Bi76  1  0.24156620  0.62321845  0.28898251  1
  Bi2+  Bi77  1  0.21825819  0.62763682  0.81083015  1
  Bi2+  Bi78  1  0.25284543  0.96231721  0.27846487  1
  Bi2+  Bi79  1  0.28042194  0.90392187  0.80388078  1
  Bi2+  Bi80  1  0.49584661  0.16351556  0.29344028  1
  Bi2+  Bi81  1  0.46893246  0.06984848  0.74366845  1
  Bi2+  Bi82  1  0.53395228  0.35959134  0.29950191  1
  Bi2+  Bi83  1  0.51344947  0.36843137  0.79416089  1
  Bi2+  Bi84  1  0.51225034  0.62605345  0.30288191  1
  Bi2+  Bi85  1  0.52301097  0.63417730  0.74035505  1
  Bi2+  Bi86  1  0.51014253  0.96752914  0.28777234  1
  Bi2+  Bi87  1  0.48833853  0.77528493  0.81672093  1
  Bi2+  Bi88  1  0.72852049  0.13455001  0.29130276  1
  Bi2+  Bi89  1  0.71503094  0.10426862  0.78799158  1
  Bi2+  Bi90  1  0.72160371  0.35786513  0.24958220  1
  Bi2+  Bi91  1  0.75507408  0.44420148  0.78461063  1
  Bi2+  Bi92  1  0.75138345  0.63194989  0.28787459  1
  Bi2+  Bi93  1  0.77800097  0.62843925  0.80384122  1
  Bi2+  Bi94  1  0.68024031  0.86171879  0.28389954  1
  Bi2+  Bi95  1  0.75498762  0.83379527  0.78346719  1
  Bi2+  Bi96  1  0.13647371  0.09336134  0.22063030  1
  Bi2+  Bi97  1  0.14309545  -0.02684141  0.72753328  1
  Bi2+  Bi98  1  0.07167633  0.25961956  0.17399078  1
  Bi2+  Bi99  1  0.14004505  0.24922424  0.76616364  1
  Bi2+  Bi100  1  0.13798889  0.42047287  0.22435309  1
  Bi2+  Bi101  1  0.12327342  0.55317993  0.72229157  1
  Bi2+  Bi102  1  0.14540759  0.78024694  0.21059885  1
  Bi2+  Bi103  1  0.12790385  0.78569668  0.69884380  1
  Bi2+  Bi104  1  0.38356602  0.00190302  0.19503970  1
  Bi2+  Bi105  1  0.32569198  -0.01577355  0.67897777  1
  Bi2+  Bi106  1  0.36676535  0.24578837  0.20922649  1
  Bi2+  Bi107  1  0.37558607  0.21166012  0.69675668  1
  Bi2+  Bi108  1  0.39157459  0.48445002  0.21075654  1
  Bi2+  Bi109  1  0.37074006  0.47933915  0.70185109  1
  Bi2+  Bi110  1  0.44374234  0.74117451  0.21996272  1
  Bi2+  Bi111  1  0.36998827  0.79525539  0.72143565  1
  Bi2+  Bi112  1  0.65506598  0.00693602  0.20951044  1
  Bi2+  Bi113  1  0.58035896  -0.09513055  0.74683718  1
  Bi2+  Bi114  1  0.63036112  0.19988028  0.19714346  1
  Bi2+  Bi115  1  0.62051741  0.27984466  0.71499118  1
  Bi2+  Bi116  1  0.63254879  0.52898432  0.22066417  1
  Bi2+  Bi117  1  0.68653780  0.55364314  0.69875312  1
  Bi2+  Bi118  1  0.64023293  0.72342689  0.20009276  1
  Bi2+  Bi119  1  0.66993941  0.74695320  0.68404248  1
  Bi2+  Bi120  1  0.88026612  0.01191214  0.20394611  1
  Bi2+  Bi121  1  0.87458234  -0.00479937  0.69139446  1
  Bi2+  Bi122  1  0.87956288  0.25198165  0.19985894  1
  Bi2+  Bi123  1  0.88627830  0.25403779  0.70577558  1
  Bi2+  Bi124  1  0.86331751  0.48620325  0.21151249  1
  Bi2+  Bi125  1  0.91263478  0.48812076  0.70107740  1
  Bi2+  Bi126  1  0.83596126  0.76249851  0.21512871  1
  Bi2+  Bi127  1  0.87027898  0.75118505  0.70585841  1
  S2-  S128  1  0.01569753  0.01398068  0.15090022  1
  S2-  S129  1  -0.01497932  0.12748706  0.66712958  1
  S2-  S130  1  -0.00961657  0.46549932  0.15177201  1
  S2-  S131  1  0.00475494  0.36473929  0.65701845  1
  S2-  S132  1  0.06502852  0.62627634  0.21260958  1
  S2-  S133  1  0.08724847  0.65271401  0.63956051  1
  S2-  S134  1  -0.00816593  0.78695512  0.16547269  1
  S2-  S135  1  -0.02180089  0.86831475  0.65474179  1
  S2-  S136  1  0.27197997  0.13193927  0.15382880  1
  S2-  S137  1  0.24083774  0.13270946  0.65525911  1
  S2-  S138  1  0.25767537  0.46205166  0.15081394  1
  S2-  S139  1  0.29661435  0.33812517  0.66315156  1
  S2-  S140  1  0.26371735  0.67745118  0.18669662  1
  S2-  S141  1  0.24612356  0.51987099  0.64559425  1
  S2-  S142  1  0.24581945  0.89974095  0.16390422  1
  S2-  S143  1  0.26500721  0.76589320  0.63927290  1
  S2-  S144  1  0.49905737  0.11879018  0.15215905  1
  S2-  S145  1  0.55312835  0.14264930  0.66036516  1
  S2-  S146  1  0.47087227  0.36433860  0.15907604  1
  S2-  S147  1  0.51595356  0.38401850  0.67245827  1
  S2-  S148  1  0.44261174  0.60393426  0.14825380  1
  S2-  S149  1  0.45016120  0.60626445  0.64869474  1
  S2-  S150  1  0.47595086  0.87206660  0.15655363  1
  S2-  S151  1  0.48161159  0.88336908  0.65723604  1
  S2-  S152  1  0.84469428  0.13086576  0.13080859  1
  S2-  S153  1  0.77710563  0.13771537  0.68691996  1
  S2-  S154  1  0.77340578  0.37539915  0.14527926  1
  S2-  S155  1  0.75274698  0.33610034  0.65690679  1
  S2-  S156  1  0.83832254  0.62333624  0.15100703  1
  S2-  S157  1  0.86857283  0.62520865  0.63554835  1
  S2-  S158  1  0.81709105  0.89408223  0.14297567  1
  S2-  S159  1  0.73489491  0.96356478  0.65127819  1
  S2-  S160  1  0.11199714  -0.01589308  0.34562051  1
  S2-  S161  1  0.04439224  -0.00924252  0.86085209  1
  S2-  S162  1  0.10329888  0.24443558  0.34902934  1
  S2-  S163  1  0.04638810  0.23706336  0.85759509  1
  S2-  S164  1  0.11910171  0.51958024  0.34082913  1
  S2-  S165  1  0.13258134  0.48101042  0.85332996  1
  S2-  S166  1  0.14098007  0.75181118  0.33093398  1
  S2-  S167  1  0.10669886  0.73665749  0.85631300  1
  S2-  S168  1  0.37041931  -0.08522519  0.35173703  1
  S2-  S169  1  0.39630353  0.02176662  0.83893648  1
  S2-  S170  1  0.38948119  0.34961815  0.35974996  1
  S2-  S171  1  0.38270277  0.27855706  0.83926073  1
  S2-  S172  1  0.36201287  0.52850044  0.31657977  1
  S2-  S173  1  0.35039086  0.51549159  0.84029700  1
  S2-  S174  1  0.36483961  0.72379881  0.31654932  1
  S2-  S175  1  0.32062447  0.73985439  0.85533243  1
  S2-  S176  1  0.70167300  0.01043047  0.35913985  1
  S2-  S177  1  0.62549485  -0.00510835  0.84012539  1
  S2-  S178  1  0.62793315  0.24399618  0.35431417  1
  S2-  S179  1  0.61364702  0.23918860  0.82595201  1
  S2-  S180  1  0.59360670  0.48967630  0.35242171  1
  S2-  S181  1  0.59594520  0.48175507  0.84315975  1
  S2-  S182  1  0.57722696  0.76743689  0.34555623  1
  S2-  S183  1  0.65132251  0.73175343  0.84783332  1
  S2-  S184  1  0.89917537  -0.02878020  0.30783185  1
  S2-  S185  1  0.84232282  0.02057367  0.81785232  1
  S2-  S186  1  0.86407393  0.17212656  0.35566568  1
  S2-  S187  1  0.84602768  0.21527578  0.80825343  1
  S2-  S188  1  0.86371163  0.52122472  0.33336969  1
  S2-  S189  1  0.88526731  0.40567686  0.84983004  1
  S2-  S190  1  0.91272690  0.75858564  0.34329117  1
  S2-  S191  1  0.88589530  0.83348000  0.85643761  1
  S2-  S192  1  -0.01014159  0.12867852  0.45826575  1
  S2-  S193  1  0.00162409  0.12300584  0.95936937  1
  S2-  S194  1  -0.00939546  0.38207078  0.44901461  1
  S2-  S195  1  0.00596868  0.37693575  0.95712055  1
  S2-  S196  1  -0.00768359  0.63323510  0.45037109  1
  S2-  S197  1  0.00204112  0.62062026  0.95382153  1
  S2-  S198  1  -0.01475851  0.88911836  0.44743090  1
  S2-  S199  1  0.00677719  0.86590072  0.96749472  1
  S2-  S200  1  0.24015558  0.13222095  0.45252045  1
  S2-  S201  1  0.25023146  0.12198281  0.94937776  1
  S2-  S202  1  0.24045194  0.38003684  0.45519797  1
  S2-  S203  1  0.25429874  0.37220811  0.95587712  1
  S2-  S204  1  0.24517662  0.63474893  0.44292831  1
  S2-  S205  1  0.25760913  0.61954608  0.96728318  1
  S2-  S206  1  0.23900382  0.88323801  0.45243321  1
  S2-  S207  1  0.24906227  0.87146029  0.96009278  1
  S2-  S208  1  0.49381023  0.13234206  0.45575104  1
  S2-  S209  1  0.50193939  0.12083794  0.94485396  1
  S2-  S210  1  0.49874143  0.38088325  0.46267540  1
  S2-  S211  1  0.49916052  0.37152327  0.95181781  1
  S2-  S212  1  0.49363285  0.63099074  0.44582813  1
  S2-  S213  1  0.50022167  0.62176834  0.94983958  1
  S2-  S214  1  0.49890577  0.88571835  0.45017062  1
  S2-  S215  1  0.50482543  0.87353553  0.95135235  1
  S2-  S216  1  0.73936598  0.13308823  0.46669883  1
  S2-  S217  1  0.75343317  0.12316686  0.93838453  1
  S2-  S218  1  0.74066495  0.38214763  0.45203187  1
  S2-  S219  1  0.74843862  0.37231454  0.94257147  1
  S2-  S220  1  0.74158237  0.63116438  0.45564937  1
  S2-  S221  1  0.74980253  0.62303430  0.95569390  1
  S2-  S222  1  0.74298546  0.88368472  0.45461833  1
  S2-  S223  1  0.74722508  0.87090331  0.94917181  1
  S2-  S224  1  0.13174859  -0.00090498  0.05230403  1
  S2-  S225  1  0.11831182  0.00739124  0.55221597  1
  S2-  S226  1  0.12872966  0.24644739  0.04907191  1
  S2-  S227  1  0.11727271  0.25541751  0.55383636  1
  S2-  S228  1  0.12528623  0.50232779  0.05691936  1
  S2-  S229  1  0.11004081  0.50653214  0.54426725  1
  S2-  S230  1  0.13041683  0.74333160  0.06506078  1
  S2-  S231  1  0.11367126  0.76322957  0.53700989  1
  S2-  S232  1  0.37349927  -0.00339132  0.04607471  1
  S2-  S233  1  0.36527939  0.00730715  0.54183509  1
  S2-  S234  1  0.37591491  0.24622848  0.04551548  1
  S2-  S235  1  0.36552185  0.25640679  0.54778733  1
  S2-  S236  1  0.38173882  0.49221172  0.04446252  1
  S2-  S237  1  0.36608833  0.50835768  0.53602445  1
  S2-  S238  1  0.37632660  0.74891594  0.05461232  1
  S2-  S239  1  0.36842486  0.75672904  0.53178303  1
  S2-  S240  1  0.63123298  -0.00222912  0.04539150  1
  S2-  S241  1  0.61206943  0.00573742  0.54993824  1
  S2-  S242  1  0.62871395  0.24724693  0.03845981  1
  S2-  S243  1  0.61420714  0.25716088  0.55647391  1
  S2-  S244  1  0.62781598  0.49432719  0.04957922  1
  S2-  S245  1  0.61811795  0.50988548  0.55437026  1
  S2-  S246  1  0.62895659  0.74851422  0.05062292  1
  S2-  S247  1  0.61733168  0.75301420  0.54800745  1
  S2-  S248  1  0.87300177  -0.00384991  0.03167012  1
  S2-  S249  1  0.86655756  0.00873034  0.55222355  1
  S2-  S250  1  0.87621067  0.25371175  0.03136813  1
  S2-  S251  1  0.86563893  0.25316174  0.55168273  1
  S2-  S252  1  0.87221247  0.49642546  0.04206076  1
  S2-  S253  1  0.86292613  0.50184093  0.54157556  1
  S2-  S254  1  0.87559218  0.74578520  0.04925871  1
  S2-  S255  1  0.86454546  0.76001530  0.54334879  1
