# generated using pymatgen
data_La12Ce14Pr13Nd13Sm12(BiS2)64
_symmetry_space_group_name_H-M   'P 1'
_cell_length_a   16.14328676
_cell_length_b   16.15147558
_cell_length_c   27.29338568
_cell_angle_alpha   90.12704436
_cell_angle_beta   90.18800588
_cell_angle_gamma   89.98570697
_symmetry_Int_Tables_number   1
_chemical_formula_structural   La12Ce14Pr13Nd13Sm12(BiS2)64
_chemical_formula_sum   'La12 Ce14 Pr13 Nd13 Sm12 Bi64 S128'
_cell_volume   7116.36410286
_cell_formula_units_Z   1
loop_
 _symmetry_equiv_pos_site_id
 _symmetry_equiv_pos_as_xyz
  1  'x, y, z'
loop_
 _atom_type_symbol
 _atom_type_oxidation_number
  La3+  3.0
  Ce3+  3.0
  Pr3+  3.0
  Nd3+  3.0
  Sm3+  3.0
  Bi2+  2.0
  S2-  -2.0
loop_
 _atom_site_type_symbol
 _atom_site_label
 _atom_site_symmetry_multiplicity
 _atom_site_fract_x
 _atom_site_fract_y
 _atom_site_fract_z
 _atom_site_occupancy
  La3+  La0  1  0.86591227  0.24405090  0.42174977  1
  La3+  La1  1  0.25779931  0.38468437  0.07103782  1
  La3+  La2  1  0.01235806  0.63333611  0.05977414  1
  La3+  La3  1  0.25133221  0.61768766  0.58370880  1
  La3+  La4  1  0.25069639  0.12473133  0.56671920  1
  La3+  La5  1  -0.01624485  0.63477736  0.59008487  1
  La3+  La6  1  0.36622465  0.25152843  0.42767222  1
  La3+  La7  1  0.76050568  0.37930321  0.06908260  1
  La3+  La8  1  -0.01240218  0.36930164  0.57881695  1
  La3+  La9  1  0.36299686  -0.01109096  0.41479908  1
  La3+  La10  1  0.01490308  0.38306352  0.09677192  1
  La3+  La11  1  0.00420767  0.88635606  0.57805974  1
  Ce3+  Ce12  1  -0.00802188  0.12053162  0.55344950  1
  Ce3+  Ce13  1  0.26142876  0.88040721  0.05357259  1
  Ce3+  Ce14  1  0.63132743  0.50605283  0.94501515  1
  Ce3+  Ce15  1  0.74061603  0.12038331  0.55261132  1
  Ce3+  Ce16  1  0.88588500  0.50318205  0.94406957  1
  Ce3+  Ce17  1  0.11701540  0.25138593  0.44209625  1
  Ce3+  Ce18  1  0.87716322  0.74853356  0.44241476  1
  Ce3+  Ce19  1  0.61772119  0.74697354  0.44027512  1
  Ce3+  Ce20  1  0.00933779  0.13027343  0.06561204  1
  Ce3+  Ce21  1  0.13146725  0.75140865  0.92700323  1
  Ce3+  Ce22  1  0.63414071  0.25607461  0.94781116  1
  Ce3+  Ce23  1  0.24489376  0.36996382  0.56723282  1
  Ce3+  Ce24  1  0.88454405  0.00257948  0.94737039  1
  Ce3+  Ce25  1  0.74254791  0.62724813  0.56020819  1
  Pr3+  Pr26  1  0.88483537  0.75299727  0.92715434  1
  Pr3+  Pr27  1  0.38199845  0.25357601  0.92869254  1
  Pr3+  Pr28  1  0.62309691  0.49781391  0.44211791  1
  Pr3+  Pr29  1  0.13907560  0.49411441  0.91713862  1
  Pr3+  Pr30  1  0.63393601  0.75408578  0.91075800  1
  Pr3+  Pr31  1  0.63416804  0.00236856  0.93073388  1
  Pr3+  Pr32  1  0.74181933  0.36836161  0.56429092  1
  Pr3+  Pr33  1  0.38358342  0.00521396  0.92722892  1
  Pr3+  Pr34  1  0.75972592  0.63275948  0.05943740  1
  Pr3+  Pr35  1  0.61548255  -0.00559828  0.43291614  1
  Pr3+  Pr36  1  0.75709369  0.12906459  0.06088137  1
  Pr3+  Pr37  1  0.35698613  0.74001180  0.42856720  1
  Pr3+  Pr38  1  0.50923790  0.62954604  0.06594135  1
  Nd3+  Nd39  1  0.01105732  0.87731548  0.06491440  1
  Nd3+  Nd40  1  0.38063299  0.75984108  0.90474093  1
  Nd3+  Nd41  1  0.50615383  0.12800968  0.05747473  1
  Nd3+  Nd42  1  0.25929195  0.63010915  0.05114943  1
  Nd3+  Nd43  1  0.38478106  0.50715528  0.93625348  1
  Nd3+  Nd44  1  0.74125721  0.87545457  0.55357183  1
  Nd3+  Nd45  1  0.36233794  0.50044862  0.43727605  1
  Nd3+  Nd46  1  0.13222178  0.00268203  0.94055993  1
  Nd3+  Nd47  1  0.50066532  0.38113033  0.06891354  1
  Nd3+  Nd48  1  0.25014190  0.87135102  0.56260997  1
  Nd3+  Nd49  1  0.50729412  0.87924845  0.05606934  1
  Nd3+  Nd50  1  0.11929393  -0.00508243  0.43448082  1
  Nd3+  Nd51  1  0.75810525  0.87908490  0.05761665  1
  Sm3+  Sm52  1  0.61775418  0.24816688  0.44086804  1
  Sm3+  Sm53  1  0.26116842  0.13091430  0.05500486  1
  Sm3+  Sm54  1  0.87212424  -0.00443626  0.43362586  1
  Sm3+  Sm55  1  0.48853499  0.12137007  0.54985376  1
  Sm3+  Sm56  1  0.13099710  0.25839535  0.94843833  1
  Sm3+  Sm57  1  0.48612023  0.87360639  0.55535728  1
  Sm3+  Sm58  1  0.11334154  0.49820267  0.45786127  1
  Sm3+  Sm59  1  0.49204176  0.37314651  0.55104018  1
  Sm3+  Sm60  1  0.49386246  0.62319793  0.55826356  1
  Sm3+  Sm61  1  0.88647558  0.25612118  0.94670026  1
  Sm3+  Sm62  1  0.11496734  0.74149230  0.45020192  1
  Sm3+  Sm63  1  0.87103400  0.49738560  0.45117168  1
  Bi2+  Bi64  1  0.00904836  0.04525015  0.30608363  1
  Bi2+  Bi65  1  -0.00970677  0.17898578  0.75503332  1
  Bi2+  Bi66  1  -0.00617376  0.41110181  0.31568331  1
  Bi2+  Bi67  1  -0.02132075  0.37286240  0.80848079  1
  Bi2+  Bi68  1  -0.02447131  0.65039187  0.28029410  1
  Bi2+  Bi69  1  -0.03179253  0.64032555  0.79161428  1
  Bi2+  Bi70  1  -0.05291474  0.86554323  0.32815098  1
  Bi2+  Bi71  1  0.00982740  0.91157126  0.78794619  1
  Bi2+  Bi72  1  0.19744661  0.06117921  0.25856885  1
  Bi2+  Bi73  1  0.23815988  0.09330841  0.78483665  1
  Bi2+  Bi74  1  0.20247817  0.35275665  0.26026304  1
  Bi2+  Bi75  1  0.34966893  0.34022671  0.80328859  1
  Bi2+  Bi76  1  0.22928610  0.60763653  0.30477826  1
  Bi2+  Bi77  1  0.32088898  0.61933102  0.78917815  1
  Bi2+  Bi78  1  0.26094602  0.85062876  0.28871211  1
  Bi2+  Bi79  1  0.26557712  0.88393533  0.78437821  1
  Bi2+  Bi80  1  0.52999873  0.16216304  0.30385897  1
  Bi2+  Bi81  1  0.50217889  0.07535359  0.78862948  1
  Bi2+  Bi82  1  0.37706230  0.39938548  0.31031173  1
  Bi2+  Bi83  1  0.53789756  0.33739872  0.78167702  1
  Bi2+  Bi84  1  0.51691538  0.66151928  0.30104841  1
  Bi2+  Bi85  1  0.50527265  0.55209642  0.79264532  1
  Bi2+  Bi86  1  0.52399174  0.90902893  0.29322514  1
  Bi2+  Bi87  1  0.54655681  0.80513051  0.75716300  1
  Bi2+  Bi88  1  0.78103761  0.04510941  0.27081870  1
  Bi2+  Bi89  1  0.69433844  0.10284433  0.79871440  1
  Bi2+  Bi90  1  0.74160636  0.41206250  0.31199718  1
  Bi2+  Bi91  1  0.72968671  0.37860840  0.79259245  1
  Bi2+  Bi92  1  0.78648606  0.66051086  0.26454221  1
  Bi2+  Bi93  1  0.72688968  0.60613274  0.77070417  1
  Bi2+  Bi94  1  0.76706727  0.84983559  0.28478665  1
  Bi2+  Bi95  1  0.76297941  0.86525921  0.79177712  1
  Bi2+  Bi96  1  0.11020446  -0.04524849  0.17803042  1
  Bi2+  Bi97  1  0.11745993  0.05786733  0.69608802  1
  Bi2+  Bi98  1  0.07146826  0.20722146  0.24775365  1
  Bi2+  Bi99  1  0.17217794  0.27364976  0.76967005  1
  Bi2+  Bi100  1  0.13456592  0.52040238  0.21285899  1
  Bi2+  Bi101  1  0.14485234  0.51359642  0.72136793  1
  Bi2+  Bi102  1  0.08284256  0.79816628  0.24505864  1
  Bi2+  Bi103  1  0.11305968  0.79817285  0.71858998  1
  Bi2+  Bi104  1  0.37449598  0.00538210  0.18738198  1
  Bi2+  Bi105  1  0.38488388  -0.01246691  0.71003127  1
  Bi2+  Bi106  1  0.37521399  0.23664996  0.21017969  1
  Bi2+  Bi107  1  0.36376943  0.23346902  0.69955259  1
  Bi2+  Bi108  1  0.37828346  0.50454860  0.20505663  1
  Bi2+  Bi109  1  0.39697112  0.47944750  0.70285146  1
  Bi2+  Bi110  1  0.36434584  0.70684115  0.22684743  1
  Bi2+  Bi111  1  0.37259884  0.75040743  0.71201508  1
  Bi2+  Bi112  1  0.62646801  0.02977024  0.18704881  1
  Bi2+  Bi113  1  0.59380477  -0.03389586  0.69945260  1
  Bi2+  Bi114  1  0.53846556  0.33651002  0.25647545  1
  Bi2+  Bi115  1  0.60049152  0.16668755  0.70086248  1
  Bi2+  Bi116  1  0.60019905  0.52355867  0.23214237  1
  Bi2+  Bi117  1  0.63839106  0.46481352  0.70271165  1
  Bi2+  Bi118  1  0.54691688  0.70377040  0.19167558  1
  Bi2+  Bi119  1  0.60217000  0.65863471  0.68764396  1
  Bi2+  Bi120  1  0.92837299  0.01286597  0.19652175  1
  Bi2+  Bi121  1  0.86013626  0.02689157  0.75104865  1
  Bi2+  Bi122  1  0.83878102  0.26112337  0.21231341  1
  Bi2+  Bi123  1  0.80368464  0.23827283  0.72399286  1
  Bi2+  Bi124  1  0.85569369  0.51424769  0.19581267  1
  Bi2+  Bi125  1  0.90921845  0.45500920  0.71251032  1
  Bi2+  Bi126  1  0.87518742  0.82186377  0.18289546  1
  Bi2+  Bi127  1  0.81591801  0.76412699  0.70007198  1
  S2-  S128  1  -0.00948882  0.19017911  0.15698093  1
  S2-  S129  1  -0.01907855  0.03632767  0.63892545  1
  S2-  S130  1  -0.05491464  0.37557202  0.19627526  1
  S2-  S131  1  0.04962705  0.38501656  0.67691611  1
  S2-  S132  1  0.00774039  0.54074339  0.14651613  1
  S2-  S133  1  0.00748095  0.58585782  0.69030721  1
  S2-  S134  1  0.01262377  0.75769441  0.13751460  1
  S2-  S135  1  -0.02950971  0.78369301  0.65640334  1
  S2-  S136  1  0.26768245  0.13935126  0.15323703  1
  S2-  S137  1  0.23648137  0.24939685  0.64176160  1
  S2-  S138  1  0.15912045  0.37705259  0.15702989  1
  S2-  S139  1  0.25654839  0.47105343  0.64753893  1
  S2-  S140  1  0.25851702  0.58276305  0.14814072  1
  S2-  S141  1  0.19559725  0.67095857  0.67996767  1
  S2-  S142  1  0.27284755  0.89065229  0.15223539  1
  S2-  S143  1  0.15623220  0.90921941  0.64621334  1
  S2-  S144  1  0.49408235  0.13754308  0.15727911  1
  S2-  S145  1  0.39353265  0.10615897  0.63301191  1
  S2-  S146  1  0.38027178  0.35671231  0.14404468  1
  S2-  S147  1  0.46405797  0.35127203  0.64721941  1
  S2-  S148  1  0.51812981  0.50973277  0.14185321  1
  S2-  S149  1  0.40812084  0.62586722  0.64285700  1
  S2-  S150  1  0.49860349  0.91842082  0.15512868  1
  S2-  S151  1  0.38056585  0.86935219  0.63403076  1
  S2-  S152  1  0.73024964  0.15624732  0.15878844  1
  S2-  S153  1  0.74699805  0.13404741  0.64915095  1
  S2-  S154  1  0.74526925  0.38468128  0.17007819  1
  S2-  S155  1  0.84647993  0.34596843  0.64347096  1
  S2-  S156  1  0.78539786  0.66783230  0.15725812  1
  S2-  S157  1  0.81840496  0.61869886  0.64622536  1
  S2-  S158  1  0.72409570  0.91436891  0.15386047  1
  S2-  S159  1  0.73552333  0.89191604  0.65279100  1
  S2-  S160  1  0.21756910  -0.00975891  0.35142121  1
  S2-  S161  1  0.11199297  0.01242863  0.84170149  1
  S2-  S162  1  0.11136816  0.27947341  0.34483436  1
  S2-  S163  1  0.12480151  0.33837167  0.86047063  1
  S2-  S164  1  0.12475065  0.51239380  0.35867657  1
  S2-  S165  1  0.09664784  0.55879559  0.82033600  1
  S2-  S166  1  0.20862130  0.74231624  0.36440857  1
  S2-  S167  1  0.23582840  0.74399178  0.84563313  1
  S2-  S168  1  0.42766924  0.03231224  0.31702162  1
  S2-  S169  1  0.39314659  -0.09744238  0.84445279  1
  S2-  S170  1  0.36850649  0.22644330  0.32797044  1
  S2-  S171  1  0.37866339  0.13095516  0.85367971  1
  S2-  S172  1  0.37770207  0.60564021  0.35848820  1
  S2-  S173  1  0.29018813  0.48754335  0.85277216  1
  S2-  S174  1  0.39728129  0.84620249  0.34988454  1
  S2-  S175  1  0.51021422  0.70981634  0.84231278  1
  S2-  S176  1  0.63398092  0.02935812  0.33431302  1
  S2-  S177  1  0.63160861  -0.10111876  0.84947061  1
  S2-  S178  1  0.65458170  0.27448038  0.34655045  1
  S2-  S179  1  0.64363063  0.25196133  0.85036260  1
  S2-  S180  1  0.62523546  0.52631705  0.34328394  1
  S2-  S181  1  0.65376021  0.51384951  0.84804362  1
  S2-  S182  1  0.62204615  0.79048255  0.34514662  1
  S2-  S183  1  0.77177534  0.72688492  0.84756731  1
  S2-  S184  1  0.85913806  0.09963344  0.35456357  1
  S2-  S185  1  0.87900913  -0.02931821  0.85213505  1
  S2-  S186  1  0.87411801  0.30090735  0.32294927  1
  S2-  S187  1  0.90837183  0.24069810  0.84882747  1
  S2-  S188  1  0.87327551  0.50377297  0.35166364  1
  S2-  S189  1  0.89163117  0.51591322  0.84621975  1
  S2-  S190  1  0.99559600  0.71277520  0.37377751  1
  S2-  S191  1  1.00704738  0.76463937  0.85254273  1
  S2-  S192  1  -0.00395817  0.12197599  0.44896072  1
  S2-  S193  1  0.01003935  0.13116171  0.95637538  1
  S2-  S194  1  -0.01079686  0.37190824  0.46017387  1
  S2-  S195  1  0.00628945  0.37862355  0.95895074  1
  S2-  S196  1  -0.00957149  0.61729283  0.47623519  1
  S2-  S197  1  0.01332061  0.62304604  0.95102193  1
  S2-  S198  1  -0.00399741  0.87730332  0.46277858  1
  S2-  S199  1  0.00943286  0.88039939  0.95846215  1
  S2-  S200  1  0.24278691  0.12703505  0.44915803  1
  S2-  S201  1  0.25172317  0.13202895  0.95095403  1
  S2-  S202  1  0.24085131  0.37608233  0.45552579  1
  S2-  S203  1  0.26105494  0.37544526  0.95863564  1
  S2-  S204  1  0.23736376  0.61599162  0.46783604  1
  S2-  S205  1  0.26291159  0.63135901  0.94762832  1
  S2-  S206  1  0.23798665  0.86940729  0.45821529  1
  S2-  S207  1  0.25884497  0.87916670  0.94824013  1
  S2-  S208  1  0.49365682  0.12406025  0.44510976  1
  S2-  S209  1  0.51203782  0.12940315  0.95086157  1
  S2-  S210  1  0.49546436  0.37556187  0.44562718  1
  S2-  S211  1  0.50660049  0.37870843  0.95272673  1
  S2-  S212  1  0.49738809  0.62137338  0.45566945  1
  S2-  S213  1  0.50689510  0.63180437  0.95638708  1
  S2-  S214  1  0.49394622  0.86956850  0.45306173  1
  S2-  S215  1  0.50651624  0.87392696  0.95116712  1
  S2-  S216  1  0.73774769  0.12128295  0.44894912  1
  S2-  S217  1  0.76081847  0.13032485  0.95310438  1
  S2-  S218  1  0.74539349  0.37046627  0.45692128  1
  S2-  S219  1  0.76069503  0.37856831  0.95759940  1
  S2-  S220  1  0.74810378  0.62468981  0.45267854  1
  S2-  S221  1  0.75637519  0.62894315  0.95380634  1
  S2-  S222  1  0.74676948  0.87408789  0.44687028  1
  S2-  S223  1  0.75816725  0.87796247  0.95286738  1
  S2-  S224  1  0.13538234  0.00718526  0.04661795  1
  S2-  S225  1  0.12606360  0.00634573  0.53873831  1
  S2-  S226  1  0.13460851  0.25336111  0.05135760  1
  S2-  S227  1  0.11269014  0.24732479  0.54672169  1
  S2-  S228  1  0.13603764  0.50495303  0.03988441  1
  S2-  S229  1  0.11050601  0.49837906  0.56117917  1
  S2-  S230  1  0.13949546  0.75830980  0.03714318  1
  S2-  S231  1  0.12198138  0.74769057  0.55494575  1
  S2-  S232  1  0.38279509  0.00696929  0.03724490  1
  S2-  S233  1  0.37012015  -0.00278911  0.52876072  1
  S2-  S234  1  0.38407992  0.25119455  0.03761168  1
  S2-  S235  1  0.37285127  0.25045952  0.53509677  1
  S2-  S236  1  0.38426447  0.50624637  0.04084098  1
  S2-  S237  1  0.37409281  0.49547133  0.54143487  1
  S2-  S238  1  0.38459142  0.75409949  0.05759450  1
  S2-  S239  1  0.37126369  0.74345128  0.53735195  1
  S2-  S240  1  0.63256857  0.00506160  0.03909597  1
  S2-  S241  1  0.61105116  -0.00289726  0.54212461  1
  S2-  S242  1  0.62874266  0.25713411  0.05376908  1
  S2-  S243  1  0.61330425  0.24597589  0.54598459  1
  S2-  S244  1  0.63629852  0.50319726  0.04830434  1
  S2-  S245  1  0.61811367  0.49739898  0.55012139  1
  S2-  S246  1  0.63308450  0.75665204  0.05135636  1
  S2-  S247  1  0.61383694  0.75175662  0.54826187  1
  S2-  S248  1  0.88530049  0.00480719  0.05321216  1
  S2-  S249  1  0.86436907  -0.00194059  0.53775313  1
  S2-  S250  1  0.88532200  0.25571002  0.05211439  1
  S2-  S251  1  0.86569149  0.24117223  0.53714257  1
  S2-  S252  1  0.88353214  0.50304746  0.05010914  1
  S2-  S253  1  0.86417534  0.49614578  0.55272964  1
  S2-  S254  1  0.88174262  0.75777536  0.03680867  1
  S2-  S255  1  0.86507965  0.75513533  0.54634309  1
