# generated using pymatgen
data_La12Ce14Pr13Nd13Sm12(BiS2)64
_symmetry_space_group_name_H-M   'P 1'
_cell_length_a   16.10436102
_cell_length_b   16.11183432
_cell_length_c   27.30698893
_cell_angle_alpha   89.99139466
_cell_angle_beta   89.56446557
_cell_angle_gamma   90.09597561
_symmetry_Int_Tables_number   1
_chemical_formula_structural   La12Ce14Pr13Nd13Sm12(BiS2)64
_chemical_formula_sum   'La12 Ce14 Pr13 Nd13 Sm12 Bi64 S128'
_cell_volume   7085.15143030
_cell_formula_units_Z   1
loop_
 _symmetry_equiv_pos_site_id
 _symmetry_equiv_pos_as_xyz
  1  'x, y, z'
loop_
 _atom_type_symbol
 _atom_type_oxidation_number
  La3+  3.0
  Ce3+  3.0
  Pr3+  3.0
  Nd3+  3.0
  Sm3+  3.0
  Bi2+  2.0
  S2-  -2.0
loop_
 _atom_site_type_symbol
 _atom_site_label
 _atom_site_symmetry_multiplicity
 _atom_site_fract_x
 _atom_site_fract_y
 _atom_site_fract_z
 _atom_site_occupancy
  La3+  La0  1  0.75461481  0.36328726  0.09943857  1
  La3+  La1  1  0.61001854  0.49031868  0.41126801  1
  La3+  La2  1  0.73019321  0.11996978  0.56380843  1
  La3+  La3  1  -0.02136957  0.11923526  0.57213170  1
  La3+  La4  1  0.12696725  0.74410424  0.92398693  1
  La3+  La5  1  0.49358907  0.85936336  0.08374384  1
  La3+  La6  1  -0.02226665  0.62873459  0.59085418  1
  La3+  La7  1  0.87464700  0.72700003  0.89077778  1
  La3+  La8  1  0.38141720  0.48665788  0.92753970  1
  La3+  La9  1  0.37465621  0.74701040  0.93807823  1
  La3+  La10  1  -0.01434819  0.36946515  0.57178618  1
  La3+  La11  1  0.11397223  -0.00559859  0.92663257  1
  Ce3+  Ce12  1  0.48791975  0.61573929  0.54925314  1
  Ce3+  Ce13  1  0.87014818  0.24314244  0.94414990  1
  Ce3+  Ce14  1  0.86353771  0.49219366  0.44124239  1
  Ce3+  Ce15  1  0.75009261  0.11477553  0.06878750  1
  Ce3+  Ce16  1  0.24267232  0.11958436  0.06870572  1
  Ce3+  Ce17  1  0.61352487  0.24682317  0.43543504  1
  Ce3+  Ce18  1  0.37223011  -0.00854574  0.95133176  1
  Ce3+  Ce19  1  0.24418120  0.86483847  0.06513124  1
  Ce3+  Ce20  1  0.36327599  0.24561846  0.44785139  1
  Ce3+  Ce21  1  0.61276442  -0.00819020  0.43621469  1
  Ce3+  Ce22  1  0.85784311  0.73985035  0.42556976  1
  Ce3+  Ce23  1  0.87444417  0.49134292  0.93799155  1
  Ce3+  Ce24  1  0.50000471  0.11984848  0.06817285  1
  Ce3+  Ce25  1  -0.01644882  0.86367820  0.55116981  1
  Pr3+  Pr26  1  0.24408480  0.36386025  0.06175215  1
  Pr3+  Pr27  1  0.37246164  0.23835621  0.93900859  1
  Pr3+  Pr28  1  0.11380404  0.24015455  0.93195388  1
  Pr3+  Pr29  1  0.12684508  0.49352727  0.92463368  1
  Pr3+  Pr30  1  0.23474741  0.86477517  0.56668212  1
  Pr3+  Pr31  1  0.11359825  0.49253262  0.43758342  1
  Pr3+  Pr32  1  0.62095166  0.73744227  0.94083928  1
  Pr3+  Pr33  1  0.73645396  0.36946088  0.56102613  1
  Pr3+  Pr34  1  0.48802177  0.86438973  0.56295947  1
  Pr3+  Pr35  1  0.87424931  0.23916968  0.41801122  1
  Pr3+  Pr36  1  0.59767170  0.75262684  0.38869539  1
  Pr3+  Pr37  1  0.23658234  0.37182586  0.57035918  1
  Pr3+  Pr38  1  0.48510086  0.37202905  0.56781862  1
  Nd3+  Nd39  1  0.62318100  0.49124049  0.95297557  1
  Nd3+  Nd40  1  0.23267466  0.11856069  0.56669654  1
  Nd3+  Nd41  1  0.49670959  0.36346167  0.07278361  1
  Nd3+  Nd42  1  0.36160940  0.49259762  0.43093100  1
  Nd3+  Nd43  1  0.11196658  -0.00622506  0.44889919  1
  Nd3+  Nd44  1  -0.00358784  0.61591044  0.05312673  1
  Nd3+  Nd45  1  0.24525758  0.60849918  0.06367551  1
  Nd3+  Nd46  1  0.48947625  0.61057130  0.07858643  1
  Nd3+  Nd47  1  0.62668268  -0.01073041  0.94409683  1
  Nd3+  Nd48  1  0.74767377  0.86331857  0.05711786  1
  Nd3+  Nd49  1  -0.00366438  0.36718657  0.06340875  1
  Nd3+  Nd50  1  0.73615146  0.61763527  0.55155796  1
  Nd3+  Nd51  1  0.73599456  0.86201893  0.55093209  1
  Sm3+  Sm52  1  0.62484044  0.24225589  0.94976472  1
  Sm3+  Sm53  1  0.11260346  0.24256190  0.44551920  1
  Sm3+  Sm54  1  0.23300367  0.61739896  0.55515365  1
  Sm3+  Sm55  1  0.48722097  0.11639723  0.55748278  1
  Sm3+  Sm56  1  -0.00458617  0.86365598  0.04757817  1
  Sm3+  Sm57  1  -0.00556061  0.11360711  0.05954766  1
  Sm3+  Sm58  1  0.11147772  0.74427501  0.43679831  1
  Sm3+  Sm59  1  0.74810656  0.61639359  0.06219587  1
  Sm3+  Sm60  1  0.36275075  -0.00817909  0.44414943  1
  Sm3+  Sm61  1  0.36132419  0.74587077  0.44427521  1
  Sm3+  Sm62  1  0.86077574  -0.00653889  0.43826319  1
  Sm3+  Sm63  1  0.86591473  -0.01151914  0.93325192  1
  Bi2+  Bi64  1  0.01896000  0.12814404  0.29503240  1
  Bi2+  Bi65  1  0.02967035  0.13716421  0.79027693  1
  Bi2+  Bi66  1  0.07341845  0.41289764  0.30839984  1
  Bi2+  Bi67  1  -0.08862984  0.35929260  0.78516173  1
  Bi2+  Bi68  1  0.01220855  0.70265661  0.31886306  1
  Bi2+  Bi69  1  -0.03014267  0.56769008  0.78255550  1
  Bi2+  Bi70  1  0.01406577  0.89977775  0.29027880  1
  Bi2+  Bi71  1  0.02989632  0.91825862  0.77314136  1
  Bi2+  Bi72  1  0.20597042  0.17056244  0.27571591  1
  Bi2+  Bi73  1  0.31718664  0.07813916  0.81079850  1
  Bi2+  Bi74  1  0.26681545  0.36420911  0.28972879  1
  Bi2+  Bi75  1  0.27635939  0.27160377  0.79962064  1
  Bi2+  Bi76  1  0.18426052  0.61922752  0.28911813  1
  Bi2+  Bi77  1  0.18321383  0.61990899  0.79416805  1
  Bi2+  Bi78  1  0.23411344  0.91653699  0.29261033  1
  Bi2+  Bi79  1  0.27581999  0.85447956  0.79216693  1
  Bi2+  Bi80  1  0.47462821  0.12324526  0.28207374  1
  Bi2+  Bi81  1  0.49210353  0.16284318  0.79931889  1
  Bi2+  Bi82  1  0.48949603  0.36735110  0.28912616  1
  Bi2+  Bi83  1  0.50696566  0.41934076  0.78257011  1
  Bi2+  Bi84  1  0.42557708  0.63326213  0.28114978  1
  Bi2+  Bi85  1  0.49291745  0.67705744  0.82594662  1
  Bi2+  Bi86  1  0.48019486  0.87979745  0.28703669  1
  Bi2+  Bi87  1  0.52616461  0.87306985  0.80743029  1
  Bi2+  Bi88  1  0.74467467  0.07131923  0.29749522  1
  Bi2+  Bi89  1  0.75186820  0.14073473  0.79661009  1
  Bi2+  Bi90  1  0.75005894  0.40331423  0.28783497  1
  Bi2+  Bi91  1  0.71200067  0.36456105  0.78739919  1
  Bi2+  Bi92  1  0.84209387  0.62505505  0.28199078  1
  Bi2+  Bi93  1  0.66149188  0.64746828  0.76394993  1
  Bi2+  Bi94  1  0.82023247  0.89143629  0.29482763  1
  Bi2+  Bi95  1  0.71930637  0.87665520  0.79146312  1
  Bi2+  Bi96  1  0.19791731  0.02887493  0.19480946  1
  Bi2+  Bi97  1  0.20219075  0.00573064  0.72521504  1
  Bi2+  Bi98  1  0.12478964  0.31558284  0.21076654  1
  Bi2+  Bi99  1  0.19618813  0.22970201  0.69693335  1
  Bi2+  Bi100  1  0.12018405  0.62992295  0.18219579  1
  Bi2+  Bi101  1  0.18934368  0.49049615  0.70063212  1
  Bi2+  Bi102  1  0.13649465  0.83720584  0.18448029  1
  Bi2+  Bi103  1  0.12014349  0.72792095  0.69946955  1
  Bi2+  Bi104  1  0.39325921  0.03090635  0.19342847  1
  Bi2+  Bi105  1  0.46445008  0.00890846  0.73124811  1
  Bi2+  Bi106  1  0.37763021  0.24086074  0.20810668  1
  Bi2+  Bi107  1  0.41279971  0.28388054  0.71664830  1
  Bi2+  Bi108  1  0.33728516  0.49352740  0.20026659  1
  Bi2+  Bi109  1  0.36104025  0.54886586  0.76575952  1
  Bi2+  Bi110  1  0.30590253  0.75221797  0.22095369  1
  Bi2+  Bi111  1  0.41668822  0.73142003  0.72281279  1
  Bi2+  Bi112  1  0.68843652  0.01764941  0.19341602  1
  Bi2+  Bi113  1  0.66032029  0.03260145  0.71561698  1
  Bi2+  Bi114  1  0.62964680  0.19204660  0.23122916  1
  Bi2+  Bi115  1  0.66643082  0.23854267  0.70387205  1
  Bi2+  Bi116  1  0.60777442  0.54160105  0.21635044  1
  Bi2+  Bi117  1  0.58884485  0.51737037  0.69046598  1
  Bi2+  Bi118  1  0.66494904  0.76041722  0.20175118  1
  Bi2+  Bi119  1  0.60028155  0.79114005  0.69239915  1
  Bi2+  Bi120  1  0.90919369  0.01492219  0.21136661  1
  Bi2+  Bi121  1  0.88380154  0.03809062  0.73302218  1
  Bi2+  Bi122  1  0.88547602  0.24071005  0.21789542  1
  Bi2+  Bi123  1  0.91073133  0.23383537  0.69916141  1
  Bi2+  Bi124  1  0.98303101  0.48192220  0.22185539  1
  Bi2+  Bi125  1  0.78176878  0.48911264  0.70827911  1
  Bi2+  Bi126  1  0.93489151  0.75476596  0.21351950  1
  Bi2+  Bi127  1  0.85053293  0.75940120  0.70574527  1
  S2-  S128  1  -0.01262042  0.13884036  0.15789525  1
  S2-  S129  1  0.06828754  0.14367304  0.65991599  1
  S2-  S130  1  -0.09086200  0.37209079  0.15235607  1
  S2-  S131  1  0.11479539  0.37086496  0.64709302  1
  S2-  S132  1  -0.04489230  0.60862557  0.15166972  1
  S2-  S133  1  0.03517157  0.56731332  0.68150261  1
  S2-  S134  1  -0.01801724  0.88749266  0.14609058  1
  S2-  S135  1  -0.01867030  0.79182826  0.64106799  1
  S2-  S136  1  0.23591364  0.24463696  0.13999155  1
  S2-  S137  1  0.29876025  0.10763493  0.65820259  1
  S2-  S138  1  0.20841232  0.48008673  0.13873334  1
  S2-  S139  1  0.36128888  0.38536332  0.64382438  1
  S2-  S140  1  0.34784013  0.63186093  0.14705364  1
  S2-  S141  1  0.23513175  0.63961290  0.65349702  1
  S2-  S142  1  0.34243630  0.86300500  0.14665119  1
  S2-  S143  1  0.20511583  0.86584804  0.66624484  1
  S2-  S144  1  0.50886151  0.23348315  0.14436133  1
  S2-  S145  1  0.59172129  0.12039717  0.63592501  1
  S2-  S146  1  0.48823023  0.47624400  0.15058357  1
  S2-  S147  1  0.61544570  0.36244794  0.63795272  1
  S2-  S148  1  0.53383696  0.72709071  0.15198554  1
  S2-  S149  1  0.46983938  0.61413468  0.64641737  1
  S2-  S150  1  0.53758694  0.94721817  0.17227296  1
  S2-  S151  1  0.44826416  0.87767336  0.66086654  1
  S2-  S152  1  0.75527639  0.20612261  0.15458916  1
  S2-  S153  1  0.84373751  0.10260836  0.64099416  1
  S2-  S154  1  0.68451792  0.40672437  0.19179049  1
  S2-  S155  1  0.85370420  0.36943624  0.64212730  1
  S2-  S156  1  0.73044507  0.61739832  0.16187564  1
  S2-  S157  1  0.81606678  0.62682622  0.64250746  1
  S2-  S158  1  0.76145099  0.86911355  0.15650788  1
  S2-  S159  1  0.74481185  0.86292527  0.65141867  1
  S2-  S160  1  0.11816092  0.00912236  0.35080217  1
  S2-  S161  1  0.13738828  -0.11798560  0.84837463  1
  S2-  S162  1  0.03198232  0.26104746  0.35987586  1
  S2-  S163  1  0.14837951  0.12571715  0.85650551  1
  S2-  S164  1  0.23316938  0.49684524  0.36125465  1
  S2-  S165  1  0.04346834  0.44965444  0.83524389  1
  S2-  S166  1  0.18730873  0.76594162  0.34861082  1
  S2-  S167  1  0.03444980  0.68934175  0.84082472  1
  S2-  S168  1  0.36514222  -0.01958442  0.34542801  1
  S2-  S169  1  0.38833353  -0.10108497  0.86842537  1
  S2-  S170  1  0.38499469  0.27974102  0.35429656  1
  S2-  S171  1  0.39965531  0.34039865  0.85861947  1
  S2-  S172  1  0.46058682  0.50094047  0.34655893  1
  S2-  S173  1  0.26001927  0.50478967  0.85273556  1
  S2-  S174  1  0.41542027  0.75653458  0.35205811  1
  S2-  S175  1  0.26895579  0.72825626  0.85612659  1
  S2-  S176  1  0.59509661  -0.08276249  0.34827296  1
  S2-  S177  1  0.73445060  0.00107685  0.86318017  1
  S2-  S178  1  0.61514427  0.33580224  0.35053594  1
  S2-  S179  1  0.62616210  0.23010068  0.85091196  1
  S2-  S180  1  0.66256653  0.54377193  0.31644128  1
  S2-  S181  1  0.53775548  0.51793436  0.86686705  1
  S2-  S182  1  0.56877798  0.73014036  0.28631270  1
  S2-  S183  1  0.70844368  0.73514337  0.85170254  1
  S2-  S184  1  0.88677546  0.08785380  0.35860303  1
  S2-  S185  1  0.96913492  0.00445212  0.85200849  1
  S2-  S186  1  0.83246401  0.27485943  0.31644404  1
  S2-  S187  1  0.95636144  0.24397755  0.85835857  1
  S2-  S188  1  0.87102946  0.49136218  0.34247811  1
  S2-  S189  1  0.84969499  0.56382293  0.84950315  1
  S2-  S190  1  0.76226534  0.74637154  0.34368481  1
  S2-  S191  1  0.88483406  0.81362222  0.79624715  1
  S2-  S192  1  -0.00976192  0.11706617  0.46259588  1
  S2-  S193  1  -0.01077426  0.11467209  0.95731559  1
  S2-  S194  1  -0.01081084  0.36853187  0.46039029  1
  S2-  S195  1  -0.00389407  0.36796669  0.95731406  1
  S2-  S196  1  -0.00993734  0.61962487  0.44204913  1
  S2-  S197  1  -0.00313165  0.61561054  0.94947088  1
  S2-  S198  1  -0.01433259  0.86928015  0.44472831  1
  S2-  S199  1  -0.01602603  0.85748692  0.94479982  1
  S2-  S200  1  0.23830383  0.11760325  0.45658441  1
  S2-  S201  1  0.24747395  0.11589309  0.96164042  1
  S2-  S202  1  0.23536326  0.36508868  0.46079042  1
  S2-  S203  1  0.24306020  0.35934082  0.95340631  1
  S2-  S204  1  0.23776110  0.62517997  0.45268985  1
  S2-  S205  1  0.25003656  0.61476957  0.95855737  1
  S2-  S206  1  0.23876861  0.87033842  0.45861211  1
  S2-  S207  1  0.24286265  0.87347839  0.96153095  1
  S2-  S208  1  0.48667408  0.11648943  0.45206912  1
  S2-  S209  1  0.50251257  0.11508982  0.95751003  1
  S2-  S210  1  0.48628532  0.37014049  0.45795991  1
  S2-  S211  1  0.50333065  0.36118102  0.96524126  1
  S2-  S212  1  0.49173935  0.62767091  0.44454089  1
  S2-  S213  1  0.49667915  0.61724377  0.96953972  1
  S2-  S214  1  0.48616377  0.86871379  0.45575961  1
  S2-  S215  1  0.50409323  0.86818853  0.96831423  1
  S2-  S216  1  0.73652735  0.11843197  0.45181337  1
  S2-  S217  1  0.74782076  0.11878003  0.96238348  1
  S2-  S218  1  0.74306031  0.36481241  0.45016900  1
  S2-  S219  1  0.74607066  0.36727750  0.94523390  1
  S2-  S220  1  0.73470351  0.61499882  0.44553451  1
  S2-  S221  1  0.74841289  0.61521792  0.95788379  1
  S2-  S222  1  0.73629224  0.86888743  0.44608294  1
  S2-  S223  1  0.74968830  0.86074561  0.95345656  1
  S2-  S224  1  0.11726381  -0.00778559  0.04570189  1
  S2-  S225  1  0.10932989  -0.00937074  0.55518009  1
  S2-  S226  1  0.11294321  0.23901698  0.04119733  1
  S2-  S227  1  0.11239160  0.24263155  0.54734126  1
  S2-  S228  1  0.11597914  0.48876059  0.03484679  1
  S2-  S229  1  0.10502544  0.50404866  0.54545261  1
  S2-  S230  1  0.12016033  0.74073150  0.04279636  1
  S2-  S231  1  0.11042872  0.74078999  0.54222619  1
  S2-  S232  1  0.37207051  -0.00191260  0.05415979  1
  S2-  S233  1  0.36161835  -0.00738781  0.54926065  1
  S2-  S234  1  0.37344030  0.23825688  0.04462647  1
  S2-  S235  1  0.36328188  0.23779002  0.55187836  1
  S2-  S236  1  0.37171441  0.48371412  0.04158019  1
  S2-  S237  1  0.35731116  0.49780471  0.53814840  1
  S2-  S238  1  0.36719229  0.74155220  0.04482367  1
  S2-  S239  1  0.35912357  0.74182031  0.54897752  1
  S2-  S240  1  0.62383519  -0.00745929  0.05038625  1
  S2-  S241  1  0.61085858  -0.01203726  0.54216792  1
  S2-  S242  1  0.63282898  0.24541549  0.05150821  1
  S2-  S243  1  0.60658521  0.24415751  0.53755059  1
  S2-  S244  1  0.63132777  0.48561864  0.05674530  1
  S2-  S245  1  0.61214042  0.49475094  0.53642399  1
  S2-  S246  1  0.62666175  0.73788502  0.04749736  1
  S2-  S247  1  0.61176853  0.74054646  0.55038778  1
  S2-  S248  1  0.87243076  -0.00986695  0.04269879  1
  S2-  S249  1  0.85916151  -0.01264986  0.54106209  1
  S2-  S250  1  0.87327099  0.24145768  0.04837170  1
  S2-  S251  1  0.85919184  0.24244844  0.53907847  1
  S2-  S252  1  0.86797148  0.48888385  0.04651428  1
  S2-  S253  1  0.86661081  0.50004591  0.54449722  1
  S2-  S254  1  0.87230122  0.74036490  0.05180560  1
  S2-  S255  1  0.86227417  0.74051472  0.53320395  1
