# generated using pymatgen
data_La12Ce14Pr13Nd13Sm12(BiS2)64
_symmetry_space_group_name_H-M   'P 1'
_cell_length_a   16.18034566
_cell_length_b   16.14045230
_cell_length_c   27.20530982
_cell_angle_alpha   90.12150935
_cell_angle_beta   89.72926397
_cell_angle_gamma   90.12244246
_symmetry_Int_Tables_number   1
_chemical_formula_structural   La12Ce14Pr13Nd13Sm12(BiS2)64
_chemical_formula_sum   'La12 Ce14 Pr13 Nd13 Sm12 Bi64 S128'
_cell_volume   7104.77558314
_cell_formula_units_Z   1
loop_
 _symmetry_equiv_pos_site_id
 _symmetry_equiv_pos_as_xyz
  1  'x, y, z'
loop_
 _atom_type_symbol
 _atom_type_oxidation_number
  La3+  3.0
  Ce3+  3.0
  Pr3+  3.0
  Nd3+  3.0
  Sm3+  3.0
  Bi2+  2.0
  S2-  -2.0
loop_
 _atom_site_type_symbol
 _atom_site_label
 _atom_site_symmetry_multiplicity
 _atom_site_fract_x
 _atom_site_fract_y
 _atom_site_fract_z
 _atom_site_occupancy
  La3+  La0  1  0.24088381  0.89736423  0.06817435  1
  La3+  La1  1  0.64208253  0.47814314  0.41763819  1
  La3+  La2  1  0.50904100  0.11548378  0.58440973  1
  La3+  La3  1  0.36716659  0.00162514  0.91679637  1
  La3+  La4  1  0.76087286  0.60996284  0.56378217  1
  La3+  La5  1  0.89527664  0.48050101  0.42164749  1
  La3+  La6  1  0.26509303  0.37855878  0.59437115  1
  La3+  La7  1  0.13750464  0.74385082  0.43140282  1
  La3+  La8  1  0.86547040  0.27043151  0.92056525  1
  La3+  La9  1  0.49504148  0.62435289  0.11266494  1
  La3+  La10  1  0.00860126  0.11057027  0.58082210  1
  La3+  La11  1  0.86997018  0.00230260  0.91766966  1
  Ce3+  Ce12  1  0.01012765  0.36788440  0.56853310  1
  Ce3+  Ce13  1  0.38470473  0.48749211  0.43809685  1
  Ce3+  Ce14  1  0.76351792  0.36414740  0.55904683  1
  Ce3+  Ce15  1  0.76018909  0.86307030  0.55641724  1
  Ce3+  Ce16  1  -0.00433805  0.63953876  0.05930285  1
  Ce3+  Ce17  1  0.11905040  0.27006455  0.92546435  1
  Ce3+  Ce18  1  0.49114658  0.13599121  0.04252500  1
  Ce3+  Ce19  1  0.37091596  0.51562610  0.93030491  1
  Ce3+  Ce20  1  0.74027003  0.39006279  0.06067177  1
  Ce3+  Ce21  1  0.63677568  0.23795338  0.44910059  1
  Ce3+  Ce22  1  0.86645108  0.51350787  0.94379071  1
  Ce3+  Ce23  1  0.48847968  0.89109707  0.06408335  1
  Ce3+  Ce24  1  0.38815871  0.73999447  0.44440593  1
  Ce3+  Ce25  1  0.88397930  0.73955570  0.44238409  1
  Pr3+  Pr26  1  0.74204091  0.65001256  0.06841759  1
  Pr3+  Pr27  1  0.74096984  0.89478256  0.06296549  1
  Pr3+  Pr28  1  0.74332560  0.13337817  0.05374726  1
  Pr3+  Pr29  1  0.24815363  0.63665878  0.06047504  1
  Pr3+  Pr30  1  0.26051689  0.11150067  0.57888900  1
  Pr3+  Pr31  1  0.38521581  0.23884819  0.45005407  1
  Pr3+  Pr32  1  -0.00277151  0.89972134  0.06916365  1
  Pr3+  Pr33  1  0.39195262  -0.01244767  0.44490926  1
  Pr3+  Pr34  1  -0.00799718  0.38862333  0.06175790  1
  Pr3+  Pr35  1  0.24649114  0.14252637  0.04431186  1
  Pr3+  Pr36  1  0.24550125  0.38817203  0.05306820  1
  Pr3+  Pr37  1  0.89424214  0.22994615  0.43861660  1
  Pr3+  Pr38  1  0.51037577  0.86423731  0.57448439  1
  Nd3+  Nd39  1  0.51323488  0.37046850  0.56724648  1
  Nd3+  Nd40  1  0.61883374  0.00070048  0.92289888  1
  Nd3+  Nd41  1  0.13528074  0.48581740  0.44079122  1
  Nd3+  Nd42  1  0.76183430  0.11339780  0.56843061  1
  Nd3+  Nd43  1  0.11898143  0.01600898  0.92854201  1
  Nd3+  Nd44  1  0.61951236  0.26106386  0.93800248  1
  Nd3+  Nd45  1  0.51113917  0.61564237  0.55602428  1
  Nd3+  Nd46  1  0.14019646  0.23836468  0.45784094  1
  Nd3+  Nd47  1  0.63667315  0.73801992  0.43883810  1
  Nd3+  Nd48  1  0.11791839  0.51395174  0.93144595  1
  Nd3+  Nd49  1  0.01046369  0.86413056  0.56376548  1
  Nd3+  Nd50  1  0.88764812  -0.00829559  0.43870676  1
  Nd3+  Nd51  1  0.37224019  0.26944143  0.91821799  1
  Sm3+  Sm52  1  0.25966989  0.86572249  0.56661394  1
  Sm3+  Sm53  1  0.87075155  0.76428767  0.94551244  1
  Sm3+  Sm54  1  -0.00890102  0.13833414  0.04662187  1
  Sm3+  Sm55  1  0.36851672  0.76062905  0.94176099  1
  Sm3+  Sm56  1  0.61892923  0.76129997  0.94099939  1
  Sm3+  Sm57  1  0.11867622  0.76449245  0.94365016  1
  Sm3+  Sm58  1  0.25980293  0.61752154  0.55584523  1
  Sm3+  Sm59  1  0.13854672  -0.00869356  0.44918180  1
  Sm3+  Sm60  1  0.63489553  -0.00829426  0.44954036  1
  Sm3+  Sm61  1  0.49427954  0.39163363  0.05369190  1
  Sm3+  Sm62  1  0.61895131  0.51805790  0.94275666  1
  Sm3+  Sm63  1  0.01253292  0.61593100  0.55683677  1
  Bi2+  Bi64  1  -0.00526270  0.12952856  0.22149813  1
  Bi2+  Bi65  1  0.00294455  0.09735394  0.79861748  1
  Bi2+  Bi66  1  0.01376652  0.34999604  0.29486181  1
  Bi2+  Bi67  1  0.02093162  0.44167230  0.76468667  1
  Bi2+  Bi68  1  -0.00730977  0.56131580  0.26077243  1
  Bi2+  Bi69  1  0.01924918  0.62284568  0.81486600  1
  Bi2+  Bi70  1  -0.02574641  0.96223223  0.28800299  1
  Bi2+  Bi71  1  -0.00868247  0.82912363  0.77887122  1
  Bi2+  Bi72  1  0.15766394  0.12367364  0.28999221  1
  Bi2+  Bi73  1  0.26077581  0.09406283  0.79256088  1
  Bi2+  Bi74  1  0.21383430  0.32565491  0.30067617  1
  Bi2+  Bi75  1  0.23868180  0.43655890  0.79218201  1
  Bi2+  Bi76  1  0.23762606  0.61533657  0.23672028  1
  Bi2+  Bi77  1  0.27424839  0.61410242  0.81981234  1
  Bi2+  Bi78  1  0.23292174  0.86030360  0.31257730  1
  Bi2+  Bi79  1  0.25597731  0.79995307  0.77838215  1
  Bi2+  Bi80  1  0.58880622  0.14019544  0.32604931  1
  Bi2+  Bi81  1  0.51477508  0.13749882  0.78065889  1
  Bi2+  Bi82  1  0.43259969  0.27255144  0.26595310  1
  Bi2+  Bi83  1  0.50433555  0.43140057  0.77681977  1
  Bi2+  Bi84  1  0.48526351  0.63334127  0.31695275  1
  Bi2+  Bi85  1  0.46959157  0.62053425  0.80410024  1
  Bi2+  Bi86  1  0.47342133  0.89447789  0.29539974  1
  Bi2+  Bi87  1  0.49719716  0.81394150  0.79376423  1
  Bi2+  Bi88  1  0.77793729  0.11224166  0.30196760  1
  Bi2+  Bi89  1  0.75017878  0.15295474  0.79163136  1
  Bi2+  Bi90  1  0.75242079  0.35000249  0.29177810  1
  Bi2+  Bi91  1  0.73819113  0.35757636  0.79630301  1
  Bi2+  Bi92  1  0.75510133  0.63775661  0.29601065  1
  Bi2+  Bi93  1  0.67882101  0.63064656  0.81333385  1
  Bi2+  Bi94  1  0.78612466  0.91487337  0.29188917  1
  Bi2+  Bi95  1  0.76478067  0.79495734  0.78258150  1
  Bi2+  Bi96  1  0.23221018  -0.04890724  0.20965592  1
  Bi2+  Bi97  1  0.12705101  -0.05344661  0.71846220  1
  Bi2+  Bi98  1  0.17651931  0.22936498  0.19486625  1
  Bi2+  Bi99  1  0.14033203  0.23135225  0.72771344  1
  Bi2+  Bi100  1  0.11845134  0.47533094  0.19024995  1
  Bi2+  Bi101  1  0.12579547  0.59249238  0.71773366  1
  Bi2+  Bi102  1  0.10117152  0.74398518  0.21604639  1
  Bi2+  Bi103  1  0.10941172  0.77266148  0.67117980  1
  Bi2+  Bi104  1  0.37510378  0.07458778  0.25794682  1
  Bi2+  Bi105  1  0.38543980  -0.06231308  0.71214030  1
  Bi2+  Bi106  1  0.36016143  0.19500012  0.16443908  1
  Bi2+  Bi107  1  0.38124563  0.27948629  0.71907079  1
  Bi2+  Bi108  1  0.34112884  0.44773342  0.24891535  1
  Bi2+  Bi109  1  0.39022481  0.56805204  0.70135942  1
  Bi2+  Bi110  1  0.38279464  0.79279747  0.20999826  1
  Bi2+  Bi111  1  0.33266857  0.75773442  0.67314675  1
  Bi2+  Bi112  1  0.56209040  0.02989967  0.22592521  1
  Bi2+  Bi113  1  0.63027065  -0.11071072  0.71824380  1
  Bi2+  Bi114  1  0.61867621  0.22130650  0.21910630  1
  Bi2+  Bi115  1  0.62341834  0.33394583  0.70508620  1
  Bi2+  Bi116  1  0.60377420  0.48406338  0.21567802  1
  Bi2+  Bi117  1  0.69095852  0.54309387  0.70515059  1
  Bi2+  Bi118  1  0.64151279  0.75406684  0.21150012  1
  Bi2+  Bi119  1  0.53095857  0.73382323  0.68342655  1
  Bi2+  Bi120  1  0.87363266  -0.06568120  0.18742689  1
  Bi2+  Bi121  1  0.86404230  -0.00041375  0.70534349  1
  Bi2+  Bi122  1  0.80323111  0.16813790  0.19243535  1
  Bi2+  Bi123  1  0.88003780  0.26839296  0.69717406  1
  Bi2+  Bi124  1  0.85953867  0.44371354  0.21507369  1
  Bi2+  Bi125  1  0.85197507  0.54299886  0.77806708  1
  Bi2+  Bi126  1  0.89419280  0.76304373  0.24826492  1
  Bi2+  Bi127  1  0.90850789  0.73588976  0.69520420  1
  S2-  S128  1  -0.01441783  0.04733464  0.13093664  1
  S2-  S129  1  0.00078975  0.16467272  0.67926412  1
  S2-  S130  1  -0.01201455  0.36462365  0.16186313  1
  S2-  S131  1  -0.00836810  0.37422830  0.66730793  1
  S2-  S132  1  0.00718317  0.63180417  0.15683004  1
  S2-  S133  1  -0.01718675  0.59970462  0.65380239  1
  S2-  S134  1  0.11748191  0.86904847  0.14679615  1
  S2-  S135  1  -0.00694297  0.96674263  0.64582834  1
  S2-  S136  1  0.22521443  0.07863487  0.13746186  1
  S2-  S137  1  0.27467394  0.16773291  0.67683022  1
  S2-  S138  1  0.26258264  0.42290263  0.15178551  1
  S2-  S139  1  0.21323095  0.36100729  0.69463119  1
  S2-  S140  1  0.32580747  0.65421758  0.15006596  1
  S2-  S141  1  0.25343280  0.54469151  0.64442383  1
  S2-  S142  1  0.36105530  0.90729456  0.14187832  1
  S2-  S143  1  0.25299964  0.97059738  0.64793289  1
  S2-  S144  1  0.49249662  0.08274559  0.13435478  1
  S2-  S145  1  0.52156523  0.19606034  0.67767634  1
  S2-  S146  1  0.49298699  0.45454099  0.14608485  1
  S2-  S147  1  0.41486619  0.38250541  0.64880653  1
  S2-  S148  1  0.50272604  0.62914336  0.22206054  1
  S2-  S149  1  0.54567373  0.55694376  0.64750473  1
  S2-  S150  1  0.52241049  0.79558587  0.14716347  1
  S2-  S151  1  0.51221187  0.98018267  0.65441752  1
  S2-  S152  1  0.74525243  0.02799953  0.13524530  1
  S2-  S153  1  0.77203515  0.13262558  0.66869108  1
  S2-  S154  1  0.72263657  0.39222527  0.15843617  1
  S2-  S155  1  0.76860938  0.39554995  0.65653814  1
  S2-  S156  1  0.66530028  0.60566028  0.15615028  1
  S2-  S157  1  0.75823245  0.67391272  0.65764694  1
  S2-  S158  1  0.75088778  0.78576541  0.14407939  1
  S2-  S159  1  0.76703633  0.91088389  0.65079408  1
  S2-  S160  1  0.11875881  -0.02217392  0.35169207  1
  S2-  S161  1  0.13467643  -0.01289936  0.82992062  1
  S2-  S162  1  0.09153008  0.23341236  0.36204112  1
  S2-  S163  1  0.13273451  0.19559638  0.83353175  1
  S2-  S164  1  0.04078652  0.48996647  0.35533181  1
  S2-  S165  1  0.10682404  0.40020117  0.85426791  1
  S2-  S166  1  0.13058331  0.73494025  0.33022391  1
  S2-  S167  1  0.11467090  0.76438272  0.84479006  1
  S2-  S168  1  0.35036564  -0.01107546  0.34746014  1
  S2-  S169  1  0.41060282  0.02367359  0.81510914  1
  S2-  S170  1  0.33793592  0.24159800  0.35211359  1
  S2-  S171  1  0.36868585  0.21337965  0.82051463  1
  S2-  S172  1  0.35910364  0.51505984  0.34175023  1
  S2-  S173  1  0.38256889  0.40917251  0.85167637  1
  S2-  S174  1  0.36771899  0.76101500  0.34781615  1
  S2-  S175  1  0.35223215  0.84635487  0.85688507  1
  S2-  S176  1  0.58311224  -0.03062324  0.35717241  1
  S2-  S177  1  0.63276683  0.04644804  0.82455863  1
  S2-  S178  1  0.63558757  0.31202961  0.36042681  1
  S2-  S179  1  0.61394037  0.24993894  0.83822076  1
  S2-  S180  1  0.57598226  0.50302180  0.32200032  1
  S2-  S181  1  0.63042141  0.46755400  0.84831341  1
  S2-  S182  1  0.63079212  0.73082113  0.33842435  1
  S2-  S183  1  0.63232468  0.84631793  0.85464146  1
  S2-  S184  1  0.90802194  0.10239180  0.36376327  1
  S2-  S185  1  0.84910359  0.02719122  0.81465209  1
  S2-  S186  1  0.88674176  0.32838443  0.35449239  1
  S2-  S187  1  0.90376117  0.22099486  0.82184604  1
  S2-  S188  1  0.77672416  0.50250358  0.34843205  1
  S2-  S189  1  0.86099141  0.42128378  0.86067493  1
  S2-  S190  1  0.88887920  0.70716574  0.34669049  1
  S2-  S191  1  0.87673762  0.84142234  0.85797636  1
  S2-  S192  1  0.01813384  0.11086596  0.47047719  1
  S2-  S193  1  -0.00900476  0.13965432  0.94149945  1
  S2-  S194  1  0.01533949  0.36074024  0.46302331  1
  S2-  S195  1  -0.00825374  0.39053085  0.95602637  1
  S2-  S196  1  0.01283663  0.61800993  0.45277739  1
  S2-  S197  1  -0.00675404  0.63912154  0.95231100  1
  S2-  S198  1  0.01101773  0.86764506  0.45400272  1
  S2-  S199  1  -0.00073381  0.88739790  0.95485727  1
  S2-  S200  1  0.26205411  0.11067970  0.46567739  1
  S2-  S201  1  0.24735879  0.14038356  0.93762841  1
  S2-  S202  1  0.26006429  0.36612485  0.45972329  1
  S2-  S203  1  0.24532931  0.39052441  0.94786354  1
  S2-  S204  1  0.25865760  0.61463298  0.45050695  1
  S2-  S205  1  0.24087436  0.63877477  0.95249359  1
  S2-  S206  1  0.26198671  0.86625231  0.46063426  1
  S2-  S207  1  0.23705221  0.88736045  0.95462626  1
  S2-  S208  1  0.51107973  0.11423608  0.46794745  1
  S2-  S209  1  0.49331773  0.13529315  0.93617156  1
  S2-  S210  1  0.50809437  0.36444664  0.45916654  1
  S2-  S211  1  0.50039484  0.38937330  0.95020076  1
  S2-  S212  1  0.51348888  0.61199987  0.44895930  1
  S2-  S213  1  0.49517345  0.64002231  0.94078876  1
  S2-  S214  1  0.51453163  0.86254148  0.46364351  1
  S2-  S215  1  0.49373617  0.88303202  0.95251841  1
  S2-  S216  1  0.75926178  0.11280363  0.46015576  1
  S2-  S217  1  0.74513395  0.13516421  0.94275044  1
  S2-  S218  1  0.76674842  0.35878801  0.45666678  1
  S2-  S219  1  0.73802718  0.38915293  0.95642508  1
  S2-  S220  1  0.76090576  0.61426523  0.45480773  1
  S2-  S221  1  0.74609624  0.64111824  0.95629744  1
  S2-  S222  1  0.75944255  0.86821424  0.44862632  1
  S2-  S223  1  0.74499820  0.88497165  0.95543458  1
  S2-  S224  1  0.11762761  0.02001089  0.03335284  1
  S2-  S225  1  0.13580905  -0.01269263  0.55146255  1
  S2-  S226  1  0.11554345  0.26390001  0.03874542  1
  S2-  S227  1  0.13999103  0.24361712  0.56526246  1
  S2-  S228  1  0.11870001  0.51324793  0.04176808  1
  S2-  S229  1  0.13479493  0.49241079  0.54754614  1
  S2-  S230  1  0.11981643  0.76055535  0.04647120  1
  S2-  S231  1  0.13640365  0.74067211  0.54209030  1
  S2-  S232  1  0.36677632  0.01588238  0.02742489  1
  S2-  S233  1  0.38547016  -0.01175655  0.55173250  1
  S2-  S234  1  0.37322838  0.26816577  0.03039346  1
  S2-  S235  1  0.38392806  0.24097952  0.55711127  1
  S2-  S236  1  0.37233278  0.51360486  0.03922620  1
  S2-  S237  1  0.38481589  0.49502776  0.54359533  1
  S2-  S238  1  0.36621072  0.76493516  0.04286795  1
  S2-  S239  1  0.38440984  0.74001143  0.54884080  1
  S2-  S240  1  0.61497351  0.01227112  0.03153841  1
  S2-  S241  1  0.63629827  -0.00863937  0.55300082  1
  S2-  S242  1  0.61718796  0.26259980  0.04607930  1
  S2-  S243  1  0.63564935  0.24019624  0.55658043  1
  S2-  S244  1  0.61718305  0.51651368  0.04510734  1
  S2-  S245  1  0.63764981  0.48669651  0.53975957  1
  S2-  S246  1  0.61648019  0.76543893  0.04248008  1
  S2-  S247  1  0.63538994  0.74026130  0.54678558  1
  S2-  S248  1  0.87031916  0.01456317  0.02859631  1
  S2-  S249  1  0.88241614  -0.01049300  0.54374596  1
  S2-  S250  1  0.86656238  0.26200254  0.04148404  1
  S2-  S251  1  0.88746903  0.23791737  0.55287694  1
  S2-  S252  1  0.86582021  0.51664616  0.05252070  1
  S2-  S253  1  0.88992078  0.49094245  0.54415948  1
  S2-  S254  1  0.87770670  0.76854629  0.04853758  1
  S2-  S255  1  0.88785757  0.73995081  0.54846913  1
