# generated using pymatgen
data_La12Ce14Pr13Nd13Sm12(BiS2)64
_symmetry_space_group_name_H-M   'P 1'
_cell_length_a   16.17305634
_cell_length_b   16.15063522
_cell_length_c   27.19330526
_cell_angle_alpha   90.17952391
_cell_angle_beta   90.07316780
_cell_angle_gamma   89.98403393
_symmetry_Int_Tables_number   1
_chemical_formula_structural   La12Ce14Pr13Nd13Sm12(BiS2)64
_chemical_formula_sum   'La12 Ce14 Pr13 Nd13 Sm12 Bi64 S128'
_cell_volume   7102.98999834
_cell_formula_units_Z   1
loop_
 _symmetry_equiv_pos_site_id
 _symmetry_equiv_pos_as_xyz
  1  'x, y, z'
loop_
 _atom_type_symbol
 _atom_type_oxidation_number
  La3+  3.0
  Ce3+  3.0
  Pr3+  3.0
  Nd3+  3.0
  Sm3+  3.0
  Bi2+  2.0
  S2-  -2.0
loop_
 _atom_site_type_symbol
 _atom_site_label
 _atom_site_symmetry_multiplicity
 _atom_site_fract_x
 _atom_site_fract_y
 _atom_site_fract_z
 _atom_site_occupancy
  La3+  La0  1  0.00823096  0.63446969  0.06414275  1
  La3+  La1  1  0.25646014  0.63505438  0.05763327  1
  La3+  La2  1  0.87585735  0.74858730  0.88653618  1
  La3+  La3  1  0.26332987  0.87711375  0.58816831  1
  La3+  La4  1  0.12857221  0.24327945  0.40714633  1
  La3+  La5  1  0.26242671  0.60725227  0.58930446  1
  La3+  La6  1  0.49314800  0.87309755  0.07576795  1
  La3+  La7  1  0.00016350  0.87857749  0.58015010  1
  La3+  La8  1  0.87782141  -0.00514808  0.43867654  1
  La3+  La9  1  0.74491281  0.12302576  0.56962994  1
  La3+  La10  1  0.75543076  0.64005349  0.07634291  1
  La3+  La11  1  0.25476517  0.13654496  0.10610244  1
  Ce3+  Ce12  1  0.62459988  0.74862215  0.43895269  1
  Ce3+  Ce13  1  0.62463828  0.49462472  0.43005875  1
  Ce3+  Ce14  1  0.75815991  0.88296720  0.06170061  1
  Ce3+  Ce15  1  0.37885499  0.23303611  0.43125582  1
  Ce3+  Ce16  1  0.88166345  0.74420096  0.44679074  1
  Ce3+  Ce17  1  0.87615594  0.49794987  0.43889200  1
  Ce3+  Ce18  1  0.63096292  0.51019174  0.94826272  1
  Ce3+  Ce19  1  0.12721297  0.51015810  0.93763531  1
  Ce3+  Ce20  1  0.37850556  0.50783878  0.93940446  1
  Ce3+  Ce21  1  0.00314638  0.38012458  0.05210130  1
  Ce3+  Ce22  1  0.49871931  0.61992783  0.55240905  1
  Ce3+  Ce23  1  0.74995265  0.62090262  0.55327168  1
  Ce3+  Ce24  1  0.25418860  0.37717700  0.05632767  1
  Ce3+  Ce25  1  0.76003884  0.13624108  0.06627398  1
  Pr3+  Pr26  1  -0.00011804  0.12535233  0.56480386  1
  Pr3+  Pr27  1  0.25097423  0.12207240  0.55966274  1
  Pr3+  Pr28  1  0.12800019  0.25558121  0.93843306  1
  Pr3+  Pr29  1  0.36800037  0.74475996  0.43874818  1
  Pr3+  Pr30  1  0.87383026  0.24579892  0.43639634  1
  Pr3+  Pr31  1  0.37706601  0.76472800  0.92362193  1
  Pr3+  Pr32  1  0.62866035  0.00603207  0.94857169  1
  Pr3+  Pr33  1  0.86991538  0.00548990  0.92605830  1
  Pr3+  Pr34  1  0.00025959  0.61614410  0.57550488  1
  Pr3+  Pr35  1  0.12661599  0.00864613  0.93738829  1
  Pr3+  Pr36  1  0.62974541  0.25805790  0.94224092  1
  Pr3+  Pr37  1  0.12904115  0.75891222  0.92446393  1
  Pr3+  Pr38  1  0.62889913  0.23540410  0.42260503  1
  Nd3+  Nd39  1  0.87718418  0.25570491  0.93042691  1
  Nd3+  Nd40  1  0.75456964  0.38411156  0.06096609  1
  Nd3+  Nd41  1  0.50276302  0.13176027  0.06629016  1
  Nd3+  Nd42  1  -0.00054933  0.13416664  0.06433113  1
  Nd3+  Nd43  1  0.25151892  0.36474320  0.55721954  1
  Nd3+  Nd44  1  0.24484856  0.88614398  0.06127447  1
  Nd3+  Nd45  1  0.74899456  0.37275842  0.55583894  1
  Nd3+  Nd46  1  0.12617838  -0.00855798  0.44416921  1
  Nd3+  Nd47  1  0.50095224  0.37002965  0.54615687  1
  Nd3+  Nd48  1  0.63035612  0.75862274  0.94052945  1
  Nd3+  Nd49  1  0.36494041  0.49697305  0.42644236  1
  Nd3+  Nd50  1  0.50201262  0.63313957  0.05401528  1
  Nd3+  Nd51  1  0.37194148  -0.01016901  0.43628609  1
  Sm3+  Sm52  1  0.87690032  0.51289462  0.94555289  1
  Sm3+  Sm53  1  0.62373535  -0.01233061  0.43434563  1
  Sm3+  Sm54  1  0.50096417  0.87047588  0.56015368  1
  Sm3+  Sm55  1  0.12551735  0.49789590  0.45097199  1
  Sm3+  Sm56  1  0.37782780  0.25511692  0.94083941  1
  Sm3+  Sm57  1  0.50262656  0.12189305  0.55965684  1
  Sm3+  Sm58  1  0.74990750  0.87088432  0.55886170  1
  Sm3+  Sm59  1  0.00177882  0.36873481  0.55729186  1
  Sm3+  Sm60  1  0.37720189  0.00739647  0.94749810  1
  Sm3+  Sm61  1  0.12819086  0.74485959  0.46595171  1
  Sm3+  Sm62  1  0.50271659  0.37959835  0.05614441  1
  Sm3+  Sm63  1  0.00777107  0.88594802  0.05152191  1
  Bi2+  Bi64  1  0.00255662  0.10415551  0.30022557  1
  Bi2+  Bi65  1  0.00133842  0.16175288  0.78793826  1
  Bi2+  Bi66  1  -0.06308312  0.38379799  0.28778381  1
  Bi2+  Bi67  1  -0.07743765  0.34757760  0.80919768  1
  Bi2+  Bi68  1  -0.01279868  0.67665150  0.31087852  1
  Bi2+  Bi69  1  -0.01506681  0.60168161  0.78175819  1
  Bi2+  Bi70  1  -0.02132553  0.85895035  0.24828575  1
  Bi2+  Bi71  1  0.01836094  0.89682622  0.78574118  1
  Bi2+  Bi72  1  0.26136415  0.10219735  0.30036245  1
  Bi2+  Bi73  1  0.26573564  0.14227457  0.78921339  1
  Bi2+  Bi74  1  0.31181096  0.39766393  0.29020908  1
  Bi2+  Bi75  1  0.25572132  0.33756020  0.77990711  1
  Bi2+  Bi76  1  0.20316352  0.64509280  0.30359771  1
  Bi2+  Bi77  1  0.24484883  0.59707877  0.79423600  1
  Bi2+  Bi78  1  0.26182860  0.82936153  0.27370657  1
  Bi2+  Bi79  1  0.26991957  0.88582128  0.78895712  1
  Bi2+  Bi80  1  0.50663355  0.20797951  0.30834662  1
  Bi2+  Bi81  1  0.47551937  0.16362693  0.78040144  1
  Bi2+  Bi82  1  0.50401121  0.42203596  0.32061862  1
  Bi2+  Bi83  1  0.53870186  0.41906120  0.77820871  1
  Bi2+  Bi84  1  0.47738034  0.61688268  0.29080448  1
  Bi2+  Bi85  1  0.48165447  0.64374146  0.78912674  1
  Bi2+  Bi86  1  0.46831469  0.86349957  0.29222574  1
  Bi2+  Bi87  1  0.48532100  0.83462157  0.81142696  1
  Bi2+  Bi88  1  0.75998472  0.13068326  0.29520097  1
  Bi2+  Bi89  1  0.73958110  0.12859957  0.78828328  1
  Bi2+  Bi90  1  0.67901917  0.36397520  0.28248571  1
  Bi2+  Bi91  1  0.72334386  0.34086564  0.80653146  1
  Bi2+  Bi92  1  0.73156842  0.62947332  0.27148529  1
  Bi2+  Bi93  1  0.73209240  0.61207929  0.79014941  1
  Bi2+  Bi94  1  0.73543932  0.84372658  0.28807021  1
  Bi2+  Bi95  1  0.67031677  0.88536657  0.78428997  1
  Bi2+  Bi96  1  0.08422804  0.00357430  0.20564474  1
  Bi2+  Bi97  1  0.12917929  0.07936382  0.71422726  1
  Bi2+  Bi98  1  0.12528180  0.29191800  0.20799374  1
  Bi2+  Bi99  1  0.14185559  0.24375311  0.64935997  1
  Bi2+  Bi100  1  0.11067188  0.46266510  0.26660041  1
  Bi2+  Bi101  1  0.08971375  0.37977623  0.72615082  1
  Bi2+  Bi102  1  0.12600764  0.74716566  0.20561441  1
  Bi2+  Bi103  1  0.10708445  0.72907050  0.71853413  1
  Bi2+  Bi104  1  0.41241462  -0.01920928  0.20990293  1
  Bi2+  Bi105  1  0.40153752  0.03530777  0.70240097  1
  Bi2+  Bi106  1  0.39296635  0.26181332  0.21789473  1
  Bi2+  Bi107  1  0.33572240  0.22550482  0.69133213  1
  Bi2+  Bi108  1  0.33115086  0.52723376  0.20468112  1
  Bi2+  Bi109  1  0.39759478  0.47741644  0.70371357  1
  Bi2+  Bi110  1  0.35884008  0.71994363  0.19335297  1
  Bi2+  Bi111  1  0.37800916  0.74854574  0.70818518  1
  Bi2+  Bi112  1  0.65925133  0.01858514  0.22508464  1
  Bi2+  Bi113  1  0.59687886  0.03656163  0.72377561  1
  Bi2+  Bi114  1  0.61651981  0.21304529  0.21516039  1
  Bi2+  Bi115  1  0.60400126  0.27935840  0.70299654  1
  Bi2+  Bi116  1  0.52217383  0.48576992  0.20654679  1
  Bi2+  Bi117  1  0.60560734  0.55840872  0.70573957  1
  Bi2+  Bi118  1  0.58829160  0.74567886  0.23439965  1
  Bi2+  Bi119  1  0.58323434  0.75879388  0.71142817  1
  Bi2+  Bi120  1  0.81942944  -0.07998691  0.18984402  1
  Bi2+  Bi121  1  0.87448422  -0.00477699  0.70648880  1
  Bi2+  Bi122  1  0.88330495  0.24975281  0.20573021  1
  Bi2+  Bi123  1  0.92244037  0.26041916  0.69964002  1
  Bi2+  Bi124  1  0.86431520  0.46898391  0.19223771  1
  Bi2+  Bi125  1  0.82295431  0.43742198  0.72402333  1
  Bi2+  Bi126  1  0.86896831  0.70811695  0.20371235  1
  Bi2+  Bi127  1  0.84335661  0.74130781  0.68074187  1
  S2-  S128  1  0.09229930  0.14532306  0.14996560  1
  S2-  S129  1  0.00891923  0.02356457  0.64656973  1
  S2-  S130  1  -0.00389153  0.36282285  0.14899224  1
  S2-  S131  1  -0.02142733  0.41684705  0.65213794  1
  S2-  S132  1  -0.02829332  0.59666279  0.16148914  1
  S2-  S133  1  -0.02246453  0.62900691  0.67580740  1
  S2-  S134  1  0.11181763  0.87751031  0.13267008  1
  S2-  S135  1  -0.01651426  0.84204072  0.68161148  1
  S2-  S136  1  0.24294587  0.04445300  0.19983161  1
  S2-  S137  1  0.25411726  0.02763767  0.64573361  1
  S2-  S138  1  0.26356111  0.30427542  0.14601476  1
  S2-  S139  1  0.27804753  0.44667388  0.64309016  1
  S2-  S140  1  0.20151808  0.62204078  0.15291398  1
  S2-  S141  1  0.20536499  0.61500482  0.68980364  1
  S2-  S142  1  0.34786653  0.86600947  0.14100429  1
  S2-  S143  1  0.22330144  0.83345798  0.68935834  1
  S2-  S144  1  0.41599294  0.13128329  0.15269183  1
  S2-  S145  1  0.60849196  0.13564962  0.63740410  1
  S2-  S146  1  0.50894426  0.34223592  0.15253327  1
  S2-  S147  1  0.49810902  0.36962317  0.64615149  1
  S2-  S148  1  0.50459503  0.71529967  0.14089096  1
  S2-  S149  1  0.41966331  0.61679586  0.64027615  1
  S2-  S150  1  0.55136661  0.93724626  0.16440567  1
  S2-  S151  1  0.42201490  0.87973737  0.64720091  1
  S2-  S152  1  0.87339640  0.12851430  0.14013307  1
  S2-  S153  1  0.83357474  0.13019972  0.65863682  1
  S2-  S154  1  0.76193190  0.32725034  0.15475920  1
  S2-  S155  1  0.73386250  0.35112050  0.65479872  1
  S2-  S156  1  0.73614418  0.55824413  0.16811706  1
  S2-  S157  1  0.74852498  0.60665009  0.65055253  1
  S2-  S158  1  0.74123088  0.78385659  0.14258793  1
  S2-  S159  1  0.76474639  0.89687888  0.65610961  1
  S2-  S160  1  0.12849179  0.01464715  0.34414263  1
  S2-  S161  1  0.14399425  -0.03962958  0.83958520  1
  S2-  S162  1  0.13127714  0.21104692  0.29129095  1
  S2-  S163  1  0.13647790  0.24256697  0.83756234  1
  S2-  S164  1  0.18059826  0.48508628  0.35747160  1
  S2-  S165  1  0.11575267  0.52464544  0.83923424  1
  S2-  S166  1  0.11756924  0.74900106  0.36641870  1
  S2-  S167  1  0.03587462  0.74409577  0.83722161  1
  S2-  S168  1  0.39808279  0.08817175  0.35420128  1
  S2-  S169  1  0.38627523  -0.03817307  0.85219992  1
  S2-  S170  1  0.28266065  0.25633030  0.35195299  1
  S2-  S171  1  0.38339184  0.26996733  0.84280160  1
  S2-  S172  1  0.35418417  0.62967789  0.35982014  1
  S2-  S173  1  0.36456607  0.52287822  0.84149003  1
  S2-  S174  1  0.34586263  0.86530309  0.36251392  1
  S2-  S175  1  0.25644458  0.75163185  0.84776212  1
  S2-  S176  1  0.62456568  0.09308482  0.35654139  1
  S2-  S177  1  0.69629666  0.00394166  0.85533579  1
  S2-  S178  1  0.75891447  0.26867650  0.35504737  1
  S2-  S179  1  0.62154842  0.21372868  0.84487981  1
  S2-  S180  1  0.70114953  0.50992468  0.34072372  1
  S2-  S181  1  0.63575148  0.50061110  0.85083838  1
  S2-  S182  1  0.61388459  0.85780829  0.36165825  1
  S2-  S183  1  0.70729475  0.74789478  0.85175119  1
  S2-  S184  1  0.86363333  0.01892314  0.33944027  1
  S2-  S185  1  0.89013042  -0.09111263  0.84076942  1
  S2-  S186  1  0.97636551  0.24647188  0.35461034  1
  S2-  S187  1  0.86998912  0.13820095  0.85478547  1
  S2-  S188  1  0.93112887  0.52718990  0.34785804  1
  S2-  S189  1  0.86829212  0.57428178  0.85430334  1
  S2-  S190  1  0.86631959  0.77778658  0.35165840  1
  S2-  S191  1  0.85962772  0.72173928  0.77538048  1
  S2-  S192  1  0.00457581  0.11968941  0.45560430  1
  S2-  S193  1  0.00206303  0.13334199  0.95353021  1
  S2-  S194  1  0.00440098  0.37452278  0.45242988  1
  S2-  S195  1  -0.00014644  0.38448247  0.94567794  1
  S2-  S196  1  0.00393449  0.62063814  0.46664166  1
  S2-  S197  1  0.00198539  0.63317799  0.95388566  1
  S2-  S198  1  0.00267647  0.86917548  0.46536882  1
  S2-  S199  1  0.00376834  0.88159983  0.94905930  1
  S2-  S200  1  0.24704997  0.11821123  0.45254856  1
  S2-  S201  1  0.25718173  0.13194273  0.94215484  1
  S2-  S202  1  0.24919949  0.36944257  0.45325923  1
  S2-  S203  1  0.25422843  0.38111301  0.94812595  1
  S2-  S204  1  0.24585380  0.61938103  0.46915794  1
  S2-  S205  1  0.25413653  0.63036621  0.94996047  1
  S2-  S206  1  0.24640307  0.86961971  0.47054924  1
  S2-  S207  1  0.25343162  0.88571884  0.95469814  1
  S2-  S208  1  0.50512036  0.11404038  0.45835397  1
  S2-  S209  1  0.50166307  0.13195017  0.95602584  1
  S2-  S210  1  0.49757365  0.36853972  0.44100489  1
  S2-  S211  1  0.50225356  0.38146742  0.95047663  1
  S2-  S212  1  0.50275653  0.62051435  0.44776050  1
  S2-  S213  1  0.50240765  0.63484866  0.94722943  1
  S2-  S214  1  0.49748060  0.86924843  0.45856252  1
  S2-  S215  1  0.50254945  0.88335168  0.95926107  1
  S2-  S216  1  0.75104284  0.11532579  0.45841852  1
  S2-  S217  1  0.75176606  0.13467380  0.95995856  1
  S2-  S218  1  0.75048629  0.37738477  0.45174889  1
  S2-  S219  1  0.75596207  0.38413398  0.95291007  1
  S2-  S220  1  0.75062048  0.62477932  0.44782620  1
  S2-  S221  1  0.75340740  0.63327801  0.96351940  1
  S2-  S222  1  0.75249384  0.86851857  0.45555634  1
  S2-  S223  1  0.75451944  0.87892143  0.95659829  1
  S2-  S224  1  0.13108909  0.01901837  0.04311634  1
  S2-  S225  1  0.12710481  -0.00461581  0.54878337  1
  S2-  S226  1  0.12966950  0.25639782  0.04362246  1
  S2-  S227  1  0.12402076  0.24684316  0.53530077  1
  S2-  S228  1  0.13050667  0.50351805  0.04540593  1
  S2-  S229  1  0.12486990  0.49269432  0.55525477  1
  S2-  S230  1  0.12943690  0.75627424  0.03482708  1
  S2-  S231  1  0.12818472  0.74437091  0.57022094  1
  S2-  S232  1  0.37298708  0.01318774  0.05020091  1
  S2-  S233  1  0.38315192  -0.00008428  0.54309929  1
  S2-  S234  1  0.38044948  0.25501476  0.04435250  1
  S2-  S235  1  0.37933834  0.24304434  0.54213048  1
  S2-  S236  1  0.38075258  0.50395356  0.04835772  1
  S2-  S237  1  0.37857384  0.49243582  0.53327150  1
  S2-  S238  1  0.37584399  0.75556469  0.03219073  1
  S2-  S239  1  0.37662149  0.74682731  0.54654267  1
  S2-  S240  1  0.63186374  0.01041713  0.05457181  1
  S2-  S241  1  0.62415780  -0.00988979  0.54370598  1
  S2-  S242  1  0.62813110  0.25722200  0.04896463  1
  S2-  S243  1  0.62576095  0.24916122  0.53365789  1
  S2-  S244  1  0.62512399  0.50625281  0.05436413  1
  S2-  S245  1  0.62453646  0.49632523  0.54018645  1
  S2-  S246  1  0.62628949  0.75881334  0.04391954  1
  S2-  S247  1  0.62470115  0.74744523  0.54898556  1
  S2-  S248  1  0.88161181  0.00444669  0.03897539  1
  S2-  S249  1  0.87133227  -0.00421152  0.54691491  1
  S2-  S250  1  0.87730470  0.26093245  0.03760880  1
  S2-  S251  1  0.87545697  0.24971886  0.54525438  1
  S2-  S252  1  0.87818224  0.50834173  0.04967107  1
  S2-  S253  1  0.87588515  0.49515362  0.54650432  1
  S2-  S254  1  0.88889435  0.76288308  0.05552255  1
  S2-  S255  1  0.87622003  0.74723698  0.55419118  1
