# generated using pymatgen
data_La12Ce14Pr13Nd13Sm12(BiS2)64
_symmetry_space_group_name_H-M   'P 1'
_cell_length_a   16.07789780
_cell_length_b   16.05211556
_cell_length_c   27.44683189
_cell_angle_alpha   90.02117619
_cell_angle_beta   89.54794001
_cell_angle_gamma   89.78852563
_symmetry_Int_Tables_number   1
_chemical_formula_structural   La12Ce14Pr13Nd13Sm12(BiS2)64
_chemical_formula_sum   'La12 Ce14 Pr13 Nd13 Sm12 Bi64 S128'
_cell_volume   7083.32637617
_cell_formula_units_Z   1
loop_
 _symmetry_equiv_pos_site_id
 _symmetry_equiv_pos_as_xyz
  1  'x, y, z'
loop_
 _atom_type_symbol
 _atom_type_oxidation_number
  La3+  3.0
  Ce3+  3.0
  Pr3+  3.0
  Nd3+  3.0
  Sm3+  3.0
  Bi2+  2.0
  S2-  -2.0
loop_
 _atom_site_type_symbol
 _atom_site_label
 _atom_site_symmetry_multiplicity
 _atom_site_fract_x
 _atom_site_fract_y
 _atom_site_fract_z
 _atom_site_occupancy
  La3+  La0  1  -0.00346087  0.36836089  0.07179882  1
  La3+  La1  1  0.14194044  0.74120630  0.93709519  1
  La3+  La2  1  0.12135889  0.49253680  0.39150501  1
  La3+  La3  1  0.38198744  0.48879243  0.93186280  1
  La3+  La4  1  0.12253264  0.24940165  0.92843908  1
  La3+  La5  1  0.75127472  0.11231532  0.08725735  1
  La3+  La6  1  0.74544845  0.15345644  0.57426903  1
  La3+  La7  1  0.88208013  0.48798128  0.93607608  1
  La3+  La8  1  -0.00103145  0.14853257  0.61102437  1
  La3+  La9  1  0.25448854  0.14704636  0.57933153  1
  La3+  La10  1  0.37392348  0.02043528  0.41724119  1
  La3+  La11  1  0.24549165  0.11757329  0.06485354  1
  Ce3+  Ce12  1  0.87389266  0.77026961  0.44442230  1
  Ce3+  Ce13  1  0.49821826  0.64776063  0.55347642  1
  Ce3+  Ce14  1  0.74635451  0.39301338  0.55774218  1
  Ce3+  Ce15  1  0.50179775  0.86713424  0.06479924  1
  Ce3+  Ce16  1  0.88626783  -0.01746890  0.92080582  1
  Ce3+  Ce17  1  0.62490920  0.26917319  0.43197797  1
  Ce3+  Ce18  1  0.75090599  0.61815155  0.05553516  1
  Ce3+  Ce19  1  0.63566359  0.23904022  0.95244585  1
  Ce3+  Ce20  1  -0.00234327  0.40109816  0.56763881  1
  Ce3+  Ce21  1  0.49686533  0.90250202  0.55151411  1
  Ce3+  Ce22  1  0.12215606  0.75998302  0.44272406  1
  Ce3+  Ce23  1  0.00142809  0.86691739  0.04915549  1
  Ce3+  Ce24  1  0.37897397  -0.00319770  0.94347047  1
  Ce3+  Ce25  1  -0.00560313  0.90005967  0.56070096  1
  Pr3+  Pr26  1  0.62606072  0.74428593  0.93334089  1
  Pr3+  Pr27  1  0.86852354  0.23302664  0.93457665  1
  Pr3+  Pr28  1  0.89073848  0.73312934  0.91942068  1
  Pr3+  Pr29  1  0.37327607  0.77434691  0.43074162  1
  Pr3+  Pr30  1  0.62825773  0.48961419  0.93226605  1
  Pr3+  Pr31  1  0.36774802  0.27375761  0.42848646  1
  Pr3+  Pr32  1  0.26525599  0.60999523  0.07933480  1
  Pr3+  Pr33  1  0.13857860  0.49361667  0.93901593  1
  Pr3+  Pr34  1  0.62614371  0.52126976  0.42800467  1
  Pr3+  Pr35  1  0.00677663  0.62188866  0.06547291  1
  Pr3+  Pr36  1  0.25311830  0.86653295  0.06485542  1
  Pr3+  Pr37  1  0.13848998  0.00117204  0.90859170  1
  Pr3+  Pr38  1  -0.00376802  0.11593232  0.05454072  1
  Nd3+  Nd39  1  0.49373368  0.39739911  0.55119412  1
  Nd3+  Nd40  1  0.74735798  0.90133466  0.55770373  1
  Nd3+  Nd41  1  0.87475644  0.02366882  0.43853759  1
  Nd3+  Nd42  1  0.63524116  0.02850647  0.41185934  1
  Nd3+  Nd43  1  0.50296773  0.11890729  0.06952672  1
  Nd3+  Nd44  1  0.24876540  0.64493024  0.56589009  1
  Nd3+  Nd45  1  0.87719881  0.27183214  0.44351497  1
  Nd3+  Nd46  1  0.24675446  0.89731602  0.56490097  1
  Nd3+  Nd47  1  0.75143856  0.37827875  0.07443104  1
  Nd3+  Nd48  1  0.36685457  0.52806761  0.43054862  1
  Nd3+  Nd49  1  0.49369810  0.14645625  0.54902921  1
  Nd3+  Nd50  1  0.24660892  0.40051588  0.56537369  1
  Nd3+  Nd51  1  0.50391069  0.61338411  0.06213605  1
  Sm3+  Sm52  1  0.24263512  0.36530597  0.06749628  1
  Sm3+  Sm53  1  0.62534608  0.77436099  0.44462564  1
  Sm3+  Sm54  1  0.37728274  0.24052427  0.94623524  1
  Sm3+  Sm55  1  0.63217065  -0.00573618  0.94668330  1
  Sm3+  Sm56  1  0.87173595  0.52299189  0.43537539  1
  Sm3+  Sm57  1  0.38221493  0.74469691  0.94001062  1
  Sm3+  Sm58  1  0.12140405  0.26932838  0.45442405  1
  Sm3+  Sm59  1  0.12473635  0.02231185  0.45032523  1
  Sm3+  Sm60  1  0.75486344  0.86623348  0.05516302  1
  Sm3+  Sm61  1  0.50202516  0.36659217  0.05781142  1
  Sm3+  Sm62  1  0.74647336  0.64561071  0.55872111  1
  Sm3+  Sm63  1  -0.00293935  0.64118237  0.56191938  1
  Bi2+  Bi64  1  0.02766714  0.09755911  0.29089644  1
  Bi2+  Bi65  1  -0.00691710  0.13086022  0.80173922  1
  Bi2+  Bi66  1  -0.02316945  0.34714934  0.29261706  1
  Bi2+  Bi67  1  -0.03153570  0.44127326  0.81240215  1
  Bi2+  Bi68  1  -0.00388309  0.62827592  0.29314367  1
  Bi2+  Bi69  1  -0.07785000  0.71510864  0.78410866  1
  Bi2+  Bi70  1  0.00947707  0.90040769  0.29576034  1
  Bi2+  Bi71  1  -0.00778093  0.80579616  0.68563785  1
  Bi2+  Bi72  1  0.26217660  0.06736338  0.28460828  1
  Bi2+  Bi73  1  0.29914383  0.14751396  0.79881685  1
  Bi2+  Bi74  1  0.33920167  0.34292804  0.27351010  1
  Bi2+  Bi75  1  0.24542041  0.39712316  0.79371099  1
  Bi2+  Bi76  1  0.25697421  0.60776655  0.29289443  1
  Bi2+  Bi77  1  0.17442308  0.64477263  0.80543115  1
  Bi2+  Bi78  1  0.27852861  0.85042862  0.26689894  1
  Bi2+  Bi79  1  0.31757229  0.86611351  0.78442615  1
  Bi2+  Bi80  1  0.50705290  0.14118702  0.28917289  1
  Bi2+  Bi81  1  0.49408724  0.10224993  0.79132096  1
  Bi2+  Bi82  1  0.52297071  0.34929348  0.32250043  1
  Bi2+  Bi83  1  0.53530700  0.29402453  0.76538181  1
  Bi2+  Bi84  1  0.55072971  0.54295847  0.29960244  1
  Bi2+  Bi85  1  0.47939124  0.61129981  0.79561344  1
  Bi2+  Bi86  1  0.54828284  0.86828163  0.27740996  1
  Bi2+  Bi87  1  0.51679894  0.90231771  0.80382518  1
  Bi2+  Bi88  1  0.78138882  0.14934854  0.28566231  1
  Bi2+  Bi89  1  0.72264771  0.13889994  0.79225860  1
  Bi2+  Bi90  1  0.71076702  0.41264460  0.28515879  1
  Bi2+  Bi91  1  0.67087500  0.41400113  0.81043239  1
  Bi2+  Bi92  1  0.74462660  0.67533718  0.29466790  1
  Bi2+  Bi93  1  0.66622320  0.67849719  0.80341176  1
  Bi2+  Bi94  1  0.81402106  0.89666695  0.27426618  1
  Bi2+  Bi95  1  0.74076209  0.85668069  0.77558481  1
  Bi2+  Bi96  1  0.12856339  -0.01943269  0.21289967  1
  Bi2+  Bi97  1  0.17040373  -0.11632708  0.71181555  1
  Bi2+  Bi98  1  0.16567276  0.24134088  0.27101713  1
  Bi2+  Bi99  1  0.10815197  0.30467976  0.71684075  1
  Bi2+  Bi100  1  0.12481770  0.48984045  0.18475176  1
  Bi2+  Bi101  1  0.08256382  0.51335065  0.73285394  1
  Bi2+  Bi102  1  0.10589255  0.77504178  0.22094589  1
  Bi2+  Bi103  1  0.15316321  0.68668457  0.69424948  1
  Bi2+  Bi104  1  0.39581662  -0.00492078  0.19168576  1
  Bi2+  Bi105  1  0.37921997  0.01380862  0.70415645  1
  Bi2+  Bi106  1  0.42383669  0.22100043  0.19596783  1
  Bi2+  Bi107  1  0.37261208  0.26690963  0.70487565  1
  Bi2+  Bi108  1  0.41193788  0.49284977  0.20771319  1
  Bi2+  Bi109  1  0.37217462  0.50099314  0.70368092  1
  Bi2+  Bi110  1  0.45246241  0.70773889  0.26330766  1
  Bi2+  Bi111  1  0.38299535  0.71787995  0.71691063  1
  Bi2+  Bi112  1  0.64177381  -0.00245184  0.21375627  1
  Bi2+  Bi113  1  0.63918517  -0.02318304  0.68869527  1
  Bi2+  Bi114  1  0.60564274  0.29818875  0.21758665  1
  Bi2+  Bi115  1  0.62509001  0.17135710  0.69199256  1
  Bi2+  Bi116  1  0.58480903  0.61968504  0.19000173  1
  Bi2+  Bi117  1  0.63123083  0.53922265  0.72278305  1
  Bi2+  Bi118  1  0.71560616  0.76490283  0.19288795  1
  Bi2+  Bi119  1  0.57697142  0.78946596  0.71478262  1
  Bi2+  Bi120  1  0.90345683  0.00070289  0.19140499  1
  Bi2+  Bi121  1  0.86835199  -0.02092570  0.71885165  1
  Bi2+  Bi122  1  0.97803241  0.24536185  0.19833484  1
  Bi2+  Bi123  1  0.83636559  0.26307863  0.71581419  1
  Bi2+  Bi124  1  0.83837432  0.49019521  0.21133947  1
  Bi2+  Bi125  1  0.81440668  0.45644765  0.73555139  1
  Bi2+  Bi126  1  0.90484605  0.72536696  0.20236627  1
  Bi2+  Bi127  1  0.87414591  0.63723908  0.68630191  1
  S2-  S128  1  0.04218214  0.10291906  0.15276845  1
  S2-  S129  1  0.07335945  0.15008972  0.70820435  1
  S2-  S130  1  0.11814248  0.33360483  0.14407717  1
  S2-  S131  1  -0.02685376  0.31191156  0.65375004  1
  S2-  S132  1  -0.03011076  0.54930606  0.15516627  1
  S2-  S133  1  -0.00643416  0.53003885  0.64017217  1
  S2-  S134  1  -0.02527262  0.84731470  0.14547350  1
  S2-  S135  1  -0.00559818  0.97722591  0.64891050  1
  S2-  S136  1  0.29081929  0.13092064  0.16127053  1
  S2-  S137  1  0.24110929  0.00528780  0.64693461  1
  S2-  S138  1  0.28307753  0.46175042  0.14585564  1
  S2-  S139  1  0.23997263  0.28866433  0.64642272  1
  S2-  S140  1  0.16828013  0.65481782  0.16173699  1
  S2-  S141  1  0.25197684  0.51945520  0.64244372  1
  S2-  S142  1  0.30620770  0.86856690  0.16084253  1
  S2-  S143  1  0.26984727  0.77436061  0.63649290  1
  S2-  S144  1  0.60024194  0.11753684  0.15242995  1
  S2-  S145  1  0.40944980  0.14136100  0.63737811  1
  S2-  S146  1  0.53323365  0.40127361  0.15196859  1
  S2-  S147  1  0.46529631  0.38486530  0.64892442  1
  S2-  S148  1  0.41158650  0.63437056  0.14643213  1
  S2-  S149  1  0.46406347  0.62205667  0.64768008  1
  S2-  S150  1  0.52391528  0.89151911  0.16076698  1
  S2-  S151  1  0.48491275  0.90299718  0.64980859  1
  S2-  S152  1  0.81712333  0.15324014  0.18622378  1
  S2-  S153  1  0.84342982  0.12095397  0.65953698  1
  S2-  S154  1  0.87026013  0.35748834  0.14941412  1
  S2-  S155  1  0.72079378  0.30376359  0.64114986  1
  S2-  S156  1  0.72899442  0.52572033  0.13845726  1
  S2-  S157  1  0.70946888  0.64515030  0.65416075  1
  S2-  S158  1  0.76189529  0.95591570  0.14016942  1
  S2-  S159  1  0.77472306  0.88483161  0.65581535  1
  S2-  S160  1  0.13513428  0.00883461  0.35164284  1
  S2-  S161  1  0.01415835  -0.01502745  0.83937859  1
  S2-  S162  1  0.10976827  0.31672243  0.35875516  1
  S2-  S163  1  0.14374786  0.14866150  0.84528987  1
  S2-  S164  1  0.11907983  0.50522219  0.28074470  1
  S2-  S165  1  0.12158691  0.38378766  0.85743564  1
  S2-  S166  1  0.13291840  0.66938258  0.35733011  1
  S2-  S167  1  0.04555693  0.73416295  0.85041762  1
  S2-  S168  1  0.34103265  -0.11641113  0.35133812  1
  S2-  S169  1  0.29705199  -0.00302334  0.85637768  1
  S2-  S170  1  0.35612900  0.15848805  0.35038505  1
  S2-  S171  1  0.34675523  0.28494292  0.85290943  1
  S2-  S172  1  0.28827053  0.46520938  0.34755009  1
  S2-  S173  1  0.26446749  0.52443584  0.85949685  1
  S2-  S174  1  0.37747474  0.65294937  0.35465512  1
  S2-  S175  1  0.27036524  0.75059598  0.86256754  1
  S2-  S176  1  0.51428811  0.00186680  0.34155889  1
  S2-  S177  1  0.62321881  0.01541419  0.84870937  1
  S2-  S178  1  0.64842015  0.17347018  0.34949822  1
  S2-  S179  1  0.70687518  0.26329674  0.86434796  1
  S2-  S180  1  0.75192048  0.53159091  0.35739053  1
  S2-  S181  1  0.50780890  0.47981637  0.85682035  1
  S2-  S182  1  0.63582662  0.77502643  0.34648674  1
  S2-  S183  1  0.49853710  0.75092046  0.86228978  1
  S2-  S184  1  0.78380244  0.01313812  0.35136375  1
  S2-  S185  1  0.84218192  0.10162770  0.85583041  1
  S2-  S186  1  0.85957201  0.25851957  0.34274442  1
  S2-  S187  1  0.94235225  0.28856970  0.84807590  1
  S2-  S188  1  0.95755272  0.49589654  0.35062402  1
  S2-  S189  1  0.88216649  0.58950070  0.85255667  1
  S2-  S190  1  0.88271388  0.73010090  0.34987672  1
  S2-  S191  1  0.85010997  0.85410419  0.84994610  1
  S2-  S192  1  0.00025541  0.14527570  0.44413968  1
  S2-  S193  1  0.00442359  0.11425628  0.94989837  1
  S2-  S194  1  -0.00188462  0.39829187  0.45937944  1
  S2-  S195  1  0.00164082  0.36868684  0.96353203  1
  S2-  S196  1  -0.00736602  0.64264107  0.45847808  1
  S2-  S197  1  0.01126314  0.61414782  0.95812848  1
  S2-  S198  1  -0.00090720  0.89636125  0.45260204  1
  S2-  S199  1  0.01446275  0.86816891  0.94781498  1
  S2-  S200  1  0.24421110  0.14724286  0.45701166  1
  S2-  S201  1  0.25265887  0.12055166  0.95762630  1
  S2-  S202  1  0.24313946  0.39569281  0.45760894  1
  S2-  S203  1  0.25723974  0.36382952  0.96349326  1
  S2-  S204  1  0.25168974  0.65036477  0.46115318  1
  S2-  S205  1  0.26404573  0.61802046  0.96770932  1
  S2-  S206  1  0.24006710  0.89303956  0.45875808  1
  S2-  S207  1  0.25696652  0.87594939  0.95955178  1
  S2-  S208  1  0.49971835  0.14731392  0.44601270  1
  S2-  S209  1  0.50537144  0.11876403  0.95969286  1
  S2-  S210  1  0.49559384  0.40003712  0.44564050  1
  S2-  S211  1  0.50607672  0.35773205  0.95492186  1
  S2-  S212  1  0.50541221  0.64746858  0.44949810  1
  S2-  S213  1  0.50549602  0.61768680  0.95788448  1
  S2-  S214  1  0.50705150  0.89990544  0.44772253  1
  S2-  S215  1  0.50512738  0.87380555  0.95934751  1
  S2-  S216  1  0.74987930  0.14731824  0.45916513  1
  S2-  S217  1  0.75044608  0.11082816  0.96774813  1
  S2-  S218  1  0.74788944  0.39323092  0.45240161  1
  S2-  S219  1  0.75402056  0.37053159  0.96431954  1
  S2-  S220  1  0.74681167  0.64941892  0.45616733  1
  S2-  S221  1  0.75021724  0.61865924  0.95022116  1
  S2-  S222  1  0.74713674  0.89770416  0.45287056  1
  S2-  S223  1  0.75014720  0.86622410  0.95319969  1
  S2-  S224  1  0.12659035  -0.01047101  0.05142516  1
  S2-  S225  1  0.11698933  0.02907886  0.55090714  1
  S2-  S226  1  0.12381825  0.23950421  0.03980586  1
  S2-  S227  1  0.11589331  0.26577583  0.55446293  1
  S2-  S228  1  0.12935653  0.49458957  0.04767791  1
  S2-  S229  1  0.12245398  0.52406600  0.54599429  1
  S2-  S230  1  0.13208613  0.74315305  0.04748593  1
  S2-  S231  1  0.11463539  0.77086020  0.54797229  1
  S2-  S232  1  0.37995568  -0.00381403  0.04990437  1
  S2-  S233  1  0.37074581  0.02047154  0.53350207  1
  S2-  S234  1  0.37736259  0.24422777  0.05152745  1
  S2-  S235  1  0.37119315  0.27486233  0.53532344  1
  S2-  S236  1  0.38395511  0.48654544  0.04155620  1
  S2-  S237  1  0.37455177  0.52349429  0.53711022  1
  S2-  S238  1  0.38084926  0.74471476  0.04367367  1
  S2-  S239  1  0.37976195  0.77461995  0.53698486  1
  S2-  S240  1  0.62531625  -0.00992204  0.04876139  1
  S2-  S241  1  0.62327268  0.02589477  0.54913883  1
  S2-  S242  1  0.63053754  0.24665654  0.05652580  1
  S2-  S243  1  0.61672276  0.27187853  0.53754234  1
  S2-  S244  1  0.62362814  0.49052987  0.03800926  1
  S2-  S245  1  0.62384983  0.52004660  0.54207451  1
  S2-  S246  1  0.62693856  0.74381332  0.04548610  1
  S2-  S247  1  0.62426330  0.77368364  0.54919167  1
  S2-  S248  1  0.87643060  -0.01137370  0.03850942  1
  S2-  S249  1  0.87133895  0.02522870  0.54346747  1
  S2-  S250  1  0.86886237  0.23884972  0.04809139  1
  S2-  S251  1  0.87515729  0.26991729  0.54716401  1
  S2-  S252  1  0.87683613  0.49796445  0.04230521  1
  S2-  S253  1  0.86506796  0.52038985  0.54218226  1
  S2-  S254  1  0.87597009  0.74086812  0.03901138  1
  S2-  S255  1  0.87045843  0.76880988  0.55004974  1
