# generated using pymatgen
data_La12Ce14Pr13Nd13Sm12(BiS2)64
_symmetry_space_group_name_H-M   'P 1'
_cell_length_a   16.05889928
_cell_length_b   16.09461497
_cell_length_c   27.28540532
_cell_angle_alpha   89.60012802
_cell_angle_beta   89.59611200
_cell_angle_gamma   89.91026503
_symmetry_Int_Tables_number   1
_chemical_formula_structural   La12Ce14Pr13Nd13Sm12(BiS2)64
_chemical_formula_sum   'La12 Ce14 Pr13 Nd13 Sm12 Bi64 S128'
_cell_volume   7051.87991820
_cell_formula_units_Z   1
loop_
 _symmetry_equiv_pos_site_id
 _symmetry_equiv_pos_as_xyz
  1  'x, y, z'
loop_
 _atom_type_symbol
 _atom_type_oxidation_number
  La3+  3.0
  Ce3+  3.0
  Pr3+  3.0
  Nd3+  3.0
  Sm3+  3.0
  Bi2+  2.0
  S2-  -2.0
loop_
 _atom_site_type_symbol
 _atom_site_label
 _atom_site_symmetry_multiplicity
 _atom_site_fract_x
 _atom_site_fract_y
 _atom_site_fract_z
 _atom_site_occupancy
  La3+  La0  1  0.77046453  0.37815285  0.55978218  1
  La3+  La1  1  0.75427469  0.10557641  0.07322485  1
  La3+  La2  1  0.74921719  0.13140051  0.60642743  1
  La3+  La3  1  0.25662653  0.11335777  0.06901073  1
  La3+  La4  1  0.27743236  0.37293053  0.56638172  1
  La3+  La5  1  0.00623303  0.10500422  0.07427020  1
  La3+  La6  1  0.12770032  -0.00224639  0.92881253  1
  La3+  La7  1  0.03101909  0.86478888  0.59306862  1
  La3+  La8  1  0.52845454  0.37366150  0.56839672  1
  La3+  La9  1  0.25160282  0.36884632  0.11529390  1
  La3+  La10  1  0.37799348  0.74391245  0.92101148  1
  La3+  La11  1  0.74727472  0.85756939  0.06623230  1
  Ce3+  Ce12  1  0.27057842  0.12500386  0.55872188  1
  Ce3+  Ce13  1  0.00658285  0.36747888  0.06482740  1
  Ce3+  Ce14  1  0.01950489  0.62213535  0.56037675  1
  Ce3+  Ce15  1  0.13054499  0.49198020  0.93147902  1
  Ce3+  Ce16  1  0.88009280  0.74657892  0.92744313  1
  Ce3+  Ce17  1  0.02167783  0.37216273  0.56052366  1
  Ce3+  Ce18  1  0.50282553  0.61536574  0.04960819  1
  Ce3+  Ce19  1  0.63215264  0.74405651  0.92426242  1
  Ce3+  Ce20  1  0.50501473  0.86468271  0.04698041  1
  Ce3+  Ce21  1  0.38068691  0.24894566  0.95055675  1
  Ce3+  Ce22  1  0.14001550  0.75494379  0.43542961  1
  Ce3+  Ce23  1  0.52285683  0.12292751  0.55365210  1
  Ce3+  Ce24  1  0.27030741  0.87407641  0.55696033  1
  Ce3+  Ce25  1  0.25648052  0.61032874  0.05561648  1
  Pr3+  Pr26  1  0.65349003  0.00094937  0.43324425  1
  Pr3+  Pr27  1  0.27108436  0.62341905  0.55515819  1
  Pr3+  Pr28  1  0.38031064  0.48813416  0.93106412  1
  Pr3+  Pr29  1  0.37777333  -0.00374652  0.92761964  1
  Pr3+  Pr30  1  0.88399989  -0.00505552  0.93393276  1
  Pr3+  Pr31  1  0.90372992  0.49959028  0.42607460  1
  Pr3+  Pr32  1  0.64028309  -0.00307680  0.92243048  1
  Pr3+  Pr33  1  0.39685215  0.25278547  0.43051329  1
  Pr3+  Pr34  1  0.50504706  0.11500573  0.05432735  1
  Pr3+  Pr35  1  0.14806323  0.24680858  0.43127410  1
  Pr3+  Pr36  1  0.65200434  0.50299357  0.42823607  1
  Pr3+  Pr37  1  0.39853393  0.75213996  0.44075673  1
  Pr3+  Pr38  1  0.75350726  0.37072933  0.06583762  1
  Nd3+  Nd39  1  0.90108811  0.75667546  0.43983220  1
  Nd3+  Nd40  1  0.13045205  0.24373715  0.94772914  1
  Nd3+  Nd41  1  0.50771121  0.37784784  0.07625318  1
  Nd3+  Nd42  1  0.25631897  0.86419004  0.06011203  1
  Nd3+  Nd43  1  0.75607397  0.61611347  0.05296619  1
  Nd3+  Nd44  1  0.89608203  0.00319944  0.46007182  1
  Nd3+  Nd45  1  0.63175879  0.48991627  0.92649356  1
  Nd3+  Nd46  1  0.77202250  0.62600899  0.56050341  1
  Nd3+  Nd47  1  0.00411629  0.85541371  0.06627030  1
  Nd3+  Nd48  1  0.63295342  0.24562169  0.94320617  1
  Nd3+  Nd49  1  0.40399654  0.50223027  0.43119600  1
  Nd3+  Nd50  1  0.64493431  0.24660918  0.42679486  1
  Nd3+  Nd51  1  0.02635685  0.13075170  0.58149051  1
  Sm3+  Sm52  1  0.00760291  0.61478115  0.05508302  1
  Sm3+  Sm53  1  0.89503560  0.24591000  0.44968273  1
  Sm3+  Sm54  1  0.88242707  0.49159101  0.92766840  1
  Sm3+  Sm55  1  0.15227560  0.49910879  0.43710077  1
  Sm3+  Sm56  1  0.12629925  0.74346885  0.93345124  1
  Sm3+  Sm57  1  0.39642716  -0.00109281  0.44369603  1
  Sm3+  Sm58  1  0.14111785  0.00127998  0.44999814  1
  Sm3+  Sm59  1  0.88097529  0.24150117  0.95296089  1
  Sm3+  Sm60  1  0.52582103  0.87511584  0.55771080  1
  Sm3+  Sm61  1  0.52359069  0.62314853  0.55938493  1
  Sm3+  Sm62  1  0.77232857  0.87767207  0.56979159  1
  Sm3+  Sm63  1  0.65767892  0.75727939  0.42957353  1
  Bi2+  Bi64  1  -0.01912865  0.11989355  0.32162917  1
  Bi2+  Bi65  1  -0.00492271  0.13009252  0.80147396  1
  Bi2+  Bi66  1  -0.02749846  0.48891022  0.26183696  1
  Bi2+  Bi67  1  0.06869066  0.36271662  0.80064474  1
  Bi2+  Bi68  1  -0.01306322  0.68480567  0.28476541  1
  Bi2+  Bi69  1  -0.09320673  0.62245340  0.75011848  1
  Bi2+  Bi70  1  0.02511836  0.86660487  0.23492800  1
  Bi2+  Bi71  1  -0.06502796  0.85248701  0.79604151  1
  Bi2+  Bi72  1  0.26310106  0.10158272  0.30468351  1
  Bi2+  Bi73  1  0.23686857  0.10463622  0.78392029  1
  Bi2+  Bi74  1  0.17971774  0.39240484  0.31673648  1
  Bi2+  Bi75  1  0.26891637  0.34932016  0.79285650  1
  Bi2+  Bi76  1  0.22849908  0.64376996  0.27400108  1
  Bi2+  Bi77  1  0.26641960  0.61599037  0.78300592  1
  Bi2+  Bi78  1  0.20930174  0.83544695  0.29571738  1
  Bi2+  Bi79  1  0.21120963  0.85526169  0.78109925  1
  Bi2+  Bi80  1  0.48213273  0.09439859  0.26363918  1
  Bi2+  Bi81  1  0.43104539  0.07416026  0.79291199  1
  Bi2+  Bi82  1  0.44549031  0.41041855  0.29461823  1
  Bi2+  Bi83  1  0.51298995  0.36333974  0.79424395  1
  Bi2+  Bi84  1  0.53948583  0.64868100  0.28203604  1
  Bi2+  Bi85  1  0.49675774  0.61772639  0.77639693  1
  Bi2+  Bi86  1  0.40824368  0.85514032  0.27759193  1
  Bi2+  Bi87  1  0.42206711  0.87425600  0.79797723  1
  Bi2+  Bi88  1  0.74834803  0.15366070  0.28221621  1
  Bi2+  Bi89  1  0.73641433  0.14225764  0.80851651  1
  Bi2+  Bi90  1  0.70416672  0.41647559  0.27828657  1
  Bi2+  Bi91  1  0.85011193  0.42744725  0.77781394  1
  Bi2+  Bi92  1  0.73646611  0.63885708  0.28519286  1
  Bi2+  Bi93  1  0.70226260  0.58988117  0.77108834  1
  Bi2+  Bi94  1  0.78220050  0.89131963  0.30039855  1
  Bi2+  Bi95  1  0.69070804  0.81152779  0.76648788  1
  Bi2+  Bi96  1  0.16810046  -0.00150159  0.23061872  1
  Bi2+  Bi97  1  0.10204510  -0.02863369  0.71498722  1
  Bi2+  Bi98  1  0.10197772  0.25079159  0.21683092  1
  Bi2+  Bi99  1  0.16438186  0.25551938  0.70629894  1
  Bi2+  Bi100  1  0.09786964  0.59959168  0.19037228  1
  Bi2+  Bi101  1  0.10581049  0.50378256  0.71972184  1
  Bi2+  Bi102  1  0.19825997  0.77474866  0.18254631  1
  Bi2+  Bi103  1  0.09680522  0.69355328  0.73966155  1
  Bi2+  Bi104  1  0.40460749  -0.02888060  0.18321425  1
  Bi2+  Bi105  1  0.32946807  -0.05127599  0.70376657  1
  Bi2+  Bi106  1  0.35887527  0.24556564  0.22498774  1
  Bi2+  Bi107  1  0.38703664  0.22607250  0.72214902  1
  Bi2+  Bi108  1  0.38846141  0.59514432  0.21110596  1
  Bi2+  Bi109  1  0.37022587  0.47996159  0.68885091  1
  Bi2+  Bi110  1  0.39297994  0.77573268  0.16206756  1
  Bi2+  Bi111  1  0.37837062  0.74306387  0.71298551  1
  Bi2+  Bi112  1  0.63685988  0.00968412  0.19064684  1
  Bi2+  Bi113  1  0.60260814  -0.01276931  0.71791829  1
  Bi2+  Bi114  1  0.57195521  0.27777265  0.25642318  1
  Bi2+  Bi115  1  0.58532804  0.24946933  0.71647398  1
  Bi2+  Bi116  1  0.67372999  0.52366467  0.18196792  1
  Bi2+  Bi117  1  0.64639242  0.44516591  0.70135049  1
  Bi2+  Bi118  1  0.60913259  0.82855814  0.25916542  1
  Bi2+  Bi119  1  0.57623817  0.72195916  0.68315484  1
  Bi2+  Bi120  1  0.88378727  0.05664408  0.20223651  1
  Bi2+  Bi121  1  0.85576384  -0.00567857  0.72693878  1
  Bi2+  Bi122  1  0.86758655  0.31573017  0.25344150  1
  Bi2+  Bi123  1  0.91947392  0.27741518  0.72642011  1
  Bi2+  Bi124  1  0.85761438  0.45798579  0.17170248  1
  Bi2+  Bi125  1  0.93168587  0.48168880  0.67032181  1
  Bi2+  Bi126  1  0.85175365  0.73002019  0.20566902  1
  Bi2+  Bi127  1  0.77600463  0.71914731  0.68014686  1
  S2-  S128  1  -0.01543352  0.18032088  0.16779799  1
  S2-  S129  1  -0.00853181  0.06772229  0.67528661  1
  S2-  S130  1  0.08025941  0.37582717  0.15206913  1
  S2-  S131  1  0.02411126  0.27667973  0.64319146  1
  S2-  S132  1  -0.00953903  0.71283542  0.13671998  1
  S2-  S133  1  0.05071360  0.69856023  0.64434839  1
  S2-  S134  1  0.00213005  0.96397014  0.14643392  1
  S2-  S135  1  -0.04031589  0.87187089  0.69029211  1
  S2-  S136  1  0.23619094  0.20047178  0.15793762  1
  S2-  S137  1  0.20123715  0.13261649  0.64762714  1
  S2-  S138  1  0.23768887  0.37188461  0.22959938  1
  S2-  S139  1  0.21225266  0.41605849  0.65945179  1
  S2-  S140  1  0.25661379  0.54004415  0.14603961  1
  S2-  S141  1  0.30428521  0.61865581  0.65415058  1
  S2-  S142  1  0.24920506  0.98000008  0.14034505  1
  S2-  S143  1  0.19593838  0.87072465  0.64504588  1
  S2-  S144  1  0.50136233  0.11716937  0.15564039  1
  S2-  S145  1  0.57822554  0.11582164  0.64760489  1
  S2-  S146  1  0.41100716  0.35457497  0.15993032  1
  S2-  S147  1  0.40597825  0.33176041  0.64070040  1
  S2-  S148  1  0.51498816  0.55145929  0.14097460  1
  S2-  S149  1  0.52136638  0.51336490  0.63847297  1
  S2-  S150  1  0.58557247  0.87879654  0.13214951  1
  S2-  S151  1  0.52572044  0.89007518  0.65652709  1
  S2-  S152  1  0.74261153  0.15331707  0.17351865  1
  S2-  S153  1  0.80103730  0.15581071  0.70728153  1
  S2-  S154  1  0.64182493  0.37057756  0.14440053  1
  S2-  S155  1  0.68938484  0.30552534  0.64119840  1
  S2-  S156  1  0.74096191  0.71552757  0.13577985  1
  S2-  S157  1  0.76695415  0.50700023  0.63563814  1
  S2-  S158  1  0.77834719  0.96198064  0.14655074  1
  S2-  S159  1  0.74318693  0.96736019  0.65429499  1
  S2-  S160  1  0.11633441  0.03478247  0.35410092  1
  S2-  S161  1  0.00261170  -0.02114638  0.85189958  1
  S2-  S162  1  0.06593951  0.25333658  0.33772956  1
  S2-  S163  1  0.12441970  0.15813916  0.85895644  1
  S2-  S164  1  0.04459952  0.49290955  0.35848601  1
  S2-  S165  1  0.25728817  0.49489624  0.85342007  1
  S2-  S166  1  0.02356078  0.77720235  0.36460886  1
  S2-  S167  1  0.00717822  0.74749418  0.85521594  1
  S2-  S168  1  0.40107590  0.01237997  0.34575451  1
  S2-  S169  1  0.25350128  -0.01723785  0.85511971  1
  S2-  S170  1  0.27737844  0.24794897  0.35367285  1
  S2-  S171  1  0.38738177  0.28326620  0.85410108  1
  S2-  S172  1  0.28869616  0.49455969  0.35460455  1
  S2-  S173  1  0.50447977  0.49464012  0.85334886  1
  S2-  S174  1  0.41745150  0.72258648  0.34227831  1
  S2-  S175  1  0.24094211  0.73831314  0.85457973  1
  S2-  S176  1  0.65192352  0.11749584  0.35434645  1
  S2-  S177  1  0.59207476  0.04057826  0.82309340  1
  S2-  S178  1  0.51391750  0.28323849  0.35355230  1
  S2-  S179  1  0.64383386  0.27691550  0.84504414  1
  S2-  S180  1  0.52489519  0.51002312  0.35397159  1
  S2-  S181  1  0.76005303  0.48826936  0.85486787  1
  S2-  S182  1  0.63518445  0.88245874  0.35656181  1
  S2-  S183  1  0.50812181  0.74232664  0.84664816  1
  S2-  S184  1  0.87288495  -0.01456779  0.35827046  1
  S2-  S185  1  0.77869646  0.00465752  0.85158710  1
  S2-  S186  1  0.85775581  0.23826090  0.35132562  1
  S2-  S187  1  0.87738322  0.21284894  0.85461859  1
  S2-  S188  1  0.77862240  0.50895330  0.35276248  1
  S2-  S189  1  1.01245751  0.49038105  0.85716340  1
  S2-  S190  1  0.79109729  0.74993204  0.36025108  1
  S2-  S191  1  0.75424394  0.75677152  0.85170233  1
  S2-  S192  1  0.02166754  0.12707937  0.46671053  1
  S2-  S193  1  0.00339207  0.12032853  0.96437400  1
  S2-  S194  1  0.02167086  0.36998713  0.45626315  1
  S2-  S195  1  0.00255543  0.36487078  0.95770472  1
  S2-  S196  1  0.02384607  0.62545469  0.45581063  1
  S2-  S197  1  0.00374754  0.61787982  0.95358129  1
  S2-  S198  1  0.02249884  0.87979683  0.47015022  1
  S2-  S199  1  0.00621105  0.86537357  0.95922897  1
  S2-  S200  1  0.27128164  0.11870482  0.45469077  1
  S2-  S201  1  0.25905773  0.12129555  0.95932554  1
  S2-  S202  1  0.27291621  0.37676091  0.45782441  1
  S2-  S203  1  0.25220604  0.36571914  0.95231791  1
  S2-  S204  1  0.26915401  0.62988923  0.44923162  1
  S2-  S205  1  0.25355858  0.61714762  0.95261093  1
  S2-  S206  1  0.26908899  0.87809866  0.44891242  1
  S2-  S207  1  0.25374987  0.86694874  0.95516228  1
  S2-  S208  1  0.51694282  0.12063333  0.45020901  1
  S2-  S209  1  0.50613181  0.11957664  0.94641612  1
  S2-  S210  1  0.52498535  0.37794594  0.45870345  1
  S2-  S211  1  0.50950624  0.36808414  0.96103757  1
  S2-  S212  1  0.53095418  0.63625171  0.45452261  1
  S2-  S213  1  0.50512469  0.61774335  0.94701002  1
  S2-  S214  1  0.52153453  0.87597882  0.45477467  1
  S2-  S215  1  0.50695506  0.87635524  0.94136451  1
  S2-  S216  1  0.77342770  0.12616309  0.45710445  1
  S2-  S217  1  0.75629545  0.12137917  0.96114462  1
  S2-  S218  1  0.77326824  0.37106140  0.45102518  1
  S2-  S219  1  0.76033425  0.36678723  0.95789632  1
  S2-  S220  1  0.77575090  0.62921170  0.45711408  1
  S2-  S221  1  0.75767890  0.61644024  0.94912370  1
  S2-  S222  1  0.77333508  0.87581802  0.46581799  1
  S2-  S223  1  0.75468196  0.86880005  0.95511364  1
  S2-  S224  1  0.13031960  -0.01462456  0.03963404  1
  S2-  S225  1  0.14456573  0.00075260  0.55268297  1
  S2-  S226  1  0.12782424  0.24031373  0.05192998  1
  S2-  S227  1  0.14960785  0.25149227  0.54105780  1
  S2-  S228  1  0.12841336  0.49084862  0.04126956  1
  S2-  S229  1  0.14498374  0.49952740  0.54348321  1
  S2-  S230  1  0.13403910  0.73791372  0.04023029  1
  S2-  S231  1  0.14928184  0.74861471  0.54015638  1
  S2-  S232  1  0.38220445  -0.01116635  0.03602577  1
  S2-  S233  1  0.39691769  -0.00338437  0.54956480  1
  S2-  S234  1  0.38123878  0.24457075  0.05397928  1
  S2-  S235  1  0.39747060  0.24263610  0.53747939  1
  S2-  S236  1  0.38117880  0.48975664  0.04032073  1
  S2-  S237  1  0.39884127  0.50356566  0.53754593  1
  S2-  S238  1  0.37937577  0.74046327  0.03292214  1
  S2-  S239  1  0.40007792  0.75096888  0.54905506  1
  S2-  S240  1  0.62887375  -0.00657543  0.03297825  1
  S2-  S241  1  0.64761250  -0.00178829  0.54400025  1
  S2-  S242  1  0.63103606  0.23883714  0.04938710  1
  S2-  S243  1  0.64473968  0.24368588  0.53523975  1
  S2-  S244  1  0.63243129  0.49439619  0.03428457  1
  S2-  S245  1  0.64597559  0.50520723  0.53516582  1
  S2-  S246  1  0.62518834  0.73660833  0.03164502  1
  S2-  S247  1  0.64790474  0.75153419  0.54413006  1
  S2-  S248  1  0.88117442  -0.01416410  0.04156799  1
  S2-  S249  1  0.89745918  -0.00067784  0.56396058  1
  S2-  S250  1  0.87731743  0.24132580  0.05746350  1
  S2-  S251  1  0.88626658  0.24218206  0.55512676  1
  S2-  S252  1  0.88276052  0.49363201  0.03881713  1
  S2-  S253  1  0.90032905  0.49980454  0.53465779  1
  S2-  S254  1  0.88093511  0.73806827  0.03498194  1
  S2-  S255  1  0.89600946  0.75313551  0.55147575  1
