# generated using pymatgen
data_La12Ce14Pr13Nd13Sm12(BiS2)64
_symmetry_space_group_name_H-M   'P 1'
_cell_length_a   16.04720596
_cell_length_b   16.06550603
_cell_length_c   27.28227132
_cell_angle_alpha   90.18638609
_cell_angle_beta   90.18339433
_cell_angle_gamma   90.01259597
_symmetry_Int_Tables_number   1
_chemical_formula_structural   La12Ce14Pr13Nd13Sm12(BiS2)64
_chemical_formula_sum   'La12 Ce14 Pr13 Nd13 Sm12 Bi64 S128'
_cell_volume   7033.47301171
_cell_formula_units_Z   1
loop_
 _symmetry_equiv_pos_site_id
 _symmetry_equiv_pos_as_xyz
  1  'x, y, z'
loop_
 _atom_type_symbol
 _atom_type_oxidation_number
  La3+  3.0
  Ce3+  3.0
  Pr3+  3.0
  Nd3+  3.0
  Sm3+  3.0
  Bi2+  2.0
  S2-  -2.0
loop_
 _atom_site_type_symbol
 _atom_site_label
 _atom_site_symmetry_multiplicity
 _atom_site_fract_x
 _atom_site_fract_y
 _atom_site_fract_z
 _atom_site_occupancy
  La3+  La0  1  0.00007939  0.12716147  0.56692387  1
  La3+  La1  1  0.50565678  0.13493174  0.07304009  1
  La3+  La2  1  -0.00142977  0.63698940  0.07001418  1
  La3+  La3  1  0.75052757  0.86254177  0.58688712  1
  La3+  La4  1  0.62573218  0.25619047  0.93366259  1
  La3+  La5  1  0.75559797  0.13895881  0.08436653  1
  La3+  La6  1  0.37459217  -0.00183125  0.39880720  1
  La3+  La7  1  0.64174026  -0.01497288  0.42102291  1
  La3+  La8  1  0.50165751  0.63566907  0.07311332  1
  La3+  La9  1  0.37673241  0.73484414  0.40310232  1
  La3+  La10  1  0.63676748  -0.00230799  0.89019362  1
  La3+  La11  1  0.00607405  0.38845152  0.06166421  1
  Ce3+  Ce12  1  0.75595314  0.88875812  0.05736652  1
  Ce3+  Ce13  1  0.38484378  0.25192323  0.42398454  1
  Ce3+  Ce14  1  0.02095908  0.88021763  0.58224930  1
  Ce3+  Ce15  1  0.12741201  0.25698962  0.94123753  1
  Ce3+  Ce16  1  0.37515196  0.49678563  0.44713351  1
  Ce3+  Ce17  1  0.12344400  0.00902627  0.94400320  1
  Ce3+  Ce18  1  0.38526118  0.00943250  0.94278433  1
  Ce3+  Ce19  1  0.25239565  0.13185933  0.05854997  1
  Ce3+  Ce20  1  0.62908123  0.76015019  0.94280282  1
  Ce3+  Ce21  1  0.87785925  0.25350514  0.94395005  1
  Ce3+  Ce22  1  0.25950213  0.87226225  0.55230415  1
  Ce3+  Ce23  1  0.00093277  0.37346653  0.56342231  1
  Ce3+  Ce24  1  0.74288557  0.12739585  0.56503844  1
  Ce3+  Ce25  1  0.50364981  0.38648056  0.05908436  1
  Pr3+  Pr26  1  0.88834455  0.50375149  0.42575587  1
  Pr3+  Pr27  1  0.88333580  0.74791347  0.44617385  1
  Pr3+  Pr28  1  0.00911403  0.62246625  0.57067733  1
  Pr3+  Pr29  1  0.13116142  0.74925299  0.43663812  1
  Pr3+  Pr30  1  0.25343492  0.39027687  0.05784208  1
  Pr3+  Pr31  1  0.25328967  0.61817103  0.57610773  1
  Pr3+  Pr32  1  0.88075313  0.51015775  0.92748656  1
  Pr3+  Pr33  1  0.12442213  0.76244008  0.93121315  1
  Pr3+  Pr34  1  0.12693731  -0.00299387  0.43436924  1
  Pr3+  Pr35  1  0.00409895  0.14015521  0.07735642  1
  Pr3+  Pr36  1  0.62661675  0.50600376  0.93331071  1
  Pr3+  Pr37  1  0.37789851  0.51191494  0.92905262  1
  Pr3+  Pr38  1  0.12960044  0.51601501  0.91798394  1
  Nd3+  Nd39  1  0.25870699  0.12566376  0.55505549  1
  Nd3+  Nd40  1  -0.00302453  0.88328405  0.07413423  1
  Nd3+  Nd41  1  0.75525536  0.37467061  0.54885055  1
  Nd3+  Nd42  1  0.63135067  0.24337477  0.42305526  1
  Nd3+  Nd43  1  0.25545045  0.36684490  0.56858078  1
  Nd3+  Nd44  1  0.75855070  0.62040145  0.56684670  1
  Nd3+  Nd45  1  0.63117162  0.73969533  0.43410383  1
  Nd3+  Nd46  1  0.87841885  0.24960475  0.42464753  1
  Nd3+  Nd47  1  0.50693293  0.87070222  0.54646723  1
  Nd3+  Nd48  1  0.50825782  0.36721233  0.56114434  1
  Nd3+  Nd49  1  0.25152797  0.88463652  0.06218481  1
  Nd3+  Nd50  1  0.75604977  0.63604250  0.05225464  1
  Nd3+  Nd51  1  0.75327204  0.38640440  0.05974264  1
  Sm3+  Sm52  1  0.88141694  0.76509644  0.93181427  1
  Sm3+  Sm53  1  0.50590960  0.88634884  0.06364642  1
  Sm3+  Sm54  1  0.13155502  0.49690680  0.44327683  1
  Sm3+  Sm55  1  0.37809128  0.25724356  0.94861048  1
  Sm3+  Sm56  1  0.87692116  -0.00598301  0.45270048  1
  Sm3+  Sm57  1  0.25061232  0.63715353  0.05397851  1
  Sm3+  Sm58  1  0.62720048  0.50439173  0.44299879  1
  Sm3+  Sm59  1  0.50296436  0.62399300  0.56187624  1
  Sm3+  Sm60  1  0.38248452  0.76254002  0.94649384  1
  Sm3+  Sm61  1  0.50749144  0.11997751  0.54087338  1
  Sm3+  Sm62  1  0.12684616  0.24727151  0.43402583  1
  Sm3+  Sm63  1  0.88268862  0.01398493  0.93990906  1
  Bi2+  Bi64  1  0.00813406  0.06562374  0.30246330  1
  Bi2+  Bi65  1  0.02244231  0.15022958  0.80012990  1
  Bi2+  Bi66  1  0.02244143  0.36652568  0.30256152  1
  Bi2+  Bi67  1  -0.02024097  0.39608606  0.76781953  1
  Bi2+  Bi68  1  0.01046146  0.67250611  0.31307188  1
  Bi2+  Bi69  1  -0.01231798  0.66180491  0.80546701  1
  Bi2+  Bi70  1  0.00022822  0.86673276  0.35284575  1
  Bi2+  Bi71  1  0.03602217  0.87223390  0.76117842  1
  Bi2+  Bi72  1  0.20813071  0.13744017  0.30064771  1
  Bi2+  Bi73  1  0.23977550  0.13502277  0.79749751  1
  Bi2+  Bi74  1  0.23186835  0.33882636  0.32621185  1
  Bi2+  Bi75  1  0.26429307  0.41452334  0.74780716  1
  Bi2+  Bi76  1  0.24029215  0.53700094  0.30461080  1
  Bi2+  Bi77  1  0.28832037  0.62110596  0.79350991  1
  Bi2+  Bi78  1  0.16897135  0.84800738  0.28279878  1
  Bi2+  Bi79  1  0.19705710  0.94365373  0.81768494  1
  Bi2+  Bi80  1  0.49238460  0.16888597  0.27816667  1
  Bi2+  Bi81  1  0.49439175  0.15502751  0.78954897  1
  Bi2+  Bi82  1  0.42445799  0.37823565  0.27807215  1
  Bi2+  Bi83  1  0.47377459  0.41630318  0.81460983  1
  Bi2+  Bi84  1  0.50722415  0.60573282  0.28318849  1
  Bi2+  Bi85  1  0.54354253  0.59479696  0.82344542  1
  Bi2+  Bi86  1  0.55139476  0.89599193  0.27697515  1
  Bi2+  Bi87  1  0.38303920  0.88828583  0.79724856  1
  Bi2+  Bi88  1  0.73594545  0.09456073  0.28276280  1
  Bi2+  Bi89  1  0.76981687  0.12099017  0.79029589  1
  Bi2+  Bi90  1  0.74951228  0.34598432  0.27799198  1
  Bi2+  Bi91  1  0.77817558  0.42833928  0.80260773  1
  Bi2+  Bi92  1  0.75372997  0.56736355  0.28957187  1
  Bi2+  Bi93  1  0.72456984  0.61088660  0.77665152  1
  Bi2+  Bi94  1  0.80834202  0.84742839  0.30965946  1
  Bi2+  Bi95  1  0.75067219  0.85438241  0.79094847  1
  Bi2+  Bi96  1  0.08372294  -0.03138308  0.20663025  1
  Bi2+  Bi97  1  0.18511251  0.02844939  0.70786928  1
  Bi2+  Bi98  1  0.09241211  0.17058722  0.20993410  1
  Bi2+  Bi99  1  0.11551806  0.29286675  0.70792822  1
  Bi2+  Bi100  1  0.10965212  0.47874714  0.22342768  1
  Bi2+  Bi101  1  0.11075207  0.51602171  0.70643602  1
  Bi2+  Bi102  1  0.13459557  0.68138329  0.22066692  1
  Bi2+  Bi103  1  0.18547393  0.75678199  0.72355809  1
  Bi2+  Bi104  1  0.35565154  0.00339803  0.20522137  1
  Bi2+  Bi105  1  0.38622162  0.04948394  0.71016831  1
  Bi2+  Bi106  1  0.29223297  0.26993507  0.21880193  1
  Bi2+  Bi107  1  0.35657743  0.24927332  0.71410039  1
  Bi2+  Bi108  1  0.34272615  0.51024498  0.20804644  1
  Bi2+  Bi109  1  0.37500712  0.65466552  0.69305883  1
  Bi2+  Bi110  1  0.38903700  0.76207486  0.20087436  1
  Bi2+  Bi111  1  0.35154130  0.85466641  0.67915980  1
  Bi2+  Bi112  1  0.69941858  -0.08419609  0.19238912  1
  Bi2+  Bi113  1  0.64786434  0.01907234  0.68560983  1
  Bi2+  Bi114  1  0.60831089  0.24879863  0.19407136  1
  Bi2+  Bi115  1  0.59191625  0.25944299  0.70769204  1
  Bi2+  Bi116  1  0.62503585  0.46150636  0.22371030  1
  Bi2+  Bi117  1  0.53557321  0.49840684  0.72088022  1
  Bi2+  Bi118  1  0.71680708  0.73291145  0.22807718  1
  Bi2+  Bi119  1  0.52143008  0.78249164  0.71906294  1
  Bi2+  Bi120  1  0.89162195  -0.01931674  0.22200151  1
  Bi2+  Bi121  1  0.90805477  -0.00547208  0.70505114  1
  Bi2+  Bi122  1  0.88729197  0.25735244  0.21273364  1
  Bi2+  Bi123  1  0.83103440  0.30279367  0.72000495  1
  Bi2+  Bi124  1  0.89515667  0.51661377  0.21308758  1
  Bi2+  Bi125  1  0.75051563  0.47938220  0.68488582  1
  Bi2+  Bi126  1  0.91666013  0.72607502  0.21517357  1
  Bi2+  Bi127  1  0.88261995  0.62198575  0.69549247  1
  S2-  S128  1  -0.11283412  0.11661803  0.15412451  1
  S2-  S129  1  0.04185769  0.03144073  0.64761557  1
  S2-  S130  1  0.01330439  0.28371236  0.14639861  1
  S2-  S131  1  0.00195699  0.26022930  0.63966425  1
  S2-  S132  1  0.01735167  0.50659742  0.13933732  1
  S2-  S133  1  -0.02016120  0.49150892  0.63996376  1
  S2-  S134  1  0.04033781  0.75607881  0.14489852  1
  S2-  S135  1  -0.03340264  0.83256071  0.67329989  1
  S2-  S136  1  0.25205677  0.12333849  0.15618882  1
  S2-  S137  1  0.24808387  0.23292453  0.63656038  1
  S2-  S138  1  0.23527160  0.39528189  0.15846821  1
  S2-  S139  1  0.25666530  0.47866220  0.64932629  1
  S2-  S140  1  0.27763384  0.64454926  0.15239035  1
  S2-  S141  1  0.12883276  0.65557727  0.64821618  1
  S2-  S142  1  0.26969850  0.87860301  0.16213145  1
  S2-  S143  1  0.18415284  0.87497909  0.64124264  1
  S2-  S144  1  0.47096797  0.12994629  0.17308736  1
  S2-  S145  1  0.56950499  0.14797142  0.63233596  1
  S2-  S146  1  0.51187413  0.38731365  0.15618393  1
  S2-  S147  1  0.47761028  0.36237916  0.65928672  1
  S2-  S148  1  0.50859709  0.65564587  0.17354935  1
  S2-  S149  1  0.54500423  0.63961785  0.65785867  1
  S2-  S150  1  0.48193915  0.88270749  0.16273581  1
  S2-  S151  1  0.58019897  0.87644365  0.63895101  1
  S2-  S152  1  0.68133994  0.08935359  0.17929933  1
  S2-  S153  1  0.79793782  0.10542463  0.65891710  1
  S2-  S154  1  0.75420147  0.29739421  0.14627190  1
  S2-  S155  1  0.71376225  0.31289865  0.64019802  1
  S2-  S156  1  0.83576344  0.62243373  0.14030537  1
  S2-  S157  1  0.76172266  0.70724585  0.65264177  1
  S2-  S158  1  0.85264415  0.87713004  0.13846928  1
  S2-  S159  1  0.77231268  0.90063639  0.68961136  1
  S2-  S160  1  0.21628700  -0.01496113  0.34667900  1
  S2-  S161  1  0.01571196  0.03105696  0.86818928  1
  S2-  S162  1  0.01215335  0.21940904  0.35720697  1
  S2-  S163  1  0.13720295  0.25899349  0.84293695  1
  S2-  S164  1  0.04138179  0.51598584  0.35875793  1
  S2-  S165  1  0.14335806  0.65448610  0.84844187  1
  S2-  S166  1  0.22570743  0.73661959  0.34860160  1
  S2-  S167  1  0.00038261  0.80287091  0.85924943  1
  S2-  S168  1  0.40281422  -0.04993664  0.29634208  1
  S2-  S169  1  0.46480282  0.01572443  0.85617482  1
  S2-  S170  1  0.36772679  0.14852983  0.34347036  1
  S2-  S171  1  0.41467305  0.26305386  0.85209375  1
  S2-  S172  1  0.38866964  0.56762723  0.35682993  1
  S2-  S173  1  0.26517902  0.48148049  0.85037198  1
  S2-  S174  1  0.45885184  0.75343580  0.30954045  1
  S2-  S175  1  0.38482800  0.74083720  0.84907874  1
  S2-  S176  1  0.59077336  0.04870656  0.32677814  1
  S2-  S177  1  0.64548027  -0.00698976  0.77993931  1
  S2-  S178  1  0.51842314  0.28955765  0.34913526  1
  S2-  S179  1  0.64574653  0.16399577  0.84746659  1
  S2-  S180  1  0.62300841  0.60462217  0.36142586  1
  S2-  S181  1  0.63202730  0.38406245  0.85680215  1
  S2-  S182  1  0.65702011  0.83875169  0.35294928  1
  S2-  S183  1  0.62498026  0.82809628  0.85295824  1
  S2-  S184  1  0.79951476  -0.00152693  0.36154802  1
  S2-  S185  1  0.80701472  -0.01572503  0.84926368  1
  S2-  S186  1  0.75227672  0.21312055  0.34923402  1
  S2-  S187  1  0.88359607  0.21707928  0.84723143  1
  S2-  S188  1  0.87389001  0.38434240  0.35014136  1
  S2-  S189  1  0.99373326  0.50374335  0.84886361  1
  S2-  S190  1  0.86115541  0.64442887  0.36129899  1
  S2-  S191  1  0.82570810  0.71038856  0.83813393  1
  S2-  S192  1  0.00073062  0.11799498  0.45799577  1
  S2-  S193  1  0.00542602  0.13846013  0.96840811  1
  S2-  S194  1  0.00817537  0.37161160  0.45608475  1
  S2-  S195  1  0.00443267  0.38191874  0.95120060  1
  S2-  S196  1  0.01222940  0.62407495  0.46347981  1
  S2-  S197  1  -0.00059416  0.63703695  0.95471710  1
  S2-  S198  1  0.00649717  0.87510111  0.46905276  1
  S2-  S199  1  0.00162911  0.88796168  0.96714422  1
  S2-  S200  1  0.25492900  0.12499249  0.45001177  1
  S2-  S201  1  0.25481657  0.13173807  0.95181143  1
  S2-  S202  1  0.25298376  0.36960324  0.45683007  1
  S2-  S203  1  0.25462248  0.38188077  0.95274760  1
  S2-  S204  1  0.25394969  0.62176312  0.46064105  1
  S2-  S205  1  0.25854946  0.63954155  0.95196485  1
  S2-  S206  1  0.26417101  0.87210333  0.44774243  1
  S2-  S207  1  0.25607149  0.88459323  0.95453539  1
  S2-  S208  1  0.50542132  0.11478329  0.43996825  1
  S2-  S209  1  0.50120368  0.13695708  0.96349740  1
  S2-  S210  1  0.50594124  0.38042036  0.45422039  1
  S2-  S211  1  0.49754853  0.38656136  0.95613838  1
  S2-  S212  1  0.49704117  0.62492592  0.45930966  1
  S2-  S213  1  0.50315263  0.63472089  0.96111889  1
  S2-  S214  1  0.49586806  0.86661823  0.43997529  1
  S2-  S215  1  0.50726147  0.88489374  0.95923526  1
  S2-  S216  1  0.75639592  0.12159765  0.45823821  1
  S2-  S217  1  0.75411963  0.13033458  0.95739986  1
  S2-  S218  1  0.74624723  0.37913850  0.44515454  1
  S2-  S219  1  0.75724403  0.38444962  0.95476951  1
  S2-  S220  1  0.75566035  0.61940093  0.46197106  1
  S2-  S221  1  0.75177020  0.63214418  0.94738963  1
  S2-  S222  1  0.75720259  0.86477388  0.46490387  1
  S2-  S223  1  0.75428867  0.88517767  0.95368713  1
  S2-  S224  1  0.12491070  0.00802350  0.05339143  1
  S2-  S225  1  0.13800477  0.00258235  0.54002739  1
  S2-  S226  1  0.13445358  0.25966355  0.04699873  1
  S2-  S227  1  0.12970172  0.24831753  0.53647256  1
  S2-  S228  1  0.13219363  0.51574544  0.03490632  1
  S2-  S229  1  0.13275624  0.49223828  0.54567847  1
  S2-  S230  1  0.13134094  0.76068070  0.04003774  1
  S2-  S231  1  0.13441268  0.74949481  0.54277388  1
  S2-  S232  1  0.37997933  0.00703206  0.05075665  1
  S2-  S233  1  0.38413367  0.00055955  0.54895821  1
  S2-  S234  1  0.37680949  0.26080892  0.05407750  1
  S2-  S235  1  0.38599916  0.24728782  0.53581800  1
  S2-  S236  1  0.37816232  0.51425529  0.04451061  1
  S2-  S237  1  0.38404822  0.49500674  0.55145355  1
  S2-  S238  1  0.37897269  0.76203230  0.05082334  1
  S2-  S239  1  0.38016754  0.74478024  0.55434315  1
  S2-  S240  1  0.62861470  0.00884847  0.06146745  1
  S2-  S241  1  0.63035374  -0.00425732  0.53527116  1
  S2-  S242  1  0.62782713  0.26163769  0.04529964  1
  S2-  S243  1  0.62736795  0.25053051  0.52835560  1
  S2-  S244  1  0.62925555  0.51200787  0.04788284  1
  S2-  S245  1  0.62726951  0.49928028  0.54823949  1
  S2-  S246  1  0.62939365  0.76048658  0.05315364  1
  S2-  S247  1  0.62901386  0.74128849  0.54182464  1
  S2-  S248  1  0.87923819  0.01408127  0.04563545  1
  S2-  S249  1  0.87422729  -0.00709782  0.55573172  1
  S2-  S250  1  0.87739078  0.26170204  0.04680473  1
  S2-  S251  1  0.87251328  0.24899731  0.53739837  1
  S2-  S252  1  0.87577114  0.50818289  0.03534791  1
  S2-  S253  1  0.87742038  0.49817312  0.53666371  1
  S2-  S254  1  0.87723581  0.75985895  0.03696427  1
  S2-  S255  1  0.88523868  0.74799527  0.55311675  1
