# generated using pymatgen
data_La12Ce14Pr13Nd13Sm12(BiS2)64
_symmetry_space_group_name_H-M   'P 1'
_cell_length_a   16.13265597
_cell_length_b   16.12201938
_cell_length_c   27.27995978
_cell_angle_alpha   90.02125691
_cell_angle_beta   90.03811680
_cell_angle_gamma   90.02135108
_symmetry_Int_Tables_number   1
_chemical_formula_structural   La12Ce14Pr13Nd13Sm12(BiS2)64
_chemical_formula_sum   'La12 Ce14 Pr13 Nd13 Sm12 Bi64 S128'
_cell_volume   7095.26925388
_cell_formula_units_Z   1
loop_
 _symmetry_equiv_pos_site_id
 _symmetry_equiv_pos_as_xyz
  1  'x, y, z'
loop_
 _atom_type_symbol
 _atom_type_oxidation_number
  La3+  3.0
  Ce3+  3.0
  Pr3+  3.0
  Nd3+  3.0
  Sm3+  3.0
  Bi2+  2.0
  S2-  -2.0
loop_
 _atom_site_type_symbol
 _atom_site_label
 _atom_site_symmetry_multiplicity
 _atom_site_fract_x
 _atom_site_fract_y
 _atom_site_fract_z
 _atom_site_occupancy
  La3+  La0  1  0.86770636  0.48295587  0.92254506  1
  La3+  La1  1  0.12602730  0.49927186  0.42701591  1
  La3+  La2  1  0.86422605  0.50851965  0.40649541  1
  La3+  La3  1  0.50346736  0.87474116  0.57543934  1
  La3+  La4  1  0.49962627  0.37133961  0.56715413  1
  La3+  La5  1  0.38480736  0.26035019  0.39293381  1
  La3+  La6  1  0.12307284  0.48690524  0.91957383  1
  La3+  La7  1  0.75216573  0.12502030  0.56190794  1
  La3+  La8  1  -0.00981361  0.59873420  0.10705571  1
  La3+  La9  1  0.75587194  0.37591888  0.07339670  1
  La3+  La10  1  0.87059411  0.74191061  0.91731292  1
  La3+  La11  1  0.00947198  0.61638764  0.60590268  1
  Ce3+  Ce12  1  0.37956916  0.50162586  0.44330721  1
  Ce3+  Ce13  1  0.62369513  -0.00019281  0.44504692  1
  Ce3+  Ce14  1  0.49874723  0.61928530  0.06017673  1
  Ce3+  Ce15  1  0.12423556  0.00059388  0.43748035  1
  Ce3+  Ce16  1  0.87254040  0.24295391  0.94526220  1
  Ce3+  Ce17  1  0.12341392  0.24080901  0.93410982  1
  Ce3+  Ce18  1  0.00056039  0.38419254  0.55068625  1
  Ce3+  Ce19  1  0.24604427  0.62935737  0.55625732  1
  Ce3+  Ce20  1  0.37407682  0.74176917  0.93141111  1
  Ce3+  Ce21  1  0.25186964  0.12776667  0.54796749  1
  Ce3+  Ce22  1  0.74893513  0.11632553  0.05788390  1
  Ce3+  Ce23  1  0.62033566  0.24456272  0.95502323  1
  Ce3+  Ce24  1  0.24866764  0.11737225  0.06103200  1
  Ce3+  Ce25  1  0.12457755  0.25369373  0.43614908  1
  Pr3+  Pr26  1  0.75107593  0.86438516  0.05483587  1
  Pr3+  Pr27  1  0.13391483  0.74041407  0.91252727  1
  Pr3+  Pr28  1  0.87580230  -0.00597437  0.94027710  1
  Pr3+  Pr29  1  0.75496004  0.38068457  0.56731661  1
  Pr3+  Pr30  1  0.49915008  0.37844650  0.07728878  1
  Pr3+  Pr31  1  0.24407910  0.37124196  0.06274861  1
  Pr3+  Pr32  1  0.00504790  0.88603031  0.59624487  1
  Pr3+  Pr33  1  0.61973183  0.48883212  0.93793655  1
  Pr3+  Pr34  1  0.49940777  0.62064253  0.57084834  1
  Pr3+  Pr35  1  0.87678613  -0.00107167  0.43898089  1
  Pr3+  Pr36  1  0.37950491  0.75332335  0.43342499  1
  Pr3+  Pr37  1  0.37891109  0.00166165  0.43256190  1
  Pr3+  Pr38  1  0.61985551  0.74324857  0.93268632  1
  Nd3+  Nd39  1  0.12325850  -0.00567696  0.94126540  1
  Nd3+  Nd40  1  0.63265415  0.25533732  0.43300947  1
  Nd3+  Nd41  1  0.12225351  0.75015875  0.44313170  1
  Nd3+  Nd42  1  0.75675989  0.61945115  0.05119880  1
  Nd3+  Nd43  1  0.24678623  0.37779826  0.55464432  1
  Nd3+  Nd44  1  0.50152614  0.10860100  0.08015229  1
  Nd3+  Nd45  1  0.25184925  0.87655923  0.56220021  1
  Nd3+  Nd46  1  0.00283420  0.12592370  0.55881978  1
  Nd3+  Nd47  1  0.37481876  0.24399733  0.95063723  1
  Nd3+  Nd48  1  0.62166395  -0.00494354  0.94017306  1
  Nd3+  Nd49  1  0.75315810  0.87355277  0.57058210  1
  Nd3+  Nd50  1  0.24659167  0.86552744  0.04899354  1
  Nd3+  Nd51  1  -0.00064283  0.11812919  0.06730220  1
  Sm3+  Sm52  1  0.23593342  0.62086897  0.05076978  1
  Sm3+  Sm53  1  0.75706324  0.62756044  0.56236306  1
  Sm3+  Sm54  1  0.49699410  0.13069735  0.55913381  1
  Sm3+  Sm55  1  0.87803887  0.75002871  0.44744407  1
  Sm3+  Sm56  1  0.00024744  0.85679889  0.04840354  1
  Sm3+  Sm57  1  0.49628478  0.86345646  0.05860011  1
  Sm3+  Sm58  1  0.00249662  0.36366348  0.05796654  1
  Sm3+  Sm59  1  0.37501507  -0.00401841  0.94151027  1
  Sm3+  Sm60  1  0.62719112  0.50211930  0.44464486  1
  Sm3+  Sm61  1  0.62777613  0.75083240  0.45101601  1
  Sm3+  Sm62  1  0.87149379  0.25489024  0.44210598  1
  Sm3+  Sm63  1  0.37394316  0.49162861  0.95091880  1
  Bi2+  Bi64  1  0.00595405  0.08626870  0.30766697  1
  Bi2+  Bi65  1  -0.00556741  0.17206467  0.80544709  1
  Bi2+  Bi66  1  -0.04396972  0.28380509  0.31094823  1
  Bi2+  Bi67  1  -0.01233850  0.38793684  0.79911517  1
  Bi2+  Bi68  1  0.00835874  0.62375992  0.31135111  1
  Bi2+  Bi69  1  0.02786377  0.63698661  0.79740726  1
  Bi2+  Bi70  1  -0.01840988  0.88218741  0.29092588  1
  Bi2+  Bi71  1  -0.01264946  0.90857150  0.79298593  1
  Bi2+  Bi72  1  0.25931719  0.04293147  0.25865831  1
  Bi2+  Bi73  1  0.21362003  0.12747195  0.80207503  1
  Bi2+  Bi74  1  0.24282887  0.40935604  0.28776068  1
  Bi2+  Bi75  1  0.28362752  0.35356387  0.79508633  1
  Bi2+  Bi76  1  0.26862838  0.66786937  0.27534997  1
  Bi2+  Bi77  1  0.31672027  0.66617630  0.75409302  1
  Bi2+  Bi78  1  0.24697082  0.84997980  0.31240405  1
  Bi2+  Bi79  1  0.35071675  0.89437777  0.77706238  1
  Bi2+  Bi80  1  0.50761183  0.09347103  0.28418980  1
  Bi2+  Bi81  1  0.48613449  0.08249882  0.78915147  1
  Bi2+  Bi82  1  0.49182493  0.38685946  0.28069854  1
  Bi2+  Bi83  1  0.50616638  0.37355201  0.82634763  1
  Bi2+  Bi84  1  0.44915025  0.64575185  0.31900483  1
  Bi2+  Bi85  1  0.48627794  0.59650812  0.80171668  1
  Bi2+  Bi86  1  0.49465667  0.82380696  0.27432745  1
  Bi2+  Bi87  1  0.49594514  0.78920825  0.82352591  1
  Bi2+  Bi88  1  0.76284993  0.09623014  0.24746433  1
  Bi2+  Bi89  1  0.79614686  0.16271678  0.77372903  1
  Bi2+  Bi90  1  0.69755986  0.35009464  0.29562112  1
  Bi2+  Bi91  1  0.72149560  0.34111207  0.79238678  1
  Bi2+  Bi92  1  0.74830299  0.68555601  0.27680986  1
  Bi2+  Bi93  1  0.67805238  0.62356909  0.78754435  1
  Bi2+  Bi94  1  0.69624804  0.88439893  0.31227855  1
  Bi2+  Bi95  1  0.72308688  0.90099255  0.79349090  1
  Bi2+  Bi96  1  0.10603307  -0.04706675  0.20796037  1
  Bi2+  Bi97  1  0.14486478  0.02984414  0.71193838  1
  Bi2+  Bi98  1  0.09614884  0.21790230  0.24273474  1
  Bi2+  Bi99  1  0.12895647  0.23013624  0.71821158  1
  Bi2+  Bi100  1  0.12307302  0.47435664  0.20655472  1
  Bi2+  Bi101  1  0.15279826  0.48127209  0.70873397  1
  Bi2+  Bi102  1  0.13348664  0.74812806  0.20239344  1
  Bi2+  Bi103  1  0.15726953  0.76584649  0.71564179  1
  Bi2+  Bi104  1  0.37117301  -0.08647488  0.20141146  1
  Bi2+  Bi105  1  0.44220887  -0.00256902  0.68306886  1
  Bi2+  Bi106  1  0.35019267  0.24215811  0.19147406  1
  Bi2+  Bi107  1  0.37281098  0.18039875  0.71186052  1
  Bi2+  Bi108  1  0.39765994  0.56187309  0.21196466  1
  Bi2+  Bi109  1  0.36573342  0.47625445  0.72157263  1
  Bi2+  Bi110  1  0.43414589  0.73928558  0.16468348  1
  Bi2+  Bi111  1  0.36701383  0.81107409  0.67578361  1
  Bi2+  Bi112  1  0.64086126  -0.07596081  0.20692036  1
  Bi2+  Bi113  1  0.62658605  0.07606317  0.71059185  1
  Bi2+  Bi114  1  0.62732496  0.24526336  0.20332317  1
  Bi2+  Bi115  1  0.54662005  0.26864845  0.73412124  1
  Bi2+  Bi116  1  0.59067605  0.55976615  0.25435270  1
  Bi2+  Bi117  1  0.62421174  0.53818299  0.69481273  1
  Bi2+  Bi118  1  0.62429750  0.72455226  0.18860457  1
  Bi2+  Bi119  1  0.59682737  0.80011858  0.72544923  1
  Bi2+  Bi120  1  0.92918179  0.02988388  0.19722519  1
  Bi2+  Bi121  1  0.87025567  0.02131102  0.70989692  1
  Bi2+  Bi122  1  0.89298209  0.22788546  0.20876584  1
  Bi2+  Bi123  1  0.93562618  0.25837887  0.70572151  1
  Bi2+  Bi124  1  0.86067731  0.48440025  0.21567033  1
  Bi2+  Bi125  1  0.87383529  0.44557517  0.70584731  1
  Bi2+  Bi126  1  0.88117781  0.78715034  0.21523246  1
  Bi2+  Bi127  1  0.85515591  0.74260966  0.71504098  1
  S2-  S128  1  0.03314360  0.21905689  0.14705418  1
  S2-  S129  1  0.00353053  0.04465470  0.64770289  1
  S2-  S130  1  -0.01769095  0.43187349  0.14816359  1
  S2-  S131  1  0.02677882  0.44005423  0.64212676  1
  S2-  S132  1  -0.00864574  0.60136392  0.21681555  1
  S2-  S133  1  -0.05416701  0.59457521  0.70706733  1
  S2-  S134  1  -0.00224856  0.77310559  0.13452496  1
  S2-  S135  1  0.01025880  0.76119142  0.66701535  1
  S2-  S136  1  0.26148178  0.10492937  0.15755297  1
  S2-  S137  1  0.24120629  0.12878063  0.64640881  1
  S2-  S138  1  0.23148990  0.37125236  0.16391032  1
  S2-  S139  1  0.25449965  0.38972181  0.65589171  1
  S2-  S140  1  0.16406649  0.60865954  0.14033955  1
  S2-  S141  1  0.17603018  0.61713356  0.64718963  1
  S2-  S142  1  0.22629517  0.84848871  0.14811309  1
  S2-  S143  1  0.16652428  0.89476238  0.64981715  1
  S2-  S144  1  0.49019121  0.14552297  0.18129294  1
  S2-  S145  1  0.49688926  0.23879436  0.63914396  1
  S2-  S146  1  0.49074493  0.33812011  0.17651356  1
  S2-  S147  1  0.49034655  0.48090008  0.64606683  1
  S2-  S148  1  0.52058682  0.52649534  0.14099865  1
  S2-  S149  1  0.53091973  0.68039663  0.66513932  1
  S2-  S150  1  0.50564937  0.95884280  0.13993223  1
  S2-  S151  1  0.63094322  0.89481618  0.64659909  1
  S2-  S152  1  0.71115361  0.11238509  0.15267956  1
  S2-  S153  1  0.75869447  0.14281429  0.66166081  1
  S2-  S154  1  0.74054486  0.37924037  0.17448695  1
  S2-  S155  1  0.71817352  0.39637487  0.66560063  1
  S2-  S156  1  0.82012947  0.59195717  0.14310199  1
  S2-  S157  1  0.75862529  0.64896956  0.66075638  1
  S2-  S158  1  0.77915659  0.86750171  0.15433465  1
  S2-  S159  1  0.85006184  0.88564373  0.65469493  1
  S2-  S160  1  0.17021941  0.00308828  0.34280971  1
  S2-  S161  1  0.08190222  0.03316400  0.84729332  1
  S2-  S162  1  0.13973508  0.31250904  0.34424923  1
  S2-  S163  1  0.13547808  0.34210625  0.85424281  1
  S2-  S164  1  0.16500543  0.54721660  0.33188801  1
  S2-  S165  1  0.15103963  0.54917315  0.82210216  1
  S2-  S166  1  0.09411448  0.76930662  0.34399578  1
  S2-  S167  1  0.11017655  0.81161244  0.81635911  1
  S2-  S168  1  0.38832519  0.09832734  0.34741536  1
  S2-  S169  1  0.33483451  0.01761395  0.84621626  1
  S2-  S170  1  0.34406330  0.27119393  0.28654508  1
  S2-  S171  1  0.37843933  0.25838306  0.85096733  1
  S2-  S172  1  0.37925909  0.43563969  0.35336746  1
  S2-  S173  1  0.37364428  0.47957183  0.85325579  1
  S2-  S174  1  0.39492724  0.87526441  0.35982160  1
  S2-  S175  1  0.28597123  0.72825067  0.84980578  1
  S2-  S176  1  0.60541144  0.02969403  0.34847905  1
  S2-  S177  1  0.60860415  -0.00615934  0.84119896  1
  S2-  S178  1  0.54321469  0.26516460  0.34527340  1
  S2-  S179  1  0.61852339  0.24807565  0.85805531  1
  S2-  S180  1  0.70446463  0.48314728  0.35636085  1
  S2-  S181  1  0.70208676  0.47848025  0.84906800  1
  S2-  S182  1  0.63095530  0.73308717  0.35370019  1
  S2-  S183  1  0.72271126  0.74938222  0.85137978  1
  S2-  S184  1  0.84486691  -0.06670630  0.34710919  1
  S2-  S185  1  0.84342386  -0.01963680  0.84145746  1
  S2-  S186  1  0.76718562  0.25235754  0.36189629  1
  S2-  S187  1  0.85853090  0.32908338  0.86101993  1
  S2-  S188  1  0.93467954  0.46315386  0.31553821  1
  S2-  S189  1  0.91041314  0.52999991  0.82682036  1
  S2-  S190  1  0.86384029  0.67276201  0.35654688  1
  S2-  S191  1  0.91069174  0.77099210  0.81633316  1
  S2-  S192  1  -0.00317447  0.13025876  0.45153574  1
  S2-  S193  1  -0.00102149  0.11912705  0.95997350  1
  S2-  S194  1  -0.00741637  0.38032051  0.44585549  1
  S2-  S195  1  -0.00051819  0.36331511  0.95436130  1
  S2-  S196  1  -0.00114667  0.62336190  0.44551815  1
  S2-  S197  1  0.00218474  0.61972075  0.92703576  1
  S2-  S198  1  -0.00046677  0.87471400  0.45055766  1
  S2-  S199  1  0.00059023  0.86736415  0.94335110  1
  S2-  S200  1  0.24874607  0.13058163  0.44349532  1
  S2-  S201  1  0.24978278  0.11802730  0.95472662  1
  S2-  S202  1  0.25427342  0.37423195  0.44900807  1
  S2-  S203  1  0.25170451  0.36798346  0.95710602  1
  S2-  S204  1  0.25396830  0.62871073  0.44838591  1
  S2-  S205  1  0.24886546  0.61018124  0.94869294  1
  S2-  S206  1  0.24966425  0.87620921  0.45651329  1
  S2-  S207  1  0.25071469  0.87386007  0.94394422  1
  S2-  S208  1  0.50360827  0.13198031  0.45602166  1
  S2-  S209  1  0.49694232  0.11719231  0.96271691  1
  S2-  S210  1  0.50670435  0.37922130  0.45569849  1
  S2-  S211  1  0.49586732  0.36929259  0.96848752  1
  S2-  S212  1  0.50433795  0.62646438  0.45979113  1
  S2-  S213  1  0.49700291  0.61622674  0.95197114  1
  S2-  S214  1  0.50576806  0.87357023  0.46429178  1
  S2-  S215  1  0.49614910  0.87168257  0.95416171  1
  S2-  S216  1  0.75263926  0.12248842  0.45531193  1
  S2-  S217  1  0.74750471  0.11823452  0.95103290  1
  S2-  S218  1  0.75697131  0.38402588  0.46121250  1
  S2-  S219  1  0.74500241  0.36493313  0.96487701  1
  S2-  S220  1  0.75095334  0.62649318  0.45922686  1
  S2-  S221  1  0.74709111  0.61472983  0.94726761  1
  S2-  S222  1  0.75085216  0.87325993  0.46284573  1
  S2-  S223  1  0.74661512  0.87195148  0.94993594  1
  S2-  S224  1  0.12011775  -0.00946642  0.04831596  1
  S2-  S225  1  0.12574840  0.00226162  0.54188475  1
  S2-  S226  1  0.12624627  0.24202499  0.04130154  1
  S2-  S227  1  0.12256533  0.25331249  0.54414033  1
  S2-  S228  1  0.11793906  0.49248194  0.03837710  1
  S2-  S229  1  0.12508320  0.50593995  0.53603394  1
  S2-  S230  1  0.12610614  0.74582584  0.02542833  1
  S2-  S231  1  0.12376196  0.75468707  0.54859577  1
  S2-  S232  1  0.37250376  -0.00858112  0.04595495  1
  S2-  S233  1  0.37745586  0.00265434  0.54454863  1
  S2-  S234  1  0.37612884  0.24320764  0.05760186  1
  S2-  S235  1  0.36975294  0.25288506  0.54281694  1
  S2-  S236  1  0.36533234  0.49996038  0.05450980  1
  S2-  S237  1  0.36969824  0.50252973  0.54716399  1
  S2-  S238  1  0.36920208  0.74112333  0.03866037  1
  S2-  S239  1  0.37678927  0.75025953  0.54351984  1
  S2-  S240  1  0.62533765  -0.00968714  0.04506599  1
  S2-  S241  1  0.62233821  0.00757904  0.54931857  1
  S2-  S242  1  0.62205872  0.24517338  0.06059527  1
  S2-  S243  1  0.63203720  0.25225103  0.54300308  1
  S2-  S244  1  0.63091630  0.49522085  0.04425585  1
  S2-  S245  1  0.63030875  0.50424653  0.54855955  1
  S2-  S246  1  0.62383517  0.74269833  0.04151077  1
  S2-  S247  1  0.62828673  0.74595721  0.55361507  1
  S2-  S248  1  0.87870351  -0.00951017  0.04760856  1
  S2-  S249  1  0.87793506  -0.00053129  0.54566972  1
  S2-  S250  1  0.87391811  0.24238547  0.05244429  1
  S2-  S251  1  0.87887901  0.25316760  0.54810455  1
  S2-  S252  1  0.88124403  0.49392878  0.03687499  1
  S2-  S253  1  0.87916880  0.50845665  0.55721321  1
  S2-  S254  1  0.87435747  0.74313501  0.02996675  1
  S2-  S255  1  0.88162421  0.74817055  0.55177811  1
