# generated using pymatgen
data_La12Ce14Pr13Nd13Sm12(BiS2)64
_symmetry_space_group_name_H-M   'P 1'
_cell_length_a   16.06537704
_cell_length_b   16.09636072
_cell_length_c   27.34813343
_cell_angle_alpha   90.17842725
_cell_angle_beta   90.53777811
_cell_angle_gamma   89.99361630
_symmetry_Int_Tables_number   1
_chemical_formula_structural   La12Ce14Pr13Nd13Sm12(BiS2)64
_chemical_formula_sum   'La12 Ce14 Pr13 Nd13 Sm12 Bi64 S128'
_cell_volume   7071.72023087
_cell_formula_units_Z   1
loop_
 _symmetry_equiv_pos_site_id
 _symmetry_equiv_pos_as_xyz
  1  'x, y, z'
loop_
 _atom_type_symbol
 _atom_type_oxidation_number
  La3+  3.0
  Ce3+  3.0
  Pr3+  3.0
  Nd3+  3.0
  Sm3+  3.0
  Bi2+  2.0
  S2-  -2.0
loop_
 _atom_site_type_symbol
 _atom_site_label
 _atom_site_symmetry_multiplicity
 _atom_site_fract_x
 _atom_site_fract_y
 _atom_site_fract_z
 _atom_site_occupancy
  La3+  La0  1  0.01502140  0.13639610  0.06181887  1
  La3+  La1  1  0.74392975  0.86021258  0.58067216  1
  La3+  La2  1  0.14607407  0.00127185  0.92764902  1
  La3+  La3  1  0.01057284  0.86095959  0.61193836  1
  La3+  La4  1  0.62818237  0.75999352  0.91551187  1
  La3+  La5  1  0.61027995  0.73583240  0.44131625  1
  La3+  La6  1  0.01659100  0.63264386  0.07109282  1
  La3+  La7  1  0.10728017  0.73371921  0.42549432  1
  La3+  La8  1  0.49010941  0.86550133  0.59155913  1
  La3+  La9  1  0.10179435  -0.01766862  0.42045284  1
  La3+  La10  1  0.76512149  0.12886899  0.10705633  1
  La3+  La11  1  0.88987966  0.01868293  0.91164397  1
  Ce3+  Ce12  1  0.36375612  0.23692035  0.44078228  1
  Ce3+  Ce13  1  0.23438713  0.61172681  0.55600856  1
  Ce3+  Ce14  1  0.38942600  0.25605248  0.93378640  1
  Ce3+  Ce15  1  0.86256714  0.48159252  0.44155051  1
  Ce3+  Ce16  1  0.76200970  0.38073935  0.06287910  1
  Ce3+  Ce17  1  0.36295072  -0.01868398  0.43895877  1
  Ce3+  Ce18  1  0.38792177  0.75982983  0.94722382  1
  Ce3+  Ce19  1  0.48788394  0.10651249  0.55667424  1
  Ce3+  Ce20  1  0.26395320  0.38782611  0.05277078  1
  Ce3+  Ce21  1  0.26049112  0.13519380  0.06172095  1
  Ce3+  Ce22  1  -0.01323323  0.10978294  0.56324305  1
  Ce3+  Ce23  1  0.25531646  0.88633739  0.07379564  1
  Ce3+  Ce24  1  0.23390853  0.10516215  0.55221422  1
  Ce3+  Ce25  1  0.37004013  0.48637290  0.43535599  1
  Pr3+  Pr26  1  0.23607060  0.35951565  0.54990391  1
  Pr3+  Pr27  1  0.85438503  -0.02004356  0.43868366  1
  Pr3+  Pr28  1  0.38105000  0.51429199  0.93127668  1
  Pr3+  Pr29  1  0.10258562  0.47954225  0.40807689  1
  Pr3+  Pr30  1  0.86447549  0.73373596  0.44770749  1
  Pr3+  Pr31  1  0.51446939  0.63807963  0.06996297  1
  Pr3+  Pr32  1  0.61125433  -0.01335388  0.42860130  1
  Pr3+  Pr33  1  0.10951901  0.23218867  0.42995660  1
  Pr3+  Pr34  1  0.13327226  0.76158111  0.94611913  1
  Pr3+  Pr35  1  0.48402485  0.36225889  0.57518814  1
  Pr3+  Pr36  1  0.63797680  0.25895664  0.93507257  1
  Pr3+  Pr37  1  0.60328728  0.23709100  0.42392925  1
  Pr3+  Pr38  1  0.73866902  0.61303673  0.56158768  1
  Nd3+  Nd39  1  -0.01091907  0.60993738  0.56502300  1
  Nd3+  Nd40  1  0.73526243  0.35795486  0.55761272  1
  Nd3+  Nd41  1  0.14176463  0.25719358  0.92758487  1
  Nd3+  Nd42  1  0.39058924  0.00820784  0.95149651  1
  Nd3+  Nd43  1  0.62843227  0.51031494  0.92761606  1
  Nd3+  Nd44  1  0.01356942  0.38315754  0.05418571  1
  Nd3+  Nd45  1  0.48456227  0.61120560  0.57305462  1
  Nd3+  Nd46  1  0.13272447  0.51271061  0.93026632  1
  Nd3+  Nd47  1  -0.01109322  0.35632533  0.56662359  1
  Nd3+  Nd48  1  0.89105323  0.26037386  0.93097449  1
  Nd3+  Nd49  1  0.51201254  0.38678100  0.05586104  1
  Nd3+  Nd50  1  0.00122332  0.89040862  0.06480716  1
  Nd3+  Nd51  1  0.51909863  0.88380406  0.06694074  1
  Sm3+  Sm52  1  0.61078972  0.48379489  0.45013877  1
  Sm3+  Sm53  1  0.76061959  0.63415244  0.04745733  1
  Sm3+  Sm54  1  0.76745758  0.88566084  0.04926616  1
  Sm3+  Sm55  1  0.23248466  0.86047947  0.55004831  1
  Sm3+  Sm56  1  0.36165478  0.73267401  0.44698135  1
  Sm3+  Sm57  1  0.88746704  0.50909413  0.93710599  1
  Sm3+  Sm58  1  0.26958134  0.63895706  0.07403241  1
  Sm3+  Sm59  1  0.86126407  0.23299361  0.44314659  1
  Sm3+  Sm60  1  0.88501522  0.76081779  0.93660834  1
  Sm3+  Sm61  1  0.64026965  0.01232749  0.94730604  1
  Sm3+  Sm62  1  0.51613367  0.13858600  0.06435882  1
  Sm3+  Sm63  1  0.73380648  0.10686266  0.55664819  1
  Bi2+  Bi64  1  0.00264138  0.21783038  0.30550696  1
  Bi2+  Bi65  1  0.00205468  0.16812258  0.78519193  1
  Bi2+  Bi66  1  -0.04284528  0.43159061  0.25346161  1
  Bi2+  Bi67  1  -0.06056048  0.40292451  0.79317272  1
  Bi2+  Bi68  1  -0.02225905  0.62064380  0.29148102  1
  Bi2+  Bi69  1  0.10533732  0.55466263  0.77765918  1
  Bi2+  Bi70  1  -0.02129361  0.87433821  0.29104925  1
  Bi2+  Bi71  1  0.01393809  0.86907703  0.81889844  1
  Bi2+  Bi72  1  0.26952626  0.15178983  0.30170106  1
  Bi2+  Bi73  1  0.21408570  0.17942581  0.77665013  1
  Bi2+  Bi74  1  0.25404321  0.32032694  0.25172608  1
  Bi2+  Bi75  1  0.22832509  0.39878641  0.79134205  1
  Bi2+  Bi76  1  0.24529518  0.59648788  0.27321289  1
  Bi2+  Bi77  1  0.32631136  0.66856235  0.75222199  1
  Bi2+  Bi78  1  0.26420483  0.90902850  0.28833686  1
  Bi2+  Bi79  1  0.27324049  0.92280423  0.78522915  1
  Bi2+  Bi80  1  0.49587819  0.09393952  0.28394365  1
  Bi2+  Bi81  1  0.47849576  0.10205397  0.80732760  1
  Bi2+  Bi82  1  0.51977542  0.36363196  0.29117429  1
  Bi2+  Bi83  1  0.52729290  0.36679713  0.78293320  1
  Bi2+  Bi84  1  0.45289714  0.62707099  0.31199922  1
  Bi2+  Bi85  1  0.50645247  0.62849397  0.79298795  1
  Bi2+  Bi86  1  0.55643199  0.88552998  0.30120165  1
  Bi2+  Bi87  1  0.52352270  0.89714210  0.80039881  1
  Bi2+  Bi88  1  0.77648601  0.06366398  0.30780485  1
  Bi2+  Bi89  1  0.73682912  0.21149954  0.78536236  1
  Bi2+  Bi90  1  0.70005701  0.44448307  0.31364741  1
  Bi2+  Bi91  1  0.75364575  0.37947963  0.84536984  1
  Bi2+  Bi92  1  0.76107313  0.62501315  0.28448468  1
  Bi2+  Bi93  1  0.76050733  0.54655540  0.78423529  1
  Bi2+  Bi94  1  0.69691324  0.89044279  0.22257733  1
  Bi2+  Bi95  1  0.80526891  0.81186997  0.76207850  1
  Bi2+  Bi96  1  0.15072835  0.03504047  0.22747792  1
  Bi2+  Bi97  1  0.13962580  0.00600058  0.71145292  1
  Bi2+  Bi98  1  0.06173914  0.23001445  0.20215972  1
  Bi2+  Bi99  1  0.12457644  0.30391468  0.70330175  1
  Bi2+  Bi100  1  0.13896819  0.47401905  0.20872158  1
  Bi2+  Bi101  1  0.01668716  0.46985276  0.68278813  1
  Bi2+  Bi102  1  0.11741335  0.75479697  0.19410072  1
  Bi2+  Bi103  1  0.15964794  0.74017108  0.70662245  1
  Bi2+  Bi104  1  0.32658141  -0.01321887  0.18651406  1
  Bi2+  Bi105  1  0.36221134  0.09596522  0.71421344  1
  Bi2+  Bi106  1  0.37297184  0.17865325  0.20546526  1
  Bi2+  Bi107  1  0.41055376  0.29002916  0.69751171  1
  Bi2+  Bi108  1  0.38828778  0.47055844  0.20515786  1
  Bi2+  Bi109  1  0.34357239  0.48438778  0.71116688  1
  Bi2+  Bi110  1  0.35092569  0.75174134  0.24038136  1
  Bi2+  Bi111  1  0.39990432  0.84184695  0.71658151  1
  Bi2+  Bi112  1  0.51711985  -0.05023042  0.19406072  1
  Bi2+  Bi113  1  0.62005712  0.02635819  0.70889002  1
  Bi2+  Bi114  1  0.62213709  0.26069572  0.21328388  1
  Bi2+  Bi115  1  0.59588168  0.23132618  0.70386650  1
  Bi2+  Bi116  1  0.60438102  0.49267169  0.20668426  1
  Bi2+  Bi117  1  0.63233217  0.47027454  0.70744573  1
  Bi2+  Bi118  1  0.61356210  0.69035025  0.21435713  1
  Bi2+  Bi119  1  0.61460557  0.73539177  0.71639965  1
  Bi2+  Bi120  1  0.93737106  -0.00201803  0.20268461  1
  Bi2+  Bi121  1  0.87002562  0.01099418  0.71534961  1
  Bi2+  Bi122  1  0.80120281  0.30547837  0.25163137  1
  Bi2+  Bi123  1  0.86712554  0.27983283  0.71108540  1
  Bi2+  Bi124  1  0.80029103  0.50535563  0.19263125  1
  Bi2+  Bi125  1  0.82771257  0.54027948  0.67643646  1
  Bi2+  Bi126  1  0.84685804  0.76871505  0.21097364  1
  Bi2+  Bi127  1  0.94303789  0.65117796  0.74468234  1
  S2-  S128  1  -0.06997176  0.13779256  0.15174710  1
  S2-  S129  1  0.00188254  0.02827378  0.65033640  1
  S2-  S130  1  0.00959881  0.38469076  0.15415655  1
  S2-  S131  1  -0.01192860  0.24033809  0.64202732  1
  S2-  S132  1  -0.02758016  0.68664882  0.16641699  1
  S2-  S133  1  0.01730604  0.69537102  0.65192550  1
  S2-  S134  1  0.08722806  0.90446462  0.15404289  1
  S2-  S135  1  0.04082786  0.86324944  0.72490543  1
  S2-  S136  1  0.15403609  0.13952528  0.13853945  1
  S2-  S137  1  0.22416299  0.11299562  0.64913652  1
  S2-  S138  1  0.25987652  0.38157632  0.15048235  1
  S2-  S139  1  0.26200253  0.36130797  0.64957519  1
  S2-  S140  1  0.15104745  0.60482767  0.14312665  1
  S2-  S141  1  0.25508552  0.61231668  0.65456568  1
  S2-  S142  1  0.27395469  0.77434896  0.14897683  1
  S2-  S143  1  0.19008297  0.87218781  0.64476733  1
  S2-  S144  1  0.59975898  0.13638757  0.14992594  1
  S2-  S145  1  0.48111917  0.02891736  0.64480385  1
  S2-  S146  1  0.51075612  0.36687619  0.15522720  1
  S2-  S147  1  0.49017107  0.48955122  0.64835957  1
  S2-  S148  1  0.39714640  0.59179680  0.14360043  1
  S2-  S149  1  0.48116440  0.72081251  0.65228553  1
  S2-  S150  1  0.53397378  0.76915290  0.14217169  1
  S2-  S151  1  0.63009659  0.88334576  0.65962412  1
  S2-  S152  1  0.77158070  0.04824509  0.20571759  1
  S2-  S153  1  0.75586193  0.08420595  0.65506249  1
  S2-  S154  1  0.76498578  0.29232065  0.14792065  1
  S2-  S155  1  0.72222069  0.33837478  0.65614223  1
  S2-  S156  1  0.74884462  0.65143397  0.14531215  1
  S2-  S157  1  0.73078645  0.68820516  0.65348071  1
  S2-  S158  1  0.86440638  0.88365520  0.13342946  1
  S2-  S159  1  0.85500116  0.87346049  0.66310333  1
  S2-  S160  1  0.11808632  0.11496660  0.35128609  1
  S2-  S161  1  0.04401147  0.03055564  0.84723349  1
  S2-  S162  1  0.10028220  0.33696977  0.34689500  1
  S2-  S163  1  0.02865239  0.28703239  0.85006618  1
  S2-  S164  1  0.11747453  0.61889826  0.34640096  1
  S2-  S165  1  0.25148889  0.52867550  0.85670645  1
  S2-  S166  1  0.12341953  0.85652203  0.34574162  1
  S2-  S167  1  0.16921260  0.84471007  0.86021588  1
  S2-  S168  1  0.40571801  -0.02050715  0.34331480  1
  S2-  S169  1  0.33776367  0.01620949  0.85624755  1
  S2-  S170  1  0.45772696  0.26325455  0.36116602  1
  S2-  S171  1  0.27622162  0.25893164  0.85662767  1
  S2-  S172  1  0.32994438  0.50126843  0.33945300  1
  S2-  S173  1  0.49081401  0.49400160  0.85194195  1
  S2-  S174  1  0.35098628  0.74238936  0.34873832  1
  S2-  S175  1  0.46400236  0.76265687  0.86001698  1
  S2-  S176  1  0.73178719  -0.06467923  0.35873859  1
  S2-  S177  1  0.61171387  0.02335446  0.84920775  1
  S2-  S178  1  0.62231690  0.11423575  0.34837540  1
  S2-  S179  1  0.51174502  0.24686680  0.85991251  1
  S2-  S180  1  0.53973493  0.49760224  0.36192884  1
  S2-  S181  1  0.64966639  0.62121269  0.84971052  1
  S2-  S182  1  0.58986635  0.73406652  0.34051166  1
  S2-  S183  1  0.67608966  0.81785047  0.81920235  1
  S2-  S184  1  0.93210424  0.00197449  0.34466252  1
  S2-  S185  1  0.85247360  -0.05099287  0.81521724  1
  S2-  S186  1  0.83296232  0.22297247  0.34584886  1
  S2-  S187  1  0.86452789  0.16056301  0.84696639  1
  S2-  S188  1  0.94061743  0.48339877  0.35571348  1
  S2-  S189  1  0.99883759  0.52227558  0.85999225  1
  S2-  S190  1  0.90760663  0.73960332  0.34866349  1
  S2-  S191  1  0.90215431  0.73303607  0.83929506  1
  S2-  S192  1  -0.01901362  0.11076952  0.45520970  1
  S2-  S193  1  0.01639848  0.13660046  0.95263012  1
  S2-  S194  1  -0.01516010  0.35714429  0.45920189  1
  S2-  S195  1  0.01224374  0.38605095  0.95221870  1
  S2-  S196  1  -0.01138350  0.60333061  0.45835437  1
  S2-  S197  1  0.00829488  0.63824988  0.95938277  1
  S2-  S198  1  -0.01584114  0.85948560  0.44866914  1
  S2-  S199  1  0.00401154  0.88698751  0.95379451  1
  S2-  S200  1  0.24185411  0.10811673  0.44862851  1
  S2-  S201  1  0.26333003  0.13160488  0.95801408  1
  S2-  S202  1  0.23783002  0.36321264  0.44448113  1
  S2-  S203  1  0.26188813  0.38531525  0.95108613  1
  S2-  S204  1  0.23764998  0.60643170  0.45133083  1
  S2-  S205  1  0.25937321  0.64087530  0.96275985  1
  S2-  S206  1  0.23819676  0.85787228  0.44851787  1
  S2-  S207  1  0.26773144  0.88291642  0.96673885  1
  S2-  S208  1  0.48540338  0.10952740  0.45304365  1
  S2-  S209  1  0.51498039  0.13076107  0.96166052  1
  S2-  S210  1  0.48916253  0.36176030  0.46727359  1
  S2-  S211  1  0.51009424  0.38555325  0.95334671  1
  S2-  S212  1  0.48644247  0.61071968  0.46459217  1
  S2-  S213  1  0.51212185  0.63403861  0.96033397  1
  S2-  S214  1  0.48521387  0.85813722  0.45112194  1
  S2-  S215  1  0.51575233  0.88712198  0.96053407  1
  S2-  S216  1  0.73247725  0.11585755  0.45417431  1
  S2-  S217  1  0.75936833  0.13459187  0.94631075  1
  S2-  S218  1  0.73309008  0.35669458  0.45136868  1
  S2-  S219  1  0.76084725  0.38936870  0.95747035  1
  S2-  S220  1  0.73619037  0.60570754  0.45292229  1
  S2-  S221  1  0.76579031  0.63305917  0.94548023  1
  S2-  S222  1  0.73613023  0.85359029  0.46596427  1
  S2-  S223  1  0.76282536  0.88613188  0.94515078  1
  S2-  S224  1  0.13719500  0.00694426  0.03978758  1
  S2-  S225  1  0.10946826  -0.01735266  0.53800686  1
  S2-  S226  1  0.14029726  0.26339339  0.03679476  1
  S2-  S227  1  0.11322904  0.23339250  0.53849012  1
  S2-  S228  1  0.13822205  0.50782345  0.03782066  1
  S2-  S229  1  0.11132164  0.48323102  0.55194351  1
  S2-  S230  1  0.13146614  0.76519604  0.04980166  1
  S2-  S231  1  0.11146712  0.73648051  0.54059112  1
  S2-  S232  1  0.39220508  0.01099242  0.05713365  1
  S2-  S233  1  0.36048649  -0.02020191  0.54538200  1
  S2-  S234  1  0.38912100  0.25808451  0.04638318  1
  S2-  S235  1  0.36277532  0.23213930  0.54806229  1
  S2-  S236  1  0.38712082  0.51042264  0.03865810  1
  S2-  S237  1  0.36068478  0.48645465  0.54439115  1
  S2-  S238  1  0.38884586  0.76483386  0.04907375  1
  S2-  S239  1  0.35967887  0.74036166  0.55051249  1
  S2-  S240  1  0.64503476  0.00968505  0.05195257  1
  S2-  S241  1  0.61195043  -0.01587089  0.54178256  1
  S2-  S242  1  0.63599184  0.26009705  0.04280163  1
  S2-  S243  1  0.60949540  0.23464318  0.54677297  1
  S2-  S244  1  0.63725648  0.51023905  0.04538127  1
  S2-  S245  1  0.61431365  0.48599663  0.55205968  1
  S2-  S246  1  0.64470587  0.76183304  0.03563179  1
  S2-  S247  1  0.60829948  0.73552555  0.54917868  1
  S2-  S248  1  0.88008138  0.01781003  0.04253574  1
  S2-  S249  1  0.85941700  -0.01101026  0.54610141  1
  S2-  S250  1  0.88698486  0.26180853  0.04005328  1
  S2-  S251  1  0.85609912  0.23331733  0.54638171  1
  S2-  S252  1  0.88671103  0.50975582  0.04449982  1
  S2-  S253  1  0.86284503  0.48120596  0.54746632  1
  S2-  S254  1  0.88603427  0.75492342  0.04012700  1
  S2-  S255  1  0.86865807  0.73579638  0.55295053  1
