# generated using pymatgen
data_La12Ce14Pr13Nd13Sm12(BiS2)64
_symmetry_space_group_name_H-M   'P 1'
_cell_length_a   16.21511290
_cell_length_b   16.19241856
_cell_length_c   27.13859671
_cell_angle_alpha   90.06809148
_cell_angle_beta   90.02102490
_cell_angle_gamma   89.95005095
_symmetry_Int_Tables_number   1
_chemical_formula_structural   La12Ce14Pr13Nd13Sm12(BiS2)64
_chemical_formula_sum   'La12 Ce14 Pr13 Nd13 Sm12 Bi64 S128'
_cell_volume   7125.55316627
_cell_formula_units_Z   1
loop_
 _symmetry_equiv_pos_site_id
 _symmetry_equiv_pos_as_xyz
  1  'x, y, z'
loop_
 _atom_type_symbol
 _atom_type_oxidation_number
  La3+  3.0
  Ce3+  3.0
  Pr3+  3.0
  Nd3+  3.0
  Sm3+  3.0
  Bi2+  2.0
  S2-  -2.0
loop_
 _atom_site_type_symbol
 _atom_site_label
 _atom_site_symmetry_multiplicity
 _atom_site_fract_x
 _atom_site_fract_y
 _atom_site_fract_z
 _atom_site_occupancy
  La3+  La0  1  0.61087222  -0.01134277  0.39931444  1
  La3+  La1  1  0.12117199  0.23232844  0.92279582  1
  La3+  La2  1  0.11883701  0.25253877  0.43335469  1
  La3+  La3  1  0.87272535  -0.00410480  0.41563136  1
  La3+  La4  1  0.50603645  0.11978207  0.06799861  1
  La3+  La5  1  0.24204965  0.36261013  0.59017607  1
  La3+  La6  1  0.50088754  0.61584998  0.06220293  1
  La3+  La7  1  0.48903597  0.62163853  0.57505384  1
  La3+  La8  1  0.88658132  0.73863465  0.91149228  1
  La3+  La9  1  0.24234383  0.87116919  0.55814374  1
  La3+  La10  1  0.75257550  0.37061909  0.06634674  1
  La3+  La11  1  0.76246619  0.11437121  0.07805712  1
  Ce3+  Ce12  1  0.37795140  0.48795153  0.93481911  1
  Ce3+  Ce13  1  0.50487419  0.86980307  0.05493035  1
  Ce3+  Ce14  1  0.12450511  -0.00761548  0.94801853  1
  Ce3+  Ce15  1  0.62777562  0.73878899  0.93764644  1
  Ce3+  Ce16  1  0.50418341  0.36521054  0.04644468  1
  Ce3+  Ce17  1  0.37807169  -0.00467011  0.94610140  1
  Ce3+  Ce18  1  0.11821176  0.74435179  0.44072478  1
  Ce3+  Ce19  1  0.63026988  0.49190111  0.93476014  1
  Ce3+  Ce20  1  0.86480691  0.24572535  0.44043635  1
  Ce3+  Ce21  1  0.37971431  0.74093590  0.93673384  1
  Ce3+  Ce22  1  0.12643678  0.74180387  0.94117467  1
  Ce3+  Ce23  1  0.00506420  0.36710772  0.05730505  1
  Ce3+  Ce24  1  0.74065239  0.36984249  0.55688655  1
  Ce3+  Ce25  1  0.00340476  0.62006477  0.06373379  1
  Pr3+  Pr26  1  0.63355263  -0.00998151  0.94004332  1
  Pr3+  Pr27  1  0.25500012  0.86795664  0.05717857  1
  Pr3+  Pr28  1  0.25177192  0.12550744  0.07125428  1
  Pr3+  Pr29  1  -0.00506367  0.62028669  0.55932140  1
  Pr3+  Pr30  1  0.74255561  0.87242815  0.55373673  1
  Pr3+  Pr31  1  0.12161594  0.00342011  0.41924123  1
  Pr3+  Pr32  1  0.37641169  0.23570625  0.92245034  1
  Pr3+  Pr33  1  0.49611617  0.86990411  0.55680980  1
  Pr3+  Pr34  1  0.36997116  -0.00360079  0.44098039  1
  Pr3+  Pr35  1  0.61896188  0.73922936  0.43062143  1
  Pr3+  Pr36  1  0.25373896  0.61650275  0.05281693  1
  Pr3+  Pr37  1  -0.00705523  0.36587476  0.56611765  1
  Pr3+  Pr38  1  0.75261710  0.62479291  0.57609797  1
  Nd3+  Nd39  1  0.00238538  0.86064173  0.07251002  1
  Nd3+  Nd40  1  0.49554298  0.12174318  0.56176040  1
  Nd3+  Nd41  1  0.37028631  0.24705392  0.44490113  1
  Nd3+  Nd42  1  0.87789781  0.23881608  0.94061471  1
  Nd3+  Nd43  1  -0.00696821  0.11906188  0.55581857  1
  Nd3+  Nd44  1  0.00750419  0.11966462  0.07225808  1
  Nd3+  Nd45  1  0.75411587  0.86383164  0.06008164  1
  Nd3+  Nd46  1  0.61814373  0.50262156  0.44542607  1
  Nd3+  Nd47  1  0.25410257  0.36250915  0.05438235  1
  Nd3+  Nd48  1  0.36672405  0.74224439  0.43854175  1
  Nd3+  Nd49  1  0.75361523  0.61947765  0.05458443  1
  Nd3+  Nd50  1  0.63188648  0.23905896  0.94414084  1
  Nd3+  Nd51  1  0.87935362  0.49358485  0.93896671  1
  Sm3+  Sm52  1  0.11767923  0.49147145  0.44149698  1
  Sm3+  Sm53  1  0.24125151  0.12162464  0.56039306  1
  Sm3+  Sm54  1  0.49551481  0.37079088  0.55508308  1
  Sm3+  Sm55  1  0.12929463  0.48880989  0.94372667  1
  Sm3+  Sm56  1  -0.00676219  0.87328703  0.55360153  1
  Sm3+  Sm57  1  0.87881395  -0.01113528  0.95074272  1
  Sm3+  Sm58  1  0.86793790  0.74525013  0.44145741  1
  Sm3+  Sm59  1  0.74155546  0.11751795  0.54741538  1
  Sm3+  Sm60  1  0.24255835  0.61899655  0.55730701  1
  Sm3+  Sm61  1  0.61822860  0.24414359  0.43875786  1
  Sm3+  Sm62  1  0.36763868  0.49434558  0.45140059  1
  Sm3+  Sm63  1  0.86571396  0.49697240  0.44947606  1
  Bi2+  Bi64  1  0.00588104  0.11838353  0.29026967  1
  Bi2+  Bi65  1  -0.01603413  0.11177893  0.80072983  1
  Bi2+  Bi66  1  -0.00744342  0.41912358  0.28959861  1
  Bi2+  Bi67  1  0.00103189  0.39738238  0.79857889  1
  Bi2+  Bi68  1  0.08554903  0.59514350  0.29675489  1
  Bi2+  Bi69  1  0.01500566  0.63220480  0.78874757  1
  Bi2+  Bi70  1  0.06040445  0.84653334  0.25512544  1
  Bi2+  Bi71  1  0.03464193  0.91183269  0.77205743  1
  Bi2+  Bi72  1  0.28070138  0.09632637  0.30249831  1
  Bi2+  Bi73  1  0.23743306  0.11379190  0.78759420  1
  Bi2+  Bi74  1  0.25661186  0.40701019  0.29861302  1
  Bi2+  Bi75  1  0.27243422  0.38954970  0.79277049  1
  Bi2+  Bi76  1  0.25727055  0.68752465  0.31301691  1
  Bi2+  Bi77  1  0.22330645  0.64681691  0.75290849  1
  Bi2+  Bi78  1  0.23475112  0.90637550  0.30812157  1
  Bi2+  Bi79  1  0.22636910  0.88712021  0.77583455  1
  Bi2+  Bi80  1  0.49662536  0.15317199  0.30808326  1
  Bi2+  Bi81  1  0.49044542  0.14025332  0.79843312  1
  Bi2+  Bi82  1  0.51524328  0.40419309  0.25285920  1
  Bi2+  Bi83  1  0.58008697  0.37117113  0.76226054  1
  Bi2+  Bi84  1  0.48067589  0.58740280  0.29738178  1
  Bi2+  Bi85  1  0.47780892  0.62372727  0.79267130  1
  Bi2+  Bi86  1  0.48687038  0.83807308  0.25145542  1
  Bi2+  Bi87  1  0.49771155  0.87105312  0.79266865  1
  Bi2+  Bi88  1  0.75180334  0.15360276  0.29932780  1
  Bi2+  Bi89  1  0.76858643  0.18448669  0.79985524  1
  Bi2+  Bi90  1  0.78009601  0.40734258  0.25578692  1
  Bi2+  Bi91  1  0.76429336  0.38329702  0.81068156  1
  Bi2+  Bi92  1  0.76952312  0.60181026  0.30202694  1
  Bi2+  Bi93  1  0.73818848  0.64317395  0.80238195  1
  Bi2+  Bi94  1  0.74707155  0.83714960  0.28135480  1
  Bi2+  Bi95  1  0.73768581  0.91215024  0.80552699  1
  Bi2+  Bi96  1  0.13444964  0.01873899  0.22456229  1
  Bi2+  Bi97  1  0.11455575  0.04415988  0.70260066  1
  Bi2+  Bi98  1  0.15921870  0.26588379  0.20449683  1
  Bi2+  Bi99  1  0.11454516  0.24049280  0.70970911  1
  Bi2+  Bi100  1  0.15734659  0.47680118  0.20508452  1
  Bi2+  Bi101  1  0.10037869  0.50961372  0.71538874  1
  Bi2+  Bi102  1  0.13454775  0.67107000  0.19009463  1
  Bi2+  Bi103  1  0.10223913  0.77166050  0.70135884  1
  Bi2+  Bi104  1  0.35106988  -0.02343393  0.21899174  1
  Bi2+  Bi105  1  0.37817927  -0.00070608  0.74636957  1
  Bi2+  Bi106  1  0.34600417  0.25960663  0.23777366  1
  Bi2+  Bi107  1  0.39524738  0.25077351  0.69966826  1
  Bi2+  Bi108  1  0.35348923  0.49650897  0.21245365  1
  Bi2+  Bi109  1  0.44395970  0.48959146  0.71459117  1
  Bi2+  Bi110  1  0.31502939  0.76814923  0.21375436  1
  Bi2+  Bi111  1  0.35637102  0.76226225  0.69723346  1
  Bi2+  Bi112  1  0.60920750  -0.00554577  0.19891951  1
  Bi2+  Bi113  1  0.65829787  0.03436525  0.72582794  1
  Bi2+  Bi114  1  0.60362954  0.25014759  0.19883662  1
  Bi2+  Bi115  1  0.64822857  0.22079945  0.69590378  1
  Bi2+  Bi116  1  0.64017658  0.51164342  0.18782360  1
  Bi2+  Bi117  1  0.70374205  0.49006470  0.71239161  1
  Bi2+  Bi118  1  0.63452054  0.71288972  0.22157843  1
  Bi2+  Bi119  1  0.60714719  0.78118530  0.70407013  1
  Bi2+  Bi120  1  0.86877318  -0.00427839  0.21290117  1
  Bi2+  Bi121  1  0.85176242  0.02351809  0.73585799  1
  Bi2+  Bi122  1  0.91196109  0.26025625  0.21678682  1
  Bi2+  Bi123  1  0.87785238  0.29978942  0.72705686  1
  Bi2+  Bi124  1  0.90537532  0.54164451  0.21521176  1
  Bi2+  Bi125  1  0.90302351  0.49870320  0.71502251  1
  Bi2+  Bi126  1  0.90147203  0.73560703  0.23711506  1
  Bi2+  Bi127  1  0.85419986  0.76322222  0.70062392  1
  S2-  S128  1  -0.10240031  0.12688027  0.15090875  1
  S2-  S129  1  -0.00044108  0.14923761  0.65455413  1
  S2-  S130  1  0.01682844  0.33498233  0.15370233  1
  S2-  S131  1  0.09319683  0.36885414  0.64843607  1
  S2-  S132  1  -0.01142131  0.72633581  0.14126732  1
  S2-  S133  1  -0.09118676  0.63678587  0.64596891  1
  S2-  S134  1  -0.00551727  0.93697544  0.16539618  1
  S2-  S135  1  -0.02653829  0.85996035  0.65163288  1
  S2-  S136  1  0.12939210  0.12790798  0.14619181  1
  S2-  S137  1  0.25257552  0.20544699  0.64676601  1
  S2-  S138  1  0.28801897  0.26542550  0.13623822  1
  S2-  S139  1  0.30340040  0.40506720  0.68633247  1
  S2-  S140  1  0.30597762  0.62562531  0.14831617  1
  S2-  S141  1  0.28592683  0.63284219  0.65177901  1
  S2-  S142  1  0.24021664  0.89325857  0.15651434  1
  S2-  S143  1  0.23979730  0.86870852  0.65833593  1
  S2-  S144  1  0.49775023  0.12312826  0.16941863  1
  S2-  S145  1  0.47963653  0.13077241  0.66145182  1
  S2-  S146  1  0.52891220  0.38129288  0.14289794  1
  S2-  S147  1  0.50606206  0.36286031  0.65286526  1
  S2-  S148  1  0.52427585  0.62653418  0.16238028  1
  S2-  S149  1  0.50760499  0.64104101  0.67550783  1
  S2-  S150  1  0.51108458  0.87288794  0.15204953  1
  S2-  S151  1  0.48711854  0.86488556  0.65700323  1
  S2-  S152  1  0.69883983  0.12498815  0.17425134  1
  S2-  S153  1  0.74631595  0.10866827  0.64554720  1
  S2-  S154  1  0.76896062  0.33010207  0.16431901  1
  S2-  S155  1  0.75180558  0.34580413  0.65299578  1
  S2-  S156  1  0.74918775  0.63440322  0.15390214  1
  S2-  S157  1  0.71692903  0.65832349  0.67475022  1
  S2-  S158  1  0.74880354  0.91062809  0.15763109  1
  S2-  S159  1  0.73571308  0.86003794  0.65530512  1
  S2-  S160  1  0.00502068  -0.02100802  0.34573691  1
  S2-  S161  1  0.12143667  0.07480795  0.86305791  1
  S2-  S162  1  0.13698268  0.14738041  0.35308977  1
  S2-  S163  1  0.19188298  0.26607816  0.82815924  1
  S2-  S164  1  0.11775317  0.38434526  0.36320286  1
  S2-  S165  1  0.12802709  0.48198171  0.84517100  1
  S2-  S166  1  0.09610158  0.75801129  0.34440692  1
  S2-  S167  1  0.04088050  0.75113291  0.85744222  1
  S2-  S168  1  0.45275714  0.00876182  0.35331560  1
  S2-  S169  1  0.36614671  0.08904417  0.86477914  1
  S2-  S170  1  0.36439245  0.25653389  0.34613774  1
  S2-  S171  1  0.39816990  0.29162817  0.82237631  1
  S2-  S172  1  0.37593650  0.50193065  0.35308053  1
  S2-  S173  1  0.37423968  0.51702490  0.83730873  1
  S2-  S174  1  0.41777030  0.73224754  0.34337228  1
  S2-  S175  1  0.39569025  0.75316021  0.83851793  1
  S2-  S176  1  0.62215069  0.05001942  0.29928129  1
  S2-  S177  1  0.58721186  -0.00572282  0.84237920  1
  S2-  S178  1  0.63046012  0.25382100  0.34077190  1
  S2-  S179  1  0.61365956  0.21315319  0.84634821  1
  S2-  S180  1  0.62219344  0.60101413  0.36309409  1
  S2-  S181  1  0.61387618  0.55325376  0.84370793  1
  S2-  S182  1  0.62347926  0.83837683  0.34634484  1
  S2-  S183  1  0.63265722  0.76565059  0.83978621  1
  S2-  S184  1  0.80750785  -0.00457020  0.31911424  1
  S2-  S185  1  0.86675022  0.00316185  0.85267615  1
  S2-  S186  1  0.89033794  0.22398572  0.34482185  1
  S2-  S187  1  0.97657646  0.24756399  0.85858259  1
  S2-  S188  1  0.86097010  0.48282329  0.35187165  1
  S2-  S189  1  0.87942531  0.58463697  0.85275862  1
  S2-  S190  1  0.85866343  0.74114131  0.34320407  1
  S2-  S191  1  0.83955557  0.78124025  0.80971149  1
  S2-  S192  1  -0.00841267  0.12100901  0.45070533  1
  S2-  S193  1  -0.00377438  0.11309944  0.96470646  1
  S2-  S194  1  -0.01316238  0.37353143  0.45967334  1
  S2-  S195  1  0.00277448  0.37098629  0.95307530  1
  S2-  S196  1  -0.00778758  0.61691858  0.45145120  1
  S2-  S197  1  0.00751777  0.61265792  0.95700811  1
  S2-  S198  1  -0.00751521  0.86833432  0.44993900  1
  S2-  S199  1  0.00140807  0.86726180  0.95961050  1
  S2-  S200  1  0.24770356  0.12167543  0.45711800  1
  S2-  S201  1  0.24865579  0.11441724  0.96394209  1
  S2-  S202  1  0.24790635  0.37268822  0.46277451  1
  S2-  S203  1  0.25254396  0.36309230  0.94782175  1
  S2-  S204  1  0.24120845  0.61537760  0.45221083  1
  S2-  S205  1  0.25179892  0.61545618  0.94543764  1
  S2-  S206  1  0.24262101  0.87209908  0.44972377  1
  S2-  S207  1  0.25305476  0.86789074  0.94795071  1
  S2-  S208  1  0.49735629  0.12277435  0.45468377  1
  S2-  S209  1  0.50944708  0.11460989  0.95864901  1
  S2-  S210  1  0.49709268  0.37357225  0.44984980  1
  S2-  S211  1  0.50674776  0.36427917  0.93993496  1
  S2-  S212  1  0.48804679  0.61953105  0.46444208  1
  S2-  S213  1  0.50108786  0.61532852  0.95257865  1
  S2-  S214  1  0.49227745  0.86653747  0.45117660  1
  S2-  S215  1  0.50327939  0.86815354  0.94936192  1
  S2-  S216  1  0.73723499  0.11481412  0.44181271  1
  S2-  S217  1  0.75679889  0.11511128  0.96061369  1
  S2-  S218  1  0.73954648  0.37328671  0.44968685  1
  S2-  S219  1  0.75576602  0.36705058  0.95519820  1
  S2-  S220  1  0.74848770  0.62244937  0.46523311  1
  S2-  S221  1  0.75363403  0.61807307  0.94960268  1
  S2-  S222  1  0.74618276  0.87096012  0.44682822  1
  S2-  S223  1  0.75761632  0.86193944  0.95113996  1
  S2-  S224  1  0.12631369  -0.01204790  0.05198972  1
  S2-  S225  1  0.11839384  -0.00248656  0.54344774  1
  S2-  S226  1  0.12645759  0.24525386  0.03775803  1
  S2-  S227  1  0.11819714  0.24225237  0.54282173  1
  S2-  S228  1  0.13073925  0.49101338  0.04998451  1
  S2-  S229  1  0.12007098  0.49568152  0.54723949  1
  S2-  S230  1  0.13121219  0.74259974  0.04606099  1
  S2-  S231  1  0.11765755  0.74436736  0.54848077  1
  S2-  S232  1  0.37742493  -0.00365483  0.05347682  1
  S2-  S233  1  0.36773573  -0.00086294  0.55065403  1
  S2-  S234  1  0.38389964  0.24129151  0.03245157  1
  S2-  S235  1  0.37224932  0.24746053  0.54960627  1
  S2-  S236  1  0.37711808  0.48775071  0.04333976  1
  S2-  S237  1  0.36684866  0.49172930  0.55639094  1
  S2-  S238  1  0.37962559  0.74438700  0.04431551  1
  S2-  S239  1  0.36604091  0.74449676  0.54618352  1
  S2-  S240  1  0.63228131  -0.00724350  0.04831926  1
  S2-  S241  1  0.61755682  -0.00265706  0.54964032  1
  S2-  S242  1  0.63347901  0.24112432  0.05059882  1
  S2-  S243  1  0.61844065  0.24494238  0.54476111  1
  S2-  S244  1  0.62874269  0.49398235  0.04197279  1
  S2-  S245  1  0.61811495  0.49846075  0.55316263  1
  S2-  S246  1  0.62780410  0.74288238  0.04632543  1
  S2-  S247  1  0.61949966  0.74206608  0.54720896  1
  S2-  S248  1  0.88032350  -0.01423321  0.05307161  1
  S2-  S249  1  0.86912806  -0.00404360  0.54034079  1
  S2-  S250  1  0.87879764  0.24599966  0.04643993  1
  S2-  S251  1  0.86554914  0.24265094  0.54745368  1
  S2-  S252  1  0.87903023  0.49492974  0.04858837  1
  S2-  S253  1  0.86855173  0.49186129  0.55390190  1
  S2-  S254  1  0.87609878  0.74150353  0.03919745  1
  S2-  S255  1  0.87163797  0.75046404  0.54481546  1
