# generated using pymatgen
data_La12Ce14Pr13Nd13Sm12(BiS2)64
_symmetry_space_group_name_H-M   'P 1'
_cell_length_a   16.17233889
_cell_length_b   16.19050603
_cell_length_c   27.08800184
_cell_angle_alpha   89.89588525
_cell_angle_beta   89.85341914
_cell_angle_gamma   89.87115560
_symmetry_Int_Tables_number   1
_chemical_formula_structural   La12Ce14Pr13Nd13Sm12(BiS2)64
_chemical_formula_sum   'La12 Ce14 Pr13 Nd13 Sm12 Bi64 S128'
_cell_volume   7092.62493548
_cell_formula_units_Z   1
loop_
 _symmetry_equiv_pos_site_id
 _symmetry_equiv_pos_as_xyz
  1  'x, y, z'
loop_
 _atom_type_symbol
 _atom_type_oxidation_number
  La3+  3.0
  Ce3+  3.0
  Pr3+  3.0
  Nd3+  3.0
  Sm3+  3.0
  Bi2+  2.0
  S2-  -2.0
loop_
 _atom_site_type_symbol
 _atom_site_label
 _atom_site_symmetry_multiplicity
 _atom_site_fract_x
 _atom_site_fract_y
 _atom_site_fract_z
 _atom_site_occupancy
  La3+  La0  1  0.88714353  0.76289829  0.93149349  1
  La3+  La1  1  0.24821497  0.11186609  0.54789264  1
  La3+  La2  1  0.38481194  0.24270865  0.42343451  1
  La3+  La3  1  0.25288067  0.61413805  0.55621378  1
  La3+  La4  1  0.11496115  -0.01675206  0.41024153  1
  La3+  La5  1  0.88268481  0.00953766  0.92149762  1
  La3+  La6  1  0.62480092  0.52033301  0.91414582  1
  La3+  La7  1  0.64121585  0.25731785  0.91934576  1
  La3+  La8  1  0.25019481  0.89607861  0.09515746  1
  La3+  La9  1  0.63804044  0.75023261  0.40649425  1
  La3+  La10  1  0.38728844  0.49405999  0.41703747  1
  La3+  La11  1  0.49481467  0.36060566  0.58273112  1
  Ce3+  Ce12  1  0.38500816  0.51091196  0.94471190  1
  Ce3+  Ce13  1  0.62568503  0.24473429  0.44545773  1
  Ce3+  Ce14  1  0.50250987  0.86189969  0.55071928  1
  Ce3+  Ce15  1  0.00644044  0.13590322  0.05842664  1
  Ce3+  Ce16  1  0.13692607  0.76642172  0.94714887  1
  Ce3+  Ce17  1  0.75332041  0.11496745  0.56444324  1
  Ce3+  Ce18  1  0.62938187  -0.00945016  0.44484522  1
  Ce3+  Ce19  1  0.75371770  0.86532432  0.56801004  1
  Ce3+  Ce20  1  0.26103445  0.38508668  0.06683652  1
  Ce3+  Ce21  1  0.50950799  0.13895189  0.05765935  1
  Ce3+  Ce22  1  0.75169055  0.61911949  0.56616346  1
  Ce3+  Ce23  1  0.51425662  0.38606598  0.05593092  1
  Ce3+  Ce24  1  0.00452275  0.11289262  0.55349318  1
  Ce3+  Ce25  1  0.87354948  0.24144113  0.44562050  1
  Pr3+  Pr26  1  0.25474781  0.36470513  0.54934668  1
  Pr3+  Pr27  1  0.75989422  0.36912457  0.57569049  1
  Pr3+  Pr28  1  0.00100704  0.61734882  0.56005112  1
  Pr3+  Pr29  1  0.87152711  0.49239191  0.43314236  1
  Pr3+  Pr30  1  0.12389066  0.49032609  0.43151672  1
  Pr3+  Pr31  1  0.89351622  0.51662518  0.91773937  1
  Pr3+  Pr32  1  0.37703334  0.74197551  0.42819525  1
  Pr3+  Pr33  1  0.49858633  0.11390835  0.56167932  1
  Pr3+  Pr34  1  0.62618469  0.76434073  0.93444015  1
  Pr3+  Pr35  1  0.12288393  0.73818043  0.43192448  1
  Pr3+  Pr36  1  0.37687666  -0.00926326  0.43038336  1
  Pr3+  Pr37  1  0.87696423  -0.01135254  0.44270138  1
  Pr3+  Pr38  1  0.25992731  0.63562817  0.06804658  1
  Nd3+  Nd39  1  0.76188958  0.13897746  0.06053913  1
  Nd3+  Nd40  1  0.76108700  0.88685133  0.06519869  1
  Nd3+  Nd41  1  0.00220766  0.36602857  0.55745519  1
  Nd3+  Nd42  1  0.00305266  0.39401113  0.06575445  1
  Nd3+  Nd43  1  0.51659941  0.88581524  0.07665309  1
  Nd3+  Nd44  1  0.13846133  0.01465830  0.93732843  1
  Nd3+  Nd45  1  0.88351440  0.26555597  0.93900451  1
  Nd3+  Nd46  1  0.63134179  0.49154412  0.44417781  1
  Nd3+  Nd47  1  0.51223343  0.63486580  0.06734297  1
  Nd3+  Nd48  1  0.50348807  0.61484970  0.55439546  1
  Nd3+  Nd49  1  0.26087738  0.14537266  0.07720500  1
  Nd3+  Nd50  1  0.76016983  0.63489075  0.05384486  1
  Nd3+  Nd51  1  0.37864240  0.01191912  0.94602654  1
  Sm3+  Sm52  1  0.87611388  0.74195357  0.44798016  1
  Sm3+  Sm53  1  0.13399379  0.26194631  0.94872726  1
  Sm3+  Sm54  1  0.38265508  0.26146106  0.94247195  1
  Sm3+  Sm55  1  0.63157933  0.01008909  0.95062715  1
  Sm3+  Sm56  1  0.25219915  0.86336528  0.54948407  1
  Sm3+  Sm57  1  0.13432825  0.51182700  0.94745037  1
  Sm3+  Sm58  1  0.12804240  0.24331166  0.43158058  1
  Sm3+  Sm59  1  0.00637285  0.89141901  0.06202639  1
  Sm3+  Sm60  1  0.02065081  0.87906932  0.58530829  1
  Sm3+  Sm61  1  0.75741481  0.39151867  0.04589919  1
  Sm3+  Sm62  1  0.00885160  0.63947530  0.06040937  1
  Sm3+  Sm63  1  0.38194362  0.76495813  0.95893564  1
  Bi2+  Bi64  1  -0.11770084  0.08825604  0.27563217  1
  Bi2+  Bi65  1  0.01298556  0.14360854  0.78957590  1
  Bi2+  Bi66  1  -0.02504407  0.45385430  0.31560912  1
  Bi2+  Bi67  1  0.07841343  0.35385182  0.79604632  1
  Bi2+  Bi68  1  -0.01368700  0.64908122  0.32318565  1
  Bi2+  Bi69  1  0.03140407  0.63370951  0.79661989  1
  Bi2+  Bi70  1  -0.01408555  0.84173782  0.29352326  1
  Bi2+  Bi71  1  0.00287254  0.88738557  0.78842060  1
  Bi2+  Bi72  1  0.23633727  0.16111665  0.27477600  1
  Bi2+  Bi73  1  0.28076155  0.13717385  0.80498890  1
  Bi2+  Bi74  1  0.15622710  0.37758790  0.30086438  1
  Bi2+  Bi75  1  0.27134614  0.40580161  0.79097941  1
  Bi2+  Bi76  1  0.16702415  0.64231841  0.27226366  1
  Bi2+  Bi77  1  0.22467819  0.59489578  0.78154476  1
  Bi2+  Bi78  1  0.27364650  0.88701619  0.29638034  1
  Bi2+  Bi79  1  0.23712734  0.88980114  0.75320476  1
  Bi2+  Bi80  1  0.55337453  0.12889539  0.28273898  1
  Bi2+  Bi81  1  0.45504559  0.04569653  0.80423162  1
  Bi2+  Bi82  1  0.51280931  0.37939812  0.28812489  1
  Bi2+  Bi83  1  0.49476972  0.37585720  0.79600699  1
  Bi2+  Bi84  1  0.45745076  0.60059196  0.28820153  1
  Bi2+  Bi85  1  0.49391400  0.65694000  0.79669821  1
  Bi2+  Bi86  1  0.52694693  0.93620886  0.27396605  1
  Bi2+  Bi87  1  0.51714522  0.86318357  0.82191927  1
  Bi2+  Bi88  1  0.72561684  0.17148791  0.32950250  1
  Bi2+  Bi89  1  0.76922231  0.09105183  0.78515566  1
  Bi2+  Bi90  1  0.76730453  0.36483156  0.29947597  1
  Bi2+  Bi91  1  0.75159981  0.33562637  0.78173836  1
  Bi2+  Bi92  1  0.78394667  0.62846439  0.29098038  1
  Bi2+  Bi93  1  0.76792149  0.58261203  0.79048071  1
  Bi2+  Bi94  1  0.78592393  0.91340269  0.29964190  1
  Bi2+  Bi95  1  0.73797648  0.89419374  0.78474740  1
  Bi2+  Bi96  1  0.09789666  0.00192047  0.21211056  1
  Bi2+  Bi97  1  0.15843176  0.06024750  0.71845710  1
  Bi2+  Bi98  1  0.02123334  0.24221954  0.23595305  1
  Bi2+  Bi99  1  0.13198687  0.25986836  0.68828171  1
  Bi2+  Bi100  1  0.10022066  0.48600596  0.20764695  1
  Bi2+  Bi101  1  0.15434278  0.46240844  0.69681685  1
  Bi2+  Bi102  1  0.02989709  0.70679025  0.20076618  1
  Bi2+  Bi103  1  0.14621281  0.74451723  0.70151682  1
  Bi2+  Bi104  1  0.39178397  0.04054983  0.21261818  1
  Bi2+  Bi105  1  0.39423038  -0.01602523  0.69987654  1
  Bi2+  Bi106  1  0.39295291  0.29760185  0.20283980  1
  Bi2+  Bi107  1  0.32617289  0.25003393  0.70151849  1
  Bi2+  Bi108  1  0.28804875  0.45961157  0.19246694  1
  Bi2+  Bi109  1  0.35500379  0.53007471  0.69971217  1
  Bi2+  Bi110  1  0.39249442  0.74858809  0.21316606  1
  Bi2+  Bi111  1  0.38801718  0.77324975  0.72682287  1
  Bi2+  Bi112  1  0.68584065  0.00108880  0.21239012  1
  Bi2+  Bi113  1  0.59157255  -0.01524742  0.72461500  1
  Bi2+  Bi114  1  0.64407306  0.27555436  0.22299266  1
  Bi2+  Bi115  1  0.61380356  0.23392255  0.70375356  1
  Bi2+  Bi116  1  0.64137697  0.51301132  0.18825941  1
  Bi2+  Bi117  1  0.62477070  0.51127304  0.69828355  1
  Bi2+  Bi118  1  0.64050573  0.74404618  0.21965280  1
  Bi2+  Bi119  1  0.61116851  0.78374673  0.72680354  1
  Bi2+  Bi120  1  0.88368188  -0.01563851  0.17378899  1
  Bi2+  Bi121  1  0.89841718  0.07394534  0.70125323  1
  Bi2+  Bi122  1  0.83684278  0.25284556  0.20191840  1
  Bi2+  Bi123  1  0.93892287  0.26760498  0.70992756  1
  Bi2+  Bi124  1  0.86007296  0.49380702  0.22234190  1
  Bi2+  Bi125  1  0.96851274  0.49643448  0.71963104  1
  Bi2+  Bi126  1  0.85625693  0.80120976  0.20690384  1
  Bi2+  Bi127  1  0.87414021  0.73055010  0.69794744  1
  S2-  S128  1  0.02838493  0.12347418  0.15584660  1
  S2-  S129  1  0.04217264  0.04012237  0.63844827  1
  S2-  S130  1  0.01645622  0.35055041  0.16304745  1
  S2-  S131  1  -0.08631594  0.40091325  0.64124314  1
  S2-  S132  1  -0.03239898  0.56756904  0.14635588  1
  S2-  S133  1  0.01165922  0.64051937  0.65988092  1
  S2-  S134  1  0.08991754  0.88485858  0.14807113  1
  S2-  S135  1  -0.03368926  0.85592071  0.68267278  1
  S2-  S136  1  0.24649383  0.04220918  0.15766453  1
  S2-  S137  1  0.28950865  0.10273109  0.64624887  1
  S2-  S138  1  0.25502890  0.27934166  0.14827212  1
  S2-  S139  1  0.34005201  0.38082364  0.63704326  1
  S2-  S140  1  0.29074108  0.62490600  0.16836801  1
  S2-  S141  1  0.27616989  0.66199244  0.65240940  1
  S2-  S142  1  0.26576397  0.84084701  0.19885310  1
  S2-  S143  1  0.17236437  0.86851421  0.63655345  1
  S2-  S144  1  0.46312880  0.15467054  0.15251155  1
  S2-  S145  1  0.48692324  0.20675980  0.64660365  1
  S2-  S146  1  0.50827517  0.40951392  0.15402066  1
  S2-  S147  1  0.52746163  0.38591502  0.68942167  1
  S2-  S148  1  0.52017320  0.64236496  0.16847322  1
  S2-  S149  1  0.49736732  0.59290482  0.65490320  1
  S2-  S150  1  0.45629968  0.89329254  0.17212576  1
  S2-  S151  1  0.45184341  0.84956848  0.64426443  1
  S2-  S152  1  0.71629712  0.15431198  0.15687216  1
  S2-  S153  1  0.73970513  0.13112398  0.66227693  1
  S2-  S154  1  0.76237162  0.41635981  0.14412617  1
  S2-  S155  1  0.71807030  0.36438623  0.67593562  1
  S2-  S156  1  0.73040837  0.63623952  0.15366671  1
  S2-  S157  1  0.77075096  0.59750843  0.66406489  1
  S2-  S158  1  0.65650713  0.86823689  0.14499920  1
  S2-  S159  1  0.75108205  0.83781279  0.66584346  1
  S2-  S160  1  0.16835327  0.02067389  0.31185448  1
  S2-  S161  1  0.02887327  0.00825057  0.85386854  1
  S2-  S162  1  0.10342336  0.21712309  0.33453224  1
  S2-  S163  1  0.14251469  0.22335739  0.85208902  1
  S2-  S164  1  0.19833754  0.53226238  0.34290525  1
  S2-  S165  1  0.05176241  0.50493304  0.86159453  1
  S2-  S166  1  0.13584180  0.83003977  0.34582675  1
  S2-  S167  1  0.08344456  0.77718061  0.85284484  1
  S2-  S168  1  0.38570762  0.00981195  0.32941949  1
  S2-  S169  1  0.26936777  0.00569390  0.86769163  1
  S2-  S170  1  0.31540270  0.25728099  0.32907907  1
  S2-  S171  1  0.37262469  0.28366576  0.84422354  1
  S2-  S172  1  0.37562638  0.46297054  0.31222068  1
  S2-  S173  1  0.45992911  0.51937620  0.85615833  1
  S2-  S174  1  0.36339975  0.73965692  0.32603832  1
  S2-  S175  1  0.39220278  0.76100329  0.86035547  1
  S2-  S176  1  0.63745222  -0.08451888  0.35520686  1
  S2-  S177  1  0.68500962  0.01801283  0.85652777  1
  S2-  S178  1  0.53064887  0.25186974  0.36077996  1
  S2-  S179  1  0.58845018  0.25016523  0.82033597  1
  S2-  S180  1  0.54176794  0.50110485  0.35700990  1
  S2-  S181  1  0.64737423  0.45820993  0.81656127  1
  S2-  S182  1  0.58832291  0.70897833  0.30937749  1
  S2-  S183  1  0.64295614  0.66551429  0.85017900  1
  S2-  S184  1  0.95976850  -0.01151240  0.35265954  1
  S2-  S185  1  0.87346606  -0.12246958  0.85305101  1
  S2-  S186  1  0.88094730  0.24564168  0.34802674  1
  S2-  S187  1  0.80029208  0.22777960  0.85423854  1
  S2-  S188  1  0.74790540  0.50094279  0.36198429  1
  S2-  S189  1  0.84937225  0.44378468  0.82340184  1
  S2-  S190  1  0.79729106  0.74935325  0.35887277  1
  S2-  S191  1  0.87708070  0.65161857  0.84898936  1
  S2-  S192  1  0.00374743  0.12031178  0.44831078  1
  S2-  S193  1  0.00635643  0.14121989  0.95245883  1
  S2-  S194  1  0.00129171  0.36515244  0.45074610  1
  S2-  S195  1  0.01039763  0.38388543  0.95729179  1
  S2-  S196  1  -0.00204792  0.61510430  0.45265950  1
  S2-  S197  1  0.01474001  0.63949146  0.95769336  1
  S2-  S198  1  -0.00173780  0.86035681  0.45459941  1
  S2-  S199  1  0.01158939  0.88912335  0.95957244  1
  S2-  S200  1  0.24818735  0.11606398  0.43901931  1
  S2-  S201  1  0.25942730  0.14281429  0.96646948  1
  S2-  S202  1  0.25321612  0.36853554  0.44279376  1
  S2-  S203  1  0.25686363  0.38608809  0.95597543  1
  S2-  S204  1  0.25387629  0.61729518  0.44774796  1
  S2-  S205  1  0.25900980  0.63621031  0.95785399  1
  S2-  S206  1  0.25175435  0.86632247  0.44506620  1
  S2-  S207  1  0.25907717  0.88570428  0.97037123  1
  S2-  S208  1  0.50433590  0.11062017  0.45336714  1
  S2-  S209  1  0.50824238  0.13665158  0.94947698  1
  S2-  S210  1  0.50353254  0.36988338  0.46117052  1
  S2-  S211  1  0.51155106  0.38111736  0.94892042  1
  S2-  S212  1  0.50945596  0.62841044  0.44825448  1
  S2-  S213  1  0.50338361  0.64028663  0.96034323  1
  S2-  S214  1  0.50275384  0.86403051  0.44460109  1
  S2-  S215  1  0.50550594  0.88957636  0.96564803  1
  S2-  S216  1  0.75158465  0.11403420  0.45783032  1
  S2-  S217  1  0.75893898  0.13234556  0.95634004  1
  S2-  S218  1  0.75211563  0.36385416  0.46372261  1
  S2-  S219  1  0.75753348  0.39206790  0.94203398  1
  S2-  S220  1  0.74728143  0.62593965  0.46027978  1
  S2-  S221  1  0.75697412  0.63848533  0.95024326  1
  S2-  S222  1  0.75239675  0.86581984  0.46194790  1
  S2-  S223  1  0.75285837  0.88579594  0.95878543  1
  S2-  S224  1  0.13106580  0.01544033  0.04587289  1
  S2-  S225  1  0.12729249  -0.01466320  0.52854080  1
  S2-  S226  1  0.12781865  0.26441749  0.05159891  1
  S2-  S227  1  0.12607709  0.24252153  0.53983530  1
  S2-  S228  1  0.13294686  0.51217664  0.05240264  1
  S2-  S229  1  0.12558295  0.48968287  0.54258676  1
  S2-  S230  1  0.13426458  0.75950618  0.05410495  1
  S2-  S231  1  0.12536604  0.74143533  0.54035708  1
  S2-  S232  1  0.38568157  0.01250823  0.05369383  1
  S2-  S233  1  0.37582924  -0.01350083  0.53836957  1
  S2-  S234  1  0.38739219  0.26499883  0.04635921  1
  S2-  S235  1  0.37513773  0.23665650  0.53431093  1
  S2-  S236  1  0.38629333  0.51084010  0.05133092  1
  S2-  S237  1  0.37964152  0.49438478  0.53423970  1
  S2-  S238  1  0.38469845  0.76372296  0.06414505  1
  S2-  S239  1  0.37558820  0.74042436  0.53703393  1
  S2-  S240  1  0.63580507  0.01550957  0.05349838  1
  S2-  S241  1  0.62620150  -0.01023839  0.55399432  1
  S2-  S242  1  0.63895103  0.26296168  0.03999412  1
  S2-  S243  1  0.62938814  0.24170538  0.55189388  1
  S2-  S244  1  0.63413784  0.51412139  0.03859665  1
  S2-  S245  1  0.62721699  0.48852737  0.55405082  1
  S2-  S246  1  0.63340332  0.75808716  0.04291194  1
  S2-  S247  1  0.62660868  0.74137780  0.55809385  1
  S2-  S248  1  0.88207065  0.01116577  0.03958072  1
  S2-  S249  1  0.88062707  -0.01290457  0.55206467  1
  S2-  S250  1  0.88189951  0.26665063  0.04625852  1
  S2-  S251  1  0.87983027  0.23801152  0.55293214  1
  S2-  S252  1  0.88319994  0.51308342  0.03433439  1
  S2-  S253  1  0.87556951  0.49627370  0.54017355  1
  S2-  S254  1  0.88598086  0.76298183  0.04846965  1
  S2-  S255  1  0.88283425  0.74709358  0.55368757  1
