# generated using pymatgen
data_La12Ce14Pr13Nd13Sm12(BiS2)64
_symmetry_space_group_name_H-M   'P 1'
_cell_length_a   16.05849890
_cell_length_b   16.08855888
_cell_length_c   27.26017915
_cell_angle_alpha   90.01914530
_cell_angle_beta   90.34036963
_cell_angle_gamma   90.04062815
_symmetry_Int_Tables_number   1
_chemical_formula_structural   La12Ce14Pr13Nd13Sm12(BiS2)64
_chemical_formula_sum   'La12 Ce14 Pr13 Nd13 Sm12 Bi64 S128'
_cell_volume   7042.76178607
_cell_formula_units_Z   1
loop_
 _symmetry_equiv_pos_site_id
 _symmetry_equiv_pos_as_xyz
  1  'x, y, z'
loop_
 _atom_type_symbol
 _atom_type_oxidation_number
  La3+  3.0
  Ce3+  3.0
  Pr3+  3.0
  Nd3+  3.0
  Sm3+  3.0
  Bi2+  2.0
  S2-  -2.0
loop_
 _atom_site_type_symbol
 _atom_site_label
 _atom_site_symmetry_multiplicity
 _atom_site_fract_x
 _atom_site_fract_y
 _atom_site_fract_z
 _atom_site_occupancy
  La3+  La0  1  0.37886656  0.24951407  0.45122968  1
  La3+  La1  1  0.11550357  0.25748692  0.91489650  1
  La3+  La2  1  0.86761116  0.26880126  0.38357094  1
  La3+  La3  1  0.61820033  0.49550230  0.42547483  1
  La3+  La4  1  0.00687932  0.87138734  0.59650869  1
  La3+  La5  1  0.86140287  0.00435568  0.89980083  1
  La3+  La6  1  0.61889538  0.74904581  0.43042231  1
  La3+  La7  1  0.23800209  0.87914683  0.10458983  1
  La3+  La8  1  0.49109962  0.12695314  0.06319801  1
  La3+  La9  1  0.00228616  0.13224752  0.58264713  1
  La3+  La10  1  0.51461001  0.38455495  0.59468204  1
  La3+  La11  1  0.49911923  0.87415711  0.09804775  1
  Ce3+  Ce12  1  0.11747605  0.24573789  0.44230997  1
  Ce3+  Ce13  1  0.75056940  0.87179708  0.56649623  1
  Ce3+  Ce14  1  0.87875602  0.50482074  0.43461266  1
  Ce3+  Ce15  1  0.86571761  0.50449040  0.93852957  1
  Ce3+  Ce16  1  0.74669316  0.88564269  0.06269109  1
  Ce3+  Ce17  1  -0.00406935  0.12700512  0.04203289  1
  Ce3+  Ce18  1  -0.00248858  0.63243394  0.05379517  1
  Ce3+  Ce19  1  0.36960545  0.25636137  0.93375145  1
  Ce3+  Ce20  1  0.25257200  0.37541101  0.56638830  1
  Ce3+  Ce21  1  0.62841095  0.24786048  0.44579960  1
  Ce3+  Ce22  1  0.50550714  0.87189040  0.56889026  1
  Ce3+  Ce23  1  0.87909021  0.75755113  0.44017378  1
  Ce3+  Ce24  1  0.75268438  0.37744830  0.55461444  1
  Ce3+  Ce25  1  0.37760608  -0.00117282  0.44499751  1
  Pr3+  Pr26  1  0.12480631  -0.00152162  0.44989359  1
  Pr3+  Pr27  1  0.86308973  0.75621130  0.93160449  1
  Pr3+  Pr28  1  0.24072579  0.37684443  0.06110393  1
  Pr3+  Pr29  1  0.61076641  0.75540495  0.94083081  1
  Pr3+  Pr30  1  0.49362964  0.37360504  0.07011507  1
  Pr3+  Pr31  1  0.74827060  0.12564204  0.05664314  1
  Pr3+  Pr32  1  0.11891981  0.50711726  0.92761877  1
  Pr3+  Pr33  1  0.87927266  0.00202359  0.44464698  1
  Pr3+  Pr34  1  0.00286069  0.62413433  0.56628759  1
  Pr3+  Pr35  1  0.50307781  0.62605299  0.07906729  1
  Pr3+  Pr36  1  0.36535253  0.00426676  0.94301809  1
  Pr3+  Pr37  1  0.12481421  0.49713546  0.44006988  1
  Pr3+  Pr38  1  0.50593776  0.12378777  0.57563103  1
  Nd3+  Nd39  1  -0.00373872  0.88271783  0.05668459  1
  Nd3+  Nd40  1  0.25643241  0.12625279  0.57425005  1
  Nd3+  Nd41  1  0.62851685  0.00037866  0.44318603  1
  Nd3+  Nd42  1  0.12746584  0.74990465  0.43364864  1
  Nd3+  Nd43  1  -0.00347338  0.37878530  0.05814903  1
  Nd3+  Nd44  1  0.74586582  0.63238505  0.06311043  1
  Nd3+  Nd45  1  0.37015286  0.50651187  0.94867274  1
  Nd3+  Nd46  1  0.36733472  0.75814684  0.94893166  1
  Nd3+  Nd47  1  0.75289113  0.12601891  0.57010214  1
  Nd3+  Nd48  1  0.61808487  0.25724020  0.93667022  1
  Nd3+  Nd49  1  0.86375713  0.26455039  0.92733391  1
  Nd3+  Nd50  1  0.24473134  0.63185230  0.06205701  1
  Nd3+  Nd51  1  0.75412734  0.36953135  0.07230507  1
  Sm3+  Sm52  1  0.25367640  0.62429312  0.55615718  1
  Sm3+  Sm53  1  0.23945703  0.13150086  0.06045211  1
  Sm3+  Sm54  1  0.37290689  0.74804206  0.43332891  1
  Sm3+  Sm55  1  0.11638545  0.00328798  0.93397030  1
  Sm3+  Sm56  1  0.61497987  0.00571613  0.93736847  1
  Sm3+  Sm57  1  0.75167302  0.62561548  0.54914486  1
  Sm3+  Sm58  1  0.61569095  0.50461767  0.95119673  1
  Sm3+  Sm59  1  0.37790166  0.49526879  0.44657009  1
  Sm3+  Sm60  1  0.11692416  0.75724555  0.93660286  1
  Sm3+  Sm61  1  0.50458860  0.62436439  0.56191867  1
  Sm3+  Sm62  1  0.25418142  0.87169170  0.56016079  1
  Sm3+  Sm63  1  -0.00075000  0.37417550  0.55855587  1
  Bi2+  Bi64  1  0.00411456  0.10141773  0.29953740  1
  Bi2+  Bi65  1  0.02478453  0.12212994  0.77881995  1
  Bi2+  Bi66  1  0.02082392  0.47818070  0.28486553  1
  Bi2+  Bi67  1  -0.00544017  0.40500779  0.78868849  1
  Bi2+  Bi68  1  -0.03306647  0.65618414  0.33543113  1
  Bi2+  Bi69  1  0.04577499  0.59733436  0.80858291  1
  Bi2+  Bi70  1  0.00475496  0.84499292  0.29894453  1
  Bi2+  Bi71  1  -0.00647318  0.87147379  0.78172528  1
  Bi2+  Bi72  1  0.20838605  0.16721414  0.27834076  1
  Bi2+  Bi73  1  0.31686178  0.04860391  0.77974137  1
  Bi2+  Bi74  1  0.26224703  0.35863817  0.29120325  1
  Bi2+  Bi75  1  0.26151578  0.47387674  0.78509303  1
  Bi2+  Bi76  1  0.15274276  0.63387093  0.29022097  1
  Bi2+  Bi77  1  0.27616616  0.66266356  0.81257406  1
  Bi2+  Bi78  1  0.22982285  0.88022204  0.29995753  1
  Bi2+  Bi79  1  0.26982928  0.85299767  0.78098117  1
  Bi2+  Bi80  1  0.49859286  0.13904065  0.28299026  1
  Bi2+  Bi81  1  0.51502332  0.14392732  0.79700655  1
  Bi2+  Bi82  1  0.52785970  0.32905640  0.31359289  1
  Bi2+  Bi83  1  0.51491680  0.38953690  0.80663430  1
  Bi2+  Bi84  1  0.53032466  0.58570821  0.29021782  1
  Bi2+  Bi85  1  0.54949704  0.63125729  0.80457677  1
  Bi2+  Bi86  1  0.51563412  0.88594311  0.32604888  1
  Bi2+  Bi87  1  0.47899822  0.86134504  0.78578462  1
  Bi2+  Bi88  1  0.73327214  0.13879709  0.29151050  1
  Bi2+  Bi89  1  0.76841231  0.16455327  0.79550643  1
  Bi2+  Bi90  1  0.70367064  0.44893342  0.24558197  1
  Bi2+  Bi91  1  0.79637567  0.43990584  0.76018504  1
  Bi2+  Bi92  1  0.80191149  0.65542603  0.26910616  1
  Bi2+  Bi93  1  0.84856840  0.61176854  0.81920975  1
  Bi2+  Bi94  1  0.77771895  0.88625860  0.28250992  1
  Bi2+  Bi95  1  0.76533162  0.77705186  0.76887902  1
  Bi2+  Bi96  1  0.11119430  0.03797070  0.20621922  1
  Bi2+  Bi97  1  0.17135835  -0.01187059  0.71291090  1
  Bi2+  Bi98  1  0.11815877  0.30749240  0.21327560  1
  Bi2+  Bi99  1  0.14166946  0.25453110  0.71921777  1
  Bi2+  Bi100  1  0.14272999  0.48047477  0.16683574  1
  Bi2+  Bi101  1  0.11400919  0.51072822  0.71022521  1
  Bi2+  Bi102  1  0.06319534  0.74156025  0.20608572  1
  Bi2+  Bi103  1  0.15471601  0.72497713  0.71489948  1
  Bi2+  Bi104  1  0.37731495  0.01063906  0.22068516  1
  Bi2+  Bi105  1  0.44883422  -0.01501568  0.69061857  1
  Bi2+  Bi106  1  0.34974143  0.25524556  0.20920253  1
  Bi2+  Bi107  1  0.35858312  0.24460218  0.72631117  1
  Bi2+  Bi108  1  0.32924520  0.48044025  0.20209534  1
  Bi2+  Bi109  1  0.38092534  0.60060396  0.71989011  1
  Bi2+  Bi110  1  0.32876443  0.67340662  0.21934558  1
  Bi2+  Bi111  1  0.40370036  0.79240311  0.68400272  1
  Bi2+  Bi112  1  0.64011580  -0.00825942  0.20282024  1
  Bi2+  Bi113  1  0.61727241  -0.00366697  0.75610928  1
  Bi2+  Bi114  1  0.60892987  0.27864636  0.21274197  1
  Bi2+  Bi115  1  0.63259437  0.25478936  0.70876978  1
  Bi2+  Bi116  1  0.52881633  0.46898952  0.19179230  1
  Bi2+  Bi117  1  0.64352483  0.54653601  0.71529687  1
  Bi2+  Bi118  1  0.60783659  0.72499102  0.21537846  1
  Bi2+  Bi119  1  0.59953640  0.74334991  0.70187283  1
  Bi2+  Bi120  1  0.89420443  -0.01572343  0.21121563  1
  Bi2+  Bi121  1  0.82645649  -0.01131100  0.69857195  1
  Bi2+  Bi122  1  0.88370842  0.22117368  0.18517117  1
  Bi2+  Bi123  1  0.87944268  0.28402339  0.70509913  1
  Bi2+  Bi124  1  0.87646255  0.51313109  0.20595011  1
  Bi2+  Bi125  1  0.93021324  0.47799071  0.67118455  1
  Bi2+  Bi126  1  0.86925507  0.78839216  0.19357920  1
  Bi2+  Bi127  1  0.88919939  0.66435118  0.71000887  1
  S2-  S128  1  0.02059486  0.14233314  0.13871902  1
  S2-  S129  1  -0.13636272  0.13271844  0.65263995  1
  S2-  S130  1  -0.10575740  0.37425606  0.14017063  1
  S2-  S131  1  0.01779544  0.29100666  0.64741703  1
  S2-  S132  1  0.00648513  0.59631456  0.15016156  1
  S2-  S133  1  0.01896725  0.71841999  0.65113651  1
  S2-  S134  1  0.07757631  0.89324177  0.14708782  1
  S2-  S135  1  0.00196965  0.96729619  0.68612734  1
  S2-  S136  1  0.25162413  0.04213607  0.14744305  1
  S2-  S137  1  0.14530052  0.12792310  0.65284831  1
  S2-  S138  1  0.22905301  0.25546936  0.13436133  1
  S2-  S139  1  0.25515706  0.34860607  0.66406915  1
  S2-  S140  1  0.22013046  0.71052113  0.14972862  1
  S2-  S141  1  0.24082963  0.60643823  0.65408692  1
  S2-  S142  1  0.29844863  0.86923741  0.20763561  1
  S2-  S143  1  0.17798495  0.85659594  0.64746633  1
  S2-  S144  1  0.50157548  0.02904864  0.14822127  1
  S2-  S145  1  0.37929937  0.13365931  0.65032821  1
  S2-  S146  1  0.48076086  0.24907969  0.14119850  1
  S2-  S147  1  0.47849776  0.33911840  0.69598789  1
  S2-  S148  1  0.45935687  0.72499010  0.15903005  1
  S2-  S149  1  0.50341742  0.53988449  0.64842334  1
  S2-  S150  1  0.50788049  0.89166903  0.23172334  1
  S2-  S151  1  0.62442632  0.87477329  0.64091645  1
  S2-  S152  1  0.77750687  0.01545199  0.13836466  1
  S2-  S153  1  0.63635958  0.12832812  0.65051341  1
  S2-  S154  1  0.73302990  0.23521755  0.13988346  1
  S2-  S155  1  0.67665156  0.37699456  0.64355923  1
  S2-  S156  1  0.65126413  0.62381288  0.14708702  1
  S2-  S157  1  0.74092794  0.62938079  0.64849875  1
  S2-  S158  1  0.65522594  0.85249342  0.14774416  1
  S2-  S159  1  0.84559578  0.85361528  0.64774789  1
  S2-  S160  1  0.10566961  -0.02515118  0.34872099  1
  S2-  S161  1  0.06091367  -0.01401593  0.84014506  1
  S2-  S162  1  0.03788605  0.23786346  0.35436816  1
  S2-  S163  1  0.15318797  0.19034150  0.82107504  1
  S2-  S164  1  0.18603618  0.48689131  0.34518882  1
  S2-  S165  1  0.13760952  0.39797356  0.84887606  1
  S2-  S166  1  0.24641003  0.74727120  0.35739014  1
  S2-  S167  1  0.06274823  0.76297588  0.84152142  1
  S2-  S168  1  0.35748450  -0.03336023  0.34839521  1
  S2-  S169  1  0.43966998  0.01542380  0.85042414  1
  S2-  S170  1  0.40827055  0.22125252  0.35305248  1
  S2-  S171  1  0.39739898  0.26122756  0.83567411  1
  S2-  S172  1  0.46329035  0.48016383  0.36013867  1
  S2-  S173  1  0.40023720  0.47710760  0.85124620  1
  S2-  S174  1  0.47563231  0.72715999  0.35503242  1
  S2-  S175  1  0.43784523  0.73033992  0.85850350  1
  S2-  S176  1  0.60907390  0.03786962  0.34395019  1
  S2-  S177  1  0.69174696  0.01634461  0.84920445  1
  S2-  S178  1  0.68715106  0.26788233  0.35297745  1
  S2-  S179  1  0.63712867  0.26990317  0.83668442  1
  S2-  S180  1  0.67919712  0.54027510  0.33151983  1
  S2-  S181  1  0.62231996  0.49094436  0.85262195  1
  S2-  S182  1  0.66834096  0.80690709  0.33880586  1
  S2-  S183  1  0.66365071  0.74244756  0.84490180  1
  S2-  S184  1  0.86011473  0.09510811  0.35582518  1
  S2-  S185  1  0.87192644  0.03506584  0.79389740  1
  S2-  S186  1  0.85028177  0.25785922  0.27456414  1
  S2-  S187  1  0.91380316  0.21449432  0.83501859  1
  S2-  S188  1  0.89471397  0.43377800  0.34654032  1
  S2-  S189  1  0.85079865  0.40524595  0.85906945  1
  S2-  S190  1  0.88283534  0.87656125  0.36630803  1
  S2-  S191  1  0.86400329  0.85183273  0.84704306  1
  S2-  S192  1  0.00491694  0.12167602  0.46773115  1
  S2-  S193  1  -0.00878089  0.12674433  0.93784439  1
  S2-  S194  1  -0.00183661  0.37479312  0.45486131  1
  S2-  S195  1  -0.00530814  0.38345273  0.95156406  1
  S2-  S196  1  0.00549964  0.62621497  0.45783335  1
  S2-  S197  1  -0.00699122  0.63210542  0.94923688  1
  S2-  S198  1  0.00808192  0.86992944  0.46384257  1
  S2-  S199  1  -0.00609737  0.87895631  0.95055148  1
  S2-  S200  1  0.25151853  0.12415894  0.45931953  1
  S2-  S201  1  0.24027074  0.13039546  0.94545122  1
  S2-  S202  1  0.25033170  0.37330914  0.45715716  1
  S2-  S203  1  0.24709984  0.38110999  0.95274048  1
  S2-  S204  1  0.25494580  0.61894354  0.45289554  1
  S2-  S205  1  0.24245069  0.63157764  0.95437709  1
  S2-  S206  1  0.25379612  0.87323286  0.45788007  1
  S2-  S207  1  0.24059540  0.87857593  0.93457876  1
  S2-  S208  1  0.50305208  0.12225375  0.46365804  1
  S2-  S209  1  0.49451964  0.13189074  0.95312737  1
  S2-  S210  1  0.50366213  0.37273362  0.46330295  1
  S2-  S211  1  0.49361725  0.38040597  0.96070113  1
  S2-  S212  1  0.49672485  0.62162109  0.45868486  1
  S2-  S213  1  0.49350246  0.62739187  0.96862635  1
  S2-  S214  1  0.49869593  0.87410525  0.45928029  1
  S2-  S215  1  0.49265289  0.88282597  0.95251316  1
  S2-  S216  1  0.74858284  0.12458611  0.46241757  1
  S2-  S217  1  0.74453545  0.13340277  0.94785748  1
  S2-  S218  1  0.75413643  0.37936613  0.44954659  1
  S2-  S219  1  0.73874514  0.38152288  0.96260758  1
  S2-  S220  1  0.75160784  0.62762387  0.44452568  1
  S2-  S221  1  0.73951400  0.62888261  0.95744899  1
  S2-  S222  1  0.74790170  0.87499230  0.45969885  1
  S2-  S223  1  0.73938716  0.88118308  0.95309471  1
  S2-  S224  1  0.12400352  0.00245796  0.03778604  1
  S2-  S225  1  0.13141802  -0.00247787  0.55509986  1
  S2-  S226  1  0.11656507  0.25479940  0.02901987  1
  S2-  S227  1  0.13167879  0.25299929  0.54651671  1
  S2-  S228  1  0.12040655  0.50614376  0.03656827  1
  S2-  S229  1  0.12764493  0.49875008  0.54884035  1
  S2-  S230  1  0.12247531  0.75902937  0.04056651  1
  S2-  S231  1  0.13309042  0.74533874  0.54125381  1
  S2-  S232  1  0.36314586  -0.00102594  0.04771809  1
  S2-  S233  1  0.37674583  -0.00345430  0.55126201  1
  S2-  S234  1  0.36506371  0.25310008  0.03803839  1
  S2-  S235  1  0.38356069  0.25775201  0.55699636  1
  S2-  S236  1  0.36969042  0.50515195  0.05570642  1
  S2-  S237  1  0.37811396  0.49935123  0.55026939  1
  S2-  S238  1  0.36578106  0.76174083  0.05270116  1
  S2-  S239  1  0.37749205  0.74597683  0.54481441  1
  S2-  S240  1  0.61733156  0.00227901  0.04167309  1
  S2-  S241  1  0.62660508  0.00025529  0.54709777  1
  S2-  S242  1  0.61951755  0.25383220  0.04134788  1
  S2-  S243  1  0.62514205  0.25287787  0.54890441  1
  S2-  S244  1  0.62484415  0.49480374  0.05419566  1
  S2-  S245  1  0.62721492  0.50416000  0.53941349  1
  S2-  S246  1  0.61701208  0.75548562  0.04653320  1
  S2-  S247  1  0.62541592  0.74466590  0.54091030  1
  S2-  S248  1  0.87456307  0.00269834  0.03175030  1
  S2-  S249  1  0.87938957  -0.00319203  0.55266357  1
  S2-  S250  1  0.87370931  0.25387255  0.03430688  1
  S2-  S251  1  0.87500406  0.25606099  0.55115750  1
  S2-  S252  1  0.86948563  0.50699847  0.04467727  1
  S2-  S253  1  0.87722833  0.50202935  0.54183062  1
  S2-  S254  1  0.87001395  0.75580807  0.04372716  1
  S2-  S255  1  0.87780895  0.74561061  0.54404342  1
