# generated using pymatgen
data_La12Ce14Pr13Nd13Sm12(BiS2)64
_symmetry_space_group_name_H-M   'P 1'
_cell_length_a   16.16212356
_cell_length_b   16.13092937
_cell_length_c   27.31909630
_cell_angle_alpha   89.73150808
_cell_angle_beta   89.75937822
_cell_angle_gamma   89.87865214
_symmetry_Int_Tables_number   1
_chemical_formula_structural   La12Ce14Pr13Nd13Sm12(BiS2)64
_chemical_formula_sum   'La12 Ce14 Pr13 Nd13 Sm12 Bi64 S128'
_cell_volume   7122.20692262
_cell_formula_units_Z   1
loop_
 _symmetry_equiv_pos_site_id
 _symmetry_equiv_pos_as_xyz
  1  'x, y, z'
loop_
 _atom_type_symbol
 _atom_type_oxidation_number
  La3+  3.0
  Ce3+  3.0
  Pr3+  3.0
  Nd3+  3.0
  Sm3+  3.0
  Bi2+  2.0
  S2-  -2.0
loop_
 _atom_site_type_symbol
 _atom_site_label
 _atom_site_symmetry_multiplicity
 _atom_site_fract_x
 _atom_site_fract_y
 _atom_site_fract_z
 _atom_site_occupancy
  La3+  La0  1  0.73738682  0.87923201  0.06996383  1
  La3+  La1  1  0.63913207  0.02351926  0.43957160  1
  La3+  La2  1  0.14938676  0.77713896  0.40574249  1
  La3+  La3  1  0.11827366  0.75396936  0.93190732  1
  La3+  La4  1  0.49341945  0.37132825  0.06472362  1
  La3+  La5  1  0.51663433  0.90005702  0.59551028  1
  La3+  La6  1  -0.00030407  0.59804529  0.11218685  1
  La3+  La7  1  0.64679823  0.27751818  0.42776771  1
  La3+  La8  1  0.23220204  0.13786004  0.08907791  1
  La3+  La9  1  0.12353705  0.25932463  0.91361049  1
  La3+  La10  1  0.02374298  0.14281030  0.57443120  1
  La3+  La11  1  0.12527418  0.51291724  0.91928298  1
  Ce3+  Ce12  1  0.39090137  0.51747004  0.44674762  1
  Ce3+  Ce13  1  0.51736868  0.39174652  0.56810815  1
  Ce3+  Ce14  1  0.76352972  0.14785835  0.56547167  1
  Ce3+  Ce15  1  -0.00651094  0.12603090  0.05762851  1
  Ce3+  Ce16  1  0.76597410  0.39096409  0.57004893  1
  Ce3+  Ce17  1  0.11743556  0.00581693  0.94517392  1
  Ce3+  Ce18  1  0.24035653  0.62806903  0.05686084  1
  Ce3+  Ce19  1  0.74842773  0.62275762  0.05566047  1
  Ce3+  Ce20  1  0.36968677  0.00372563  0.94765761  1
  Ce3+  Ce21  1  0.89379436  0.02099515  0.44178262  1
  Ce3+  Ce22  1  0.14181919  0.27191197  0.43289902  1
  Ce3+  Ce23  1  0.14191566  0.52287168  0.44119793  1
  Ce3+  Ce24  1  0.23608416  0.37925306  0.05475372  1
  Ce3+  Ce25  1  0.64206280  0.51779182  0.44430438  1
  Pr3+  Pr26  1  0.26208123  0.89605377  0.55980034  1
  Pr3+  Pr27  1  0.88545628  0.78025893  0.42702443  1
  Pr3+  Pr28  1  0.36981107  0.25201910  0.93657167  1
  Pr3+  Pr29  1  0.37245741  0.50413046  0.93827518  1
  Pr3+  Pr30  1  0.39045022  0.77266455  0.44110243  1
  Pr3+  Pr31  1  0.60931992  -0.00068008  0.90733291  1
  Pr3+  Pr32  1  0.38414786  0.75831192  0.92873139  1
  Pr3+  Pr33  1  0.89139850  0.27183047  0.44155740  1
  Pr3+  Pr34  1  0.24442922  0.87387823  0.05672345  1
  Pr3+  Pr35  1  0.51532481  0.64541473  0.55795796  1
  Pr3+  Pr36  1  0.14583925  0.02778060  0.42581626  1
  Pr3+  Pr37  1  0.87610994  -0.00344143  0.91757486  1
  Pr3+  Pr38  1  0.62144679  0.24730393  0.93163027  1
  Nd3+  Nd39  1  0.63902797  0.77339179  0.44452878  1
  Nd3+  Nd40  1  0.76580831  0.64896324  0.55913966  1
  Nd3+  Nd41  1  0.86508759  0.75373440  0.94090669  1
  Nd3+  Nd42  1  0.89068304  0.52392488  0.44071651  1
  Nd3+  Nd43  1  0.61618866  0.50101492  0.93050889  1
  Nd3+  Nd44  1  0.01703657  0.89307007  0.55076783  1
  Nd3+  Nd45  1  0.39371952  0.28021088  0.43183603  1
  Nd3+  Nd46  1  0.01509931  0.39667430  0.55548942  1
  Nd3+  Nd47  1  0.26499134  0.64778100  0.56121673  1
  Nd3+  Nd48  1  0.49510684  0.12655856  0.05811613  1
  Nd3+  Nd49  1  0.86900783  0.25011075  0.94080563  1
  Nd3+  Nd50  1  0.26160091  0.39340898  0.56574160  1
  Nd3+  Nd51  1  0.76630244  0.90436673  0.57266264  1
  Sm3+  Sm52  1  0.49382321  0.87693046  0.06583431  1
  Sm3+  Sm53  1  -0.00771263  0.86625744  0.06554363  1
  Sm3+  Sm54  1  0.87029209  0.50517342  0.93793417  1
  Sm3+  Sm55  1  -0.00382108  0.37639975  0.04671019  1
  Sm3+  Sm56  1  0.39302241  0.02309683  0.44618570  1
  Sm3+  Sm57  1  0.26598199  0.14719978  0.55376270  1
  Sm3+  Sm58  1  0.74407122  0.12494316  0.05179010  1
  Sm3+  Sm59  1  0.62119204  0.75578700  0.94542213  1
  Sm3+  Sm60  1  0.49374758  0.62465105  0.05899533  1
  Sm3+  Sm61  1  0.74478625  0.37691509  0.04974807  1
  Sm3+  Sm62  1  0.51475869  0.15090988  0.56466181  1
  Sm3+  Sm63  1  0.01494850  0.64955796  0.54736379  1
  Bi2+  Bi64  1  -0.04038892  0.10356098  0.29941906  1
  Bi2+  Bi65  1  -0.02769599  0.12301604  0.79357835  1
  Bi2+  Bi66  1  -0.04873158  0.29895401  0.31028796  1
  Bi2+  Bi67  1  -0.01703600  0.37260824  0.78354386  1
  Bi2+  Bi68  1  0.00437937  0.57501088  0.31407945  1
  Bi2+  Bi69  1  -0.01261953  0.68206973  0.77578370  1
  Bi2+  Bi70  1  -0.00767973  0.84602080  0.29880446  1
  Bi2+  Bi71  1  0.01973258  0.87090839  0.79399186  1
  Bi2+  Bi72  1  0.21627292  0.11475732  0.25979698  1
  Bi2+  Bi73  1  0.23234768  0.06714167  0.78660948  1
  Bi2+  Bi74  1  0.22089220  0.29813462  0.30311187  1
  Bi2+  Bi75  1  0.25651203  0.39253571  0.78167641  1
  Bi2+  Bi76  1  0.32694565  0.64206969  0.28138620  1
  Bi2+  Bi77  1  0.24328773  0.63920403  0.78381622  1
  Bi2+  Bi78  1  0.27890607  0.90508645  0.28814150  1
  Bi2+  Bi79  1  0.22117812  0.87218829  0.76885271  1
  Bi2+  Bi80  1  0.48548736  0.10302858  0.29833509  1
  Bi2+  Bi81  1  0.44770166  0.20028983  0.80088456  1
  Bi2+  Bi82  1  0.49435124  0.35036892  0.30368229  1
  Bi2+  Bi83  1  0.56578700  0.35548736  0.82122959  1
  Bi2+  Bi84  1  0.51385114  0.59369037  0.30563235  1
  Bi2+  Bi85  1  0.58758751  0.61178165  0.79228747  1
  Bi2+  Bi86  1  0.51697194  0.79119306  0.29967544  1
  Bi2+  Bi87  1  0.47971231  0.85949690  0.79453964  1
  Bi2+  Bi88  1  0.77814599  0.11575068  0.24814652  1
  Bi2+  Bi89  1  0.73806753  0.20406388  0.79007416  1
  Bi2+  Bi90  1  0.75507986  0.37497600  0.29130493  1
  Bi2+  Bi91  1  0.73575898  0.44407127  0.79470331  1
  Bi2+  Bi92  1  0.70990889  0.63037332  0.29764399  1
  Bi2+  Bi93  1  0.80062967  0.63031206  0.81074667  1
  Bi2+  Bi94  1  0.73644031  0.92339967  0.29199544  1
  Bi2+  Bi95  1  0.75321201  0.81339015  0.78758664  1
  Bi2+  Bi96  1  0.07175597  0.01230938  0.21590221  1
  Bi2+  Bi97  1  0.10977953  0.00440008  0.70762101  1
  Bi2+  Bi98  1  0.08181344  0.34611287  0.22760699  1
  Bi2+  Bi99  1  0.11334038  0.25064867  0.69650480  1
  Bi2+  Bi100  1  0.20632771  0.49583892  0.24656049  1
  Bi2+  Bi101  1  0.00535707  0.52427212  0.71146724  1
  Bi2+  Bi102  1  0.13674702  0.74293060  0.20602508  1
  Bi2+  Bi103  1  0.14425890  0.74788096  0.68482393  1
  Bi2+  Bi104  1  0.44430293  -0.08014303  0.22319685  1
  Bi2+  Bi105  1  0.39768767  0.05534221  0.72728018  1
  Bi2+  Bi106  1  0.35166074  0.23957401  0.20433466  1
  Bi2+  Bi107  1  0.35390413  0.23817885  0.70180368  1
  Bi2+  Bi108  1  0.39120367  0.47981224  0.22292172  1
  Bi2+  Bi109  1  0.45479197  0.47539161  0.75516688  1
  Bi2+  Bi110  1  0.36819284  0.75250563  0.18789721  1
  Bi2+  Bi111  1  0.38319617  0.69517216  0.70896423  1
  Bi2+  Bi112  1  0.62287175  0.00748648  0.20958402  1
  Bi2+  Bi113  1  0.64936811  0.00337048  0.71264733  1
  Bi2+  Bi114  1  0.61229649  0.26081305  0.19208182  1
  Bi2+  Bi115  1  0.60857491  0.25107776  0.71374903  1
  Bi2+  Bi116  1  0.66255378  0.49979491  0.21778146  1
  Bi2+  Bi117  1  0.61516039  0.44820814  0.69192665  1
  Bi2+  Bi118  1  0.59441857  0.69041975  0.20974027  1
  Bi2+  Bi119  1  0.63057916  0.72519062  0.70498403  1
  Bi2+  Bi120  1  0.88988760  -0.04305254  0.21065517  1
  Bi2+  Bi121  1  0.85303028  -0.00872700  0.73487771  1
  Bi2+  Bi122  1  0.93836745  0.21484701  0.20239141  1
  Bi2+  Bi123  1  0.85229176  0.32426708  0.70713237  1
  Bi2+  Bi124  1  0.85764787  0.46426611  0.20259878  1
  Bi2+  Bi125  1  0.80476600  0.51367239  0.68590148  1
  Bi2+  Bi126  1  0.85168722  0.71607063  0.22041545  1
  Bi2+  Bi127  1  0.88997895  0.80811174  0.69993501  1
  S2-  S128  1  0.07416309  0.14255438  0.14399490  1
  S2-  S129  1  -0.02085218  0.17147693  0.67375833  1
  S2-  S130  1  -0.00310095  0.42286987  0.14153883  1
  S2-  S131  1  0.05351360  0.38373880  0.65153448  1
  S2-  S132  1  -0.02392634  0.58776140  0.21997218  1
  S2-  S133  1  0.00900774  0.65344097  0.64421266  1
  S2-  S134  1  0.01112916  0.76724680  0.14733065  1
  S2-  S135  1  0.01080668  0.90906197  0.65031866  1
  S2-  S136  1  0.30303392  0.08279240  0.17616261  1
  S2-  S137  1  0.17548054  0.12413413  0.63643194  1
  S2-  S138  1  0.24413731  0.29821804  0.14165311  1
  S2-  S139  1  0.26359705  0.36359999  0.66549744  1
  S2-  S140  1  0.17104002  0.60598516  0.14651744  1
  S2-  S141  1  0.24875426  0.61623564  0.65915378  1
  S2-  S142  1  0.22640042  0.85238242  0.15719243  1
  S2-  S143  1  0.24784709  0.86313916  0.65884721  1
  S2-  S144  1  0.49468622  0.17360337  0.15440614  1
  S2-  S145  1  0.51976099  0.05041739  0.65014045  1
  S2-  S146  1  0.49683527  0.38372949  0.16500564  1
  S2-  S147  1  0.49509287  0.27115723  0.63845719  1
  S2-  S148  1  0.46106844  0.61828841  0.15552493  1
  S2-  S149  1  0.50929447  0.62408500  0.65726747  1
  S2-  S150  1  0.59836374  0.88796426  0.14307741  1
  S2-  S151  1  0.46102597  0.83463100  0.68905505  1
  S2-  S152  1  0.71149263  0.13461108  0.14893709  1
  S2-  S153  1  0.77337303  0.04187619  0.64506779  1
  S2-  S154  1  0.73146439  0.37103054  0.14771725  1
  S2-  S155  1  0.74625186  0.26505150  0.64038637  1
  S2-  S156  1  0.82376837  0.60965851  0.14373905  1
  S2-  S157  1  0.77793530  0.68772394  0.65578679  1
  S2-  S158  1  0.80563853  0.83501905  0.16175210  1
  S2-  S159  1  0.66035810  0.87414367  0.65376783  1
  S2-  S160  1  0.13624248  -0.07751900  0.34421940  1
  S2-  S161  1  0.03046194  -0.00085289  0.86027505  1
  S2-  S162  1  0.14718593  0.16357294  0.35618706  1
  S2-  S163  1  0.11419019  0.18242223  0.82073273  1
  S2-  S164  1  0.14262294  0.47916957  0.34690604  1
  S2-  S165  1  0.11453905  0.39493442  0.84243807  1
  S2-  S166  1  0.10623652  0.71680435  0.31116005  1
  S2-  S167  1  0.11331555  0.65039163  0.84908134  1
  S2-  S168  1  0.36159755  0.00921039  0.34915065  1
  S2-  S169  1  0.44287324  -0.02690669  0.86177335  1
  S2-  S170  1  0.37675235  0.22869323  0.33414123  1
  S2-  S171  1  0.30362205  0.28220074  0.84441363  1
  S2-  S172  1  0.39375819  0.42620142  0.36505719  1
  S2-  S173  1  0.27716612  0.51468454  0.85199896  1
  S2-  S174  1  0.30477118  0.77379521  0.35329448  1
  S2-  S175  1  0.32118158  0.76374031  0.83238673  1
  S2-  S176  1  0.61014176  0.00620015  0.34099340  1
  S2-  S177  1  0.62910519  -0.06758064  0.81136433  1
  S2-  S178  1  0.58052798  0.21546063  0.33760769  1
  S2-  S179  1  0.61382018  0.14551805  0.84881732  1
  S2-  S180  1  0.63374580  0.42340532  0.36251845  1
  S2-  S181  1  0.49178617  0.51294627  0.85957039  1
  S2-  S182  1  0.68138216  0.78321065  0.34791827  1
  S2-  S183  1  0.53089610  0.74745878  0.86195629  1
  S2-  S184  1  0.87307409  -0.07474418  0.36039373  1
  S2-  S185  1  0.81451577  0.05604871  0.82755723  1
  S2-  S186  1  0.79071193  0.25778819  0.35925960  1
  S2-  S187  1  0.88767011  0.25432871  0.84234599  1
  S2-  S188  1  0.87235323  0.48118383  0.34499674  1
  S2-  S189  1  0.89909966  0.49430251  0.84122960  1
  S2-  S190  1  0.89980004  0.71380995  0.33228198  1
  S2-  S191  1  0.87436613  0.84857398  0.85734599  1
  S2-  S192  1  0.01591099  0.14608226  0.45606787  1
  S2-  S193  1  -0.00629920  0.13050320  0.95263044  1
  S2-  S194  1  0.01602746  0.39814448  0.44989984  1
  S2-  S195  1  -0.00847505  0.37808981  0.94485159  1
  S2-  S196  1  0.01792124  0.65167526  0.44311847  1
  S2-  S197  1  -0.01338531  0.63008606  0.94466561  1
  S2-  S198  1  0.02042948  0.89442363  0.44778145  1
  S2-  S199  1  -0.00663963  0.87669274  0.96196934  1
  S2-  S200  1  0.27306193  0.14966002  0.45218786  1
  S2-  S201  1  0.24348421  0.12620086  0.94274256  1
  S2-  S202  1  0.26142243  0.39623818  0.45890738  1
  S2-  S203  1  0.24517598  0.37956108  0.95246468  1
  S2-  S204  1  0.26629813  0.64487575  0.45362064  1
  S2-  S205  1  0.25487855  0.63793495  0.95280947  1
  S2-  S206  1  0.26819426  0.90026628  0.45427266  1
  S2-  S207  1  0.24596874  0.87893179  0.94858821  1
  S2-  S208  1  0.51178523  0.14956774  0.45673446  1
  S2-  S209  1  0.49484757  0.12606404  0.95305892  1
  S2-  S210  1  0.51671855  0.39760479  0.46508472  1
  S2-  S211  1  0.49659801  0.37358679  0.95677565  1
  S2-  S212  1  0.51596866  0.64500923  0.45136164  1
  S2-  S213  1  0.49932794  0.62812748  0.95861682  1
  S2-  S214  1  0.51287268  0.89670505  0.45091084  1
  S2-  S215  1  0.50187271  0.88050654  0.96338124  1
  S2-  S216  1  0.76820368  0.14193178  0.45828673  1
  S2-  S217  1  0.74807282  0.12054019  0.94879707  1
  S2-  S218  1  0.77144331  0.40030728  0.46363524  1
  S2-  S219  1  0.74458607  0.37867508  0.94487341  1
  S2-  S220  1  0.76539716  0.64802407  0.45229772  1
  S2-  S221  1  0.73956512  0.62553352  0.94859585  1
  S2-  S222  1  0.76164556  0.89726225  0.46368861  1
  S2-  S223  1  0.73717515  0.88368610  0.95337240  1
  S2-  S224  1  0.11848937  -0.00158296  0.05120458  1
  S2-  S225  1  0.14107068  0.01879632  0.53533206  1
  S2-  S226  1  0.11723857  0.25282918  0.03425856  1
  S2-  S227  1  0.14145052  0.27176182  0.54075875  1
  S2-  S228  1  0.11473869  0.50434264  0.03594422  1
  S2-  S229  1  0.13935302  0.52341027  0.54775135  1
  S2-  S230  1  0.12011447  0.75297580  0.03930341  1
  S2-  S231  1  0.14069241  0.76862903  0.54102731  1
  S2-  S232  1  0.36939489  0.00225626  0.05470874  1
  S2-  S233  1  0.38820144  0.02179231  0.55124846  1
  S2-  S234  1  0.36494789  0.24761617  0.04342023  1
  S2-  S235  1  0.38365651  0.27133631  0.54043044  1
  S2-  S236  1  0.36866603  0.50108617  0.04889049  1
  S2-  S237  1  0.38814658  0.51765372  0.55408605  1
  S2-  S238  1  0.37487986  0.75211254  0.04362668  1
  S2-  S239  1  0.39255503  0.77404017  0.55015684  1
  S2-  S240  1  0.61778399  0.00740795  0.04467134  1
  S2-  S241  1  0.63523712  0.02207203  0.54679697  1
  S2-  S242  1  0.62289691  0.25083932  0.03962881  1
  S2-  S243  1  0.63706240  0.27094862  0.53934736  1
  S2-  S244  1  0.61863283  0.50030618  0.04373566  1
  S2-  S245  1  0.64307416  0.52051968  0.55125385  1
  S2-  S246  1  0.61757815  0.74593816  0.04913937  1
  S2-  S247  1  0.63745477  0.77257093  0.54926860  1
  S2-  S248  1  0.87011333  0.00115741  0.05479449  1
  S2-  S249  1  0.89621252  0.02165601  0.54628592  1
  S2-  S250  1  0.86813736  0.25307345  0.04713257  1
  S2-  S251  1  0.89651878  0.26923540  0.54849388  1
  S2-  S252  1  0.87017856  0.49730178  0.04072802  1
  S2-  S253  1  0.89186510  0.52351147  0.54779678  1
  S2-  S254  1  0.86347015  0.75452912  0.04412599  1
  S2-  S255  1  0.88903000  0.77277111  0.54063878  1
