# generated using pymatgen
data_La12Ce14Pr13Nd13Sm12(BiS2)64
_symmetry_space_group_name_H-M   'P 1'
_cell_length_a   16.19715457
_cell_length_b   16.19677077
_cell_length_c   27.08843915
_cell_angle_alpha   90.07999546
_cell_angle_beta   89.77595285
_cell_angle_gamma   90.01354874
_symmetry_Int_Tables_number   1
_chemical_formula_structural   La12Ce14Pr13Nd13Sm12(BiS2)64
_chemical_formula_sum   'La12 Ce14 Pr13 Nd13 Sm12 Bi64 S128'
_cell_volume   7106.36301131
_cell_formula_units_Z   1
loop_
 _symmetry_equiv_pos_site_id
 _symmetry_equiv_pos_as_xyz
  1  'x, y, z'
loop_
 _atom_type_symbol
 _atom_type_oxidation_number
  La3+  3.0
  Ce3+  3.0
  Pr3+  3.0
  Nd3+  3.0
  Sm3+  3.0
  Bi2+  2.0
  S2-  -2.0
loop_
 _atom_site_type_symbol
 _atom_site_label
 _atom_site_symmetry_multiplicity
 _atom_site_fract_x
 _atom_site_fract_y
 _atom_site_fract_z
 _atom_site_occupancy
  La3+  La0  1  0.14468508  0.75402660  0.92114305  1
  La3+  La1  1  0.49553207  0.11852812  0.56382474  1
  La3+  La2  1  0.14313111  0.24526238  0.91946443  1
  La3+  La3  1  0.49907220  0.86389033  0.57172496  1
  La3+  La4  1  0.86945979  0.24402687  0.42872943  1
  La3+  La5  1  0.61796733  0.74172961  0.42858417  1
  La3+  La6  1  0.26042263  0.62415423  0.10173339  1
  La3+  La7  1  0.12565775  0.23924923  0.39168610  1
  La3+  La8  1  0.11059624  0.49710494  0.43118061  1
  La3+  La9  1  0.14316770  0.49998127  0.92037798  1
  La3+  La10  1  0.23782492  0.88219827  0.59876638  1
  La3+  La11  1  0.87359249  0.24139563  0.91283676  1
  Ce3+  Ce12  1  0.13602352  -0.00406036  0.94647604  1
  Ce3+  Ce13  1  0.48959914  0.61656477  0.55590920  1
  Ce3+  Ce14  1  0.49237005  0.36859113  0.55151943  1
  Ce3+  Ce15  1  0.63515064  0.24779522  0.94417253  1
  Ce3+  Ce16  1  0.24002805  0.12031140  0.55909995  1
  Ce3+  Ce17  1  0.61580951  0.49621748  0.43152033  1
  Ce3+  Ce18  1  0.01852724  0.62327129  0.04865207  1
  Ce3+  Ce19  1  0.38514248  0.24735674  0.94181678  1
  Ce3+  Ce20  1  0.75971756  0.87493919  0.05851709  1
  Ce3+  Ce21  1  0.36661193  -0.00897431  0.44797848  1
  Ce3+  Ce22  1  0.00746629  0.12792279  0.05257888  1
  Ce3+  Ce23  1  0.11659249  -0.00342104  0.44078648  1
  Ce3+  Ce24  1  0.38966717  0.74673839  0.93864838  1
  Ce3+  Ce25  1  0.50831598  0.12552505  0.06296176  1
  Pr3+  Pr26  1  0.36839970  0.23945734  0.43708762  1
  Pr3+  Pr27  1  0.61507212  -0.01112445  0.43093951  1
  Pr3+  Pr28  1  0.88262513  -0.00080139  0.93901910  1
  Pr3+  Pr29  1  0.23999300  0.61733198  0.57268534  1
  Pr3+  Pr30  1  0.75053579  0.13169942  0.08078739  1
  Pr3+  Pr31  1  0.76472803  0.37388879  0.06100027  1
  Pr3+  Pr32  1  0.11555704  0.74288844  0.45229610  1
  Pr3+  Pr33  1  0.38880682  -0.00396320  0.94409834  1
  Pr3+  Pr34  1  -0.01666555  0.60534125  0.58596830  1
  Pr3+  Pr35  1  -0.00783168  0.36039873  0.56703262  1
  Pr3+  Pr36  1  0.36288133  0.74454060  0.44617873  1
  Pr3+  Pr37  1  0.35757431  0.49036259  0.43525566  1
  Pr3+  Pr38  1  0.38356822  0.50240474  0.94149740  1
  Nd3+  Nd39  1  0.73932657  0.36523241  0.55622786  1
  Nd3+  Nd40  1  0.61985695  0.23656587  0.42024822  1
  Nd3+  Nd41  1  0.88429657  0.74740317  0.94335792  1
  Nd3+  Nd42  1  0.86867133  -0.00838093  0.43734098  1
  Nd3+  Nd43  1  0.74287849  0.11778130  0.55441769  1
  Nd3+  Nd44  1  0.25822833  0.12544223  0.06186551  1
  Nd3+  Nd45  1  0.63313932  0.74153665  0.93063904  1
  Nd3+  Nd46  1  -0.00928610  0.11900566  0.56078089  1
  Nd3+  Nd47  1  0.73854382  0.61585990  0.56667668  1
  Nd3+  Nd48  1  0.88749656  0.49996550  0.93407029  1
  Nd3+  Nd49  1  0.63587753  0.49617210  0.94423262  1
  Nd3+  Nd50  1  -0.00887945  0.86962646  0.56888043  1
  Nd3+  Nd51  1  0.51382258  0.62891096  0.07053417  1
  Sm3+  Sm52  1  0.75946539  0.62482469  0.06176459  1
  Sm3+  Sm53  1  0.51115526  0.87108923  0.06062824  1
  Sm3+  Sm54  1  0.23809224  0.36650444  0.55369197  1
  Sm3+  Sm55  1  0.26031193  0.86889427  0.06073448  1
  Sm3+  Sm56  1  0.63653993  -0.00080811  0.94699044  1
  Sm3+  Sm57  1  0.01068749  0.37214400  0.04272439  1
  Sm3+  Sm58  1  0.01169558  0.87180096  0.05350332  1
  Sm3+  Sm59  1  0.25452747  0.37572932  0.05550252  1
  Sm3+  Sm60  1  0.50443031  0.37931889  0.05711065  1
  Sm3+  Sm61  1  0.87242480  0.49290477  0.44462862  1
  Sm3+  Sm62  1  0.86995532  0.74132445  0.45399719  1
  Sm3+  Sm63  1  0.74253253  0.86861366  0.55889516  1
  Bi2+  Bi64  1  -0.00434836  0.10417564  0.28281978  1
  Bi2+  Bi65  1  -0.04452374  0.14129673  0.77274960  1
  Bi2+  Bi66  1  -0.04562911  0.38280468  0.28576972  1
  Bi2+  Bi67  1  0.00299221  0.39053166  0.76633852  1
  Bi2+  Bi68  1  0.02058335  0.62943390  0.29410964  1
  Bi2+  Bi69  1  -0.02762972  0.62590767  0.78611759  1
  Bi2+  Bi70  1  -0.00612190  0.82760347  0.29741982  1
  Bi2+  Bi71  1  -0.07699177  0.89483402  0.79182944  1
  Bi2+  Bi72  1  0.26703546  0.09545004  0.28714371  1
  Bi2+  Bi73  1  0.21740697  0.11433945  0.75457662  1
  Bi2+  Bi74  1  0.28398669  0.36960378  0.27983623  1
  Bi2+  Bi75  1  0.26230009  0.35134515  0.78926418  1
  Bi2+  Bi76  1  0.28659778  0.62382156  0.31199499  1
  Bi2+  Bi77  1  0.23398170  0.61755392  0.79714942  1
  Bi2+  Bi78  1  0.25518056  0.88887396  0.26985549  1
  Bi2+  Bi79  1  0.25935791  0.89069217  0.80186272  1
  Bi2+  Bi80  1  0.49243926  0.19882457  0.30257559  1
  Bi2+  Bi81  1  0.52670767  0.18738969  0.77398598  1
  Bi2+  Bi82  1  0.54812176  0.38189612  0.31593120  1
  Bi2+  Bi83  1  0.47574460  0.36806084  0.80505300  1
  Bi2+  Bi84  1  0.53865486  0.58460197  0.27281179  1
  Bi2+  Bi85  1  0.51359032  0.62832116  0.78766139  1
  Bi2+  Bi86  1  0.46461769  0.89101872  0.29850778  1
  Bi2+  Bi87  1  0.51101862  0.88632186  0.79344427  1
  Bi2+  Bi88  1  0.73872513  0.12907804  0.28476790  1
  Bi2+  Bi89  1  0.70832669  0.12211814  0.79897081  1
  Bi2+  Bi90  1  0.74156816  0.39719437  0.29042938  1
  Bi2+  Bi91  1  0.66590500  0.41271930  0.80150015  1
  Bi2+  Bi92  1  0.77416607  0.62694912  0.29284977  1
  Bi2+  Bi93  1  0.72177616  0.70319743  0.80304319  1
  Bi2+  Bi94  1  0.74559539  0.83660977  0.28968525  1
  Bi2+  Bi95  1  0.72752229  0.89723247  0.80413307  1
  Bi2+  Bi96  1  0.09649314  -0.03239822  0.21890970  1
  Bi2+  Bi97  1  0.06258543  -0.00553868  0.73280425  1
  Bi2+  Bi98  1  0.11947354  0.26398051  0.18953899  1
  Bi2+  Bi99  1  0.13253517  0.23388067  0.68715806  1
  Bi2+  Bi100  1  0.11285976  0.49797528  0.20510619  1
  Bi2+  Bi101  1  0.13164242  0.50106499  0.69377184  1
  Bi2+  Bi102  1  0.11522333  0.76569426  0.21083454  1
  Bi2+  Bi103  1  0.13374741  0.75305544  0.71653700  1
  Bi2+  Bi104  1  0.38598070  -0.00257119  0.21194333  1
  Bi2+  Bi105  1  0.38015435  0.02575467  0.71445649  1
  Bi2+  Bi106  1  0.38084603  0.19260186  0.20815639  1
  Bi2+  Bi107  1  0.37026130  0.24475123  0.71414094  1
  Bi2+  Bi108  1  0.42148291  0.46164405  0.21819989  1
  Bi2+  Bi109  1  0.43043495  0.49593294  0.71824521  1
  Bi2+  Bi110  1  0.38857545  0.74767911  0.21181475  1
  Bi2+  Bi111  1  0.42006512  0.75985317  0.72357350  1
  Bi2+  Bi112  1  0.65360116  0.00681387  0.20977167  1
  Bi2+  Bi113  1  0.69188779  -0.00251273  0.70686991  1
  Bi2+  Bi114  1  0.61440901  0.27717509  0.22357720  1
  Bi2+  Bi115  1  0.62419630  0.32545162  0.70152970  1
  Bi2+  Bi116  1  0.67873774  0.50549986  0.20163229  1
  Bi2+  Bi117  1  0.61940480  0.53060126  0.68901456  1
  Bi2+  Bi118  1  0.62715378  0.76172382  0.21402733  1
  Bi2+  Bi119  1  0.66356337  0.72292413  0.69449574  1
  Bi2+  Bi120  1  0.88156560  -0.04413476  0.24042352  1
  Bi2+  Bi121  1  0.88524009  -0.00469641  0.67798657  1
  Bi2+  Bi122  1  0.89279580  0.24796833  0.19741062  1
  Bi2+  Bi123  1  0.82801633  0.20811029  0.69683268  1
  Bi2+  Bi124  1  0.87256567  0.49959557  0.20317922  1
  Bi2+  Bi125  1  0.79537359  0.52896879  0.73648955  1
  Bi2+  Bi126  1  0.89480183  0.69288129  0.21227017  1
  Bi2+  Bi127  1  0.84277383  0.80649825  0.70245353  1
  S2-  S128  1  0.00742975  0.14572170  0.15114748  1
  S2-  S129  1  -0.01657730  0.22575710  0.64171180  1
  S2-  S130  1  -0.00409675  0.36277332  0.14224610  1
  S2-  S131  1  -0.00581229  0.44934988  0.65587090  1
  S2-  S132  1  0.09288541  0.61617870  0.13660622  1
  S2-  S133  1  0.02971959  0.64397309  0.68256972  1
  S2-  S134  1  0.01071831  0.86377230  0.15207488  1
  S2-  S135  1  0.08474549  0.87717357  0.65294909  1
  S2-  S136  1  0.23008028  0.15386048  0.15927483  1
  S2-  S137  1  0.24016123  0.04945706  0.64907045  1
  S2-  S138  1  0.22313564  0.38956120  0.15262012  1
  S2-  S139  1  0.22197742  0.36374236  0.65419880  1
  S2-  S140  1  0.24558953  0.58339454  0.21565013  1
  S2-  S141  1  0.24004941  0.62853680  0.67557778  1
  S2-  S142  1  0.25692039  0.78364491  0.14616682  1
  S2-  S143  1  0.27629448  0.83902924  0.69753743  1
  S2-  S144  1  0.59191948  0.11724913  0.14800624  1
  S2-  S145  1  0.47380815  0.13028517  0.66412558  1
  S2-  S146  1  0.50941111  0.36872762  0.15584929  1
  S2-  S147  1  0.47176152  0.36527428  0.64944235  1
  S2-  S148  1  0.41604668  0.60941261  0.15292811  1
  S2-  S149  1  0.45690616  0.63792310  0.65077070  1
  S2-  S150  1  0.49558341  0.82802494  0.15733752  1
  S2-  S151  1  0.45609812  0.90162277  0.66875766  1
  S2-  S152  1  0.80028723  0.06411124  0.17139143  1
  S2-  S153  1  0.69050441  0.13694494  0.64899231  1
  S2-  S154  1  0.76224249  0.27644202  0.14427341  1
  S2-  S155  1  0.77791094  0.35101427  0.65482674  1
  S2-  S156  1  0.65019869  0.63991725  0.13880879  1
  S2-  S157  1  0.83229056  0.60320739  0.65073352  1
  S2-  S158  1  0.71429925  0.86610358  0.15364318  1
  S2-  S159  1  0.64557177  0.86427098  0.63955380  1
  S2-  S160  1  0.12002015  0.07602769  0.35087359  1
  S2-  S161  1  0.13697120  -0.04958343  0.85283374  1
  S2-  S162  1  0.12682857  0.32666269  0.29071475  1
  S2-  S163  1  0.11387802  0.30801540  0.82332888  1
  S2-  S164  1  0.23063162  0.48760212  0.35556575  1
  S2-  S165  1  0.08748522  0.52130581  0.82169028  1
  S2-  S166  1  0.14082686  0.68638369  0.35665673  1
  S2-  S167  1  0.10218128  0.73138252  0.82154537  1
  S2-  S168  1  0.38339550  0.02001351  0.35188484  1
  S2-  S169  1  0.38327451  -0.02030984  0.84223028  1
  S2-  S170  1  0.28769186  0.24668079  0.34722578  1
  S2-  S171  1  0.29849896  0.23288586  0.85796125  1
  S2-  S172  1  0.42384271  0.53081343  0.34250804  1
  S2-  S173  1  0.29137192  0.49987115  0.85295195  1
  S2-  S174  1  0.39449326  0.75751427  0.34535046  1
  S2-  S175  1  0.29549166  0.74493871  0.85377105  1
  S2-  S176  1  0.61340956  0.09976004  0.35061875  1
  S2-  S177  1  0.60279864  0.00173472  0.84985704  1
  S2-  S178  1  0.75094798  0.25162908  0.35058184  1
  S2-  S179  1  0.71306783  0.25936600  0.85706848  1
  S2-  S180  1  0.63677371  0.61407243  0.35766498  1
  S2-  S181  1  0.63768132  0.56944993  0.85453593  1
  S2-  S182  1  0.61410566  0.86730552  0.35544845  1
  S2-  S183  1  0.50822079  0.75900623  0.86075273  1
  S2-  S184  1  0.85977881  0.03150212  0.33963747  1
  S2-  S185  1  0.86125190  0.08809132  0.85267635  1
  S2-  S186  1  0.97039383  0.23984118  0.34464951  1
  S2-  S187  1  0.90609243  0.29485974  0.81339609  1
  S2-  S188  1  0.97292187  0.49900240  0.36132250  1
  S2-  S189  1  0.87522136  0.50880350  0.83383865  1
  S2-  S190  1  0.86332854  0.75389828  0.35548118  1
  S2-  S191  1  0.88214501  0.73385852  0.84429444  1
  S2-  S192  1  -0.00851743  0.11634499  0.45472070  1
  S2-  S193  1  0.01270125  0.12371881  0.94435260  1
  S2-  S194  1  -0.00572363  0.36591598  0.45702296  1
  S2-  S195  1  0.00905711  0.37221592  0.93761162  1
  S2-  S196  1  -0.01115654  0.61989873  0.46904416  1
  S2-  S197  1  0.01208216  0.62571840  0.94328360  1
  S2-  S198  1  -0.00889976  0.86853290  0.45968824  1
  S2-  S199  1  0.00707410  0.87251073  0.94829430  1
  S2-  S200  1  0.24198296  0.11816786  0.45354420  1
  S2-  S201  1  0.26133120  0.11737139  0.95623067  1
  S2-  S202  1  0.23510534  0.36032232  0.45082158  1
  S2-  S203  1  0.26219789  0.37178554  0.95170369  1
  S2-  S204  1  0.24105747  0.61831812  0.46448505  1
  S2-  S205  1  0.26072142  0.62589686  0.95310090  1
  S2-  S206  1  0.23796717  0.87007145  0.44914153  1
  S2-  S207  1  0.26446700  0.87539415  0.95733769  1
  S2-  S208  1  0.49267783  0.11794181  0.45555686  1
  S2-  S209  1  0.51127126  0.12298433  0.95445660  1
  S2-  S210  1  0.49260637  0.36651113  0.44581752  1
  S2-  S211  1  0.50903782  0.37468354  0.95156666  1
  S2-  S212  1  0.48713773  0.61771267  0.45293003  1
  S2-  S213  1  0.51232514  0.61976052  0.96183203  1
  S2-  S214  1  0.48969090  0.86658798  0.46115430  1
  S2-  S215  1  0.51540666  0.87552227  0.95779408  1
  S2-  S216  1  0.74364167  0.11351282  0.45023486  1
  S2-  S217  1  0.75513055  0.12171991  0.96426103  1
  S2-  S218  1  0.74220334  0.37593192  0.44945298  1
  S2-  S219  1  0.76364829  0.37740686  0.95374122  1
  S2-  S220  1  0.75102937  0.61660273  0.45984524  1
  S2-  S221  1  0.76066367  0.62226515  0.95714939  1
  S2-  S222  1  0.74756496  0.86606464  0.45522888  1
  S2-  S223  1  0.75744025  0.87207485  0.95003937  1
  S2-  S224  1  0.13606345  -0.00370476  0.05388874  1
  S2-  S225  1  0.11431372  -0.00519709  0.54732560  1
  S2-  S226  1  0.13595150  0.24927976  0.03522738  1
  S2-  S227  1  0.11941244  0.24058285  0.54609275  1
  S2-  S228  1  0.13376751  0.49333918  0.03350773  1
  S2-  S229  1  0.11712557  0.49245957  0.54762992  1
  S2-  S230  1  0.13503262  0.75396910  0.03724190  1
  S2-  S231  1  0.11623316  0.74369810  0.55878389  1
  S2-  S232  1  0.38440911  -0.00379770  0.05430542  1
  S2-  S233  1  0.36754931  -0.00883990  0.55258854  1
  S2-  S234  1  0.38223749  0.25257677  0.05015616  1
  S2-  S235  1  0.36552393  0.24427873  0.54628433  1
  S2-  S236  1  0.37796557  0.49867569  0.04912518  1
  S2-  S237  1  0.36289912  0.49045189  0.54700992  1
  S2-  S238  1  0.38698178  0.74928219  0.04648261  1
  S2-  S239  1  0.35813591  0.75029366  0.55512945  1
  S2-  S240  1  0.63279968  -0.00379595  0.05005596  1
  S2-  S241  1  0.62016465  -0.00690046  0.54165464  1
  S2-  S242  1  0.62750596  0.25593014  0.04796620  1
  S2-  S243  1  0.61763695  0.24313888  0.53698406  1
  S2-  S244  1  0.63530618  0.49526934  0.04957686  1
  S2-  S245  1  0.61703260  0.49333693  0.54261924  1
  S2-  S246  1  0.63655258  0.75188726  0.03848112  1
  S2-  S247  1  0.61938501  0.73728976  0.54023821  1
  S2-  S248  1  0.88720993  -0.00344058  0.04698362  1
  S2-  S249  1  0.86622018  -0.00791627  0.54487029  1
  S2-  S250  1  0.88581027  0.24979145  0.03577761  1
  S2-  S251  1  0.86266543  0.24165310  0.53869782  1
  S2-  S252  1  0.88627364  0.50226610  0.04319512  1
  S2-  S253  1  0.86421386  0.48714003  0.54735796  1
  S2-  S254  1  0.88535448  0.74686340  0.05058060  1
  S2-  S255  1  0.86598803  0.74558703  0.55778341  1
