# generated using pymatgen
data_La12Ce14Pr13Nd13Sm12(BiS2)64
_symmetry_space_group_name_H-M   'P 1'
_cell_length_a   16.15820589
_cell_length_b   16.10456159
_cell_length_c   27.19188039
_cell_angle_alpha   89.71555036
_cell_angle_beta   89.88273571
_cell_angle_gamma   90.08112460
_symmetry_Int_Tables_number   1
_chemical_formula_structural   La12Ce14Pr13Nd13Sm12(BiS2)64
_chemical_formula_sum   'La12 Ce14 Pr13 Nd13 Sm12 Bi64 S128'
_cell_volume   7075.78424972
_cell_formula_units_Z   1
loop_
 _symmetry_equiv_pos_site_id
 _symmetry_equiv_pos_as_xyz
  1  'x, y, z'
loop_
 _atom_type_symbol
 _atom_type_oxidation_number
  La3+  3.0
  Ce3+  3.0
  Pr3+  3.0
  Nd3+  3.0
  Sm3+  3.0
  Bi2+  2.0
  S2-  -2.0
loop_
 _atom_site_type_symbol
 _atom_site_label
 _atom_site_symmetry_multiplicity
 _atom_site_fract_x
 _atom_site_fract_y
 _atom_site_fract_z
 _atom_site_occupancy
  La3+  La0  1  0.39349448  0.50411728  0.40756220  1
  La3+  La1  1  0.62712999  0.26183856  0.43775202  1
  La3+  La2  1  0.75584258  0.62866271  0.58694749  1
  La3+  La3  1  0.13746398  0.50735080  0.42592246  1
  La3+  La4  1  0.50477307  0.63800687  0.57758347  1
  La3+  La5  1  0.88008695  0.51292527  0.43782028  1
  La3+  La6  1  -0.00599593  0.12126569  0.10203048  1
  La3+  La7  1  0.26059944  0.39086410  0.57578667  1
  La3+  La8  1  0.88484542  0.01345547  0.42000081  1
  La3+  La9  1  0.86962267  0.50051311  0.91225664  1
  La3+  La10  1  0.74450246  0.63248131  0.05836017  1
  La3+  La11  1  0.25326821  0.88583145  0.56041155  1
  Ce3+  Ce12  1  0.37013071  0.75724855  0.94183234  1
  Ce3+  Ce13  1  0.23888822  0.13185046  0.05864177  1
  Ce3+  Ce14  1  0.24551884  0.62735366  0.06228844  1
  Ce3+  Ce15  1  0.36817581  0.00879022  0.94136802  1
  Ce3+  Ce16  1  -0.00602944  0.62565443  0.04870787  1
  Ce3+  Ce17  1  0.87169002  0.00923028  0.93947352  1
  Ce3+  Ce18  1  0.25566505  0.63056806  0.55490843  1
  Ce3+  Ce19  1  0.12055179  0.01078547  0.93807663  1
  Ce3+  Ce20  1  0.87371915  0.26065009  0.94564181  1
  Ce3+  Ce21  1  0.75232907  0.38699418  0.07039210  1
  Ce3+  Ce22  1  0.00733974  0.13383714  0.54968286  1
  Ce3+  Ce23  1  0.62915719  0.51150626  0.45056303  1
  Ce3+  Ce24  1  0.74785539  0.88017506  0.06390536  1
  Ce3+  Ce25  1  0.88058940  0.75300817  0.43773908  1
  Pr3+  Pr26  1  0.50863304  0.12975262  0.56838112  1
  Pr3+  Pr27  1  0.23431358  0.37931109  0.06971632  1
  Pr3+  Pr28  1  0.13745762  0.01244853  0.42148709  1
  Pr3+  Pr29  1  0.87145775  0.76559731  0.92658732  1
  Pr3+  Pr30  1  0.62048983  0.00936920  0.93828944  1
  Pr3+  Pr31  1  0.11869709  0.26296341  0.93572184  1
  Pr3+  Pr32  1  0.49514752  0.38351691  0.06797993  1
  Pr3+  Pr33  1  0.13255791  0.75438218  0.43045826  1
  Pr3+  Pr34  1  0.12901675  0.51421470  0.92391085  1
  Pr3+  Pr35  1  -0.00775712  0.38630263  0.06614900  1
  Pr3+  Pr36  1  0.38794958  0.75683828  0.43707297  1
  Pr3+  Pr37  1  0.24398249  0.88304544  0.06076573  1
  Pr3+  Pr38  1  0.13425761  0.26676236  0.43281214  1
  Nd3+  Nd39  1  0.00593841  0.63453146  0.56775867  1
  Nd3+  Nd40  1  0.62143550  0.76349655  0.92718984  1
  Nd3+  Nd41  1  0.25156833  0.13476591  0.55887107  1
  Nd3+  Nd42  1  0.75695790  0.37930868  0.56722942  1
  Nd3+  Nd43  1  0.38080506  0.26138609  0.44544116  1
  Nd3+  Nd44  1  0.37082920  0.49745948  0.93189448  1
  Nd3+  Nd45  1  0.88061585  0.26831925  0.42970816  1
  Nd3+  Nd46  1  0.50377616  0.38327649  0.57060055  1
  Nd3+  Nd47  1  0.49639327  0.13194913  0.06169962  1
  Nd3+  Nd48  1  0.38489319  0.00748351  0.43460896  1
  Nd3+  Nd49  1  0.50857774  0.88574779  0.57026666  1
  Nd3+  Nd50  1  0.76052138  0.13166121  0.55386416  1
  Nd3+  Nd51  1  0.62398317  0.50762775  0.93349032  1
  Sm3+  Sm52  1  0.63449519  0.00648361  0.43336047  1
  Sm3+  Sm53  1  0.76049478  0.88436294  0.55552796  1
  Sm3+  Sm54  1  0.00596879  0.88358460  0.55066295  1
  Sm3+  Sm55  1  0.12147354  0.75668488  0.94697673  1
  Sm3+  Sm56  1  0.49571763  0.88141089  0.05443613  1
  Sm3+  Sm57  1  0.49370918  0.63086965  0.05009828  1
  Sm3+  Sm58  1  0.74850966  0.13096074  0.05608828  1
  Sm3+  Sm59  1  0.63291246  0.75635721  0.45108812  1
  Sm3+  Sm60  1  0.00918577  0.38474190  0.56180151  1
  Sm3+  Sm61  1  0.37124756  0.25992895  0.94883306  1
  Sm3+  Sm62  1  -0.00509017  0.88150977  0.05844565  1
  Sm3+  Sm63  1  0.62301575  0.26062790  0.94976209  1
  Bi2+  Bi64  1  -0.08514858  0.07251032  0.27861139  1
  Bi2+  Bi65  1  -0.04789579  0.13520136  0.77807980  1
  Bi2+  Bi66  1  -0.02774877  0.34496629  0.28981389  1
  Bi2+  Bi67  1  0.01762674  0.31482629  0.79223610  1
  Bi2+  Bi68  1  -0.02467788  0.60215322  0.28508465  1
  Bi2+  Bi69  1  0.01159689  0.65797705  0.77761917  1
  Bi2+  Bi70  1  -0.00233281  0.82859267  0.30964653  1
  Bi2+  Bi71  1  0.01446817  0.94085928  0.79161239  1
  Bi2+  Bi72  1  0.27688576  0.09954000  0.27599688  1
  Bi2+  Bi73  1  0.31512400  0.13097828  0.76525921  1
  Bi2+  Bi74  1  0.23911967  0.34102461  0.30284351  1
  Bi2+  Bi75  1  0.24773682  0.38581365  0.80194652  1
  Bi2+  Bi76  1  0.23774116  0.64565079  0.29121803  1
  Bi2+  Bi77  1  0.25648960  0.60410995  0.75381988  1
  Bi2+  Bi78  1  0.20748232  0.83666401  0.31150410  1
  Bi2+  Bi79  1  0.28521871  0.91654281  0.81490804  1
  Bi2+  Bi80  1  0.47406968  0.13434016  0.29952770  1
  Bi2+  Bi81  1  0.56775487  0.15301154  0.79831745  1
  Bi2+  Bi82  1  0.54502292  0.36038826  0.30395262  1
  Bi2+  Bi83  1  0.50032496  0.39992300  0.79590451  1
  Bi2+  Bi84  1  0.49711940  0.69245051  0.27963056  1
  Bi2+  Bi85  1  0.50934831  0.59270398  0.80199508  1
  Bi2+  Bi86  1  0.46408765  0.88881424  0.28839282  1
  Bi2+  Bi87  1  0.52568211  0.90581750  0.77428452  1
  Bi2+  Bi88  1  0.66870420  0.11690536  0.27923891  1
  Bi2+  Bi89  1  0.75835877  0.11937080  0.80295120  1
  Bi2+  Bi90  1  0.74202387  0.40388324  0.27776464  1
  Bi2+  Bi91  1  0.74826745  0.36345164  0.78980549  1
  Bi2+  Bi92  1  0.72616139  0.67394811  0.29758549  1
  Bi2+  Bi93  1  0.76582065  0.62650234  0.78549043  1
  Bi2+  Bi94  1  0.79998763  0.86301165  0.30205966  1
  Bi2+  Bi95  1  0.74653787  0.92530672  0.78481788  1
  Bi2+  Bi96  1  0.10395124  -0.07270921  0.22626808  1
  Bi2+  Bi97  1  0.12107242  -0.04585950  0.69163113  1
  Bi2+  Bi98  1  0.12911073  0.22714261  0.21941739  1
  Bi2+  Bi99  1  0.15275924  0.18329638  0.71193210  1
  Bi2+  Bi100  1  0.14006910  0.48773660  0.19368183  1
  Bi2+  Bi101  1  0.12467268  0.46700901  0.69429877  1
  Bi2+  Bi102  1  0.06490448  0.73314425  0.21464055  1
  Bi2+  Bi103  1  0.16190187  0.78316254  0.76108758  1
  Bi2+  Bi104  1  0.39827262  0.00925192  0.20195837  1
  Bi2+  Bi105  1  0.36947953  -0.03437273  0.71103038  1
  Bi2+  Bi106  1  0.39695240  0.20870878  0.20452967  1
  Bi2+  Bi107  1  0.45183237  0.24586982  0.71785982  1
  Bi2+  Bi108  1  0.39018840  0.52355378  0.19659883  1
  Bi2+  Bi109  1  0.41726791  0.51660334  0.70701724  1
  Bi2+  Bi110  1  0.33320774  0.78917585  0.22375698  1
  Bi2+  Bi111  1  0.40800575  0.72988132  0.74256376  1
  Bi2+  Bi112  1  0.64630891  -0.06570684  0.23632435  1
  Bi2+  Bi113  1  0.62982459  0.03932625  0.71104524  1
  Bi2+  Bi114  1  0.60258308  0.28013842  0.20255049  1
  Bi2+  Bi115  1  0.62008849  0.28177425  0.66464106  1
  Bi2+  Bi116  1  0.64818994  0.54975506  0.22699598  1
  Bi2+  Bi117  1  0.62409440  0.46761796  0.71113341  1
  Bi2+  Bi118  1  0.60018249  0.76226142  0.18918519  1
  Bi2+  Bi119  1  0.61320505  0.76651352  0.70851243  1
  Bi2+  Bi120  1  0.83186026  -0.06233406  0.19277155  1
  Bi2+  Bi121  1  0.90973882  0.00858207  0.69316062  1
  Bi2+  Bi122  1  0.79218643  0.24063075  0.20657193  1
  Bi2+  Bi123  1  0.79824477  0.24590431  0.70663441  1
  Bi2+  Bi124  1  0.87341893  0.50085712  0.20322058  1
  Bi2+  Bi125  1  0.90367512  0.50052149  0.70256008  1
  Bi2+  Bi126  1  0.86833451  0.73818055  0.21046106  1
  Bi2+  Bi127  1  0.86980941  0.81808292  0.70586795  1
  S2-  S128  1  -0.02248877  0.17820701  0.20110616  1
  S2-  S129  1  0.03791049  0.10691569  0.64512883  1
  S2-  S130  1  0.10403071  0.35408444  0.14457069  1
  S2-  S131  1  -0.01644512  0.37541654  0.66156428  1
  S2-  S132  1  0.00433521  0.54480314  0.13581461  1
  S2-  S133  1  0.03061969  0.60859372  0.66675222  1
  S2-  S134  1  -0.00740179  0.95971969  0.14680027  1
  S2-  S135  1  0.01965838  0.84173724  0.64657790  1
  S2-  S136  1  0.16445747  0.12507625  0.14680371  1
  S2-  S137  1  0.27732895  0.11207111  0.65706384  1
  S2-  S138  1  0.28978350  0.40624340  0.16830370  1
  S2-  S139  1  0.19061022  0.32762301  0.66376816  1
  S2-  S140  1  0.24770205  0.61330934  0.16075683  1
  S2-  S141  1  0.24842784  0.56729495  0.64742644  1
  S2-  S142  1  0.23189862  0.87778177  0.16129209  1
  S2-  S143  1  0.25825733  0.86467027  0.66071299  1
  S2-  S144  1  0.53362912  0.13078898  0.15843737  1
  S2-  S145  1  0.50407294  0.00994592  0.64275632  1
  S2-  S146  1  0.50389625  0.41917824  0.16670118  1
  S2-  S147  1  0.39486830  0.37864638  0.65066327  1
  S2-  S148  1  0.49324982  0.63609345  0.14794406  1
  S2-  S149  1  0.61959155  0.62532459  0.65834765  1
  S2-  S150  1  0.48361516  0.88388440  0.15166108  1
  S2-  S151  1  0.47882679  0.77348966  0.64807464  1
  S2-  S152  1  0.79463736  0.10081222  0.14882563  1
  S2-  S153  1  0.77464537  0.09647174  0.65153260  1
  S2-  S154  1  0.87075637  0.36145168  0.14282107  1
  S2-  S155  1  0.76917005  0.47361513  0.65039737  1
  S2-  S156  1  0.73307984  0.52005948  0.13943761  1
  S2-  S157  1  0.83160515  0.66778167  0.67972658  1
  S2-  S158  1  0.74498503  0.75543333  0.13380640  1
  S2-  S159  1  0.73099062  0.86524803  0.65227600  1
  S2-  S160  1  0.01321475  0.00803545  0.34517428  1
  S2-  S161  1  0.14601832  0.01289646  0.84092062  1
  S2-  S162  1  0.17217653  0.19561257  0.34010697  1
  S2-  S163  1  0.16075922  0.24918370  0.83669908  1
  S2-  S164  1  0.09186570  0.38361699  0.35207069  1
  S2-  S165  1  0.09254128  0.44185242  0.83143951  1
  S2-  S166  1  0.10317293  0.63482752  0.35402282  1
  S2-  S167  1  0.12465591  0.71495591  0.85219296  1
  S2-  S168  1  0.27271860  -0.00930663  0.35569308  1
  S2-  S169  1  0.38930613  0.04992680  0.84756394  1
  S2-  S170  1  0.39136063  0.33568052  0.35360130  1
  S2-  S171  1  0.37546026  0.34823949  0.86446693  1
  S2-  S172  1  0.25818701  0.49453967  0.34121930  1
  S2-  S173  1  0.26949080  0.53266420  0.85307914  1
  S2-  S174  1  0.38654889  0.65916672  0.35271424  1
  S2-  S175  1  0.38426516  0.77750285  0.84595749  1
  S2-  S176  1  0.51158014  0.00060007  0.36280772  1
  S2-  S177  1  0.62379199  -0.09810378  0.85809105  1
  S2-  S178  1  0.67808829  0.25646153  0.34167687  1
  S2-  S179  1  0.61871892  0.29597830  0.85290318  1
  S2-  S180  1  0.55739686  0.49704659  0.36094913  1
  S2-  S181  1  0.72363357  0.49744912  0.85210176  1
  S2-  S182  1  0.60854723  0.75900119  0.35317096  1
  S2-  S183  1  0.63653659  0.69020618  0.83518278  1
  S2-  S184  1  0.74774103  0.01287732  0.35394949  1
  S2-  S185  1  0.87196528  -0.08320583  0.85757744  1
  S2-  S186  1  0.91440866  0.19895438  0.33765119  1
  S2-  S187  1  0.87658794  0.33613845  0.85701357  1
  S2-  S188  1  0.86647718  0.40238556  0.35618999  1
  S2-  S189  1  0.91427198  0.53640765  0.80864846  1
  S2-  S190  1  0.86411365  0.63768629  0.36242430  1
  S2-  S191  1  0.87672322  0.72292639  0.82670563  1
  S2-  S192  1  0.00984886  0.13975431  0.44630525  1
  S2-  S193  1  -0.00527247  0.13349266  0.93469950  1
  S2-  S194  1  0.00462582  0.38559446  0.45892730  1
  S2-  S195  1  -0.00122541  0.38867039  0.95416442  1
  S2-  S196  1  0.00665105  0.63452495  0.46054435  1
  S2-  S197  1  -0.00549807  0.63249641  0.94325663  1
  S2-  S198  1  0.00771655  0.87961327  0.44703369  1
  S2-  S199  1  0.00218755  0.88213151  0.95362562  1
  S2-  S200  1  0.25990334  0.13515629  0.45315396  1
  S2-  S201  1  0.24745287  0.13734806  0.95150273  1
  S2-  S202  1  0.26242421  0.38689901  0.46019013  1
  S2-  S203  1  0.24492182  0.38113562  0.96083753  1
  S2-  S204  1  0.26107504  0.63254892  0.45192194  1
  S2-  S205  1  0.24854997  0.63546135  0.95726697  1
  S2-  S206  1  0.25781171  0.87788850  0.45312603  1
  S2-  S207  1  0.24368656  0.88136247  0.95377905  1
  S2-  S208  1  0.50719584  0.13470327  0.45931261  1
  S2-  S209  1  0.49681786  0.13734841  0.95500977  1
  S2-  S210  1  0.50450413  0.38419191  0.46486183  1
  S2-  S211  1  0.49992494  0.38130936  0.96066531  1
  S2-  S212  1  0.50858816  0.63516737  0.46446304  1
  S2-  S213  1  0.49427584  0.62926597  0.94511296  1
  S2-  S214  1  0.51080037  0.88125881  0.46217728  1
  S2-  S215  1  0.49168105  0.88500610  0.95125735  1
  S2-  S216  1  0.75817575  0.13899256  0.44963558  1
  S2-  S217  1  0.74490857  0.13499600  0.95072510  1
  S2-  S218  1  0.75207910  0.38460033  0.46056548  1
  S2-  S219  1  0.74482693  0.38075120  0.96158758  1
  S2-  S220  1  0.75210598  0.63410779  0.46841615  1
  S2-  S221  1  0.74667387  0.63743562  0.94861814  1
  S2-  S222  1  0.75741416  0.87980926  0.45120391  1
  S2-  S223  1  0.74571008  0.88457503  0.95893902  1
  S2-  S224  1  0.11609987  0.00653098  0.04393016  1
  S2-  S225  1  0.12946360  0.00778804  0.53495813  1
  S2-  S226  1  0.11118303  0.24788217  0.04236038  1
  S2-  S227  1  0.13176424  0.26119568  0.54392000  1
  S2-  S228  1  0.12411360  0.50892417  0.03549381  1
  S2-  S229  1  0.12763922  0.50874318  0.54359581  1
  S2-  S230  1  0.11817032  0.75600891  0.05268126  1
  S2-  S231  1  0.12989580  0.75725548  0.54247900  1
  S2-  S232  1  0.37107191  0.00819843  0.04925758  1
  S2-  S233  1  0.37898490  0.00982569  0.54269970  1
  S2-  S234  1  0.36889896  0.25696996  0.05392383  1
  S2-  S235  1  0.38198077  0.25217814  0.55154153  1
  S2-  S236  1  0.37045739  0.50472935  0.04408873  1
  S2-  S237  1  0.38598942  0.51354842  0.55116367  1
  S2-  S238  1  0.37061646  0.75745160  0.04958656  1
  S2-  S239  1  0.37747118  0.75984688  0.54445809  1
  S2-  S240  1  0.62128258  0.00660996  0.04761449  1
  S2-  S241  1  0.63717755  0.00776761  0.54003805  1
  S2-  S242  1  0.62493674  0.25664505  0.05466906  1
  S2-  S243  1  0.63283214  0.25477189  0.54630174  1
  S2-  S244  1  0.61474102  0.50762801  0.04024276  1
  S2-  S245  1  0.62919681  0.50376029  0.55449524  1
  S2-  S246  1  0.61358192  0.75792210  0.03574012  1
  S2-  S247  1  0.63575301  0.76216000  0.55345430  1
  S2-  S248  1  0.87352552  0.00700102  0.04332589  1
  S2-  S249  1  0.88360507  0.00640753  0.53568524  1
  S2-  S250  1  0.87924694  0.24270860  0.04839819  1
  S2-  S251  1  0.88299948  0.25972961  0.54580299  1
  S2-  S252  1  0.86898424  0.50780792  0.03327053  1
  S2-  S253  1  0.88504547  0.50766264  0.54890056  1
  S2-  S254  1  0.87684756  0.75863711  0.03736174  1
  S2-  S255  1  0.88156735  0.75918483  0.54733762  1
