# generated using pymatgen
data_La12Ce14Pr13Nd13Sm12(BiS2)64
_symmetry_space_group_name_H-M   'P 1'
_cell_length_a   16.13707163
_cell_length_b   16.14104054
_cell_length_c   27.25931827
_cell_angle_alpha   89.89025650
_cell_angle_beta   90.10025359
_cell_angle_gamma   90.07625659
_symmetry_Int_Tables_number   1
_chemical_formula_structural   La12Ce14Pr13Nd13Sm12(BiS2)64
_chemical_formula_sum   'La12 Ce14 Pr13 Nd13 Sm12 Bi64 S128'
_cell_volume   7100.18069492
_cell_formula_units_Z   1
loop_
 _symmetry_equiv_pos_site_id
 _symmetry_equiv_pos_as_xyz
  1  'x, y, z'
loop_
 _atom_type_symbol
 _atom_type_oxidation_number
  La3+  3.0
  Ce3+  3.0
  Pr3+  3.0
  Nd3+  3.0
  Sm3+  3.0
  Bi2+  2.0
  S2-  -2.0
loop_
 _atom_site_type_symbol
 _atom_site_label
 _atom_site_symmetry_multiplicity
 _atom_site_fract_x
 _atom_site_fract_y
 _atom_site_fract_z
 _atom_site_occupancy
  La3+  La0  1  0.63128301  0.01254309  0.40535192  1
  La3+  La1  1  0.50228040  0.63534751  0.56213267  1
  La3+  La2  1  -0.00612262  0.63145785  0.07785133  1
  La3+  La3  1  0.87474106  0.25913946  0.43202454  1
  La3+  La4  1  0.35870991  0.25945744  0.91234188  1
  La3+  La5  1  0.50778797  0.89142243  0.59988993  1
  La3+  La6  1  0.37043276  0.25639743  0.44290044  1
  La3+  La7  1  0.63255116  0.75184249  0.40159349  1
  La3+  La8  1  0.49315967  0.62179189  0.09863787  1
  La3+  La9  1  0.86692174  0.51544126  0.92718868  1
  La3+  La10  1  0.36207244  -0.00423419  0.91501456  1
  La3+  La11  1  0.74598190  0.62743449  0.07319400  1
  Ce3+  Ce12  1  0.12000117  0.75981742  0.43984062  1
  Ce3+  Ce13  1  0.25129870  0.88437751  0.55639195  1
  Ce3+  Ce14  1  -0.00645739  0.88542460  0.56238881  1
  Ce3+  Ce15  1  0.48680127  0.12935190  0.04708729  1
  Ce3+  Ce16  1  0.11700262  0.25312336  0.94133729  1
  Ce3+  Ce17  1  0.24629243  0.62647836  0.06066546  1
  Ce3+  Ce18  1  0.62536896  0.50974039  0.43873624  1
  Ce3+  Ce19  1  0.61438297  0.75610738  0.95130641  1
  Ce3+  Ce20  1  0.38284331  0.76256015  0.44223447  1
  Ce3+  Ce21  1  0.73468898  0.88040157  0.07461597  1
  Ce3+  Ce22  1  0.11802911  0.00051550  0.93971678  1
  Ce3+  Ce23  1  0.24567762  0.12887309  0.05073953  1
  Ce3+  Ce24  1  0.74381668  0.38038203  0.05168791  1
  Ce3+  Ce25  1  0.24604286  0.37948949  0.05439585  1
  Pr3+  Pr26  1  0.10816550  0.50597358  0.93867767  1
  Pr3+  Pr27  1  0.49877747  0.38322418  0.56001119  1
  Pr3+  Pr28  1  0.24302896  0.38695133  0.58000857  1
  Pr3+  Pr29  1  0.25290765  0.12841369  0.56892902  1
  Pr3+  Pr30  1  -0.00413323  0.63782094  0.56623011  1
  Pr3+  Pr31  1  0.75233113  0.38285025  0.56650297  1
  Pr3+  Pr32  1  0.48937550  0.88403525  0.06851218  1
  Pr3+  Pr33  1  0.87552257  0.00512287  0.42896131  1
  Pr3+  Pr34  1  0.37538231  0.51109260  0.44128488  1
  Pr3+  Pr35  1  0.61612335  0.50860943  0.93671964  1
  Pr3+  Pr36  1  0.74826963  0.12987949  0.55565754  1
  Pr3+  Pr37  1  0.62470992  0.25947389  0.43837000  1
  Pr3+  Pr38  1  0.38238018  0.00430059  0.44178068  1
  Nd3+  Nd39  1  -0.00842757  0.37712496  0.06187177  1
  Nd3+  Nd40  1  0.25215273  0.63915780  0.55544349  1
  Nd3+  Nd41  1  0.74946528  0.88504308  0.56079125  1
  Nd3+  Nd42  1  0.37120074  0.50750076  0.93004741  1
  Nd3+  Nd43  1  0.36797253  0.75425127  0.94680681  1
  Nd3+  Nd44  1  0.87797687  0.75717009  0.42943100  1
  Nd3+  Nd45  1  0.12505343  0.50927964  0.44777506  1
  Nd3+  Nd46  1  0.61618602  0.25274392  0.94170162  1
  Nd3+  Nd47  1  -0.00575574  0.12649745  0.06271349  1
  Nd3+  Nd48  1  0.73989828  0.12887826  0.06156843  1
  Nd3+  Nd49  1  -0.00449782  0.38266219  0.57231644  1
  Nd3+  Nd50  1  0.12480202  0.26167143  0.44781692  1
  Nd3+  Nd51  1  0.86737845  0.25186519  0.94070630  1
  Sm3+  Sm52  1  0.11703697  0.75369678  0.94764096  1
  Sm3+  Sm53  1  0.86551311  0.75791301  0.94643273  1
  Sm3+  Sm54  1  0.61687090  0.00220874  0.93810013  1
  Sm3+  Sm55  1  0.50203854  0.12969913  0.56349231  1
  Sm3+  Sm56  1  0.48988152  0.37985525  0.05644730  1
  Sm3+  Sm57  1  0.24861318  0.88156963  0.06490410  1
  Sm3+  Sm58  1  0.86643719  0.00123817  0.95252790  1
  Sm3+  Sm59  1  0.87650306  0.50891121  0.44337331  1
  Sm3+  Sm60  1  0.12625834  0.00799835  0.44732143  1
  Sm3+  Sm61  1  0.74780540  0.63865378  0.55346197  1
  Sm3+  Sm62  1  -0.00266318  0.13310610  0.55237153  1
  Sm3+  Sm63  1  -0.00558483  0.87768388  0.06809372  1
  Bi2+  Bi64  1  0.00084821  0.08760118  0.29319239  1
  Bi2+  Bi65  1  0.00235173  0.13276711  0.80253055  1
  Bi2+  Bi66  1  0.06433278  0.34768178  0.29394830  1
  Bi2+  Bi67  1  -0.03446495  0.32774162  0.78927674  1
  Bi2+  Bi68  1  0.00674999  0.60143904  0.29660603  1
  Bi2+  Bi69  1  0.02122314  0.61105164  0.80895692  1
  Bi2+  Bi70  1  -0.00723924  0.87551702  0.29322824  1
  Bi2+  Bi71  1  -0.00742338  0.90061575  0.79753591  1
  Bi2+  Bi72  1  0.22393786  0.05243281  0.27301572  1
  Bi2+  Bi73  1  0.18543558  0.10037616  0.77265385  1
  Bi2+  Bi74  1  0.27349360  0.30874078  0.27744538  1
  Bi2+  Bi75  1  0.23086307  0.35440507  0.77924413  1
  Bi2+  Bi76  1  0.21972381  0.59866923  0.28523532  1
  Bi2+  Bi77  1  0.28248669  0.59510937  0.78035546  1
  Bi2+  Bi78  1  0.18119172  0.79764142  0.27586208  1
  Bi2+  Bi79  1  0.24301901  0.84534588  0.79893716  1
  Bi2+  Bi80  1  0.48068269  0.13793590  0.29739926  1
  Bi2+  Bi81  1  0.54371942  0.12539050  0.80234371  1
  Bi2+  Bi82  1  0.51714964  0.39500437  0.30708227  1
  Bi2+  Bi83  1  0.49392823  0.38776022  0.79844069  1
  Bi2+  Bi84  1  0.48183107  0.64180599  0.29238361  1
  Bi2+  Bi85  1  0.57435700  0.61901965  0.77897450  1
  Bi2+  Bi86  1  0.44229524  0.88966997  0.29777997  1
  Bi2+  Bi87  1  0.52156194  0.86024384  0.80406072  1
  Bi2+  Bi88  1  0.82303733  0.17091479  0.30678175  1
  Bi2+  Bi89  1  0.80829465  0.10544859  0.77777881  1
  Bi2+  Bi90  1  0.70729566  0.33977853  0.29880604  1
  Bi2+  Bi91  1  0.75830452  0.37915278  0.78389273  1
  Bi2+  Bi92  1  0.76092250  0.62363574  0.29072541  1
  Bi2+  Bi93  1  0.75694476  0.56832675  0.81006243  1
  Bi2+  Bi94  1  0.82212097  0.92930081  0.24931397  1
  Bi2+  Bi95  1  0.80223373  0.84597544  0.78816135  1
  Bi2+  Bi96  1  0.16853709  -0.06785300  0.18735851  1
  Bi2+  Bi97  1  0.13468544  -0.04620906  0.70104532  1
  Bi2+  Bi98  1  0.12222963  0.19946124  0.22489697  1
  Bi2+  Bi99  1  0.08843502  0.24205442  0.71438546  1
  Bi2+  Bi100  1  0.11718323  0.48314549  0.21137883  1
  Bi2+  Bi101  1  0.12507949  0.49347618  0.73475974  1
  Bi2+  Bi102  1  0.14074198  0.66978368  0.18252569  1
  Bi2+  Bi103  1  0.10237257  0.76559268  0.73261862  1
  Bi2+  Bi104  1  0.37532157  0.05145123  0.19858256  1
  Bi2+  Bi105  1  0.38595678  0.00085290  0.71279165  1
  Bi2+  Bi106  1  0.38266809  0.28571122  0.18346879  1
  Bi2+  Bi107  1  0.40886858  0.24236096  0.71201176  1
  Bi2+  Bi108  1  0.35759798  0.47787861  0.21308700  1
  Bi2+  Bi109  1  0.37512477  0.51279473  0.69627064  1
  Bi2+  Bi110  1  0.32210946  0.76121247  0.20043405  1
  Bi2+  Bi111  1  0.36656500  0.72230547  0.71139598  1
  Bi2+  Bi112  1  0.62859154  0.02583349  0.20785979  1
  Bi2+  Bi113  1  0.67618371  -0.01198865  0.71915572  1
  Bi2+  Bi114  1  0.57385861  0.27204388  0.22024142  1
  Bi2+  Bi115  1  0.63688363  0.25609254  0.71626075  1
  Bi2+  Bi116  1  0.61999666  0.47134574  0.21754655  1
  Bi2+  Bi117  1  0.63283129  0.45590870  0.70875283  1
  Bi2+  Bi118  1  0.64482455  0.76236074  0.20771265  1
  Bi2+  Bi119  1  0.69708129  0.73258305  0.71989044  1
  Bi2+  Bi120  1  0.98191535  -0.01388828  0.19041195  1
  Bi2+  Bi121  1  0.94646495  0.00574789  0.70054103  1
  Bi2+  Bi122  1  0.85039054  0.23177421  0.20358363  1
  Bi2+  Bi123  1  0.81933694  0.23123910  0.68764824  1
  Bi2+  Bi124  1  0.85736774  0.46037117  0.21182129  1
  Bi2+  Bi125  1  0.85714770  0.52183307  0.71070030  1
  Bi2+  Bi126  1  0.90366275  0.71529203  0.22162192  1
  Bi2+  Bi127  1  0.91118446  0.75457245  0.70716142  1
  S2-  S128  1  -0.00843395  0.19242111  0.15491467  1
  S2-  S129  1  -0.02251538  0.15924338  0.64835013  1
  S2-  S130  1  -0.01458425  0.41152627  0.16021266  1
  S2-  S131  1  0.10634687  0.39235732  0.64942646  1
  S2-  S132  1  -0.13162890  0.59624066  0.14908432  1
  S2-  S133  1  -0.01616211  0.60460002  0.66469869  1
  S2-  S134  1  0.00474978  0.76811649  0.14568272  1
  S2-  S135  1  -0.11823300  0.87964815  0.63668020  1
  S2-  S136  1  0.27370903  0.15946007  0.14594266  1
  S2-  S137  1  0.31260375  0.13772276  0.66463404  1
  S2-  S138  1  0.23955053  0.39575202  0.15190041  1
  S2-  S139  1  0.30820418  0.35800323  0.67493318  1
  S2-  S140  1  0.33033981  0.60922321  0.14654291  1
  S2-  S141  1  0.25232203  0.62071369  0.65326623  1
  S2-  S142  1  0.36154895  0.90132993  0.14092618  1
  S2-  S143  1  0.28580139  0.90993926  0.65011000  1
  S2-  S144  1  0.51141349  0.09679393  0.14252653  1
  S2-  S145  1  0.50999116  0.04799321  0.65122361  1
  S2-  S146  1  0.49147932  0.46053251  0.14490735  1
  S2-  S147  1  0.52135311  0.35042917  0.65767582  1
  S2-  S148  1  0.49013226  0.72235959  0.18568659  1
  S2-  S149  1  0.49127215  0.62662595  0.66230949  1
  S2-  S150  1  0.60431969  0.89926935  0.14760923  1
  S2-  S151  1  0.47067505  0.84607682  0.70135234  1
  S2-  S152  1  0.75485502  0.10092176  0.15959562  1
  S2-  S153  1  0.74893614  0.07497442  0.65168944  1
  S2-  S154  1  0.76668551  0.36280695  0.14880651  1
  S2-  S155  1  0.86819228  0.38484352  0.64309860  1
  S2-  S156  1  0.64779454  0.61180703  0.15734710  1
  S2-  S157  1  0.74445532  0.61584733  0.65182931  1
  S2-  S158  1  0.79298685  0.82720772  0.16498181  1
  S2-  S159  1  0.66334552  0.86863119  0.65063477  1
  S2-  S160  1  0.11058188  -0.00665768  0.34997336  1
  S2-  S161  1  0.20950385  -0.00730743  0.85466931  1
  S2-  S162  1  0.17808052  0.25233978  0.35462715  1
  S2-  S163  1  0.19126567  0.25818718  0.85282569  1
  S2-  S164  1  0.12661744  0.49572543  0.34911816  1
  S2-  S165  1  0.16632593  0.53397104  0.84411804  1
  S2-  S166  1  0.01351178  0.74396001  0.36201541  1
  S2-  S167  1  0.10702141  0.75847261  0.84904480  1
  S2-  S168  1  0.35811401  0.02132694  0.34262618  1
  S2-  S169  1  0.42337467  -0.00035702  0.81780309  1
  S2-  S170  1  0.40359037  0.26776240  0.34488246  1
  S2-  S171  1  0.40380998  0.20312140  0.81674844  1
  S2-  S172  1  0.40042247  0.50817538  0.34196831  1
  S2-  S173  1  0.35268094  0.40169160  0.84852395  1
  S2-  S174  1  0.38225190  0.74063831  0.34391999  1
  S2-  S175  1  0.37435839  0.79841272  0.84941606  1
  S2-  S176  1  0.57233067  -0.01723495  0.30634044  1
  S2-  S177  1  0.62809354  -0.01780888  0.84029609  1
  S2-  S178  1  0.60959693  0.16706962  0.35364153  1
  S2-  S179  1  0.60408323  0.26902107  0.84383191  1
  S2-  S180  1  0.62200467  0.58978304  0.35039867  1
  S2-  S181  1  0.50876354  0.51976142  0.85591875  1
  S2-  S182  1  0.57544167  0.78130353  0.30321425  1
  S2-  S183  1  0.60834513  0.74733305  0.85256983  1
  S2-  S184  1  0.78273782  0.00496775  0.34310896  1
  S2-  S185  1  0.86079129  -0.03367395  0.85702997  1
  S2-  S186  1  0.92910570  0.30497797  0.34049324  1
  S2-  S187  1  0.83586428  0.23818539  0.84343460  1
  S2-  S188  1  0.87791891  0.53149796  0.34499599  1
  S2-  S189  1  0.97575724  0.46401020  0.85225863  1
  S2-  S190  1  0.78233066  0.75697932  0.34437118  1
  S2-  S191  1  0.87852537  0.66564390  0.86279443  1
  S2-  S192  1  0.00310495  0.13275608  0.44734521  1
  S2-  S193  1  -0.00910188  0.12510860  0.95488763  1
  S2-  S194  1  0.00078894  0.38594470  0.46104744  1
  S2-  S195  1  -0.00908495  0.37348530  0.95663479  1
  S2-  S196  1  -0.00103727  0.62963963  0.45975841  1
  S2-  S197  1  -0.00656504  0.63605156  0.96539825  1
  S2-  S198  1  0.00039387  0.88677631  0.45592319  1
  S2-  S199  1  -0.00778630  0.87747935  0.96098777  1
  S2-  S200  1  0.24966717  0.12824059  0.46008795  1
  S2-  S201  1  0.24328396  0.12785290  0.94748554  1
  S2-  S202  1  0.24939728  0.38583138  0.46311307  1
  S2-  S203  1  0.23734085  0.38519405  0.95131344  1
  S2-  S204  1  0.24984353  0.63734425  0.44895382  1
  S2-  S205  1  0.24196928  0.63104425  0.95278054  1
  S2-  S206  1  0.24903540  0.88305456  0.44923659  1
  S2-  S207  1  0.24075102  0.87588611  0.95962939  1
  S2-  S208  1  0.50030338  0.13302872  0.45788228  1
  S2-  S209  1  0.49050740  0.12633474  0.94103125  1
  S2-  S210  1  0.49951039  0.38387895  0.45385430  1
  S2-  S211  1  0.49298293  0.37717009  0.95261448  1
  S2-  S212  1  0.50265529  0.63543566  0.45400749  1
  S2-  S213  1  0.49071742  0.63236779  0.95719865  1
  S2-  S214  1  0.51058558  0.88209116  0.43228144  1
  S2-  S215  1  0.49154674  0.88309925  0.95568363  1
  S2-  S216  1  0.75094441  0.13308671  0.45026512  1
  S2-  S217  1  0.74228037  0.12532124  0.95317551  1
  S2-  S218  1  0.75104124  0.38586079  0.45425018  1
  S2-  S219  1  0.74298603  0.38005625  0.94455355  1
  S2-  S220  1  0.75228344  0.63186126  0.45104646  1
  S2-  S221  1  0.73997572  0.63372930  0.96156778  1
  S2-  S222  1  0.74857277  0.88164357  0.44968496  1
  S2-  S223  1  0.74117898  0.88073035  0.96163571  1
  S2-  S224  1  0.11914536  0.00223059  0.04800952  1
  S2-  S225  1  0.12170914  0.00957808  0.55247493  1
  S2-  S226  1  0.11794325  0.25330597  0.04803730  1
  S2-  S227  1  0.12591224  0.25343524  0.55266582  1
  S2-  S228  1  0.11595176  0.50415888  0.04830641  1
  S2-  S229  1  0.12421855  0.51602699  0.55209866  1
  S2-  S230  1  0.12622771  0.75867371  0.05006348  1
  S2-  S231  1  0.12349834  0.76068938  0.54994924  1
  S2-  S232  1  0.36518624  0.00547026  0.03287468  1
  S2-  S233  1  0.38079999  0.00569555  0.54751561  1
  S2-  S234  1  0.36777175  0.25642018  0.03392176  1
  S2-  S235  1  0.37477074  0.25653801  0.55164541  1
  S2-  S236  1  0.36939035  0.50237779  0.03814422  1
  S2-  S237  1  0.37153487  0.50762421  0.54942834  1
  S2-  S238  1  0.36916814  0.75245937  0.05088526  1
  S2-  S239  1  0.38088912  0.76552139  0.55038665  1
  S2-  S240  1  0.61619154  0.00839155  0.04144741  1
  S2-  S241  1  0.62147618  0.00693624  0.54311316  1
  S2-  S242  1  0.61561148  0.25519755  0.04872938  1
  S2-  S243  1  0.62509497  0.25790332  0.54760968  1
  S2-  S244  1  0.61672324  0.50032167  0.04327889  1
  S2-  S245  1  0.62837985  0.50706295  0.54759063  1
  S2-  S246  1  0.61155170  0.75097947  0.05552607  1
  S2-  S247  1  0.62436405  0.75947840  0.54960685  1
  S2-  S248  1  0.86798028  0.00217281  0.05625406  1
  S2-  S249  1  0.87596012  0.01142204  0.53674729  1
  S2-  S250  1  0.86775298  0.25064513  0.04627608  1
  S2-  S251  1  0.87506788  0.25655180  0.54019936  1
  S2-  S252  1  0.86969668  0.50096515  0.03876080  1
  S2-  S253  1  0.87306737  0.51261199  0.54647482  1
  S2-  S254  1  0.86690704  0.75959247  0.04868607  1
  S2-  S255  1  0.87232381  0.75702708  0.53841605  1
