# generated using pymatgen
data_La12Ce14Pr13Nd13Sm12(BiS2)64
_symmetry_space_group_name_H-M   'P 1'
_cell_length_a   16.11421920
_cell_length_b   16.16333351
_cell_length_c   27.23962503
_cell_angle_alpha   90.07147692
_cell_angle_beta   90.16762058
_cell_angle_gamma   89.90299990
_symmetry_Int_Tables_number   1
_chemical_formula_structural   La12Ce14Pr13Nd13Sm12(BiS2)64
_chemical_formula_sum   'La12 Ce14 Pr13 Nd13 Sm12 Bi64 S128'
_cell_volume   7094.77309038
_cell_formula_units_Z   1
loop_
 _symmetry_equiv_pos_site_id
 _symmetry_equiv_pos_as_xyz
  1  'x, y, z'
loop_
 _atom_type_symbol
 _atom_type_oxidation_number
  La3+  3.0
  Ce3+  3.0
  Pr3+  3.0
  Nd3+  3.0
  Sm3+  3.0
  Bi2+  2.0
  S2-  -2.0
loop_
 _atom_site_type_symbol
 _atom_site_label
 _atom_site_symmetry_multiplicity
 _atom_site_fract_x
 _atom_site_fract_y
 _atom_site_fract_z
 _atom_site_occupancy
  La3+  La0  1  0.12693082  0.24241733  0.91336312  1
  La3+  La1  1  0.88224855  0.25175694  0.43744130  1
  La3+  La2  1  0.38293758  0.00093104  0.43115399  1
  La3+  La3  1  0.62114053  0.74297984  0.41382323  1
  La3+  La4  1  0.88171829  -0.00444620  0.42134043  1
  La3+  La5  1  0.26219802  0.36576701  0.58931280  1
  La3+  La6  1  0.50027247  0.37897210  0.07045229  1
  La3+  La7  1  0.13560992  0.00751299  0.41659569  1
  La3+  La8  1  0.26342061  0.62556455  0.57939732  1
  La3+  La9  1  0.76815339  0.88358538  0.08623025  1
  La3+  La10  1  0.77279893  0.62000341  0.09521057  1
  La3+  La11  1  0.24412473  0.11806858  0.57636088  1
  Ce3+  Ce12  1  0.50827916  0.37450532  0.56425947  1
  Ce3+  Ce13  1  0.26805232  0.12744794  0.05714779  1
  Ce3+  Ce14  1  0.02268703  0.13634039  0.06980210  1
  Ce3+  Ce15  1  0.76250552  0.13034371  0.06668708  1
  Ce3+  Ce16  1  0.87893750  0.74272929  0.43848566  1
  Ce3+  Ce17  1  0.75517977  0.87377769  0.54824762  1
  Ce3+  Ce18  1  0.13610248  0.00445050  0.94473333  1
  Ce3+  Ce19  1  0.25764791  0.88127520  0.56359724  1
  Ce3+  Ce20  1  0.88030878  0.50143831  0.44181127  1
  Ce3+  Ce21  1  0.88668817  0.00399399  0.94525287  1
  Ce3+  Ce22  1  0.25791463  0.62718140  0.06018746  1
  Ce3+  Ce23  1  0.13675734  0.74701124  0.44866873  1
  Ce3+  Ce24  1  0.75900472  0.37885141  0.05830924  1
  Ce3+  Ce25  1  0.00652215  0.62381132  0.55896045  1
  Pr3+  Pr26  1  0.51416061  0.87899874  0.07720338  1
  Pr3+  Pr27  1  0.63960881  0.75375056  0.95201707  1
  Pr3+  Pr28  1  0.51271114  0.87554969  0.55872356  1
  Pr3+  Pr29  1  0.25878800  0.37774030  0.04539687  1
  Pr3+  Pr30  1  0.13059242  0.25298291  0.44408508  1
  Pr3+  Pr31  1  0.37673789  0.24997085  0.44829977  1
  Pr3+  Pr32  1  0.51300433  0.62979271  0.06567554  1
  Pr3+  Pr33  1  0.39383098  -0.00090757  0.92821502  1
  Pr3+  Pr34  1  0.26229892  0.87876545  0.05927328  1
  Pr3+  Pr35  1  0.38784787  0.50563957  0.93126630  1
  Pr3+  Pr36  1  0.75240788  0.37537743  0.55950204  1
  Pr3+  Pr37  1  0.63269995  0.50417883  0.93772360  1
  Pr3+  Pr38  1  0.39153594  0.25429116  0.92377465  1
  Nd3+  Nd39  1  0.63632535  0.25291838  0.93967419  1
  Nd3+  Nd40  1  0.62193859  0.49671996  0.42157634  1
  Nd3+  Nd41  1  -0.00376320  0.37575087  0.57526587  1
  Nd3+  Nd42  1  0.13483217  0.75209380  0.94033177  1
  Nd3+  Nd43  1  0.63910113  0.00126689  0.94472659  1
  Nd3+  Nd44  1  0.88472182  0.25295305  0.94070253  1
  Nd3+  Nd45  1  0.75091807  0.62537103  0.56109447  1
  Nd3+  Nd46  1  0.51020394  0.62676877  0.56146033  1
  Nd3+  Nd47  1  0.37700204  0.49839796  0.44420996  1
  Nd3+  Nd48  1  0.14264110  0.51294228  0.90166191  1
  Nd3+  Nd49  1  0.62872451  0.25265446  0.43811705  1
  Nd3+  Nd50  1  0.88444453  0.50607806  0.93617151  1
  Nd3+  Nd51  1  0.37196424  0.74833837  0.43670484  1
  Sm3+  Sm52  1  0.63216289  -0.00700822  0.42008504  1
  Sm3+  Sm53  1  0.38783167  0.75426461  0.94680360  1
  Sm3+  Sm54  1  0.01369232  0.37844582  0.04455587  1
  Sm3+  Sm55  1  0.88372074  0.75253959  0.94691057  1
  Sm3+  Sm56  1  0.01010024  0.62591971  0.05586179  1
  Sm3+  Sm57  1  0.75673362  0.12059636  0.55251595  1
  Sm3+  Sm58  1  0.00820397  0.87889545  0.06167037  1
  Sm3+  Sm59  1  0.00425717  0.87454330  0.54908071  1
  Sm3+  Sm60  1  0.50634937  0.12130134  0.55804178  1
  Sm3+  Sm61  1  0.13330450  0.49364185  0.45354980  1
  Sm3+  Sm62  1  -0.00518310  0.11836670  0.56084203  1
  Sm3+  Sm63  1  0.50818261  0.12865678  0.05555814  1
  Bi2+  Bi64  1  0.02768284  0.14244537  0.29288719  1
  Bi2+  Bi65  1  -0.06475581  0.10333532  0.78791774  1
  Bi2+  Bi66  1  0.00413297  0.41152538  0.30998967  1
  Bi2+  Bi67  1  -0.07525777  0.35646124  0.77956353  1
  Bi2+  Bi68  1  0.07536131  0.60315749  0.28112551  1
  Bi2+  Bi69  1  -0.02863944  0.68042085  0.78907367  1
  Bi2+  Bi70  1  0.03515338  0.87272345  0.26939583  1
  Bi2+  Bi71  1  0.00617153  0.87311611  0.80115143  1
  Bi2+  Bi72  1  0.26772549  0.13717935  0.23077335  1
  Bi2+  Bi73  1  0.25308868  0.11263641  0.79970247  1
  Bi2+  Bi74  1  0.28059364  0.37644511  0.30809264  1
  Bi2+  Bi75  1  0.25418040  0.38105866  0.79022452  1
  Bi2+  Bi76  1  0.24939500  0.56892604  0.33022165  1
  Bi2+  Bi77  1  0.24867509  0.66377120  0.78758337  1
  Bi2+  Bi78  1  0.23044878  0.86467866  0.28969111  1
  Bi2+  Bi79  1  0.19815601  0.85864530  0.75954529  1
  Bi2+  Bi80  1  0.53581196  0.15147419  0.27760627  1
  Bi2+  Bi81  1  0.55911486  0.14671404  0.78727259  1
  Bi2+  Bi82  1  0.49000982  0.34024875  0.30287014  1
  Bi2+  Bi83  1  0.51103318  0.41482805  0.73876381  1
  Bi2+  Bi84  1  0.48645213  0.56084257  0.26704587  1
  Bi2+  Bi85  1  0.53317800  0.60213798  0.77742559  1
  Bi2+  Bi86  1  0.47292564  0.89393909  0.29332992  1
  Bi2+  Bi87  1  0.48023250  0.85428179  0.81261209  1
  Bi2+  Bi88  1  0.73776205  0.15440341  0.28803129  1
  Bi2+  Bi89  1  0.75241602  0.16390462  0.82440231  1
  Bi2+  Bi90  1  0.75044287  0.35421692  0.27668736  1
  Bi2+  Bi91  1  0.68010453  0.34772360  0.81247624  1
  Bi2+  Bi92  1  0.77694074  0.62134056  0.28594843  1
  Bi2+  Bi93  1  0.71495625  0.54005106  0.80490522  1
  Bi2+  Bi94  1  0.77298450  0.87703797  0.28495647  1
  Bi2+  Bi95  1  0.73366685  0.81695000  0.79746351  1
  Bi2+  Bi96  1  0.12193788  0.02277814  0.19677591  1
  Bi2+  Bi97  1  0.07312357  0.00552012  0.72460849  1
  Bi2+  Bi98  1  0.14314148  0.28678973  0.24287188  1
  Bi2+  Bi99  1  0.11362662  0.23616433  0.70877272  1
  Bi2+  Bi100  1  0.11797173  0.46790471  0.19915783  1
  Bi2+  Bi101  1  0.08664967  0.50870520  0.71702134  1
  Bi2+  Bi102  1  0.14958682  0.73741372  0.21039047  1
  Bi2+  Bi103  1  0.04313829  0.77790742  0.69937537  1
  Bi2+  Bi104  1  0.38560323  -0.02366075  0.20020989  1
  Bi2+  Bi105  1  0.38582040  -0.01035674  0.70887280  1
  Bi2+  Bi106  1  0.41562919  0.25887791  0.19796340  1
  Bi2+  Bi107  1  0.40577642  0.23282291  0.71067168  1
  Bi2+  Bi108  1  0.31445137  0.49332623  0.21295543  1
  Bi2+  Bi109  1  0.33945588  0.54398734  0.71183229  1
  Bi2+  Bi110  1  0.35281613  0.70592199  0.27201554  1
  Bi2+  Bi111  1  0.35720108  0.77924633  0.70759609  1
  Bi2+  Bi112  1  0.62374297  0.02563032  0.20982196  1
  Bi2+  Bi113  1  0.67959333  -0.00080896  0.76598788  1
  Bi2+  Bi114  1  0.67213042  0.21574227  0.18246569  1
  Bi2+  Bi115  1  0.63721087  0.26704205  0.70247019  1
  Bi2+  Bi116  1  0.63869489  0.47961376  0.21688980  1
  Bi2+  Bi117  1  0.68844634  0.45781174  0.67908130  1
  Bi2+  Bi118  1  0.58492634  0.75124044  0.20967431  1
  Bi2+  Bi119  1  0.62464040  0.73399437  0.71323534  1
  Bi2+  Bi120  1  0.88576744  -0.01988067  0.21849004  1
  Bi2+  Bi121  1  0.82766528  -0.04191753  0.69262246  1
  Bi2+  Bi122  1  0.86675846  0.23348785  0.20832332  1
  Bi2+  Bi123  1  0.83250411  0.22329768  0.71246275  1
  Bi2+  Bi124  1  0.90282361  0.42592050  0.20864668  1
  Bi2+  Bi125  1  0.84113173  0.56513112  0.71781229  1
  Bi2+  Bi126  1  0.92297630  0.72350375  0.21413147  1
  Bi2+  Bi127  1  0.81867300  0.75834704  0.69624217  1
  S2-  S128  1  -0.03167101  0.11031227  0.16401682  1
  S2-  S129  1  0.08427233  0.11791475  0.64533078  1
  S2-  S130  1  0.02331806  0.35752466  0.14261060  1
  S2-  S131  1  0.03012850  0.36108259  0.67379835  1
  S2-  S132  1  -0.06155162  0.61319609  0.14512103  1
  S2-  S133  1  -0.02978845  0.57922257  0.65085720  1
  S2-  S134  1  -0.08231992  0.86348953  0.14643696  1
  S2-  S135  1  -0.01181133  0.91272650  0.64521158  1
  S2-  S136  1  0.17011518  0.15768231  0.13544862  1
  S2-  S137  1  0.26735342  0.22281911  0.65864595  1
  S2-  S138  1  0.34682122  0.37494141  0.13462352  1
  S2-  S139  1  0.22510634  0.42080714  0.68613230  1
  S2-  S140  1  0.26730199  0.63784520  0.15777394  1
  S2-  S141  1  0.19541746  0.62652361  0.67460499  1
  S2-  S142  1  0.23988190  0.91415742  0.15745774  1
  S2-  S143  1  0.26121480  0.98053566  0.64474116  1
  S2-  S144  1  0.40140417  0.12037731  0.13266918  1
  S2-  S145  1  0.48060820  0.10811840  0.65650154  1
  S2-  S146  1  0.56024698  0.35211753  0.16525959  1
  S2-  S147  1  0.42508952  0.37796409  0.65074443  1
  S2-  S148  1  0.53491178  0.60081980  0.16417202  1
  S2-  S149  1  0.40838416  0.64098400  0.64538245  1
  S2-  S150  1  0.44544848  0.82291913  0.16754365  1
  S2-  S151  1  0.47217352  0.87346383  0.65902676  1
  S2-  S152  1  0.76550001  0.03197941  0.14813111  1
  S2-  S153  1  0.84920103  0.10331185  0.63550383  1
  S2-  S154  1  0.76421283  0.46516235  0.14447453  1
  S2-  S155  1  0.83180438  0.36934218  0.64890771  1
  S2-  S156  1  0.74862627  0.69813002  0.18834754  1
  S2-  S157  1  0.63367444  0.62127633  0.63720268  1
  S2-  S158  1  0.63646679  0.87575901  0.15614878  1
  S2-  S159  1  0.69761304  0.88437987  0.63953052  1
  S2-  S160  1  0.00002099  -0.00477121  0.34471200  1
  S2-  S161  1  0.12748459  0.06984014  0.85621583  1
  S2-  S162  1  0.14329588  0.15752660  0.35729143  1
  S2-  S163  1  0.15571098  0.25667944  0.81200866  1
  S2-  S164  1  0.13622781  0.38753288  0.37410740  1
  S2-  S165  1  0.09397030  0.45096784  0.81080023  1
  S2-  S166  1  0.23256632  0.74070457  0.36797358  1
  S2-  S167  1  0.12014710  0.66799080  0.85301390  1
  S2-  S168  1  0.27423433  -0.01770708  0.35130342  1
  S2-  S169  1  0.35679750  -0.01454697  0.82842463  1
  S2-  S170  1  0.37247905  0.24290901  0.34723396  1
  S2-  S171  1  0.34887222  0.24826299  0.82359479  1
  S2-  S172  1  0.47067131  0.49201927  0.35885954  1
  S2-  S173  1  0.29145935  0.52166448  0.84531646  1
  S2-  S174  1  0.45972681  0.74863037  0.34944402  1
  S2-  S175  1  0.37280305  0.74741920  0.84862797  1
  S2-  S176  1  0.50488392  0.02154168  0.35254841  1
  S2-  S177  1  0.56364718  -0.00677603  0.85498949  1
  S2-  S178  1  0.64253294  0.35622036  0.35689922  1
  S2-  S179  1  0.53842944  0.26863000  0.85797822  1
  S2-  S180  1  0.65294308  0.61215898  0.34529236  1
  S2-  S181  1  0.51691107  0.50979984  0.86008495  1
  S2-  S182  1  0.63281821  0.84968110  0.32944653  1
  S2-  S183  1  0.59499545  0.76004102  0.85351093  1
  S2-  S184  1  0.75945969  0.01211901  0.34851567  1
  S2-  S185  1  0.88268358  -0.02761374  0.84839746  1
  S2-  S186  1  0.93025433  0.26024646  0.34113119  1
  S2-  S187  1  0.96335050  0.24375493  0.85240774  1
  S2-  S188  1  0.86387852  0.50913040  0.34400559  1
  S2-  S189  1  0.87427523  0.47269947  0.83747302  1
  S2-  S190  1  0.85747026  0.74985800  0.34036062  1
  S2-  S191  1  0.84625011  0.71701236  0.85277868  1
  S2-  S192  1  0.00285473  0.12471024  0.45538758  1
  S2-  S193  1  0.00790961  0.12645099  0.95977489  1
  S2-  S194  1  0.00131406  0.37854033  0.46665828  1
  S2-  S195  1  0.01508229  0.38629348  0.94126679  1
  S2-  S196  1  0.01180450  0.62100768  0.45088229  1
  S2-  S197  1  0.00855357  0.62754317  0.95227185  1
  S2-  S198  1  0.00842207  0.86517603  0.44496325  1
  S2-  S199  1  0.00968610  0.87520972  0.95642294  1
  S2-  S200  1  0.25638523  0.12480906  0.46346746  1
  S2-  S201  1  0.26741476  0.12497579  0.94794202  1
  S2-  S202  1  0.25844451  0.37534139  0.47331244  1
  S2-  S203  1  0.25674089  0.37772288  0.93871614  1
  S2-  S204  1  0.25435537  0.61854763  0.47026977  1
  S2-  S205  1  0.26066556  0.63167767  0.95434852  1
  S2-  S206  1  0.25366687  0.87737236  0.46040548  1
  S2-  S207  1  0.26078247  0.87647342  0.95048743  1
  S2-  S208  1  0.50982687  0.12956702  0.45377452  1
  S2-  S209  1  0.51267845  0.12588424  0.95291523  1
  S2-  S210  1  0.50328785  0.37224383  0.45997919  1
  S2-  S211  1  0.50999246  0.37898713  0.96117899  1
  S2-  S212  1  0.49974614  0.62463753  0.45583074  1
  S2-  S213  1  0.50973962  0.63376860  0.95953699  1
  S2-  S214  1  0.50823598  0.87459596  0.45100634  1
  S2-  S215  1  0.51196847  0.87588527  0.96481127  1
  S2-  S216  1  0.75291747  0.12801297  0.44857658  1
  S2-  S217  1  0.76055551  0.12807028  0.95890845  1
  S2-  S218  1  0.75739792  0.37713219  0.45356334  1
  S2-  S219  1  0.76038406  0.37814204  0.95098950  1
  S2-  S220  1  0.75394309  0.62238771  0.45468373  1
  S2-  S221  1  0.76073692  0.62625331  0.95709625  1
  S2-  S222  1  0.75344226  0.86828249  0.44400804  1
  S2-  S223  1  0.76367661  0.87857776  0.96075381  1
  S2-  S224  1  0.13407866  0.00000797  0.04804371  1
  S2-  S225  1  0.12232884  -0.00391998  0.53891531  1
  S2-  S226  1  0.13681850  0.25619327  0.02758092  1
  S2-  S227  1  0.12092773  0.25224468  0.55208688  1
  S2-  S228  1  0.13336459  0.50396521  0.04712903  1
  S2-  S229  1  0.13097410  0.49581902  0.55843962  1
  S2-  S230  1  0.13100697  0.75427396  0.04827567  1
  S2-  S231  1  0.13122417  0.75209543  0.55506457  1
  S2-  S232  1  0.38971154  -0.00304990  0.03767011  1
  S2-  S233  1  0.38643041  0.00004709  0.54226670  1
  S2-  S234  1  0.38611651  0.25173681  0.03213834  1
  S2-  S235  1  0.38598168  0.24366611  0.55322378  1
  S2-  S236  1  0.38403523  0.50941025  0.04067392  1
  S2-  S237  1  0.38404353  0.49790543  0.55028967  1
  S2-  S238  1  0.38513833  0.75281222  0.05142309  1
  S2-  S239  1  0.38118107  0.75650701  0.54408952  1
  S2-  S240  1  0.63321515  0.00707931  0.04971072  1
  S2-  S241  1  0.63236479  0.00293739  0.53495447  1
  S2-  S242  1  0.63206845  0.25211862  0.04580165  1
  S2-  S243  1  0.63251667  0.24459876  0.54703487  1
  S2-  S244  1  0.63407164  0.50323211  0.04666540  1
  S2-  S245  1  0.62851447  0.49737050  0.53623101  1
  S2-  S246  1  0.64486325  0.74846343  0.05802775  1
  S2-  S247  1  0.63166667  0.75004053  0.53478001  1
  S2-  S248  1  0.89289895  0.00828984  0.04899064  1
  S2-  S249  1  0.87867248  -0.00494635  0.53070394  1
  S2-  S250  1  0.88740448  0.25587742  0.04747703  1
  S2-  S251  1  0.87792827  0.24767006  0.54468571  1
  S2-  S252  1  0.88858020  0.49988485  0.04118302  1
  S2-  S253  1  0.87670865  0.50283079  0.54666096  1
  S2-  S254  1  0.88507674  0.74943933  0.04878923  1
  S2-  S255  1  0.88053392  0.74766323  0.54635063  1
