# generated using pymatgen
data_La12Ce14Pr13Nd13Sm12(BiS2)64
_symmetry_space_group_name_H-M   'P 1'
_cell_length_a   16.23355055
_cell_length_b   16.21035192
_cell_length_c   27.10533209
_cell_angle_alpha   90.02812301
_cell_angle_beta   90.07213270
_cell_angle_gamma   89.99076188
_symmetry_Int_Tables_number   1
_chemical_formula_structural   La12Ce14Pr13Nd13Sm12(BiS2)64
_chemical_formula_sum   'La12 Ce14 Pr13 Nd13 Sm12 Bi64 S128'
_cell_volume   7132.80401751
_cell_formula_units_Z   1
loop_
 _symmetry_equiv_pos_site_id
 _symmetry_equiv_pos_as_xyz
  1  'x, y, z'
loop_
 _atom_type_symbol
 _atom_type_oxidation_number
  La3+  3.0
  Ce3+  3.0
  Pr3+  3.0
  Nd3+  3.0
  Sm3+  3.0
  Bi2+  2.0
  S2-  -2.0
loop_
 _atom_site_type_symbol
 _atom_site_label
 _atom_site_symmetry_multiplicity
 _atom_site_fract_x
 _atom_site_fract_y
 _atom_site_fract_z
 _atom_site_occupancy
  La3+  La0  1  0.25159064  0.11424231  0.56949335  1
  La3+  La1  1  0.49625811  0.38614148  0.09288280  1
  La3+  La2  1  0.75675192  0.36305063  0.57123835  1
  La3+  La3  1  0.50276633  0.61228159  0.56282419  1
  La3+  La4  1  0.39341447  0.74464039  0.91180190  1
  La3+  La5  1  0.62555785  0.48762675  0.43185398  1
  La3+  La6  1  0.75113088  0.86666422  0.56469884  1
  La3+  La7  1  0.63055407  0.01725739  0.91334079  1
  La3+  La8  1  0.25714411  0.12672149  0.06231246  1
  La3+  La9  1  0.50299271  0.86579674  0.57195023  1
  La3+  La10  1  0.36881542  0.00724261  0.89510993  1
  La3+  La11  1  0.00225897  0.86157975  0.56918949  1
  Ce3+  Ce12  1  0.00223812  0.36189956  0.56840920  1
  Ce3+  Ce13  1  0.37628004  0.74467913  0.44368917  1
  Ce3+  Ce14  1  0.12661622  -0.01137215  0.44556470  1
  Ce3+  Ce15  1  0.87444585  0.00732261  0.93830868  1
  Ce3+  Ce16  1  0.37398910  0.48881556  0.43782812  1
  Ce3+  Ce17  1  0.25214321  0.86144748  0.56939209  1
  Ce3+  Ce18  1  0.38190588  0.25261837  0.94119819  1
  Ce3+  Ce19  1  0.13038777  0.25529016  0.94457792  1
  Ce3+  Ce20  1  -0.00223283  0.10519419  0.56799934  1
  Ce3+  Ce21  1  0.00417900  0.87938585  0.05284293  1
  Ce3+  Ce22  1  0.75197407  0.63081091  0.06057520  1
  Ce3+  Ce23  1  0.25225809  0.61479019  0.55476703  1
  Ce3+  Ce24  1  0.62407652  0.74388696  0.44241167  1
  Ce3+  Ce25  1  0.50760316  0.12919858  0.05925990  1
  Pr3+  Pr26  1  0.00825449  0.38150320  0.07250667  1
  Pr3+  Pr27  1  0.87796491  0.48909510  0.44249871  1
  Pr3+  Pr28  1  0.12735333  0.00467496  0.93304119  1
  Pr3+  Pr29  1  0.12339355  0.73959194  0.44175982  1
  Pr3+  Pr30  1  0.87637585  -0.01110394  0.43406538  1
  Pr3+  Pr31  1  0.76271645  0.38762459  0.08287285  1
  Pr3+  Pr32  1  0.00352519  0.12623929  0.06008544  1
  Pr3+  Pr33  1  0.13040083  0.75428461  0.93128504  1
  Pr3+  Pr34  1  0.62424266  0.23583555  0.43567062  1
  Pr3+  Pr35  1  0.62902252  0.75525441  0.93791824  1
  Pr3+  Pr36  1  0.87630697  0.23861169  0.44446006  1
  Pr3+  Pr37  1  0.87675346  0.75381811  0.94224892  1
  Pr3+  Pr38  1  0.25116034  0.36671330  0.55653295  1
  Nd3+  Nd39  1  0.38083977  0.49748922  0.93599422  1
  Nd3+  Nd40  1  0.62867588  -0.02321368  0.41244882  1
  Nd3+  Nd41  1  0.75087836  0.61356638  0.55583249  1
  Nd3+  Nd42  1  0.75084658  0.13060967  0.06435573  1
  Nd3+  Nd43  1  0.62930131  0.26234059  0.94604199  1
  Nd3+  Nd44  1  0.25542706  0.38183698  0.06221528  1
  Nd3+  Nd45  1  0.50080179  0.11229734  0.55107993  1
  Nd3+  Nd46  1  0.50365714  0.88344777  0.04694883  1
  Nd3+  Nd47  1  0.25906246  0.87871165  0.04599515  1
  Nd3+  Nd48  1  0.36550378  -0.01888998  0.41983073  1
  Nd3+  Nd49  1  0.00053165  0.61610281  0.57494338  1
  Nd3+  Nd50  1  0.50150938  0.36362972  0.55534210  1
  Nd3+  Nd51  1  0.87871579  0.25794079  0.94881695  1
  Sm3+  Sm52  1  0.12379461  0.49058957  0.44938317  1
  Sm3+  Sm53  1  0.63020254  0.49653622  0.94975570  1
  Sm3+  Sm54  1  0.87581974  0.73895547  0.44590630  1
  Sm3+  Sm55  1  0.75057843  0.88120445  0.05433430  1
  Sm3+  Sm56  1  0.37428229  0.23694038  0.44029437  1
  Sm3+  Sm57  1  0.74687753  0.11286626  0.55523894  1
  Sm3+  Sm58  1  0.00698208  0.63409568  0.05502370  1
  Sm3+  Sm59  1  0.50234246  0.63055062  0.05883677  1
  Sm3+  Sm60  1  0.12538327  0.23837979  0.44731866  1
  Sm3+  Sm61  1  0.88038980  0.50312399  0.94869045  1
  Sm3+  Sm62  1  0.12922808  0.50357143  0.94596189  1
  Sm3+  Sm63  1  0.25715336  0.63319061  0.05059750  1
  Bi2+  Bi64  1  0.01589611  0.08857291  0.29131869  1
  Bi2+  Bi65  1  -0.01518274  0.06389894  0.79673458  1
  Bi2+  Bi66  1  0.03009747  0.35046442  0.29176208  1
  Bi2+  Bi67  1  -0.01208326  0.41706631  0.79674207  1
  Bi2+  Bi68  1  0.04474850  0.63641252  0.29684629  1
  Bi2+  Bi69  1  -0.01558771  0.61372309  0.79025656  1
  Bi2+  Bi70  1  -0.00666098  0.89950898  0.30088762  1
  Bi2+  Bi71  1  -0.02847351  0.86945237  0.79162092  1
  Bi2+  Bi72  1  0.20532708  0.12868299  0.28574084  1
  Bi2+  Bi73  1  0.23919581  0.15945995  0.79088856  1
  Bi2+  Bi74  1  0.21683814  0.43131361  0.28739778  1
  Bi2+  Bi75  1  0.28858374  0.37777165  0.81287539  1
  Bi2+  Bi76  1  0.23318469  0.64582810  0.25904461  1
  Bi2+  Bi77  1  0.24578321  0.56759604  0.79056343  1
  Bi2+  Bi78  1  0.24026473  0.87357907  0.29288260  1
  Bi2+  Bi79  1  0.22777791  0.88364100  0.77589281  1
  Bi2+  Bi80  1  0.48643811  0.14807008  0.28701742  1
  Bi2+  Bi81  1  0.51894714  0.15341791  0.78746018  1
  Bi2+  Bi82  1  0.48856997  0.38273255  0.30278771  1
  Bi2+  Bi83  1  0.48032898  0.36883551  0.82677302  1
  Bi2+  Bi84  1  0.50898926  0.65997967  0.23540486  1
  Bi2+  Bi85  1  0.51515745  0.54909189  0.78513617  1
  Bi2+  Bi86  1  0.49345308  0.89691486  0.29362315  1
  Bi2+  Bi87  1  0.49364714  0.85130288  0.78175659  1
  Bi2+  Bi88  1  0.82316474  0.10968838  0.28165729  1
  Bi2+  Bi89  1  0.77322289  0.15105223  0.79280212  1
  Bi2+  Bi90  1  0.75247231  0.36855771  0.30803031  1
  Bi2+  Bi91  1  0.76039000  0.39449607  0.79775968  1
  Bi2+  Bi92  1  0.78394101  0.63122632  0.28575075  1
  Bi2+  Bi93  1  0.70607493  0.57354163  0.76177405  1
  Bi2+  Bi94  1  0.74334365  0.85282163  0.28836809  1
  Bi2+  Bi95  1  0.77685524  0.87189182  0.78397608  1
  Bi2+  Bi96  1  0.14337244  -0.03648174  0.21306849  1
  Bi2+  Bi97  1  0.10671729  0.03563309  0.69925018  1
  Bi2+  Bi98  1  0.11821319  0.29440506  0.18699208  1
  Bi2+  Bi99  1  0.12421237  0.30115244  0.74636275  1
  Bi2+  Bi100  1  0.10999992  0.48862888  0.19277582  1
  Bi2+  Bi101  1  0.11504459  0.48001284  0.69485013  1
  Bi2+  Bi102  1  0.08552310  0.75587102  0.20558365  1
  Bi2+  Bi103  1  0.12760784  0.67121732  0.71524830  1
  Bi2+  Bi104  1  0.38024245  0.00314386  0.18506559  1
  Bi2+  Bi105  1  0.36720361  0.01264531  0.68957484  1
  Bi2+  Bi106  1  0.29592571  0.27820419  0.23455917  1
  Bi2+  Bi107  1  0.39262527  0.29311205  0.72595249  1
  Bi2+  Bi108  1  0.36211829  0.51837007  0.20974115  1
  Bi2+  Bi109  1  0.34309033  0.48737503  0.69862300  1
  Bi2+  Bi110  1  0.35951909  0.76748572  0.20354817  1
  Bi2+  Bi111  1  0.39134845  0.67141752  0.72095189  1
  Bi2+  Bi112  1  0.62229756  0.00155845  0.18902965  1
  Bi2+  Bi113  1  0.61530884  0.01234249  0.69656225  1
  Bi2+  Bi114  1  0.64491394  0.23653414  0.22390615  1
  Bi2+  Bi115  1  0.62585394  0.29458196  0.73660741  1
  Bi2+  Bi116  1  0.62924865  0.49120197  0.20966739  1
  Bi2+  Bi117  1  0.58257688  0.48655604  0.68289024  1
  Bi2+  Bi118  1  0.68117394  0.72699860  0.20382670  1
  Bi2+  Bi119  1  0.64893082  0.73921630  0.71438476  1
  Bi2+  Bi120  1  0.88371586  -0.03530076  0.21159030  1
  Bi2+  Bi121  1  0.85281280  0.01508879  0.71489720  1
  Bi2+  Bi122  1  0.92184554  0.24847525  0.21430042  1
  Bi2+  Bi123  1  0.93637615  0.23225697  0.72893184  1
  Bi2+  Bi124  1  0.93290574  0.49584633  0.23829585  1
  Bi2+  Bi125  1  0.92776586  0.51694324  0.69196394  1
  Bi2+  Bi126  1  0.89049437  0.76193338  0.22444140  1
  Bi2+  Bi127  1  0.88000556  0.71736502  0.71427911  1
  S2-  S128  1  0.02278028  0.15251923  0.15891178  1
  S2-  S129  1  0.03856402  0.17124115  0.65669315  1
  S2-  S130  1  -0.09411934  0.39603137  0.15280045  1
  S2-  S131  1  -0.08594050  0.35339653  0.65223122  1
  S2-  S132  1  0.01535226  0.62746222  0.15277028  1
  S2-  S133  1  0.00891722  0.74023567  0.64795265  1
  S2-  S134  1  0.02000397  0.91442395  0.14805116  1
  S2-  S135  1  -0.02433017  0.97407394  0.64436292  1
  S2-  S136  1  0.26340761  0.10375752  0.16278362  1
  S2-  S137  1  0.24823232  0.12813699  0.67127124  1
  S2-  S138  1  0.34096373  0.37849711  0.14882274  1
  S2-  S139  1  0.26874068  0.35271928  0.65589028  1
  S2-  S140  1  0.27792295  0.63669710  0.14825668  1
  S2-  S141  1  0.26405670  0.66243541  0.64887610  1
  S2-  S142  1  0.27058516  0.88050617  0.14648091  1
  S2-  S143  1  0.23523659  0.89944418  0.66646171  1
  S2-  S144  1  0.49282532  0.12130330  0.15966540  1
  S2-  S145  1  0.49908149  0.10522645  0.65201216  1
  S2-  S146  1  0.52897134  0.34816196  0.19749732  1
  S2-  S147  1  0.51060296  0.33621456  0.65336112  1
  S2-  S148  1  0.49811448  0.54527832  0.14451160  1
  S2-  S149  1  0.51060570  0.69100819  0.65312592  1
  S2-  S150  1  0.51448510  0.89797810  0.14812583  1
  S2-  S151  1  0.48867575  0.89814853  0.67197371  1
  S2-  S152  1  0.73401717  0.13045221  0.16369632  1
  S2-  S153  1  0.73551614  0.10657952  0.65410537  1
  S2-  S154  1  0.72001236  0.36217485  0.18206521  1
  S2-  S155  1  0.71637338  0.38452139  0.66834818  1
  S2-  S156  1  0.74530053  0.58034412  0.15342699  1
  S2-  S157  1  0.75068945  0.63974969  0.65438204  1
  S2-  S158  1  0.74193198  0.91497481  0.15118853  1
  S2-  S159  1  0.70060127  0.87261220  0.66101031  1
  S2-  S160  1  0.21336970  -0.00221136  0.36127632  1
  S2-  S161  1  0.20706934  0.01631553  0.84374552  1
  S2-  S162  1  0.12365763  0.23438238  0.34863157  1
  S2-  S163  1  0.12002791  0.24086156  0.84796077  1
  S2-  S164  1  0.09400955  0.50160604  0.35325535  1
  S2-  S165  1  0.10800056  0.51369173  0.84871008  1
  S2-  S166  1  0.11157592  0.79012790  0.34526308  1
  S2-  S167  1  0.10923209  0.79982660  0.83391322  1
  S2-  S168  1  0.39739992  0.02872004  0.32152480  1
  S2-  S169  1  0.37367213  -0.02134899  0.78793986  1
  S2-  S170  1  0.38156863  0.25860824  0.34213222  1
  S2-  S171  1  0.37996710  0.16699778  0.85298108  1
  S2-  S172  1  0.40030220  0.49979805  0.34151890  1
  S2-  S173  1  0.38741947  0.59237283  0.85328422  1
  S2-  S174  1  0.37233966  0.82651588  0.35743600  1
  S2-  S175  1  0.33275273  0.79263423  0.82003534  1
  S2-  S176  1  0.58951845  0.03240423  0.31624521  1
  S2-  S177  1  0.57078407  -0.01805962  0.81548453  1
  S2-  S178  1  0.61367173  0.25533401  0.33458117  1
  S2-  S179  1  0.63300898  0.17295619  0.85661792  1
  S2-  S180  1  0.62157080  0.47975378  0.33052513  1
  S2-  S181  1  0.64232664  0.39047253  0.87293823  1
  S2-  S182  1  0.60931611  0.82703587  0.35665158  1
  S2-  S183  1  0.54678939  0.74885165  0.84967305  1
  S2-  S184  1  0.77677007  -0.01754961  0.35194845  1
  S2-  S185  1  0.78239364  0.00818440  0.85564097  1
  S2-  S186  1  0.84802203  0.25063531  0.34543232  1
  S2-  S187  1  0.85090612  0.26666392  0.85005381  1
  S2-  S188  1  0.84551523  0.48650582  0.34337209  1
  S2-  S189  1  0.86272423  0.50667348  0.85096044  1
  S2-  S190  1  0.85077627  0.74615483  0.34845167  1
  S2-  S191  1  0.84000206  0.75664829  0.84382526  1
  S2-  S192  1  0.00191710  0.11402191  0.45478821  1
  S2-  S193  1  0.00255218  0.13073764  0.95199490  1
  S2-  S194  1  0.00317904  0.36412613  0.45800286  1
  S2-  S195  1  0.00520063  0.38178210  0.96022761  1
  S2-  S196  1  -0.00033114  0.61556671  0.46090200  1
  S2-  S197  1  0.00440316  0.62840472  0.94973051  1
  S2-  S198  1  -0.00261457  0.86369297  0.45797849  1
  S2-  S199  1  0.00097884  0.88022616  0.94639566  1
  S2-  S200  1  0.25213831  0.11888006  0.45873739  1
  S2-  S201  1  0.25344733  0.12837204  0.95372890  1
  S2-  S202  1  0.24755678  0.36436809  0.44857596  1
  S2-  S203  1  0.25327862  0.38030461  0.95514850  1
  S2-  S204  1  0.24893474  0.61473854  0.44637177  1
  S2-  S205  1  0.25242559  0.62765973  0.94641686  1
  S2-  S206  1  0.24825717  0.86310375  0.46142437  1
  S2-  S207  1  0.25862251  0.87831430  0.94060204  1
  S2-  S208  1  0.49651665  0.11044749  0.44378495  1
  S2-  S209  1  0.50436682  0.13018127  0.95344699  1
  S2-  S210  1  0.49860893  0.36200102  0.44909079  1
  S2-  S211  1  0.50115736  0.38047376  0.96848266  1
  S2-  S212  1  0.50051265  0.61642731  0.45116794  1
  S2-  S213  1  0.51151287  0.62099976  0.95579966  1
  S2-  S214  1  0.49858026  0.86953072  0.45971799  1
  S2-  S215  1  0.50183372  0.88873048  0.94016233  1
  S2-  S216  1  0.74775426  0.11313992  0.44955890  1
  S2-  S217  1  0.75472851  0.13637950  0.95890329  1
  S2-  S218  1  0.75034989  0.36363816  0.45729332  1
  S2-  S219  1  0.76159966  0.38319162  0.97259344  1
  S2-  S220  1  0.75031912  0.61596657  0.44938543  1
  S2-  S221  1  0.75163088  0.62431119  0.95261226  1
  S2-  S222  1  0.75270614  0.86203439  0.45637360  1
  S2-  S223  1  0.75113854  0.87899759  0.95081538  1
  S2-  S224  1  0.13088555  0.00212175  0.04155075  1
  S2-  S225  1  0.12911138  -0.01232892  0.55053726  1
  S2-  S226  1  0.13110875  0.25518766  0.05081470  1
  S2-  S227  1  0.12667102  0.24086869  0.55124673  1
  S2-  S228  1  0.13197276  0.50943927  0.05028355  1
  S2-  S229  1  0.12417287  0.49254782  0.55394249  1
  S2-  S230  1  0.13135354  0.75504900  0.04091464  1
  S2-  S231  1  0.12877451  0.73714840  0.54810242  1
  S2-  S232  1  0.38088842  0.00434510  0.04344155  1
  S2-  S233  1  0.37449366  -0.01097236  0.54827454  1
  S2-  S234  1  0.38002754  0.25425965  0.04979150  1
  S2-  S235  1  0.37673674  0.24043533  0.54644052  1
  S2-  S236  1  0.37628383  0.50926271  0.04237052  1
  S2-  S237  1  0.37753922  0.48915536  0.54627125  1
  S2-  S238  1  0.38291065  0.75267273  0.03635758  1
  S2-  S239  1  0.37763427  0.74071574  0.54849561  1
  S2-  S240  1  0.63102240  0.00500879  0.03916413  1
  S2-  S241  1  0.62533454  -0.00878448  0.54306551  1
  S2-  S242  1  0.62884784  0.26040059  0.05756945  1
  S2-  S243  1  0.62667552  0.23945586  0.54468467  1
  S2-  S244  1  0.62896588  0.50317132  0.05214644  1
  S2-  S245  1  0.62813602  0.48745741  0.54262027  1
  S2-  S246  1  0.62692807  0.75507157  0.04653031  1
  S2-  S247  1  0.62735543  0.73957401  0.54722558  1
  S2-  S248  1  0.87497107  0.00407687  0.04652891  1
  S2-  S249  1  0.86934400  -0.00896194  0.54112205  1
  S2-  S250  1  0.88013230  0.25313993  0.05548595  1
  S2-  S251  1  0.87458699  0.23271868  0.55073561  1
  S2-  S252  1  0.88510324  0.51329270  0.05169537  1
  S2-  S253  1  0.87804625  0.49278257  0.54962372  1
  S2-  S254  1  0.87732644  0.75582373  0.05081640  1
  S2-  S255  1  0.87370768  0.73763141  0.54990366  1
