# generated using pymatgen
data_La12Ce14Pr13Nd13Sm12(BiS2)64
_symmetry_space_group_name_H-M   'P 1'
_cell_length_a   16.06650365
_cell_length_b   16.11875030
_cell_length_c   27.11459465
_cell_angle_alpha   89.94415062
_cell_angle_beta   89.87889666
_cell_angle_gamma   89.97856386
_symmetry_Int_Tables_number   1
_chemical_formula_structural   La12Ce14Pr13Nd13Sm12(BiS2)64
_chemical_formula_sum   'La12 Ce14 Pr13 Nd13 Sm12 Bi64 S128'
_cell_volume   7021.90023284
_cell_formula_units_Z   1
loop_
 _symmetry_equiv_pos_site_id
 _symmetry_equiv_pos_as_xyz
  1  'x, y, z'
loop_
 _atom_type_symbol
 _atom_type_oxidation_number
  La3+  3.0
  Ce3+  3.0
  Pr3+  3.0
  Nd3+  3.0
  Sm3+  3.0
  Bi2+  2.0
  S2-  -2.0
loop_
 _atom_site_type_symbol
 _atom_site_label
 _atom_site_symmetry_multiplicity
 _atom_site_fract_x
 _atom_site_fract_y
 _atom_site_fract_z
 _atom_site_occupancy
  La3+  La0  1  0.13202132  0.75467251  0.43298869  1
  La3+  La1  1  0.25477879  0.87885004  0.06777970  1
  La3+  La2  1  0.87822986  0.24867772  0.92359633  1
  La3+  La3  1  0.11453856  0.75750359  0.92973125  1
  La3+  La4  1  0.49988841  0.62115897  0.56773407  1
  La3+  La5  1  0.00367836  0.13558108  0.07018960  1
  La3+  La6  1  0.12572982  0.24611242  0.42559165  1
  La3+  La7  1  0.75274327  0.87947410  0.07177435  1
  La3+  La8  1  0.88080664  0.50279088  0.41315384  1
  La3+  La9  1  0.61855218  0.50039709  0.40187750  1
  La3+  La10  1  0.37314398  0.24466594  0.42846877  1
  La3+  La11  1  0.00347152  0.62696462  0.08337349  1
  Ce3+  Ce12  1  0.13240461  0.00466363  0.93935542  1
  Ce3+  Ce13  1  0.24964894  0.37206779  0.54930505  1
  Ce3+  Ce14  1  0.63221260  0.50578786  0.93320219  1
  Ce3+  Ce15  1  -0.00470772  0.13192293  0.55748871  1
  Ce3+  Ce16  1  0.87826440  0.75286543  0.95438309  1
  Ce3+  Ce17  1  0.75183060  0.37682433  0.05807381  1
  Ce3+  Ce18  1  0.50432192  0.62545458  0.06421929  1
  Ce3+  Ce19  1  0.62422205  -0.00244560  0.44895881  1
  Ce3+  Ce20  1  0.61666018  0.24991106  0.43013400  1
  Ce3+  Ce21  1  0.37925538  0.50181588  0.43894625  1
  Ce3+  Ce22  1  0.62794005  0.75391300  0.94737946  1
  Ce3+  Ce23  1  0.88065379  0.00231889  0.94797883  1
  Ce3+  Ce24  1  -0.00323352  0.61390891  0.55821271  1
  Ce3+  Ce25  1  0.24946154  0.62886107  0.05781960  1
  Pr3+  Pr26  1  0.12468864  0.50073021  0.43362787  1
  Pr3+  Pr27  1  0.50450711  0.86742688  0.57285615  1
  Pr3+  Pr28  1  0.75415791  0.61873331  0.54796511  1
  Pr3+  Pr29  1  0.25042570  0.12680284  0.56648658  1
  Pr3+  Pr30  1  0.75814537  0.87197597  0.56387440  1
  Pr3+  Pr31  1  0.50058341  0.37696436  0.56460749  1
  Pr3+  Pr32  1  0.37775678  0.75271918  0.93488254  1
  Pr3+  Pr33  1  0.26267514  0.88820539  0.61348582  1
  Pr3+  Pr34  1  0.88191324  0.75118102  0.42085518  1
  Pr3+  Pr35  1  0.12358276  0.50450900  0.93530658  1
  Pr3+  Pr36  1  0.00347474  0.86260726  0.56969910  1
  Pr3+  Pr37  1  0.87769344  0.50595726  0.93809552  1
  Pr3+  Pr38  1  0.49811782  0.87821740  0.07304310  1
  Nd3+  Nd39  1  0.62847211  0.25208457  0.92666803  1
  Nd3+  Nd40  1  0.37501682  -0.00454314  0.44618799  1
  Nd3+  Nd41  1  0.37697121  0.25475764  0.92571210  1
  Nd3+  Nd42  1  0.37372607  0.50982225  0.92672537  1
  Nd3+  Nd43  1  0.87538682  0.25501013  0.41772050  1
  Nd3+  Nd44  1  0.50031184  0.13070560  0.05528974  1
  Nd3+  Nd45  1  0.37597160  -0.00086335  0.93012798  1
  Nd3+  Nd46  1  0.25446443  0.38010623  0.05760999  1
  Nd3+  Nd47  1  0.50194242  0.37931177  0.05174214  1
  Nd3+  Nd48  1  0.75105285  0.12884582  0.05844682  1
  Nd3+  Nd49  1  0.12798384  0.25463738  0.93185138  1
  Nd3+  Nd50  1  0.87463043  -0.00097261  0.43253054  1
  Nd3+  Nd51  1  0.25307513  0.13299782  0.06259927  1
  Sm3+  Sm52  1  0.50076822  0.12526756  0.56349657  1
  Sm3+  Sm53  1  0.12489801  -0.00270928  0.44993625  1
  Sm3+  Sm54  1  0.62532224  0.75100500  0.44020043  1
  Sm3+  Sm55  1  0.74982603  0.12889560  0.55092112  1
  Sm3+  Sm56  1  -0.00280686  0.37148720  0.55920450  1
  Sm3+  Sm57  1  0.00099409  0.38056072  0.06460726  1
  Sm3+  Sm58  1  0.74572593  0.62277463  0.07668213  1
  Sm3+  Sm59  1  0.37163052  0.75201913  0.44792155  1
  Sm3+  Sm60  1  0.62515731  0.00041853  0.94434711  1
  Sm3+  Sm61  1  0.01182174  0.87852424  0.07878138  1
  Sm3+  Sm62  1  0.24534589  0.62665599  0.56223508  1
  Sm3+  Sm63  1  0.74864207  0.37443297  0.54319890  1
  Bi2+  Bi64  1  -0.02143140  0.09608942  0.29255998  1
  Bi2+  Bi65  1  -0.00028075  0.20036639  0.73774342  1
  Bi2+  Bi66  1  0.09556386  0.35762694  0.28869155  1
  Bi2+  Bi67  1  -0.06359917  0.37405827  0.79379021  1
  Bi2+  Bi68  1  -0.01142783  0.62378281  0.28245914  1
  Bi2+  Bi69  1  0.00154198  0.62983050  0.79059602  1
  Bi2+  Bi70  1  0.00926280  0.88898211  0.29401602  1
  Bi2+  Bi71  1  -0.05449500  0.92005816  0.80033951  1
  Bi2+  Bi72  1  0.34766871  0.14369466  0.28821251  1
  Bi2+  Bi73  1  0.16420718  0.12758746  0.78975608  1
  Bi2+  Bi74  1  0.28575645  0.41295255  0.28443521  1
  Bi2+  Bi75  1  0.20085598  0.37043803  0.78033266  1
  Bi2+  Bi76  1  0.24723478  0.60959661  0.29490623  1
  Bi2+  Bi77  1  0.27908779  0.60487287  0.78653559  1
  Bi2+  Bi78  1  0.26923637  0.88520145  0.29730113  1
  Bi2+  Bi79  1  0.23857247  0.87698530  0.81349109  1
  Bi2+  Bi80  1  0.58975823  0.10253208  0.28506552  1
  Bi2+  Bi81  1  0.39581340  0.18454911  0.78379931  1
  Bi2+  Bi82  1  0.47608903  0.35481042  0.29081335  1
  Bi2+  Bi83  1  0.45745956  0.38849490  0.79358628  1
  Bi2+  Bi84  1  0.45236898  0.64327636  0.27973521  1
  Bi2+  Bi85  1  0.54280192  0.56069960  0.80569974  1
  Bi2+  Bi86  1  0.51296020  0.83611936  0.29609285  1
  Bi2+  Bi87  1  0.52006880  0.90886622  0.78868095  1
  Bi2+  Bi88  1  0.78587345  0.12492810  0.31893194  1
  Bi2+  Bi89  1  0.72727398  0.06010926  0.79135051  1
  Bi2+  Bi90  1  0.74925170  0.31364298  0.27821164  1
  Bi2+  Bi91  1  0.67614547  0.37921602  0.80084448  1
  Bi2+  Bi92  1  0.73375530  0.66999200  0.26738734  1
  Bi2+  Bi93  1  0.80125124  0.62623516  0.78840839  1
  Bi2+  Bi94  1  0.74042188  0.93446088  0.28950011  1
  Bi2+  Bi95  1  0.77093732  0.82647716  0.80817638  1
  Bi2+  Bi96  1  0.15170103  -0.01134151  0.23085958  1
  Bi2+  Bi97  1  0.05449005  0.01180477  0.72110614  1
  Bi2+  Bi98  1  0.13421882  0.22673913  0.20327849  1
  Bi2+  Bi99  1  0.25030981  0.21892802  0.69739318  1
  Bi2+  Bi100  1  0.13031995  0.49451557  0.20987314  1
  Bi2+  Bi101  1  0.06059196  0.47491474  0.72705333  1
  Bi2+  Bi102  1  0.12351288  0.74846437  0.21396774  1
  Bi2+  Bi103  1  0.12826060  0.73041510  0.70271064  1
  Bi2+  Bi104  1  0.49093732  -0.02964639  0.21070601  1
  Bi2+  Bi105  1  0.39357345  0.02420151  0.72569282  1
  Bi2+  Bi106  1  0.37035187  0.27392172  0.18528501  1
  Bi2+  Bi107  1  0.46632083  0.26748124  0.67995872  1
  Bi2+  Bi108  1  0.34828230  0.55023061  0.19878170  1
  Bi2+  Bi109  1  0.34314544  0.42538627  0.70040236  1
  Bi2+  Bi110  1  0.33150013  0.75270461  0.20227379  1
  Bi2+  Bi111  1  0.39946567  0.73865084  0.70683399  1
  Bi2+  Bi112  1  0.68129905  -0.00166644  0.18417106  1
  Bi2+  Bi113  1  0.67777430  -0.09339293  0.71219706  1
  Bi2+  Bi114  1  0.58613955  0.25405984  0.21208205  1
  Bi2+  Bi115  1  0.62654509  0.18329305  0.72227122  1
  Bi2+  Bi116  1  0.60990056  0.48013792  0.20865609  1
  Bi2+  Bi117  1  0.61282489  0.46971900  0.71085306  1
  Bi2+  Bi118  1  0.52915406  0.75557714  0.18971498  1
  Bi2+  Bi119  1  0.60825259  0.72238527  0.74705333  1
  Bi2+  Bi120  1  0.89677422  -0.00469926  0.20069159  1
  Bi2+  Bi121  1  0.84969745  0.02380010  0.70292178  1
  Bi2+  Bi122  1  0.88383085  0.21552298  0.21776399  1
  Bi2+  Bi123  1  0.84213818  0.28978523  0.69527677  1
  Bi2+  Bi124  1  0.86184705  0.48145265  0.21652104  1
  Bi2+  Bi125  1  0.83227858  0.51113868  0.69491297  1
  Bi2+  Bi126  1  0.85674053  0.80657445  0.21811535  1
  Bi2+  Bi127  1  0.87057718  0.75045816  0.70494359  1
  S2-  S128  1  0.04095669  0.05739558  0.16322884  1
  S2-  S129  1  -0.01425448  0.24741437  0.63269592  1
  S2-  S130  1  0.00051731  0.26643344  0.14291454  1
  S2-  S131  1  -0.01852986  0.48744796  0.63545151  1
  S2-  S132  1  -0.01005222  0.48248333  0.14905302  1
  S2-  S133  1  -0.00004284  0.70446899  0.64270987  1
  S2-  S134  1  -0.01330948  0.76122610  0.15428835  1
  S2-  S135  1  0.10149004  0.88041200  0.65474563  1
  S2-  S136  1  0.26583218  0.13617605  0.16491228  1
  S2-  S137  1  0.26352129  0.04983492  0.65780164  1
  S2-  S138  1  0.21872330  0.35455785  0.15587060  1
  S2-  S139  1  0.20740450  0.36864940  0.64443767  1
  S2-  S140  1  0.15871853  0.62464417  0.14278743  1
  S2-  S141  1  0.26293043  0.64065565  0.66227102  1
  S2-  S142  1  0.14695299  0.88157162  0.15050852  1
  S2-  S143  1  0.25901934  0.83902373  0.71877540  1
  S2-  S144  1  0.48657364  0.15480027  0.15466904  1
  S2-  S145  1  0.52065557  0.09322984  0.66152585  1
  S2-  S146  1  0.48053719  0.40478342  0.15099559  1
  S2-  S147  1  0.48959211  0.49603410  0.64312074  1
  S2-  S148  1  0.60659231  0.60945868  0.14534065  1
  S2-  S149  1  0.52970493  0.72439812  0.64909706  1
  S2-  S150  1  0.37503433  0.90697365  0.14617887  1
  S2-  S151  1  0.42248634  0.89271222  0.66069829  1
  S2-  S152  1  0.76082746  0.15230401  0.15725879  1
  S2-  S153  1  0.75686854  0.15132415  0.64949967  1
  S2-  S154  1  0.74380818  0.40451562  0.15697302  1
  S2-  S155  1  0.73235881  0.38777041  0.64317540  1
  S2-  S156  1  0.81872679  0.61537712  0.17124642  1
  S2-  S157  1  0.76276605  0.64411066  0.64960255  1
  S2-  S158  1  0.70780523  0.82428680  0.16556100  1
  S2-  S159  1  0.87157713  0.88378219  0.64067310  1
  S2-  S160  1  0.13757898  -0.02728284  0.35070703  1
  S2-  S161  1  0.08722858  -0.09847782  0.86324051  1
  S2-  S162  1  0.25176485  0.21689534  0.34956402  1
  S2-  S163  1  0.00900342  0.25742509  0.85459289  1
  S2-  S164  1  0.03594704  0.50144087  0.34550902  1
  S2-  S165  1  0.24031860  0.49319926  0.85367346  1
  S2-  S166  1  0.03139123  0.74928509  0.34878604  1
  S2-  S167  1  0.19056494  0.71264112  0.83542667  1
  S2-  S168  1  0.36497194  0.00311116  0.34459749  1
  S2-  S169  1  0.25014072  0.02969564  0.85826559  1
  S2-  S170  1  0.48112944  0.20658709  0.35010508  1
  S2-  S171  1  0.24710861  0.25766455  0.85269929  1
  S2-  S172  1  0.46275031  0.51086227  0.35205089  1
  S2-  S173  1  0.40023505  0.63716933  0.85407128  1
  S2-  S174  1  0.27588601  0.75282363  0.36143197  1
  S2-  S175  1  0.39536119  0.87102810  0.85708404  1
  S2-  S176  1  0.59402875  -0.03186101  0.35413528  1
  S2-  S177  1  0.58814442  0.02797368  0.84814424  1
  S2-  S178  1  0.62093841  0.34797287  0.34779365  1
  S2-  S179  1  0.50482155  0.24755716  0.85349166  1
  S2-  S180  1  0.67313544  0.53242218  0.29839528  1
  S2-  S181  1  0.75404721  0.50796831  0.85995359  1
  S2-  S182  1  0.63219197  0.73705348  0.34121916  1
  S2-  S183  1  0.61397714  0.78337363  0.85062180  1
  S2-  S184  1  0.86300435  -0.11258101  0.35453032  1
  S2-  S185  1  0.87895943  0.05147685  0.85279289  1
  S2-  S186  1  1.01319330  0.23594706  0.34744473  1
  S2-  S187  1  0.74844923  0.25574299  0.85086997  1
  S2-  S188  1  0.85515026  0.37669995  0.34252729  1
  S2-  S189  1  0.99778739  0.50049359  0.86015462  1
  S2-  S190  1  0.85524087  0.63609510  0.33976758  1
  S2-  S191  1  0.95798921  0.73142605  0.86831392  1
  S2-  S192  1  -0.00184569  0.12028552  0.45101759  1
  S2-  S193  1  0.00550784  0.12636083  0.95869812  1
  S2-  S194  1  0.00252405  0.37289586  0.45182175  1
  S2-  S195  1  0.00103582  0.37577013  0.96043849  1
  S2-  S196  1  0.00292473  0.62611050  0.45187407  1
  S2-  S197  1  0.00079250  0.62699914  0.97013292  1
  S2-  S198  1  0.00014624  0.87873215  0.45816615  1
  S2-  S199  1  -0.00272220  0.88097873  0.97328245  1
  S2-  S200  1  0.25026894  0.11814162  0.45877911  1
  S2-  S201  1  0.25622986  0.13398933  0.95783674  1
  S2-  S202  1  0.25190973  0.37753859  0.44223993  1
  S2-  S203  1  0.25580170  0.37948012  0.95361959  1
  S2-  S204  1  0.25284187  0.62140343  0.45643407  1
  S2-  S205  1  0.24856619  0.63130429  0.95460623  1
  S2-  S206  1  0.25106251  0.87839631  0.46099801  1
  S2-  S207  1  0.25231291  0.87521386  0.95839159  1
  S2-  S208  1  0.49969804  0.11994633  0.45952858  1
  S2-  S209  1  0.50067371  0.12467387  0.95122862  1
  S2-  S210  1  0.49674601  0.37412245  0.45579082  1
  S2-  S211  1  0.50199374  0.38573589  0.94597430  1
  S2-  S212  1  0.49916353  0.63180433  0.45515048  1
  S2-  S213  1  0.50681727  0.62718549  0.95797319  1
  S2-  S214  1  0.49907947  0.87006172  0.46201811  1
  S2-  S215  1  0.50400792  0.87863607  0.96419941  1
  S2-  S216  1  0.74715461  0.12618529  0.44599571  1
  S2-  S217  1  0.74778932  0.12306541  0.95315338  1
  S2-  S218  1  0.74249438  0.37773544  0.44257067  1
  S2-  S219  1  0.75181975  0.37545109  0.95439964  1
  S2-  S220  1  0.74150002  0.62167371  0.44208064  1
  S2-  S221  1  0.75150461  0.63219907  0.96342605  1
  S2-  S222  1  0.74791417  0.87332294  0.45628671  1
  S2-  S223  1  0.75166859  0.88078264  0.96035373  1
  S2-  S224  1  0.13040736  0.00799609  0.04768918  1
  S2-  S225  1  0.12082720  0.00534264  0.55383787  1
  S2-  S226  1  0.13126524  0.25688960  0.04173896  1
  S2-  S227  1  0.12590987  0.24797058  0.53630475  1
  S2-  S228  1  0.12826895  0.49871383  0.04357114  1
  S2-  S229  1  0.12782402  0.49716609  0.54107931  1
  S2-  S230  1  0.12704008  0.75577220  0.04410727  1
  S2-  S231  1  0.12591840  0.74208404  0.54266596  1
  S2-  S232  1  0.37735602  0.00864244  0.04042047  1
  S2-  S233  1  0.37894093  -0.00039007  0.55255244  1
  S2-  S234  1  0.37833483  0.25554980  0.03898236  1
  S2-  S235  1  0.37680832  0.24798497  0.54411718  1
  S2-  S236  1  0.37722378  0.50540105  0.04070418  1
  S2-  S237  1  0.36837621  0.50048949  0.54401260  1
  S2-  S238  1  0.38038927  0.74867488  0.04771767  1
  S2-  S239  1  0.36772803  0.75169937  0.55284157  1
  S2-  S240  1  0.62356031  0.00388815  0.05056435  1
  S2-  S241  1  0.62874261  -0.00036990  0.55599092  1
  S2-  S242  1  0.62567777  0.25318001  0.04150377  1
  S2-  S243  1  0.62337828  0.24885016  0.54321138  1
  S2-  S244  1  0.62857790  0.50082094  0.04080307  1
  S2-  S245  1  0.62542393  0.49789033  0.53927276  1
  S2-  S246  1  0.62622167  0.75404419  0.05159898  1
  S2-  S247  1  0.63193312  0.74935628  0.54475596  1
  S2-  S248  1  0.87929266  0.00401769  0.05701728  1
  S2-  S249  1  0.87296040  0.00685353  0.53993406  1
  S2-  S250  1  0.87348338  0.25346514  0.04051634  1
  S2-  S251  1  0.86963414  0.25132246  0.52889097  1
  S2-  S252  1  0.87082638  0.50415147  0.04753832  1
  S2-  S253  1  0.87357383  0.49169225  0.52849288  1
  S2-  S254  1  0.86943930  0.74874749  0.05788626  1
  S2-  S255  1  0.87573002  0.74580458  0.53416445  1
