# generated using pymatgen
data_La12Ce14Pr13Nd13Sm12(BiS2)64
_symmetry_space_group_name_H-M   'P 1'
_cell_length_a   16.17802798
_cell_length_b   16.19625926
_cell_length_c   27.24510363
_cell_angle_alpha   89.87444290
_cell_angle_beta   90.17952388
_cell_angle_gamma   90.02110122
_symmetry_Int_Tables_number   1
_chemical_formula_structural   La12Ce14Pr13Nd13Sm12(BiS2)64
_chemical_formula_sum   'La12 Ce14 Pr13 Nd13 Sm12 Bi64 S128'
_cell_volume   7138.80572530
_cell_formula_units_Z   1
loop_
 _symmetry_equiv_pos_site_id
 _symmetry_equiv_pos_as_xyz
  1  'x, y, z'
loop_
 _atom_type_symbol
 _atom_type_oxidation_number
  La3+  3.0
  Ce3+  3.0
  Pr3+  3.0
  Nd3+  3.0
  Sm3+  3.0
  Bi2+  2.0
  S2-  -2.0
loop_
 _atom_site_type_symbol
 _atom_site_label
 _atom_site_symmetry_multiplicity
 _atom_site_fract_x
 _atom_site_fract_y
 _atom_site_fract_z
 _atom_site_occupancy
  La3+  La0  1  0.63188746  0.74680838  0.44014177  1
  La3+  La1  1  0.01450882  0.61351883  0.57267992  1
  La3+  La2  1  0.49261847  0.86057085  0.58565408  1
  La3+  La3  1  0.51439864  0.35452753  0.08541922  1
  La3+  La4  1  0.38292700  0.48778448  0.94868361  1
  La3+  La5  1  0.88424840  0.74030955  0.90857500  1
  La3+  La6  1  0.61831735  0.73597038  0.91261493  1
  La3+  La7  1  0.12518718  -0.01066645  0.93496488  1
  La3+  La8  1  0.36858339  0.49310753  0.38967290  1
  La3+  La9  1  0.75825741  0.86005249  0.58858057  1
  La3+  La10  1  0.61657205  0.24244155  0.92530449  1
  La3+  La11  1  0.12985864  0.73911462  0.43046908  1
  Ce3+  Ce12  1  0.12634004  0.48787004  0.43350090  1
  Ce3+  Ce13  1  0.25652615  0.36868719  0.55119036  1
  Ce3+  Ce14  1  0.25673184  0.86565807  0.54930743  1
  Ce3+  Ce15  1  0.24931921  0.11365919  0.06336703  1
  Ce3+  Ce16  1  0.00378923  0.11487612  0.05737456  1
  Ce3+  Ce17  1  0.62720216  -0.01170238  0.94103549  1
  Ce3+  Ce18  1  0.75462066  0.36844139  0.55879442  1
  Ce3+  Ce19  1  0.50507374  0.86200800  0.05570189  1
  Ce3+  Ce20  1  0.62671017  0.49472869  0.94158946  1
  Ce3+  Ce21  1  0.87451475  -0.00914516  0.94004242  1
  Ce3+  Ce22  1  0.25087782  0.11652608  0.55792089  1
  Ce3+  Ce23  1  0.75216950  0.61829586  0.56571413  1
  Ce3+  Ce24  1  0.37918099  0.73391400  0.94177709  1
  Ce3+  Ce25  1  0.87706005  0.24283122  0.44237388  1
  Pr3+  Pr26  1  0.12799817  -0.00891884  0.43922930  1
  Pr3+  Pr27  1  0.87538089  0.48904750  0.93106869  1
  Pr3+  Pr28  1  0.38523444  -0.00386638  0.43625097  1
  Pr3+  Pr29  1  0.00429323  0.85980499  0.57279600  1
  Pr3+  Pr30  1  0.00505920  0.11926949  0.55809565  1
  Pr3+  Pr31  1  0.37828616  -0.01048790  0.93651893  1
  Pr3+  Pr32  1  0.75468622  0.11785873  0.56863642  1
  Pr3+  Pr33  1  0.75534765  0.61433858  0.05975233  1
  Pr3+  Pr34  1  0.13013530  0.72773870  0.93039346  1
  Pr3+  Pr35  1  0.51524023  0.62422237  0.07777023  1
  Pr3+  Pr36  1  0.25544401  0.61674235  0.07224801  1
  Pr3+  Pr37  1  0.50072234  0.36903268  0.55656443  1
  Pr3+  Pr38  1  0.49894127  0.12625017  0.57377547  1
  Nd3+  Nd39  1  0.62411622  0.49217930  0.44340756  1
  Nd3+  Nd40  1  0.38160297  0.23879680  0.42911397  1
  Nd3+  Nd41  1  0.00289187  0.36591738  0.06264687  1
  Nd3+  Nd42  1  0.12698480  0.24449222  0.43992804  1
  Nd3+  Nd43  1  0.50116418  0.11217536  0.06189796  1
  Nd3+  Nd44  1  0.25291608  0.86140166  0.05065994  1
  Nd3+  Nd45  1  0.39052277  0.74427204  0.42912109  1
  Nd3+  Nd46  1  0.12671710  0.24207558  0.94117343  1
  Nd3+  Nd47  1  0.75321100  0.11416320  0.05392394  1
  Nd3+  Nd48  1  0.25722400  0.61469334  0.55329913  1
  Nd3+  Nd49  1  0.75500273  0.86099299  0.04985800  1
  Nd3+  Nd50  1  0.63230613  0.23950081  0.43812882  1
  Nd3+  Nd51  1  0.62937502  -0.00900399  0.46242936  1
  Sm3+  Sm52  1  0.75253548  0.36261003  0.05463335  1
  Sm3+  Sm53  1  0.37525605  0.23868941  0.94808986  1
  Sm3+  Sm54  1  0.00264544  0.61252329  0.05576189  1
  Sm3+  Sm55  1  0.50079679  0.61864424  0.55822118  1
  Sm3+  Sm56  1  0.25429153  0.36468114  0.05984251  1
  Sm3+  Sm57  1  0.87522231  0.73966195  0.44395499  1
  Sm3+  Sm58  1  0.87614364  -0.01200390  0.44945390  1
  Sm3+  Sm59  1  0.87616069  0.24136250  0.94331957  1
  Sm3+  Sm60  1  0.12608518  0.48988772  0.94348279  1
  Sm3+  Sm61  1  0.87818207  0.49374348  0.44610789  1
  Sm3+  Sm62  1  0.00458188  0.86032719  0.05530128  1
  Sm3+  Sm63  1  0.00511775  0.37109051  0.56644551  1
  Bi2+  Bi64  1  -0.06062286  0.20870721  0.27874242  1
  Bi2+  Bi65  1  0.02245370  0.23029048  0.79497710  1
  Bi2+  Bi66  1  0.05269438  0.35674424  0.32152423  1
  Bi2+  Bi67  1  0.01300850  0.42816094  0.81336956  1
  Bi2+  Bi68  1  -0.04695088  0.63223168  0.30473048  1
  Bi2+  Bi69  1  0.02417677  0.62245356  0.79161259  1
  Bi2+  Bi70  1  -0.06586159  0.90055145  0.27600346  1
  Bi2+  Bi71  1  -0.00030515  0.91150906  0.79805126  1
  Bi2+  Bi72  1  0.25156201  0.07538008  0.29470616  1
  Bi2+  Bi73  1  0.24010150  0.18001316  0.74826491  1
  Bi2+  Bi74  1  0.22978723  0.30810369  0.28145150  1
  Bi2+  Bi75  1  0.24305062  0.36078043  0.79732272  1
  Bi2+  Bi76  1  0.21656777  0.62862163  0.28205353  1
  Bi2+  Bi77  1  0.21966354  0.65723956  0.77491196  1
  Bi2+  Bi78  1  0.22205007  0.87625160  0.28074458  1
  Bi2+  Bi79  1  0.26666639  0.84341856  0.76745754  1
  Bi2+  Bi80  1  0.49697392  0.04387274  0.28209313  1
  Bi2+  Bi81  1  0.49339304  0.14017197  0.80253363  1
  Bi2+  Bi82  1  0.51520118  0.37135861  0.28975446  1
  Bi2+  Bi83  1  0.50879533  0.43409446  0.82445901  1
  Bi2+  Bi84  1  0.50128879  0.63261902  0.29524546  1
  Bi2+  Bi85  1  0.47520139  0.61515362  0.78407612  1
  Bi2+  Bi86  1  0.41936060  0.86522825  0.30023016  1
  Bi2+  Bi87  1  0.48483678  0.89517535  0.80721780  1
  Bi2+  Bi88  1  0.68531513  0.13412307  0.30525554  1
  Bi2+  Bi89  1  0.78606368  0.18414808  0.75737136  1
  Bi2+  Bi90  1  0.78535490  0.35861825  0.27292926  1
  Bi2+  Bi91  1  0.80316063  0.40389094  0.81248012  1
  Bi2+  Bi92  1  0.75048255  0.62980371  0.29546644  1
  Bi2+  Bi93  1  0.74764686  0.58337129  0.77967324  1
  Bi2+  Bi94  1  0.72668014  0.89404983  0.31107959  1
  Bi2+  Bi95  1  0.74791759  0.93574494  0.79958394  1
  Bi2+  Bi96  1  0.08542809  -0.01616767  0.22233770  1
  Bi2+  Bi97  1  0.13928701  -0.02013109  0.72464839  1
  Bi2+  Bi98  1  0.09379225  0.23724466  0.21091748  1
  Bi2+  Bi99  1  0.09288485  0.26520408  0.68651566  1
  Bi2+  Bi100  1  0.03650026  0.49526399  0.24246244  1
  Bi2+  Bi101  1  0.13622420  0.45116306  0.71997964  1
  Bi2+  Bi102  1  0.10811958  0.74744525  0.19152021  1
  Bi2+  Bi103  1  0.13545764  0.79262120  0.68796351  1
  Bi2+  Bi104  1  0.37248679  -0.02831038  0.20707110  1
  Bi2+  Bi105  1  0.36993802  -0.00247983  0.69753144  1
  Bi2+  Bi106  1  0.38403785  0.22558230  0.20228709  1
  Bi2+  Bi107  1  0.37841973  0.30967846  0.72043893  1
  Bi2+  Bi108  1  0.33728620  0.47480103  0.19403787  1
  Bi2+  Bi109  1  0.42413127  0.47652475  0.66950667  1
  Bi2+  Bi110  1  0.37833357  0.73606971  0.19426029  1
  Bi2+  Bi111  1  0.34542888  0.65175661  0.68756897  1
  Bi2+  Bi112  1  0.65277715  -0.03107914  0.21404087  1
  Bi2+  Bi113  1  0.62255338  0.03834431  0.71458032  1
  Bi2+  Bi114  1  0.66905410  0.23776876  0.20716159  1
  Bi2+  Bi115  1  0.63562436  0.34546718  0.75940588  1
  Bi2+  Bi116  1  0.68241426  0.50003474  0.21634951  1
  Bi2+  Bi117  1  0.60159664  0.52102859  0.71282993  1
  Bi2+  Bi118  1  0.65869133  0.76951234  0.20930105  1
  Bi2+  Bi119  1  0.61905832  0.77163790  0.71203767  1
  Bi2+  Bi120  1  0.83670037  0.05348440  0.23030303  1
  Bi2+  Bi121  1  0.94135147  0.08198773  0.72718624  1
  Bi2+  Bi122  1  0.89998572  0.33003149  0.18305281  1
  Bi2+  Bi123  1  0.90248910  0.28813052  0.68332714  1
  Bi2+  Bi124  1  0.86590063  0.53750949  0.18879095  1
  Bi2+  Bi125  1  0.88156379  0.48295144  0.71456753  1
  Bi2+  Bi126  1  0.85704440  0.74292693  0.22391367  1
  Bi2+  Bi127  1  0.87245317  0.77087037  0.71117188  1
  S2-  S128  1  0.05422692  0.10512178  0.15105287  1
  S2-  S129  1  0.05232476  0.08393777  0.65327774  1
  S2-  S130  1  0.05892509  0.38824894  0.15632750  1
  S2-  S131  1  0.01366003  0.48244971  0.64350712  1
  S2-  S132  1  0.01269397  0.62603173  0.15339542  1
  S2-  S133  1  -0.01077095  0.71795426  0.65233985  1
  S2-  S134  1  0.01621559  0.86738125  0.15375313  1
  S2-  S135  1  -0.09938266  0.89206672  0.65193782  1
  S2-  S136  1  0.29495210  0.10329355  0.15766345  1
  S2-  S137  1  0.29324009  0.13192027  0.65146141  1
  S2-  S138  1  0.26772935  0.32897657  0.15537011  1
  S2-  S139  1  0.26146182  0.41130005  0.64588893  1
  S2-  S140  1  0.22611864  0.60837997  0.17275078  1
  S2-  S141  1  0.18407546  0.64131428  0.64233275  1
  S2-  S142  1  0.24520846  0.82391471  0.14691162  1
  S2-  S143  1  0.32899317  0.87054432  0.63712516  1
  S2-  S144  1  0.52149035  0.19156344  0.14849680  1
  S2-  S145  1  0.49546611  0.10959419  0.67526486  1
  S2-  S146  1  0.46739509  0.37578410  0.18555273  1
  S2-  S147  1  0.50176280  0.31069167  0.65148793  1
  S2-  S148  1  0.45037412  0.59512150  0.17206842  1
  S2-  S149  1  0.49973751  0.70900027  0.64445485  1
  S2-  S150  1  0.50828616  0.79206569  0.14515589  1
  S2-  S151  1  0.51530593  0.90193657  0.68994864  1
  S2-  S152  1  0.77282490  0.14111459  0.15135374  1
  S2-  S153  1  0.72165865  0.14730451  0.66585871  1
  S2-  S154  1  0.67085844  0.36782071  0.14088540  1
  S2-  S155  1  0.76672319  0.39003677  0.65481449  1
  S2-  S156  1  0.65970247  0.62637834  0.14381410  1
  S2-  S157  1  0.74758381  0.70448838  0.65107497  1
  S2-  S158  1  0.75676259  0.86902070  0.14997083  1
  S2-  S159  1  0.71652683  0.90374028  0.68868165  1
  S2-  S160  1  0.12236245  -0.01668329  0.33940364  1
  S2-  S161  1  0.13269336  -0.01450509  0.83464125  1
  S2-  S162  1  0.15799148  0.19950133  0.34494982  1
  S2-  S163  1  0.18430210  0.21891215  0.84835068  1
  S2-  S164  1  0.20211455  0.50484853  0.34546904  1
  S2-  S165  1  0.14884987  0.58740968  0.86382953  1
  S2-  S166  1  0.12567773  0.74072838  0.32910208  1
  S2-  S167  1  0.03505104  0.76476723  0.84811910  1
  S2-  S168  1  0.38118386  0.10737782  0.35803464  1
  S2-  S169  1  0.38008344  0.02391375  0.83697753  1
  S2-  S170  1  0.37573398  0.33432205  0.34437317  1
  S2-  S171  1  0.45435040  0.25788432  0.86194711  1
  S2-  S172  1  0.40093281  0.50166483  0.28356272  1
  S2-  S173  1  0.37314875  0.52805472  0.84968728  1
  S2-  S174  1  0.35151523  0.65882784  0.34393988  1
  S2-  S175  1  0.45114052  0.74614095  0.85318200  1
  S2-  S176  1  0.60982382  -0.00534614  0.36287476  1
  S2-  S177  1  0.59975497  0.01091020  0.84405424  1
  S2-  S178  1  0.57123081  0.24041528  0.34474866  1
  S2-  S179  1  0.65019981  0.20943480  0.82715906  1
  S2-  S180  1  0.57402011  0.50135518  0.34780595  1
  S2-  S181  1  0.62710915  0.58604038  0.85706108  1
  S2-  S182  1  0.52540124  0.76258243  0.35937760  1
  S2-  S183  1  0.63398222  0.80753574  0.81591250  1
  S2-  S184  1  0.85648037  -0.00881774  0.35174653  1
  S2-  S185  1  0.87837223  0.01819798  0.84359168  1
  S2-  S186  1  0.80121653  0.23908393  0.35479822  1
  S2-  S187  1  0.87186496  0.24797639  0.84596714  1
  S2-  S188  1  0.85458832  0.51405171  0.34916429  1
  S2-  S189  1  0.87745764  0.59778537  0.84987112  1
  S2-  S190  1  0.76214014  0.75780897  0.36867893  1
  S2-  S191  1  0.84069585  0.80798057  0.81402671  1
  S2-  S192  1  0.00151649  0.11557435  0.45003031  1
  S2-  S193  1  0.00103473  0.11872214  0.94941183  1
  S2-  S194  1  -0.00072921  0.36768682  0.45896063  1
  S2-  S195  1  0.00219977  0.36509108  0.95437014  1
  S2-  S196  1  0.00104849  0.61677328  0.45291481  1
  S2-  S197  1  0.00025775  0.61095715  0.95385380  1
  S2-  S198  1  -0.00090833  0.86386329  0.45128418  1
  S2-  S199  1  -0.00046162  0.86415860  0.95190730  1
  S2-  S200  1  0.24991726  0.11775027  0.45384519  1
  S2-  S201  1  0.25316400  0.11481876  0.95539898  1
  S2-  S202  1  0.25369474  0.36622245  0.44556094  1
  S2-  S203  1  0.25171416  0.36538034  0.95368785  1
  S2-  S204  1  0.25328192  0.61455574  0.44893518  1
  S2-  S205  1  0.25589319  0.61098200  0.96448391  1
  S2-  S206  1  0.25833676  0.86809163  0.44198847  1
  S2-  S207  1  0.25246737  0.85989489  0.94306551  1
  S2-  S208  1  0.50887050  0.11974120  0.46373590  1
  S2-  S209  1  0.50026045  0.11373358  0.95632196  1
  S2-  S210  1  0.50659835  0.36361525  0.45060203  1
  S2-  S211  1  0.50302991  0.36287916  0.96658221  1
  S2-  S212  1  0.50288679  0.61470876  0.45465571  1
  S2-  S213  1  0.50373349  0.61563889  0.96254261  1
  S2-  S214  1  0.50315638  0.87215382  0.46702504  1
  S2-  S215  1  0.50293922  0.86509839  0.95107537  1
  S2-  S216  1  0.75595764  0.11439525  0.46126317  1
  S2-  S217  1  0.75091914  0.11852041  0.94775363  1
  S2-  S218  1  0.75305863  0.37137638  0.45232117  1
  S2-  S219  1  0.74994243  0.36300970  0.95014039  1
  S2-  S220  1  0.75330651  0.61286641  0.46032737  1
  S2-  S221  1  0.75623538  0.61916346  0.95326348  1
  S2-  S222  1  0.75690025  0.87009159  0.47277559  1
  S2-  S223  1  0.75272796  0.86144165  0.94260841  1
  S2-  S224  1  0.12751210  -0.01436395  0.04368540  1
  S2-  S225  1  0.12729653  -0.01358006  0.54592664  1
  S2-  S226  1  0.12845692  0.24259549  0.04782765  1
  S2-  S227  1  0.12758743  0.24619964  0.54651378  1
  S2-  S228  1  0.13009837  0.49029824  0.04813533  1
  S2-  S229  1  0.13074103  0.48887933  0.53870844  1
  S2-  S230  1  0.12621160  0.73590442  0.04132154  1
  S2-  S231  1  0.12992759  0.74495095  0.53771666  1
  S2-  S232  1  0.37749709  -0.01308920  0.04553362  1
  S2-  S233  1  0.37925148  -0.00082071  0.54353682  1
  S2-  S234  1  0.37678926  0.23951344  0.05031848  1
  S2-  S235  1  0.37595681  0.24231421  0.54065498  1
  S2-  S236  1  0.38044632  0.48638765  0.05763535  1
  S2-  S237  1  0.38042409  0.49430181  0.54194646  1
  S2-  S238  1  0.37887054  0.73777668  0.04668565  1
  S2-  S239  1  0.37744871  0.73890211  0.53707378  1
  S2-  S240  1  0.62904152  -0.01082781  0.04896125  1
  S2-  S241  1  0.62513944  -0.00627285  0.56760505  1
  S2-  S242  1  0.63145555  0.23568995  0.03841952  1
  S2-  S243  1  0.63129489  0.24295196  0.54740625  1
  S2-  S244  1  0.62887934  0.48890256  0.04561213  1
  S2-  S245  1  0.62647855  0.49471727  0.55131345  1
  S2-  S246  1  0.63150544  0.74300822  0.03601180  1
  S2-  S247  1  0.62690431  0.74084796  0.54809134  1
  S2-  S248  1  0.88092292  -0.01219465  0.04778643  1
  S2-  S249  1  0.88118645  -0.00468073  0.55250650  1
  S2-  S250  1  0.87849693  0.24048980  0.04744581  1
  S2-  S251  1  0.88072351  0.24484062  0.54911861  1
  S2-  S252  1  0.87751600  0.48657325  0.04333849  1
  S2-  S253  1  0.87819868  0.49326034  0.54946364  1
  S2-  S254  1  0.88231344  0.73844578  0.05059454  1
  S2-  S255  1  0.88084322  0.73761449  0.54583000  1
