# generated using pymatgen
data_La12Ce14Pr13Nd13Sm12(BiS2)64
_symmetry_space_group_name_H-M   'P 1'
_cell_length_a   16.17925343
_cell_length_b   16.18596682
_cell_length_c   27.15110926
_cell_angle_alpha   89.97893173
_cell_angle_beta   90.09665331
_cell_angle_gamma   89.99357934
_symmetry_Int_Tables_number   1
_chemical_formula_structural   La12Ce14Pr13Nd13Sm12(BiS2)64
_chemical_formula_sum   'La12 Ce14 Pr13 Nd13 Sm12 Bi64 S128'
_cell_volume   7110.23657234
_cell_formula_units_Z   1
loop_
 _symmetry_equiv_pos_site_id
 _symmetry_equiv_pos_as_xyz
  1  'x, y, z'
loop_
 _atom_type_symbol
 _atom_type_oxidation_number
  La3+  3.0
  Ce3+  3.0
  Pr3+  3.0
  Nd3+  3.0
  Sm3+  3.0
  Bi2+  2.0
  S2-  -2.0
loop_
 _atom_site_type_symbol
 _atom_site_label
 _atom_site_symmetry_multiplicity
 _atom_site_fract_x
 _atom_site_fract_y
 _atom_site_fract_z
 _atom_site_occupancy
  La3+  La0  1  0.49143664  0.11475752  0.57245138  1
  La3+  La1  1  -0.00530986  0.61770585  0.57106781  1
  La3+  La2  1  0.25739199  0.86399805  0.58663133  1
  La3+  La3  1  0.11837759  0.74626238  0.43953178  1
  La3+  La4  1  0.13553196  -0.00792285  0.38638245  1
  La3+  La5  1  0.51244828  0.61516773  0.09861736  1
  La3+  La6  1  0.61934766  0.23585730  0.91566404  1
  La3+  La7  1  0.24166343  0.36796329  0.56455059  1
  La3+  La8  1  0.11704136  0.75132790  0.89423474  1
  La3+  La9  1  0.26058816  0.11195816  0.08380889  1
  La3+  La10  1  -0.01131454  0.87112042  0.57465642  1
  La3+  La11  1  -0.00055103  0.12045598  0.56740655  1
  Ce3+  Ce12  1  0.61947325  0.49162379  0.43737529  1
  Ce3+  Ce13  1  0.37601284  -0.00684360  0.94615497  1
  Ce3+  Ce14  1  0.13003089  0.50118196  0.94143209  1
  Ce3+  Ce15  1  0.61701744  0.24423937  0.44115658  1
  Ce3+  Ce16  1  0.24277896  0.11354819  0.55359339  1
  Ce3+  Ce17  1  0.74242132  0.86855490  0.55906414  1
  Ce3+  Ce18  1  0.75519052  0.86602634  0.05883631  1
  Ce3+  Ce19  1  0.50751172  0.36798487  0.06421326  1
  Ce3+  Ce20  1  0.62289233  0.73949584  0.43295768  1
  Ce3+  Ce21  1  0.61687392  -0.00349147  0.44105695  1
  Ce3+  Ce22  1  0.13179094  0.23735029  0.93947318  1
  Ce3+  Ce23  1  0.62837738  0.49294891  0.94380709  1
  Ce3+  Ce24  1  0.00748189  0.86744561  0.05634976  1
  Ce3+  Ce25  1  0.12117625  0.49623687  0.43148075  1
  Pr3+  Pr26  1  0.36428617  0.74723899  0.43199668  1
  Pr3+  Pr27  1  0.76169884  0.61138732  0.07636600  1
  Pr3+  Pr28  1  0.62875426  0.74085061  0.93880944  1
  Pr3+  Pr29  1  0.25449533  0.61909965  0.06930722  1
  Pr3+  Pr30  1  0.38058768  0.49394955  0.94491422  1
  Pr3+  Pr31  1  0.87526445  -0.00551795  0.43827100  1
  Pr3+  Pr32  1  0.86817140  0.74339283  0.44356229  1
  Pr3+  Pr33  1  0.12007871  0.24234136  0.43238809  1
  Pr3+  Pr34  1  0.86994870  0.24229664  0.44180651  1
  Pr3+  Pr35  1  0.74182941  0.36816909  0.56136782  1
  Pr3+  Pr36  1  0.74350750  0.11922590  0.56410802  1
  Pr3+  Pr37  1  0.74286164  0.62069793  0.57368577  1
  Pr3+  Pr38  1  0.36617487  0.49446696  0.43717109  1
  Nd3+  Nd39  1  0.75686507  0.11914162  0.05392680  1
  Nd3+  Nd40  1  0.75444153  0.36557945  0.05818848  1
  Nd3+  Nd41  1  0.87900923  0.49371666  0.94405543  1
  Nd3+  Nd42  1  0.50835109  0.86358420  0.05404774  1
  Nd3+  Nd43  1  0.25724041  0.85874527  0.06902067  1
  Nd3+  Nd44  1  0.37899097  0.24193829  0.94248278  1
  Nd3+  Nd45  1  0.37268205  0.74325349  0.94065863  1
  Nd3+  Nd46  1  0.50809892  0.11910335  0.06737640  1
  Nd3+  Nd47  1  0.87863451  0.24352533  0.93213393  1
  Nd3+  Nd48  1  0.49234266  0.37204037  0.55734423  1
  Nd3+  Nd49  1  0.88090242  -0.00737992  0.93894152  1
  Nd3+  Nd50  1  0.00485072  0.61955652  0.06526296  1
  Nd3+  Nd51  1  0.00840424  0.36363117  0.05312063  1
  Sm3+  Sm52  1  0.49568591  0.86466709  0.55182087  1
  Sm3+  Sm53  1  0.37654269  -0.00430116  0.43427232  1
  Sm3+  Sm54  1  0.25601625  0.36679682  0.05674305  1
  Sm3+  Sm55  1  0.13302218  -0.00123612  0.93749569  1
  Sm3+  Sm56  1  -0.00655303  0.36933868  0.55115583  1
  Sm3+  Sm57  1  0.86829482  0.49654235  0.44365100  1
  Sm3+  Sm58  1  0.62732240  -0.00447572  0.94244808  1
  Sm3+  Sm59  1  0.36935698  0.24177705  0.44490865  1
  Sm3+  Sm60  1  0.49202695  0.62026818  0.54860799  1
  Sm3+  Sm61  1  0.87070109  0.74148153  0.93798730  1
  Sm3+  Sm62  1  0.23821357  0.61793678  0.56625012  1
  Sm3+  Sm63  1  0.00725046  0.11789803  0.05845842  1
  Bi2+  Bi64  1  -0.02708489  0.13465953  0.28876749  1
  Bi2+  Bi65  1  0.01300558  0.12144681  0.79142174  1
  Bi2+  Bi66  1  0.02672149  0.36575357  0.30083905  1
  Bi2+  Bi67  1  0.02164249  0.38878040  0.76398283  1
  Bi2+  Bi68  1  0.01071278  0.55860273  0.28154100  1
  Bi2+  Bi69  1  -0.00352898  0.61735684  0.79255650  1
  Bi2+  Bi70  1  -0.05802041  0.86468345  0.28428981  1
  Bi2+  Bi71  1  -0.01079823  0.87565141  0.78347658  1
  Bi2+  Bi72  1  0.26603554  0.12218391  0.28555324  1
  Bi2+  Bi73  1  0.26483228  0.16088857  0.75724141  1
  Bi2+  Bi74  1  0.21673755  0.38560412  0.31648778  1
  Bi2+  Bi75  1  0.21790738  0.34265727  0.79632719  1
  Bi2+  Bi76  1  0.25212627  0.57680011  0.30025314  1
  Bi2+  Bi77  1  0.31473034  0.62456184  0.78981996  1
  Bi2+  Bi78  1  0.24101747  0.84174528  0.29228827  1
  Bi2+  Bi79  1  0.25363063  0.89906378  0.79197740  1
  Bi2+  Bi80  1  0.53122906  0.16536618  0.31147691  1
  Bi2+  Bi81  1  0.47149901  0.10396098  0.80057248  1
  Bi2+  Bi82  1  0.50084913  0.37774368  0.28479213  1
  Bi2+  Bi83  1  0.45329119  0.39561095  0.79761499  1
  Bi2+  Bi84  1  0.50368336  0.63739024  0.29700508  1
  Bi2+  Bi85  1  0.50423037  0.67936126  0.80361666  1
  Bi2+  Bi86  1  0.54445588  0.93753015  0.26988024  1
  Bi2+  Bi87  1  0.51149794  0.87276786  0.79253617  1
  Bi2+  Bi88  1  0.74366820  0.09556778  0.30147261  1
  Bi2+  Bi89  1  0.77133048  0.11564535  0.80559756  1
  Bi2+  Bi90  1  0.75466593  0.29065913  0.27241560  1
  Bi2+  Bi91  1  0.74762343  0.42163311  0.80648717  1
  Bi2+  Bi92  1  0.76252231  0.62820587  0.30735320  1
  Bi2+  Bi93  1  0.76397514  0.61633069  0.78970262  1
  Bi2+  Bi94  1  0.74263596  0.90393172  0.28767777  1
  Bi2+  Bi95  1  0.71336378  0.86488803  0.78471918  1
  Bi2+  Bi96  1  0.10513347  -0.00113172  0.18479728  1
  Bi2+  Bi97  1  0.09797733  0.01658400  0.70260081  1
  Bi2+  Bi98  1  0.13644248  0.29254679  0.21608110  1
  Bi2+  Bi99  1  0.12038682  0.25942582  0.70095118  1
  Bi2+  Bi100  1  0.15765544  0.55153606  0.19362184  1
  Bi2+  Bi101  1  0.17419308  0.49658205  0.72934737  1
  Bi2+  Bi102  1  0.05904403  0.71431623  0.21382761  1
  Bi2+  Bi103  1  0.13907982  0.73563062  0.68969061  1
  Bi2+  Bi104  1  0.38002035  0.00996037  0.22289660  1
  Bi2+  Bi105  1  0.41168994  0.01964202  0.70793456  1
  Bi2+  Bi106  1  0.40477500  0.25678560  0.21579561  1
  Bi2+  Bi107  1  0.37664510  0.29207161  0.70462320  1
  Bi2+  Bi108  1  0.32471710  0.45903975  0.22147004  1
  Bi2+  Bi109  1  0.43793270  0.53742439  0.71763403  1
  Bi2+  Bi110  1  0.37953897  0.79435634  0.20564815  1
  Bi2+  Bi111  1  0.40681044  0.76424948  0.71417166  1
  Bi2+  Bi112  1  0.61025596  0.09057008  0.20672168  1
  Bi2+  Bi113  1  0.60844118  -0.05114480  0.69800847  1
  Bi2+  Bi114  1  0.59294822  0.28235164  0.18242763  1
  Bi2+  Bi115  1  0.62168652  0.36653369  0.72931224  1
  Bi2+  Bi116  1  0.63406752  0.46779411  0.21583959  1
  Bi2+  Bi117  1  0.63546590  0.57283804  0.70649349  1
  Bi2+  Bi118  1  0.63642475  0.77151206  0.20802555  1
  Bi2+  Bi119  1  0.65810511  0.76218198  0.67030224  1
  Bi2+  Bi120  1  0.86540050  0.01309902  0.21893045  1
  Bi2+  Bi121  1  0.79401120  0.01094891  0.71035234  1
  Bi2+  Bi122  1  0.87169157  0.24275310  0.18505308  1
  Bi2+  Bi123  1  0.86039216  0.24784347  0.69329051  1
  Bi2+  Bi124  1  0.88374921  0.42759146  0.22257904  1
  Bi2+  Bi125  1  0.87589615  0.48987015  0.71283464  1
  Bi2+  Bi126  1  0.86385257  0.73129466  0.21195849  1
  Bi2+  Bi127  1  0.83295004  0.75503920  0.71280047  1
  S2-  S128  1  -0.02267090  0.10959976  0.15539091  1
  S2-  S129  1  -0.04423283  0.11245527  0.66590100  1
  S2-  S130  1  0.00207590  0.35466357  0.15245863  1
  S2-  S131  1  -0.00739071  0.35103671  0.64901913  1
  S2-  S132  1  -0.10172800  0.61616038  0.14506622  1
  S2-  S133  1  0.11569686  0.58607737  0.64335348  1
  S2-  S134  1  0.02123771  0.85124292  0.15449886  1
  S2-  S135  1  0.02667014  0.86616214  0.67662232  1
  S2-  S136  1  0.17910908  0.15424269  0.17364477  1
  S2-  S137  1  0.21574212  0.14792198  0.64934475  1
  S2-  S138  1  0.27244454  0.34115055  0.15413474  1
  S2-  S139  1  0.27201933  0.40698228  0.66148826  1
  S2-  S140  1  0.26512530  0.73830338  0.14595161  1
  S2-  S141  1  0.28388457  0.71193236  0.64535474  1
  S2-  S142  1  0.26207799  0.96241841  0.15024020  1
  S2-  S143  1  0.22180530  0.91664463  0.68826092  1
  S2-  S144  1  0.40547726  0.12516066  0.14886609  1
  S2-  S145  1  0.48359189  0.15606792  0.67068707  1
  S2-  S146  1  0.50769085  0.45834437  0.14840287  1
  S2-  S147  1  0.51159874  0.37635267  0.65594358  1
  S2-  S148  1  0.45184503  0.65185683  0.19751637  1
  S2-  S149  1  0.50357673  0.64321227  0.64574555  1
  S2-  S150  1  0.51527061  0.86554824  0.15367945  1
  S2-  S151  1  0.41816314  0.88288141  0.63877831  1
  S2-  S152  1  0.76180541  0.11246767  0.15318481  1
  S2-  S153  1  0.73356676  0.16290433  0.66284131  1
  S2-  S154  1  0.76016996  0.44145175  0.14868933  1
  S2-  S155  1  0.76156362  0.37977975  0.66168044  1
  S2-  S156  1  0.65682008  0.63296752  0.15850468  1
  S2-  S157  1  0.87171320  0.61750911  0.64761503  1
  S2-  S158  1  0.76011635  0.84567043  0.15586177  1
  S2-  S159  1  0.83676799  0.88877346  0.64142803  1
  S2-  S160  1  0.14606804  -0.01665346  0.27517191  1
  S2-  S161  1  0.12217996  -0.08338607  0.84889867  1
  S2-  S162  1  0.12690411  0.15815428  0.34324003  1
  S2-  S163  1  0.13121731  0.12864979  0.86418373  1
  S2-  S164  1  0.11666907  0.61362968  0.35981517  1
  S2-  S165  1  0.11508969  0.58288369  0.85641758  1
  S2-  S166  1  0.11393541  0.82688490  0.34925904  1
  S2-  S167  1  0.10578336  0.75083811  0.78315653  1
  S2-  S168  1  0.30146007  -0.01860093  0.34538641  1
  S2-  S169  1  0.34370241  0.00928698  0.84959427  1
  S2-  S170  1  0.37781899  0.21135790  0.34783243  1
  S2-  S171  1  0.46892573  0.24207885  0.85572060  1
  S2-  S172  1  0.42232613  0.50254551  0.34105278  1
  S2-  S173  1  0.32673904  0.48102367  0.84844301  1
  S2-  S174  1  0.37731003  0.74288663  0.32989221  1
  S2-  S175  1  0.28419649  0.76379772  0.85492322  1
  S2-  S176  1  0.51250742  0.01120183  0.36219455  1
  S2-  S177  1  0.62215143  0.06934654  0.85259628  1
  S2-  S178  1  0.62584390  0.30977723  0.35002972  1
  S2-  S179  1  0.69758998  0.25784917  0.82526382  1
  S2-  S180  1  0.63623614  0.54466729  0.34337814  1
  S2-  S181  1  0.59465118  0.46967354  0.84865886  1
  S2-  S182  1  0.61263298  0.75076191  0.33459504  1
  S2-  S183  1  0.73849657  0.73892688  0.86015551  1
  S2-  S184  1  0.96568038  0.00196689  0.35212842  1
  S2-  S185  1  0.89892146  -0.00149645  0.83851859  1
  S2-  S186  1  0.88922525  0.25333379  0.34179617  1
  S2-  S187  1  0.91151086  0.22769711  0.83331642  1
  S2-  S188  1  0.85885021  0.51274928  0.34548368  1
  S2-  S189  1  0.89149148  0.50791154  0.84546854  1
  S2-  S190  1  0.88260996  0.73810606  0.34269454  1
  S2-  S191  1  0.94953130  0.75473257  0.85109380  1
  S2-  S192  1  -0.00330780  0.12181532  0.45815990  1
  S2-  S193  1  0.00020783  0.11862751  0.95514087  1
  S2-  S194  1  -0.00655092  0.37181079  0.44668091  1
  S2-  S195  1  0.00684001  0.36726964  0.94535003  1
  S2-  S196  1  -0.00992850  0.61676052  0.46044888  1
  S2-  S197  1  -0.00209721  0.62135784  0.95928007  1
  S2-  S198  1  -0.01009608  0.86707676  0.46258232  1
  S2-  S199  1  0.00436886  0.86987045  0.95184410  1
  S2-  S200  1  0.24706470  0.11728560  0.44968070  1
  S2-  S201  1  0.25778990  0.11901439  0.96537157  1
  S2-  S202  1  0.24615886  0.36627800  0.45446244  1
  S2-  S203  1  0.25291576  0.36644322  0.95235645  1
  S2-  S204  1  0.24630643  0.61887997  0.45949710  1
  S2-  S205  1  0.25584268  0.61830165  0.96098260  1
  S2-  S206  1  0.24753967  0.87466341  0.45089757  1
  S2-  S207  1  0.25219462  0.87183447  0.96201813  1
  S2-  S208  1  0.49376944  0.12352085  0.46368566  1
  S2-  S209  1  0.50273840  0.11559566  0.96107823  1
  S2-  S210  1  0.49026955  0.36829849  0.45164539  1
  S2-  S211  1  0.50474564  0.36692197  0.95746860  1
  S2-  S212  1  0.49287379  0.61977189  0.44569405  1
  S2-  S213  1  0.50230415  0.61991055  0.94830468  1
  S2-  S214  1  0.49591192  0.86455860  0.44860600  1
  S2-  S215  1  0.50490974  0.86850805  0.94700640  1
  S2-  S216  1  0.74309825  0.11923935  0.45415396  1
  S2-  S217  1  0.75455034  0.11869369  0.94870173  1
  S2-  S218  1  0.74651729  0.36999307  0.45355391  1
  S2-  S219  1  0.75323641  0.36485327  0.95017863  1
  S2-  S220  1  0.74410919  0.61640356  0.46028658  1
  S2-  S221  1  0.75500036  0.61414446  0.96126964  1
  S2-  S222  1  0.74361255  0.87209218  0.44924567  1
  S2-  S223  1  0.75145321  0.87445208  0.95245752  1
  S2-  S224  1  0.12843808  -0.00481435  0.04650972  1
  S2-  S225  1  0.12260127  -0.00999520  0.56288266  1
  S2-  S226  1  0.13327529  0.24010504  0.04750727  1
  S2-  S227  1  0.11842087  0.24645198  0.54139435  1
  S2-  S228  1  0.13049512  0.49100689  0.04928956  1
  S2-  S229  1  0.11813668  0.48876333  0.53916338  1
  S2-  S230  1  0.12665977  0.74055050  0.05190528  1
  S2-  S231  1  0.12167882  0.74860590  0.55093558  1
  S2-  S232  1  0.38688596  -0.01227923  0.05017588  1
  S2-  S233  1  0.36939662  -0.00659309  0.54175810  1
  S2-  S234  1  0.38134865  0.24638778  0.04789483  1
  S2-  S235  1  0.36886804  0.24415598  0.55088676  1
  S2-  S236  1  0.37789300  0.49344377  0.05232882  1
  S2-  S237  1  0.36800265  0.49796223  0.54707444  1
  S2-  S238  1  0.39152775  0.73464074  0.04773436  1
  S2-  S239  1  0.37241407  0.74294752  0.53849428  1
  S2-  S240  1  0.63061545  -0.00565989  0.04843230  1
  S2-  S241  1  0.61750041  -0.00824273  0.54952028  1
  S2-  S242  1  0.63094227  0.24134454  0.04427909  1
  S2-  S243  1  0.61542990  0.24449220  0.55034603  1
  S2-  S244  1  0.63112989  0.49448014  0.04803207  1
  S2-  S245  1  0.61804722  0.49686546  0.54738334  1
  S2-  S246  1  0.63127979  0.73838384  0.04636945  1
  S2-  S247  1  0.61816995  0.74212850  0.54028310  1
  S2-  S248  1  0.88100293  -0.00562732  0.04669754  1
  S2-  S249  1  0.86825605  0.00086662  0.54426480  1
  S2-  S250  1  0.88149227  0.24237196  0.04063108  1
  S2-  S251  1  0.86907548  0.24510992  0.54847648  1
  S2-  S252  1  0.88448737  0.48536160  0.04752187  1
  S2-  S253  1  0.86830186  0.49014966  0.54835160  1
  S2-  S254  1  0.87937569  0.74537627  0.04430657  1
  S2-  S255  1  0.86503792  0.74367623  0.54873008  1
