# generated using pymatgen
data_La12Ce14Pr13Nd13Sm12(BiS2)64
_symmetry_space_group_name_H-M   'P 1'
_cell_length_a   16.13782504
_cell_length_b   16.10988963
_cell_length_c   27.38449809
_cell_angle_alpha   90.19689191
_cell_angle_beta   89.96525830
_cell_angle_gamma   90.18453696
_symmetry_Int_Tables_number   1
_chemical_formula_structural   La12Ce14Pr13Nd13Sm12(BiS2)64
_chemical_formula_sum   'La12 Ce14 Pr13 Nd13 Sm12 Bi64 S128'
_cell_volume   7119.30271266
_cell_formula_units_Z   1
loop_
 _symmetry_equiv_pos_site_id
 _symmetry_equiv_pos_as_xyz
  1  'x, y, z'
loop_
 _atom_type_symbol
 _atom_type_oxidation_number
  La3+  3.0
  Ce3+  3.0
  Pr3+  3.0
  Nd3+  3.0
  Sm3+  3.0
  Bi2+  2.0
  S2-  -2.0
loop_
 _atom_site_type_symbol
 _atom_site_label
 _atom_site_symmetry_multiplicity
 _atom_site_fract_x
 _atom_site_fract_y
 _atom_site_fract_z
 _atom_site_occupancy
  La3+  La0  1  0.62167009  0.24068919  0.42488848  1
  La3+  La1  1  0.36049238  0.48263552  0.38449220  1
  La3+  La2  1  0.39460362  0.00468042  0.89263391  1
  La3+  La3  1  0.00283633  0.12580054  0.08867390  1
  La3+  La4  1  0.01874847  0.37009826  0.61161384  1
  La3+  La5  1  0.87778924  0.01184758  0.92968953  1
  La3+  La6  1  0.23512454  0.87343541  0.56682404  1
  La3+  La7  1  0.74055438  0.62163964  0.57515448  1
  La3+  La8  1  0.74591328  0.36968168  0.58418101  1
  La3+  La9  1  0.12641849  0.00912744  0.93359693  1
  La3+  La10  1  0.12970984  0.50766044  0.92758449  1
  La3+  La11  1  0.11625084  0.24052969  0.41774731  1
  Ce3+  Ce12  1  -0.00236158  0.63156807  0.05853461  1
  Ce3+  Ce13  1  0.62070881  0.50298334  0.42891211  1
  Ce3+  Ce14  1  0.62034799  -0.01057544  0.43329665  1
  Ce3+  Ce15  1  0.37616411  0.51001049  0.93833455  1
  Ce3+  Ce16  1  0.87424586  0.75370837  0.93667572  1
  Ce3+  Ce17  1  0.50169168  0.37167933  0.55005974  1
  Ce3+  Ce18  1  0.86239899  0.49102983  0.44429109  1
  Ce3+  Ce19  1  0.37032522  -0.00788073  0.43780429  1
  Ce3+  Ce20  1  -0.00268112  0.38400055  0.05602623  1
  Ce3+  Ce21  1  0.50386475  0.63358417  0.06882789  1
  Ce3+  Ce22  1  0.37067432  0.73893689  0.43926750  1
  Ce3+  Ce23  1  0.37284698  0.23333982  0.43237195  1
  Ce3+  Ce24  1  0.87376546  0.25665263  0.95289178  1
  Ce3+  Ce25  1  0.75491883  0.88880506  0.05988283  1
  Pr3+  Pr26  1  0.49840286  0.38520005  0.05949238  1
  Pr3+  Pr27  1  0.24146000  0.61593750  0.55997967  1
  Pr3+  Pr28  1  0.12087753  0.74515859  0.42989941  1
  Pr3+  Pr29  1  0.49278013  0.87861873  0.56835213  1
  Pr3+  Pr30  1  0.62643898  0.75905712  0.94793548  1
  Pr3+  Pr31  1  0.86795477  0.50855116  0.90838281  1
  Pr3+  Pr32  1  0.37553932  0.25507779  0.93300406  1
  Pr3+  Pr33  1  0.49630228  0.88512333  0.06465514  1
  Pr3+  Pr34  1  0.74316486  0.12480011  0.08319413  1
  Pr3+  Pr35  1  0.62784093  0.25800383  0.94680538  1
  Pr3+  Pr36  1  0.49277045  0.62639898  0.56576243  1
  Pr3+  Pr37  1  0.49473824  0.13525790  0.06504595  1
  Pr3+  Pr38  1  0.75858836  0.63697448  0.07149652  1
  Nd3+  Nd39  1  0.74729084  0.12030549  0.55712132  1
  Nd3+  Nd40  1  0.75101830  0.38180892  0.06986904  1
  Nd3+  Nd41  1  0.24644603  0.38396131  0.05667206  1
  Nd3+  Nd42  1  0.12577130  0.75758685  0.94496181  1
  Nd3+  Nd43  1  0.61946990  0.74564478  0.44207071  1
  Nd3+  Nd44  1  0.37483108  0.75946674  0.95088873  1
  Nd3+  Nd45  1  0.24707027  0.13594279  0.05988338  1
  Nd3+  Nd46  1  0.24718462  0.88544911  0.06261796  1
  Nd3+  Nd47  1  0.86884611  0.74136382  0.43873142  1
  Nd3+  Nd48  1  -0.00274857  0.12791937  0.55700530  1
  Nd3+  Nd49  1  0.62572250  0.51127377  0.94574384  1
  Nd3+  Nd50  1  0.12015716  0.25668200  0.93967864  1
  Nd3+  Nd51  1  0.49620366  0.11936570  0.56032510  1
  Sm3+  Sm52  1  -0.00071006  0.88602108  0.05833715  1
  Sm3+  Sm53  1  0.24651482  0.63217550  0.06330822  1
  Sm3+  Sm54  1  0.12095682  -0.00882453  0.42736466  1
  Sm3+  Sm55  1  0.87139842  -0.00417688  0.43967373  1
  Sm3+  Sm56  1  0.62539973  0.00917417  0.94525399  1
  Sm3+  Sm57  1  -0.00667405  0.61320231  0.55292735  1
  Sm3+  Sm58  1  0.86947091  0.24807411  0.44493385  1
  Sm3+  Sm59  1  0.24733473  0.36855610  0.54622326  1
  Sm3+  Sm60  1  0.12012172  0.49087598  0.43797675  1
  Sm3+  Sm61  1  0.74735672  0.86816255  0.56265416  1
  Sm3+  Sm62  1  0.24015620  0.12626153  0.55044897  1
  Sm3+  Sm63  1  -0.00272616  0.87134453  0.55229811  1
  Bi2+  Bi64  1  -0.01978070  0.12457754  0.29582184  1
  Bi2+  Bi65  1  0.08226470  0.10489773  0.78698397  1
  Bi2+  Bi66  1  -0.04671569  0.41173031  0.29669115  1
  Bi2+  Bi67  1  0.00501906  0.33703929  0.81402026  1
  Bi2+  Bi68  1  0.02817032  0.66024990  0.31327565  1
  Bi2+  Bi69  1  0.04279936  0.69129554  0.69817634  1
  Bi2+  Bi70  1  -0.02878783  0.84080445  0.21631779  1
  Bi2+  Bi71  1  -0.00012781  0.87029182  0.74389770  1
  Bi2+  Bi72  1  0.23820126  0.10918803  0.23948542  1
  Bi2+  Bi73  1  0.33415049  0.11524154  0.76273145  1
  Bi2+  Bi74  1  0.23270329  0.35290946  0.28463285  1
  Bi2+  Bi75  1  0.29486873  0.38668114  0.77983932  1
  Bi2+  Bi76  1  0.20135752  0.75605182  0.29470314  1
  Bi2+  Bi77  1  0.22140564  0.65949715  0.81475227  1
  Bi2+  Bi78  1  0.28462822  0.93269338  0.31913475  1
  Bi2+  Bi79  1  0.24581877  0.86730731  0.80044620  1
  Bi2+  Bi80  1  0.44514043  0.12042297  0.26455551  1
  Bi2+  Bi81  1  0.62455564  0.06875776  0.76537952  1
  Bi2+  Bi82  1  0.49096070  0.36674122  0.28139658  1
  Bi2+  Bi83  1  0.48367061  0.33537699  0.80440623  1
  Bi2+  Bi84  1  0.48840045  0.69756578  0.29571200  1
  Bi2+  Bi85  1  0.51040324  0.53280746  0.81227517  1
  Bi2+  Bi86  1  0.47267053  0.87860658  0.34216815  1
  Bi2+  Bi87  1  0.64924633  0.87135980  0.79822581  1
  Bi2+  Bi88  1  0.73830895  0.17160052  0.29022489  1
  Bi2+  Bi89  1  0.81162827  0.07421354  0.80392955  1
  Bi2+  Bi90  1  0.73245157  0.42937155  0.27738452  1
  Bi2+  Bi91  1  0.74181470  0.33056208  0.80893870  1
  Bi2+  Bi92  1  0.76181744  0.67386227  0.30521265  1
  Bi2+  Bi93  1  0.72989125  0.62699531  0.80035214  1
  Bi2+  Bi94  1  0.67219741  0.85721232  0.32812535  1
  Bi2+  Bi95  1  0.84174519  0.87901689  0.81800141  1
  Bi2+  Bi96  1  0.12681735  -0.04901584  0.21994367  1
  Bi2+  Bi97  1  0.15249934  -0.01033368  0.70517487  1
  Bi2+  Bi98  1  0.09800151  0.27319763  0.19688763  1
  Bi2+  Bi99  1  0.15223258  0.23393832  0.70321203  1
  Bi2+  Bi100  1  0.10594353  0.51010659  0.25453350  1
  Bi2+  Bi101  1  0.14529840  0.51269493  0.74784618  1
  Bi2+  Bi102  1  0.07908531  0.68346733  0.19400863  1
  Bi2+  Bi103  1  0.23549641  0.73522064  0.69393939  1
  Bi2+  Bi104  1  0.37895932  0.01166663  0.17573147  1
  Bi2+  Bi105  1  0.44970889  -0.10344296  0.70385090  1
  Bi2+  Bi106  1  0.36295999  0.22420052  0.18071924  1
  Bi2+  Bi107  1  0.40698383  0.26467654  0.70530352  1
  Bi2+  Bi108  1  0.35041206  0.48953210  0.17815903  1
  Bi2+  Bi109  1  0.41270513  0.49259283  0.71251025  1
  Bi2+  Bi110  1  0.36293345  0.83211595  0.23141886  1
  Bi2+  Bi111  1  0.39835890  0.67082359  0.76189650  1
  Bi2+  Bi112  1  0.60811726  0.00884161  0.26501537  1
  Bi2+  Bi113  1  0.68477215  -0.06353426  0.68482091  1
  Bi2+  Bi114  1  0.61666250  0.26451411  0.19186414  1
  Bi2+  Bi115  1  0.60214182  0.23564964  0.70856979  1
  Bi2+  Bi116  1  0.60448533  0.53227564  0.21481005  1
  Bi2+  Bi117  1  0.62376620  0.47934116  0.71336188  1
  Bi2+  Bi118  1  0.61083695  0.78051775  0.22010151  1
  Bi2+  Bi119  1  0.61997335  0.74267602  0.70063459  1
  Bi2+  Bi120  1  0.80066264  -0.03306190  0.25646451  1
  Bi2+  Bi121  1  0.86761602  0.00018746  0.70115853  1
  Bi2+  Bi122  1  0.87956228  0.32175311  0.20619898  1
  Bi2+  Bi123  1  0.86728945  0.19790131  0.71257261  1
  Bi2+  Bi124  1  0.88892867  0.57372882  0.24185905  1
  Bi2+  Bi125  1  0.88815069  0.48803451  0.71514488  1
  Bi2+  Bi126  1  0.78815213  0.81542998  0.18311600  1
  Bi2+  Bi127  1  0.85665204  0.73075798  0.73234260  1
  S2-  S128  1  -0.03401573  0.17447819  0.19093852  1
  S2-  S129  1  0.01037557  0.19485492  0.64924792  1
  S2-  S130  1  0.00782923  0.40194143  0.15306310  1
  S2-  S131  1  0.04270710  0.38572702  0.72177804  1
  S2-  S132  1  -0.07626790  0.63942405  0.14638431  1
  S2-  S133  1  0.00245802  0.54715324  0.64326370  1
  S2-  S134  1  0.00342899  0.96854273  0.14476765  1
  S2-  S135  1  0.08933313  0.89065070  0.63338161  1
  S2-  S136  1  0.15594664  0.13458623  0.14537640  1
  S2-  S137  1  0.23475133  0.11407373  0.64920270  1
  S2-  S138  1  0.24078256  0.35435906  0.15496372  1
  S2-  S139  1  0.18992600  0.34548094  0.63745114  1
  S2-  S140  1  0.23307859  0.60551012  0.15940692  1
  S2-  S141  1  0.22966936  0.57976260  0.65982961  1
  S2-  S142  1  0.23230321  0.86603121  0.16170575  1
  S2-  S143  1  0.30386271  0.89584236  0.66098522  1
  S2-  S144  1  0.58608538  0.12265734  0.14983977  1
  S2-  S145  1  0.50292411  0.01496213  0.64022514  1
  S2-  S146  1  0.47604728  0.35774071  0.15803281  1
  S2-  S147  1  0.58917834  0.36693203  0.63753398  1
  S2-  S148  1  0.46810508  0.60389851  0.16306778  1
  S2-  S149  1  0.59776845  0.60199654  0.64699211  1
  S2-  S150  1  0.50236032  0.87685560  0.16514603  1
  S2-  S151  1  0.47854070  0.75854075  0.64305161  1
  S2-  S152  1  0.76511206  0.20867083  0.17240428  1
  S2-  S153  1  0.73045731  0.18260900  0.65039355  1
  S2-  S154  1  0.71017104  0.41826785  0.16543931  1
  S2-  S155  1  0.86433719  0.34686793  0.66229654  1
  S2-  S156  1  0.68189187  0.64107483  0.16223753  1
  S2-  S157  1  0.76544940  0.51133517  0.65500764  1
  S2-  S158  1  0.76034668  0.97579453  0.14420687  1
  S2-  S159  1  0.76703549  0.76279135  0.64241254  1
  S2-  S160  1  0.10876497  0.09922947  0.35053872  1
  S2-  S161  1  0.23111726  0.00289648  0.85217941  1
  S2-  S162  1  0.08247447  0.29764489  0.31955063  1
  S2-  S163  1  0.14717969  0.24093289  0.84082912  1
  S2-  S164  1  0.18846307  0.49023817  0.34652222  1
  S2-  S165  1  0.05657338  0.49949263  0.83663088  1
  S2-  S166  1  0.12200689  0.86751799  0.35457040  1
  S2-  S167  1  0.11024450  0.77443025  0.84662725  1
  S2-  S168  1  0.37359453  0.09155592  0.35710177  1
  S2-  S169  1  0.39153692  -0.04347152  0.78899859  1
  S2-  S170  1  0.36498097  0.31252256  0.34408182  1
  S2-  S171  1  0.39014566  0.16416315  0.84726788  1
  S2-  S172  1  0.35684854  0.47842424  0.27348138  1
  S2-  S173  1  0.27704304  0.50253944  0.85878842  1
  S2-  S174  1  0.36094510  0.65454630  0.35350772  1
  S2-  S175  1  0.36686341  0.76147330  0.85183319  1
  S2-  S176  1  0.62846702  0.09627261  0.35666805  1
  S2-  S177  1  0.56210293  0.00100254  0.85511948  1
  S2-  S178  1  0.63918126  0.29835383  0.32592512  1
  S2-  S179  1  0.61730890  0.24445725  0.84721991  1
  S2-  S180  1  0.52629729  0.47594817  0.34646721  1
  S2-  S181  1  0.70347538  0.48006850  0.85952055  1
  S2-  S182  1  0.61982074  0.65001878  0.35884439  1
  S2-  S183  1  0.62013532  0.72033397  0.84990669  1
  S2-  S184  1  0.89915406  0.00291325  0.34187172  1
  S2-  S185  1  1.00492939  0.02419606  0.85699310  1
  S2-  S186  1  0.86313309  0.22319935  0.34522541  1
  S2-  S187  1  0.87167164  0.23991833  0.85459433  1
  S2-  S188  1  0.76887833  0.50019017  0.36213426  1
  S2-  S189  1  0.87375463  0.44067202  0.81207527  1
  S2-  S190  1  0.89376109  0.76250951  0.34053324  1
  S2-  S191  1  0.87037194  0.65846851  0.85480360  1
  S2-  S192  1  -0.01028742  0.11943796  0.45230999  1
  S2-  S193  1  -0.00092274  0.13601000  0.96209576  1
  S2-  S194  1  -0.00741439  0.37079524  0.43877952  1
  S2-  S195  1  -0.00522575  0.38688953  0.94930611  1
  S2-  S196  1  -0.00480315  0.61516335  0.44846148  1
  S2-  S197  1  0.00050642  0.62954563  0.95308450  1
  S2-  S198  1  -0.00773469  0.87011876  0.45073371  1
  S2-  S199  1  -0.00153822  0.87949037  0.95433674  1
  S2-  S200  1  0.24147072  0.11734665  0.44910753  1
  S2-  S201  1  0.24853374  0.13818736  0.95525742  1
  S2-  S202  1  0.24533787  0.36629253  0.44443156  1
  S2-  S203  1  0.25044053  0.37824757  0.95250327  1
  S2-  S204  1  0.23857593  0.61700204  0.45371256  1
  S2-  S205  1  0.25081742  0.63481223  0.95923317  1
  S2-  S206  1  0.24498107  0.86777001  0.45666032  1
  S2-  S207  1  0.25206101  0.88072663  0.95742383  1
  S2-  S208  1  0.49825758  0.11322870  0.45693800  1
  S2-  S209  1  0.50087015  0.13118805  0.95797872  1
  S2-  S210  1  0.49281620  0.36353564  0.44811124  1
  S2-  S211  1  0.50062871  0.38457777  0.95252291  1
  S2-  S212  1  0.49525367  0.62259470  0.46009135  1
  S2-  S213  1  0.50010170  0.63362001  0.96081626  1
  S2-  S214  1  0.49369914  0.86933550  0.46062982  1
  S2-  S215  1  0.49847196  0.88498338  0.95668448  1
  S2-  S216  1  0.75125336  0.11721250  0.45290845  1
  S2-  S217  1  0.74788814  0.13086429  0.95872423  1
  S2-  S218  1  0.74258015  0.36325189  0.45423739  1
  S2-  S219  1  0.75342943  0.38466535  0.96287969  1
  S2-  S220  1  0.74704226  0.62539234  0.46464482  1
  S2-  S221  1  0.75094920  0.63188577  0.96282879  1
  S2-  S222  1  0.75123576  0.86983329  0.45729012  1
  S2-  S223  1  0.74977167  0.88546818  0.95215189  1
  S2-  S224  1  0.12571524  0.00682434  0.04244555  1
  S2-  S225  1  0.11693845  0.00209491  0.53322286  1
  S2-  S226  1  0.12057370  0.26014100  0.04587012  1
  S2-  S227  1  0.11900672  0.24729659  0.53217832  1
  S2-  S228  1  0.12477699  0.50918781  0.04277080  1
  S2-  S229  1  0.11756116  0.48725723  0.54128769  1
  S2-  S230  1  0.12294806  0.75846824  0.05159289  1
  S2-  S231  1  0.11428834  0.74036499  0.53951703  1
  S2-  S232  1  0.37015151  0.00969246  0.05284394  1
  S2-  S233  1  0.36262839  0.00079844  0.54353656  1
  S2-  S234  1  0.37273218  0.26055198  0.04127194  1
  S2-  S235  1  0.37133525  0.24290540  0.54387979  1
  S2-  S236  1  0.37186522  0.51059815  0.04566766  1
  S2-  S237  1  0.37012290  0.49113116  0.55732485  1
  S2-  S238  1  0.37140291  0.75609074  0.05785856  1
  S2-  S239  1  0.36091673  0.74615308  0.54534793  1
  S2-  S240  1  0.62108398  0.00638960  0.04683952  1
  S2-  S241  1  0.62806514  -0.00706660  0.54072602  1
  S2-  S242  1  0.62517136  0.25924930  0.05220790  1
  S2-  S243  1  0.62121610  0.23901655  0.53813748  1
  S2-  S244  1  0.62730986  0.50861281  0.05138527  1
  S2-  S245  1  0.62168622  0.49541699  0.53796940  1
  S2-  S246  1  0.62620026  0.76265945  0.05414863  1
  S2-  S247  1  0.61989548  0.75490908  0.54633780  1
  S2-  S248  1  0.87845880  0.01145001  0.04137859  1
  S2-  S249  1  0.87380265  -0.00559814  0.54781042  1
  S2-  S250  1  0.87374925  0.25353198  0.05871838  1
  S2-  S251  1  0.86987483  0.24680678  0.54655664  1
  S2-  S252  1  0.87294438  0.50579810  0.05305788  1
  S2-  S253  1  0.87127605  0.49090513  0.54640040  1
  S2-  S254  1  0.87751486  0.76257364  0.04376636  1
  S2-  S255  1  0.87974778  0.74541451  0.54502031  1
