# generated using pymatgen
data_La12Ce14Pr13Nd13Sm12(BiS2)64
_symmetry_space_group_name_H-M   'P 1'
_cell_length_a   16.14214909
_cell_length_b   16.11337642
_cell_length_c   27.19282905
_cell_angle_alpha   90.09747022
_cell_angle_beta   89.96562314
_cell_angle_gamma   89.97353598
_symmetry_Int_Tables_number   1
_chemical_formula_structural   La12Ce14Pr13Nd13Sm12(BiS2)64
_chemical_formula_sum   'La12 Ce14 Pr13 Nd13 Sm12 Bi64 S128'
_cell_volume   7072.96560430
_cell_formula_units_Z   1
loop_
 _symmetry_equiv_pos_site_id
 _symmetry_equiv_pos_as_xyz
  1  'x, y, z'
loop_
 _atom_type_symbol
 _atom_type_oxidation_number
  La3+  3.0
  Ce3+  3.0
  Pr3+  3.0
  Nd3+  3.0
  Sm3+  3.0
  Bi2+  2.0
  S2-  -2.0
loop_
 _atom_site_type_symbol
 _atom_site_label
 _atom_site_symmetry_multiplicity
 _atom_site_fract_x
 _atom_site_fract_y
 _atom_site_fract_z
 _atom_site_occupancy
  La3+  La0  1  0.24227505  0.85751003  0.57545272  1
  La3+  La1  1  0.13494769  0.73731473  0.39612337  1
  La3+  La2  1  0.13654725  0.23106836  0.91904483  1
  La3+  La3  1  0.25173586  0.61140910  0.07185410  1
  La3+  La4  1  0.01336519  0.87036550  0.08166680  1
  La3+  La5  1  0.74603775  0.86603555  0.09062069  1
  La3+  La6  1  0.62797297  0.73467567  0.43483439  1
  La3+  La7  1  0.50794319  0.36197447  0.07336934  1
  La3+  La8  1  0.49489304  0.86905546  0.59305846  1
  La3+  La9  1  0.87535983  0.73848276  0.41175445  1
  La3+  La10  1  0.51072397  0.61556426  0.58420239  1
  La3+  La11  1  0.62184644  0.47930812  0.91230196  1
  Ce3+  Ce12  1  0.25551903  0.85865478  0.06779335  1
  Ce3+  Ce13  1  0.25257250  0.36202935  0.06249509  1
  Ce3+  Ce14  1  0.38173504  0.74049098  0.93747318  1
  Ce3+  Ce15  1  0.63357565  -0.00943133  0.94657233  1
  Ce3+  Ce16  1  0.00368623  0.61761845  0.05569262  1
  Ce3+  Ce17  1  0.12835916  0.49320065  0.43742989  1
  Ce3+  Ce18  1  0.00720413  0.11178591  0.56279092  1
  Ce3+  Ce19  1  0.00212528  0.36316105  0.55550860  1
  Ce3+  Ce20  1  0.63377315  0.23764655  0.94170703  1
  Ce3+  Ce21  1  0.87719274  0.49123503  0.43738057  1
  Ce3+  Ce22  1  0.37454559  -0.01538792  0.43792904  1
  Ce3+  Ce23  1  0.37698177  0.73637598  0.45189251  1
  Ce3+  Ce24  1  0.87911505  -0.01418860  0.95158076  1
  Ce3+  Ce25  1  0.87386098  0.74367960  0.94760114  1
  Pr3+  Pr26  1  0.13609833  -0.00989888  0.42759988  1
  Pr3+  Pr27  1  0.75013429  0.11274310  0.55716848  1
  Pr3+  Pr28  1  0.50362422  0.11525354  0.07256156  1
  Pr3+  Pr29  1  0.75110754  0.86477366  0.55882313  1
  Pr3+  Pr30  1  0.75566693  0.36616475  0.06480690  1
  Pr3+  Pr31  1  0.63853480  0.75138872  0.90742529  1
  Pr3+  Pr32  1  0.75650573  0.11276759  0.07461837  1
  Pr3+  Pr33  1  0.62783413  -0.01260146  0.43838852  1
  Pr3+  Pr34  1  0.12877124  0.24081652  0.44376876  1
  Pr3+  Pr35  1  0.75245004  0.36203060  0.56185624  1
  Pr3+  Pr36  1  0.88787312  -0.00206964  0.41364559  1
  Pr3+  Pr37  1  0.38362338  0.23834873  0.93637789  1
  Pr3+  Pr38  1  0.00452620  0.86345529  0.54493616  1
  Nd3+  Nd39  1  0.87777988  0.49126696  0.93906305  1
  Nd3+  Nd40  1  0.00013143  0.61726005  0.55391408  1
  Nd3+  Nd41  1  0.25341699  0.11780210  0.06353806  1
  Nd3+  Nd42  1  0.12869532  -0.01840586  0.93270565  1
  Nd3+  Nd43  1  0.50556298  0.36671667  0.57230664  1
  Nd3+  Nd44  1  0.62478183  0.24399363  0.43421256  1
  Nd3+  Nd45  1  0.75882964  0.61781305  0.56762606  1
  Nd3+  Nd46  1  0.50891324  0.60925022  0.05229207  1
  Nd3+  Nd47  1  0.75179790  0.61510036  0.05544036  1
  Nd3+  Nd48  1  0.25244915  0.36879602  0.56757477  1
  Nd3+  Nd49  1  0.37185510  0.49270576  0.93441340  1
  Nd3+  Nd50  1  0.62512157  0.48883381  0.43963296  1
  Nd3+  Nd51  1  0.00969209  0.11592352  0.06160446  1
  Sm3+  Sm52  1  0.38301418  -0.01363343  0.95048550  1
  Sm3+  Sm53  1  0.88197879  0.23775721  0.94761847  1
  Sm3+  Sm54  1  0.37858730  0.24386075  0.44563607  1
  Sm3+  Sm55  1  0.12832336  0.74284775  0.93903381  1
  Sm3+  Sm56  1  0.25597256  0.11333593  0.55856593  1
  Sm3+  Sm57  1  0.25063310  0.61155353  0.56507743  1
  Sm3+  Sm58  1  0.87843759  0.23881185  0.43890489  1
  Sm3+  Sm59  1  0.37932846  0.49309396  0.44651782  1
  Sm3+  Sm60  1  0.50028480  0.11415010  0.55215743  1
  Sm3+  Sm61  1  0.13035664  0.48911112  0.93611564  1
  Sm3+  Sm62  1  0.50548336  0.85477556  0.06166350  1
  Sm3+  Sm63  1  0.00720969  0.36420745  0.05077158  1
  Bi2+  Bi64  1  0.00361443  0.16581396  0.29318266  1
  Bi2+  Bi65  1  -0.00607042  0.14471284  0.80302340  1
  Bi2+  Bi66  1  -0.07735018  0.33880247  0.31858721  1
  Bi2+  Bi67  1  0.02195872  0.47205524  0.81383411  1
  Bi2+  Bi68  1  0.00093558  0.50941289  0.30086486  1
  Bi2+  Bi69  1  0.01581396  0.67574175  0.80729501  1
  Bi2+  Bi70  1  0.00587857  0.89514242  0.28389851  1
  Bi2+  Bi71  1  0.00574821  0.87571006  0.77724187  1
  Bi2+  Bi72  1  0.22792104  0.11929842  0.28686457  1
  Bi2+  Bi73  1  0.27265560  0.12672897  0.79004612  1
  Bi2+  Bi74  1  0.19115407  0.37497961  0.27642457  1
  Bi2+  Bi75  1  0.33089897  0.39109332  0.79254097  1
  Bi2+  Bi76  1  0.26255193  0.63461874  0.28072198  1
  Bi2+  Bi77  1  0.19682362  0.60128971  0.78002179  1
  Bi2+  Bi78  1  0.30560711  0.91516411  0.26887945  1
  Bi2+  Bi79  1  0.20331721  0.86946493  0.77003007  1
  Bi2+  Bi80  1  0.49616893  0.07052813  0.29341866  1
  Bi2+  Bi81  1  0.49577492  0.14614108  0.80527676  1
  Bi2+  Bi82  1  0.48822235  0.34805309  0.29551518  1
  Bi2+  Bi83  1  0.47125479  0.29307366  0.72929618  1
  Bi2+  Bi84  1  0.45832952  0.61069461  0.30261499  1
  Bi2+  Bi85  1  0.47702730  0.61129527  0.79836531  1
  Bi2+  Bi86  1  0.50323535  0.87537452  0.28766050  1
  Bi2+  Bi87  1  0.46922824  0.87573850  0.80734443  1
  Bi2+  Bi88  1  0.73371151  0.19760139  0.28736983  1
  Bi2+  Bi89  1  0.69453834  0.11547468  0.82549746  1
  Bi2+  Bi90  1  0.74045449  0.39597285  0.28946390  1
  Bi2+  Bi91  1  0.74019326  0.29706545  0.78291804  1
  Bi2+  Bi92  1  0.72743971  0.61821356  0.29333389  1
  Bi2+  Bi93  1  0.80030754  0.61088663  0.79778306  1
  Bi2+  Bi94  1  0.71756918  0.87946543  0.27696286  1
  Bi2+  Bi95  1  0.77626528  0.93404232  0.80658833  1
  Bi2+  Bi96  1  0.15893632  0.07162071  0.18570993  1
  Bi2+  Bi97  1  0.11261889  0.00071674  0.70416819  1
  Bi2+  Bi98  1  0.09788513  0.25690894  0.20094864  1
  Bi2+  Bi99  1  0.10567465  0.26936832  0.73221047  1
  Bi2+  Bi100  1  0.10698968  0.50646522  0.20499673  1
  Bi2+  Bi101  1  0.10924025  0.47608169  0.70458278  1
  Bi2+  Bi102  1  0.13961784  0.76551393  0.20338808  1
  Bi2+  Bi103  1  0.09703088  0.72079123  0.69373676  1
  Bi2+  Bi104  1  0.38377976  0.04634935  0.18953442  1
  Bi2+  Bi105  1  0.39752031  0.02812632  0.72422146  1
  Bi2+  Bi106  1  0.36959784  0.22802017  0.23686172  1
  Bi2+  Bi107  1  0.28768894  0.26340124  0.69178920  1
  Bi2+  Bi108  1  0.33853159  0.47940101  0.22583241  1
  Bi2+  Bi109  1  0.36143054  0.53412446  0.71607105  1
  Bi2+  Bi110  1  0.39515479  0.76369356  0.21788868  1
  Bi2+  Bi111  1  0.35380137  0.77332832  0.71789765  1
  Bi2+  Bi112  1  0.58188039  0.01838555  0.19328706  1
  Bi2+  Bi113  1  0.60877188  0.06040848  0.72088817  1
  Bi2+  Bi114  1  0.62422216  0.20935710  0.19563023  1
  Bi2+  Bi115  1  0.64577057  0.27643010  0.68138441  1
  Bi2+  Bi116  1  0.58978925  0.46392168  0.21839706  1
  Bi2+  Bi117  1  0.63404528  0.49607782  0.71311923  1
  Bi2+  Bi118  1  0.61792118  0.71001445  0.19647518  1
  Bi2+  Bi119  1  0.64516669  0.76971405  0.70796175  1
  Bi2+  Bi120  1  0.84868994  0.14193056  0.19908614  1
  Bi2+  Bi121  1  0.85284290  0.06213285  0.73084100  1
  Bi2+  Bi122  1  0.85860562  0.33532282  0.19528281  1
  Bi2+  Bi123  1  0.90343298  0.25831165  0.72379067  1
  Bi2+  Bi124  1  0.84400335  0.53261805  0.20709031  1
  Bi2+  Bi125  1  0.92107803  0.52529683  0.71922864  1
  Bi2+  Bi126  1  0.90210986  0.71468452  0.23414794  1
  Bi2+  Bi127  1  0.89959817  0.74859098  0.71192323  1
  S2-  S128  1  -0.00223426  0.06177155  0.15673144  1
  S2-  S129  1  -0.01614624  0.08166933  0.65885104  1
  S2-  S130  1  0.01099180  0.38328549  0.14887906  1
  S2-  S131  1  0.00120621  0.33707843  0.65216122  1
  S2-  S132  1  0.06705937  0.63682092  0.14674378  1
  S2-  S133  1  -0.10415322  0.61863612  0.63633084  1
  S2-  S134  1  -0.02343003  0.83416499  0.18242348  1
  S2-  S135  1  0.08752203  0.86937665  0.63639054  1
  S2-  S136  1  0.23037194  0.24341594  0.13478121  1
  S2-  S137  1  0.21974858  0.10855031  0.65450495  1
  S2-  S138  1  0.24446254  0.47651816  0.14003345  1
  S2-  S139  1  0.24626910  0.49002496  0.64115344  1
  S2-  S140  1  0.26826805  0.73404777  0.14486729  1
  S2-  S141  1  0.24387648  0.71680245  0.64568269  1
  S2-  S142  1  0.16056811  0.90442774  0.14662307  1
  S2-  S143  1  0.35245862  0.90369083  0.65416848  1
  S2-  S144  1  0.47473878  0.23302838  0.14857495  1
  S2-  S145  1  0.48570488  0.10523782  0.64971739  1
  S2-  S146  1  0.46735989  0.46643418  0.15627856  1
  S2-  S147  1  0.49401451  0.47603227  0.65212228  1
  S2-  S148  1  0.48672235  0.67504195  0.14548066  1
  S2-  S149  1  0.49148668  0.73304024  0.66368236  1
  S2-  S150  1  0.58832427  0.86104688  0.14806406  1
  S2-  S151  1  0.60510297  0.91072242  0.66974339  1
  S2-  S152  1  0.75856358  0.00921301  0.15702973  1
  S2-  S153  1  0.74090654  0.12681186  0.65726984  1
  S2-  S154  1  0.65238412  0.35988308  0.14636376  1
  S2-  S155  1  0.74957924  0.41496595  0.65922211  1
  S2-  S156  1  0.70838263  0.57997529  0.15106708  1
  S2-  S157  1  0.66133441  0.62107446  0.65249773  1
  S2-  S158  1  0.77355775  0.79173187  0.18782243  1
  S2-  S159  1  0.78442275  0.82315574  0.65605293  1
  S2-  S160  1  0.03350799  0.01962696  0.34648603  1
  S2-  S161  1  0.13495576  0.08721014  0.85159953  1
  S2-  S162  1  0.14932105  0.25271800  0.34357273  1
  S2-  S163  1  0.06889474  0.30193860  0.83109200  1
  S2-  S164  1  0.14278582  0.57707922  0.35143574  1
  S2-  S165  1  0.23993744  0.49716214  0.85899421  1
  S2-  S166  1  0.16270204  0.82868424  0.30712272  1
  S2-  S167  1  0.14109417  0.85151423  0.86219470  1
  S2-  S168  1  0.27450411  0.00363575  0.35762586  1
  S2-  S169  1  0.36723806  -0.02787765  0.85200111  1
  S2-  S170  1  0.39781477  0.23577200  0.34798636  1
  S2-  S171  1  0.28278104  0.25087813  0.85389520  1
  S2-  S172  1  0.39546040  0.47366371  0.34791450  1
  S2-  S173  1  0.46280575  0.46246766  0.85116993  1
  S2-  S174  1  0.34059491  0.71694084  0.35595876  1
  S2-  S175  1  0.37176030  0.73286045  0.83865631  1
  S2-  S176  1  0.63901485  0.00135736  0.33709655  1
  S2-  S177  1  0.62346798  -0.08617591  0.85748184  1
  S2-  S178  1  0.61501429  0.36649476  0.36407890  1
  S2-  S179  1  0.63454102  0.32623289  0.85760626  1
  S2-  S180  1  0.59792165  0.60119357  0.36127812  1
  S2-  S181  1  0.65441349  0.54328881  0.81602018  1
  S2-  S182  1  0.72810455  0.76096075  0.34917475  1
  S2-  S183  1  0.58460379  0.73387111  0.80704859  1
  S2-  S184  1  0.85052179  -0.07672531  0.32276630  1
  S2-  S185  1  0.92100587  -0.03689917  0.85682785  1
  S2-  S186  1  0.86262753  0.14604466  0.35480911  1
  S2-  S187  1  0.84847924  0.20776410  0.85298035  1
  S2-  S188  1  0.85911302  0.57942703  0.35386297  1
  S2-  S189  1  0.85227266  0.46130761  0.84231464  1
  S2-  S190  1  0.98535475  0.74642994  0.33059388  1
  S2-  S191  1  0.79710512  0.75405574  0.85907696  1
  S2-  S192  1  0.00420563  0.11806445  0.45600626  1
  S2-  S193  1  0.00301912  0.11344947  0.95463558  1
  S2-  S194  1  0.00273130  0.36510249  0.44944945  1
  S2-  S195  1  0.00415934  0.36551420  0.94738945  1
  S2-  S196  1  0.00420502  0.61676940  0.44885346  1
  S2-  S197  1  0.00527169  0.61721587  0.94930101  1
  S2-  S198  1  0.00857880  0.86365740  0.43944143  1
  S2-  S199  1  0.00270022  0.86036562  0.96423147  1
  S2-  S200  1  0.25714879  0.12130828  0.45498728  1
  S2-  S201  1  0.26145721  0.10732956  0.95738091  1
  S2-  S202  1  0.25559458  0.36704772  0.45644702  1
  S2-  S203  1  0.25272057  0.36486329  0.95645048  1
  S2-  S204  1  0.25379635  0.61073531  0.45974978  1
  S2-  S205  1  0.24995291  0.62146026  0.95735374  1
  S2-  S206  1  0.25038399  0.85787532  0.45312863  1
  S2-  S207  1  0.25965864  0.86314601  0.96057702  1
  S2-  S208  1  0.50069145  0.11666636  0.44733707  1
  S2-  S209  1  0.50541244  0.11153336  0.95874690  1
  S2-  S210  1  0.49810780  0.36544882  0.46445577  1
  S2-  S211  1  0.50544603  0.36012102  0.95938802  1
  S2-  S212  1  0.50029230  0.61169841  0.46715720  1
  S2-  S213  1  0.51047819  0.61905320  0.94424965  1
  S2-  S214  1  0.50140090  0.86328044  0.44225682  1
  S2-  S215  1  0.50766328  0.86196318  0.95686538  1
  S2-  S216  1  0.74771672  0.11827893  0.45151626  1
  S2-  S217  1  0.75956355  0.11401545  0.96573992  1
  S2-  S218  1  0.75609476  0.36128073  0.45413123  1
  S2-  S219  1  0.76078045  0.36257935  0.95766158  1
  S2-  S220  1  0.75197930  0.61147781  0.46017701  1
  S2-  S221  1  0.74917460  0.61182041  0.94862437  1
  S2-  S222  1  0.75920810  0.87308317  0.45102325  1
  S2-  S223  1  0.75220967  0.86553442  0.96494333  1
  S2-  S224  1  0.13216027  -0.00721452  0.04003372  1
  S2-  S225  1  0.13261255  -0.00618604  0.53717740  1
  S2-  S226  1  0.12535322  0.23959300  0.03305567  1
  S2-  S227  1  0.13240807  0.24008001  0.55135754  1
  S2-  S228  1  0.12405093  0.48959165  0.03908240  1
  S2-  S229  1  0.12251390  0.48804876  0.54297936  1
  S2-  S230  1  0.12740075  0.74136297  0.04260503  1
  S2-  S231  1  0.12502995  0.73262800  0.53972303  1
  S2-  S232  1  0.38128578  -0.01420812  0.05549274  1
  S2-  S233  1  0.37728826  -0.00975882  0.54325138  1
  S2-  S234  1  0.37905380  0.23697455  0.04166334  1
  S2-  S235  1  0.37796309  0.24283559  0.55182595  1
  S2-  S236  1  0.38050340  0.49018775  0.04002230  1
  S2-  S237  1  0.37976396  0.48813830  0.54885864  1
  S2-  S238  1  0.38289569  0.73642835  0.04158943  1
  S2-  S239  1  0.37819321  0.73687388  0.55405329  1
  S2-  S240  1  0.62553365  -0.00985274  0.05049542  1
  S2-  S241  1  0.62081368  -0.00998444  0.54592836  1
  S2-  S242  1  0.63310876  0.23317520  0.04736114  1
  S2-  S243  1  0.62298063  0.23918272  0.54156882  1
  S2-  S244  1  0.63174336  0.48779912  0.03866238  1
  S2-  S245  1  0.63045083  0.48693102  0.54693583  1
  S2-  S246  1  0.63150917  0.73864208  0.04594690  1
  S2-  S247  1  0.62415023  0.74652377  0.54590685  1
  S2-  S248  1  0.88273830  -0.01293892  0.05586190  1
  S2-  S249  1  0.87855451  -0.00928648  0.54799587  1
  S2-  S250  1  0.88301704  0.23960270  0.05317267  1
  S2-  S251  1  0.87803636  0.23564419  0.54590518  1
  S2-  S252  1  0.88130660  0.48984831  0.04713565  1
  S2-  S253  1  0.87765819  0.48480784  0.54318720  1
  S2-  S254  1  0.87751292  0.74250250  0.05681546  1
  S2-  S255  1  0.87757338  0.74321421  0.53443620  1
