# generated using pymatgen
data_La12Ce14Pr13Nd13Sm12(BiS2)64
_symmetry_space_group_name_H-M   'P 1'
_cell_length_a   16.11585972
_cell_length_b   16.15379581
_cell_length_c   27.33835813
_cell_angle_alpha   90.25078868
_cell_angle_beta   90.16923548
_cell_angle_gamma   90.13261264
_symmetry_Int_Tables_number   1
_chemical_formula_structural   La12Ce14Pr13Nd13Sm12(BiS2)64
_chemical_formula_sum   'La12 Ce14 Pr13 Nd13 Sm12 Bi64 S128'
_cell_volume   7116.93934661
_cell_formula_units_Z   1
loop_
 _symmetry_equiv_pos_site_id
 _symmetry_equiv_pos_as_xyz
  1  'x, y, z'
loop_
 _atom_type_symbol
 _atom_type_oxidation_number
  La3+  3.0
  Ce3+  3.0
  Pr3+  3.0
  Nd3+  3.0
  Sm3+  3.0
  Bi2+  2.0
  S2-  -2.0
loop_
 _atom_site_type_symbol
 _atom_site_label
 _atom_site_symmetry_multiplicity
 _atom_site_fract_x
 _atom_site_fract_y
 _atom_site_fract_z
 _atom_site_occupancy
  La3+  La0  1  0.61635169  0.48629529  0.90956557  1
  La3+  La1  1  0.24809697  0.38214257  0.56792360  1
  La3+  La2  1  0.36302177  0.49251751  0.93111546  1
  La3+  La3  1  0.86346464  -0.01195515  0.91507299  1
  La3+  La4  1  0.76310830  0.14825223  0.11129278  1
  La3+  La5  1  0.12964479  -0.00940194  0.91287562  1
  La3+  La6  1  0.74422641  0.37611753  0.57507740  1
  La3+  La7  1  0.11482796  0.24486400  0.43950908  1
  La3+  La8  1  -0.02044919  0.36614173  0.07809560  1
  La3+  La9  1  0.74206080  0.12478715  0.57454107  1
  La3+  La10  1  0.87622777  0.25478858  0.91893761  1
  La3+  La11  1  0.61537378  0.74394259  0.93204407  1
  Ce3+  Ce12  1  0.24489560  0.62231557  0.55981167  1
  Ce3+  Ce13  1  0.62131052  0.24394457  0.93486353  1
  Ce3+  Ce14  1  0.63288308  0.00411309  0.44014785  1
  Ce3+  Ce15  1  0.74181241  0.36892229  0.05511316  1
  Ce3+  Ce16  1  0.23979460  0.36993241  0.06604479  1
  Ce3+  Ce17  1  0.24100486  0.11893560  0.06236365  1
  Ce3+  Ce18  1  0.37043373  0.00052719  0.43992818  1
  Ce3+  Ce19  1  0.36454554  0.74110627  0.94270886  1
  Ce3+  Ce20  1  0.37271220  0.25098271  0.43704321  1
  Ce3+  Ce21  1  0.11956625  0.49279003  0.94373039  1
  Ce3+  Ce22  1  0.87113060  0.49633350  0.44558022  1
  Ce3+  Ce23  1  0.87193335  0.75559383  0.44050561  1
  Ce3+  Ce24  1  0.50319087  0.11851827  0.05810224  1
  Ce3+  Ce25  1  0.74035932  0.61970926  0.04812622  1
  Pr3+  Pr26  1  0.50083413  0.36828454  0.06224889  1
  Pr3+  Pr27  1  0.25471935  0.13716215  0.57009594  1
  Pr3+  Pr28  1  -0.00329820  0.62597734  0.55578805  1
  Pr3+  Pr29  1  0.25018510  0.87977591  0.56486339  1
  Pr3+  Pr30  1  0.24757361  0.61175520  0.07592699  1
  Pr3+  Pr31  1  0.86951918  0.74384356  0.93719986  1
  Pr3+  Pr32  1  0.12285305  0.49005369  0.42936697  1
  Pr3+  Pr33  1  0.85351903  0.25166126  0.39848715  1
  Pr3+  Pr34  1  0.75059658  0.87900990  0.57068022  1
  Pr3+  Pr35  1  0.74145431  0.87582644  0.06330133  1
  Pr3+  Pr36  1  -0.00883156  0.87390977  0.04951125  1
  Pr3+  Pr37  1  0.00701128  0.12142073  0.58365677  1
  Pr3+  Pr38  1  -0.00490878  0.37439266  0.56052629  1
  Nd3+  Nd39  1  0.37443931  0.74867179  0.44277993  1
  Nd3+  Nd40  1  0.12328378  0.74913405  0.44736894  1
  Nd3+  Nd41  1  0.50003803  0.62725588  0.56276550  1
  Nd3+  Nd42  1  0.88088896  0.00226323  0.42802827  1
  Nd3+  Nd43  1  0.49297211  0.86979369  0.05490298  1
  Nd3+  Nd44  1  -0.00874348  0.11410077  0.04982017  1
  Nd3+  Nd45  1  0.12529396  -0.00047993  0.43822124  1
  Nd3+  Nd46  1  0.62786478  0.50001074  0.44167286  1
  Nd3+  Nd47  1  0.23898691  0.87166126  0.06139567  1
  Nd3+  Nd48  1  0.61715436  -0.00321284  0.93390659  1
  Nd3+  Nd49  1  0.49718443  0.87779963  0.56008031  1
  Nd3+  Nd50  1  0.37425860  0.49689311  0.43595947  1
  Nd3+  Nd51  1  -0.00245064  0.61985588  0.06844115  1
  Sm3+  Sm52  1  0.11855590  0.74242279  0.93732709  1
  Sm3+  Sm53  1  0.74881373  0.62934284  0.56093861  1
  Sm3+  Sm54  1  0.36849020  0.24442052  0.95133548  1
  Sm3+  Sm55  1  0.62678331  0.25011159  0.44436833  1
  Sm3+  Sm56  1  0.49846286  0.38005204  0.55289191  1
  Sm3+  Sm57  1  0.11566787  0.24331988  0.94733282  1
  Sm3+  Sm58  1  0.49138268  0.61764914  0.05581776  1
  Sm3+  Sm59  1  0.36627359  -0.00424724  0.94487165  1
  Sm3+  Sm60  1  0.49991164  0.12662901  0.55143585  1
  Sm3+  Sm61  1  -0.00046692  0.87997505  0.56281660  1
  Sm3+  Sm62  1  0.62554882  0.75321368  0.45056196  1
  Sm3+  Sm63  1  0.87141392  0.49549988  0.94187011  1
  Bi2+  Bi64  1  0.06037656  0.10586372  0.27532492  1
  Bi2+  Bi65  1  -0.02270734  0.16414709  0.79151434  1
  Bi2+  Bi66  1  0.01249352  0.40750641  0.30908625  1
  Bi2+  Bi67  1  0.01198682  0.44969246  0.79785550  1
  Bi2+  Bi68  1  -0.01545981  0.65512391  0.27315073  1
  Bi2+  Bi69  1  -0.04551671  0.65757687  0.82411318  1
  Bi2+  Bi70  1  -0.00364766  0.87504385  0.29690940  1
  Bi2+  Bi71  1  0.00710738  0.84645654  0.79306995  1
  Bi2+  Bi72  1  0.25822958  0.11733334  0.29056283  1
  Bi2+  Bi73  1  0.27399557  0.15638188  0.79798900  1
  Bi2+  Bi74  1  0.25835220  0.41736841  0.30091436  1
  Bi2+  Bi75  1  0.32527109  0.41424478  0.79186551  1
  Bi2+  Bi76  1  0.33657011  0.64219863  0.26458055  1
  Bi2+  Bi77  1  0.14949731  0.62479714  0.80688268  1
  Bi2+  Bi78  1  0.24811633  0.85370886  0.30387122  1
  Bi2+  Bi79  1  0.29091923  0.86938441  0.79418081  1
  Bi2+  Bi80  1  0.46068713  0.10770221  0.28925542  1
  Bi2+  Bi81  1  0.50907256  0.11872145  0.79545263  1
  Bi2+  Bi82  1  0.50299192  0.37869306  0.28755361  1
  Bi2+  Bi83  1  0.50815487  0.31222585  0.76987656  1
  Bi2+  Bi84  1  0.58797418  0.63778906  0.28324984  1
  Bi2+  Bi85  1  0.50867881  0.61652038  0.79391580  1
  Bi2+  Bi86  1  0.44244093  0.89832567  0.28699203  1
  Bi2+  Bi87  1  0.48359468  0.91949988  0.79750288  1
  Bi2+  Bi88  1  0.68815345  0.11970704  0.30098446  1
  Bi2+  Bi89  1  0.71481535  0.10011828  0.79737432  1
  Bi2+  Bi90  1  0.73050579  0.39981888  0.28425991  1
  Bi2+  Bi91  1  0.74981441  0.38509087  0.78799607  1
  Bi2+  Bi92  1  0.79897664  0.65816747  0.30356045  1
  Bi2+  Bi93  1  0.80140250  0.62270412  0.75409486  1
  Bi2+  Bi94  1  0.73318025  0.86437249  0.29190212  1
  Bi2+  Bi95  1  0.73878253  0.83626561  0.77756088  1
  Bi2+  Bi96  1  0.13585706  -0.04588923  0.20323354  1
  Bi2+  Bi97  1  0.12372516  0.01177964  0.71583486  1
  Bi2+  Bi98  1  0.17694556  0.22459121  0.20607423  1
  Bi2+  Bi99  1  0.16096553  0.31341887  0.77729427  1
  Bi2+  Bi100  1  0.11001720  0.49762027  0.19513309  1
  Bi2+  Bi101  1  0.14373444  0.48846287  0.71418879  1
  Bi2+  Bi102  1  0.18162860  0.73229460  0.22238428  1
  Bi2+  Bi103  1  0.17059126  0.76421520  0.72073471  1
  Bi2+  Bi104  1  0.34908283  -0.00172230  0.20019709  1
  Bi2+  Bi105  1  0.37411197  -0.01896469  0.70502116  1
  Bi2+  Bi106  1  0.37064296  0.21561189  0.20177004  1
  Bi2+  Bi107  1  0.38122156  0.17772643  0.70340004  1
  Bi2+  Bi108  1  0.44187503  0.49772675  0.20553608  1
  Bi2+  Bi109  1  0.38887841  0.42370359  0.68421959  1
  Bi2+  Bi110  1  0.48222625  0.73233419  0.20455471  1
  Bi2+  Bi111  1  0.32846446  0.66959180  0.75389027  1
  Bi2+  Bi112  1  0.54834863  -0.00810520  0.20786147  1
  Bi2+  Bi113  1  0.57044269  -0.04155642  0.69127163  1
  Bi2+  Bi114  1  0.55778842  0.26203915  0.20625262  1
  Bi2+  Bi115  1  0.64104710  0.20711119  0.71423724  1
  Bi2+  Bi116  1  0.63743044  0.50554330  0.20117554  1
  Bi2+  Bi117  1  0.61937425  0.51124139  0.69101729  1
  Bi2+  Bi118  1  0.70332047  0.75709621  0.19829057  1
  Bi2+  Bi119  1  0.56520549  0.77123769  0.73080617  1
  Bi2+  Bi120  1  0.88024137  0.00530644  0.20780466  1
  Bi2+  Bi121  1  0.87121610  -0.00471703  0.70910459  1
  Bi2+  Bi122  1  0.91149073  0.25492119  0.21568572  1
  Bi2+  Bi123  1  0.90372441  0.29912206  0.69349940  1
  Bi2+  Bi124  1  0.85912260  0.51890876  0.22786059  1
  Bi2+  Bi125  1  0.93839289  0.51500718  0.69740346  1
  Bi2+  Bi126  1  0.89818769  0.78680426  0.20503951  1
  Bi2+  Bi127  1  0.95354381  0.73087651  0.70909491  1
  S2-  S128  1  -0.06725350  0.12502762  0.14487112  1
  S2-  S129  1  -0.03131403  0.15008304  0.68538029  1
  S2-  S130  1  0.06050155  0.33312389  0.17152546  1
  S2-  S131  1  0.04181789  0.35994264  0.65745676  1
  S2-  S132  1  -0.03736596  0.51055991  0.14552094  1
  S2-  S133  1  0.05208150  0.62064451  0.65051289  1
  S2-  S134  1  0.00672134  0.88827515  0.15029037  1
  S2-  S135  1  0.00367357  0.93931338  0.65511217  1
  S2-  S136  1  0.14500149  0.08714277  0.13960220  1
  S2-  S137  1  0.15129284  0.11656920  0.64841631  1
  S2-  S138  1  0.24541664  0.46528050  0.14690785  1
  S2-  S139  1  0.28959163  0.28606120  0.64845547  1
  S2-  S140  1  0.11962377  0.64785408  0.14348488  1
  S2-  S141  1  0.25541262  0.51816046  0.63755717  1
  S2-  S142  1  0.26662397  0.85013545  0.15950573  1
  S2-  S143  1  0.22919028  0.90328471  0.66314893  1
  S2-  S144  1  0.58993709  0.12366903  0.14301243  1
  S2-  S145  1  0.57614121  0.11391845  0.63866357  1
  S2-  S146  1  0.62512638  0.36865426  0.13441422  1
  S2-  S147  1  0.53927713  0.37101793  0.64762299  1
  S2-  S148  1  0.39592401  0.62625068  0.13849080  1
  S2-  S149  1  0.48480112  0.58190684  0.65860606  1
  S2-  S150  1  0.56962546  0.85378350  0.14406521  1
  S2-  S151  1  0.46574390  0.82909258  0.65331589  1
  S2-  S152  1  0.77474996  0.16486117  0.21981921  1
  S2-  S153  1  0.77378209  0.12388655  0.67460722  1
  S2-  S154  1  0.83324185  0.31742960  0.13552978  1
  S2-  S155  1  0.75376885  0.39162191  0.67628163  1
  S2-  S156  1  0.74367017  0.61208503  0.14591954  1
  S2-  S157  1  0.71752304  0.62903036  0.65707866  1
  S2-  S158  1  0.76624590  0.97808989  0.14495858  1
  S2-  S159  1  0.76383090  0.88312833  0.67203142  1
  S2-  S160  1  0.02185316  0.01113940  0.35655836  1
  S2-  S161  1  0.08959051  0.05466398  0.81675507  1
  S2-  S162  1  0.14579756  0.33727428  0.35617856  1
  S2-  S163  1  0.05016585  0.27480214  0.85809096  1
  S2-  S164  1  0.13230453  0.52934397  0.33034931  1
  S2-  S165  1  0.22412947  0.49313350  0.86434626  1
  S2-  S166  1  0.11753700  0.78164907  0.35074894  1
  S2-  S167  1  0.13683986  0.83702044  0.85371688  1
  S2-  S168  1  0.25376077  -0.00575708  0.36620819  1
  S2-  S169  1  0.28956992  0.00751113  0.85757325  1
  S2-  S170  1  0.37317579  0.31157271  0.34565854  1
  S2-  S171  1  0.35215274  0.26958705  0.85517632  1
  S2-  S172  1  0.36682005  0.53142405  0.33937164  1
  S2-  S173  1  0.46883238  0.49060924  0.85021487  1
  S2-  S174  1  0.38597544  0.75784828  0.34453796  1
  S2-  S175  1  0.37934696  0.69594029  0.84967188  1
  S2-  S176  1  0.63357689  -0.02904887  0.34394578  1
  S2-  S177  1  0.67125246  -0.04803502  0.84165902  1
  S2-  S178  1  0.69035252  0.26769647  0.35351092  1
  S2-  S179  1  0.61886031  0.33079690  0.84883111  1
  S2-  S180  1  0.61498004  0.48807044  0.34323995  1
  S2-  S181  1  0.69155384  0.52661944  0.81649811  1
  S2-  S182  1  0.65010247  0.74815449  0.35376366  1
  S2-  S183  1  0.63213570  0.73553517  0.83229376  1
  S2-  S184  1  0.81907645  0.09613657  0.35235140  1
  S2-  S185  1  0.87471957  0.03389869  0.81402470  1
  S2-  S186  1  0.96785759  0.24448545  0.31971880  1
  S2-  S187  1  0.81866613  0.23307967  0.82004309  1
  S2-  S188  1  0.85841935  0.42179122  0.35746674  1
  S2-  S189  1  0.87478822  0.41711407  0.85471036  1
  S2-  S190  1  0.86528806  0.86125985  0.36207352  1
  S2-  S191  1  0.85717450  0.83744250  0.85135423  1
  S2-  S192  1  -0.00604407  0.12443154  0.46026369  1
  S2-  S193  1  -0.00525559  0.11445887  0.94185535  1
  S2-  S194  1  -0.01036710  0.36881199  0.45419793  1
  S2-  S195  1  -0.00443555  0.37378621  0.96355161  1
  S2-  S196  1  -0.00378441  0.62497465  0.44818285  1
  S2-  S197  1  -0.00396780  0.61970498  0.95767840  1
  S2-  S198  1  0.00116946  0.87495245  0.46079762  1
  S2-  S199  1  -0.00287663  0.86847479  0.94554421  1
  S2-  S200  1  0.25011205  0.12962297  0.46038686  1
  S2-  S201  1  0.24300039  0.12392291  0.95688366  1
  S2-  S202  1  0.25096033  0.37510961  0.45940329  1
  S2-  S203  1  0.24096052  0.36162122  0.96056990  1
  S2-  S204  1  0.24770261  0.62299091  0.45180984  1
  S2-  S205  1  0.24034999  0.62157839  0.96322398  1
  S2-  S206  1  0.25041225  0.87046729  0.46012373  1
  S2-  S207  1  0.24700458  0.86690072  0.95585672  1
  S2-  S208  1  0.50094937  0.12633112  0.44691467  1
  S2-  S209  1  0.48976362  0.11864432  0.94997504  1
  S2-  S210  1  0.50322392  0.37509351  0.44895803  1
  S2-  S211  1  0.49341126  0.36462609  0.95609808  1
  S2-  S212  1  0.50285816  0.62647387  0.45362908  1
  S2-  S213  1  0.49349520  0.61737475  0.95265855  1
  S2-  S214  1  0.49963394  0.87607919  0.45296957  1
  S2-  S215  1  0.48894763  0.87151589  0.94756215  1
  S2-  S216  1  0.74983192  0.13162259  0.46384386  1
  S2-  S217  1  0.74290700  0.12019062  0.93045632  1
  S2-  S218  1  0.74752844  0.37270439  0.46432763  1
  S2-  S219  1  0.74401836  0.37282654  0.95012589  1
  S2-  S220  1  0.74904313  0.62793439  0.45610871  1
  S2-  S221  1  0.74446341  0.61680226  0.94151457  1
  S2-  S222  1  0.74869015  0.87741556  0.46317207  1
  S2-  S223  1  0.73868995  0.86717864  0.95489873  1
  S2-  S224  1  0.12068354  -0.00716825  0.03124386  1
  S2-  S225  1  0.12551335  0.00006681  0.54479301  1
  S2-  S226  1  0.11525575  0.24408128  0.05016536  1
  S2-  S227  1  0.12187988  0.25173965  0.54722338  1
  S2-  S228  1  0.11565981  0.49119830  0.04734150  1
  S2-  S229  1  0.11808185  0.50090452  0.53761432  1
  S2-  S230  1  0.11871233  0.74896887  0.04075108  1
  S2-  S231  1  0.12310441  0.75439868  0.55333809  1
  S2-  S232  1  0.36877771  -0.00435845  0.04950059  1
  S2-  S233  1  0.37541823  0.00458653  0.54862764  1
  S2-  S234  1  0.37169146  0.24401448  0.05568199  1
  S2-  S235  1  0.38321670  0.25328832  0.54192188  1
  S2-  S236  1  0.37305970  0.48797067  0.04143329  1
  S2-  S237  1  0.37949256  0.50403827  0.54020812  1
  S2-  S238  1  0.36622837  0.74768094  0.04605047  1
  S2-  S239  1  0.37120057  0.74783747  0.54912589  1
  S2-  S240  1  0.61581044  -0.00883968  0.03774212  1
  S2-  S241  1  0.62227586  -0.00286219  0.54424511  1
  S2-  S242  1  0.62678803  0.23746214  0.03884858  1
  S2-  S243  1  0.61982131  0.25390881  0.54705452  1
  S2-  S244  1  0.61495766  0.49930486  0.03658181  1
  S2-  S245  1  0.62508876  0.50470135  0.54736627  1
  S2-  S246  1  0.61420272  0.74243098  0.04051953  1
  S2-  S247  1  0.62392778  0.75335952  0.55502733  1
  S2-  S248  1  0.86786920  -0.00707002  0.03054049  1
  S2-  S249  1  0.87574360  0.00302218  0.55498372  1
  S2-  S250  1  0.86670860  0.23582657  0.03159750  1
  S2-  S251  1  0.87182667  0.24966832  0.56796520  1
  S2-  S252  1  0.86447830  0.49757381  0.04298859  1
  S2-  S253  1  0.86885265  0.50302176  0.55332724  1
  S2-  S254  1  0.86774981  0.74486970  0.04616947  1
  S2-  S255  1  0.87404514  0.75379179  0.55171164  1
