# generated using pymatgen
data_La12Ce14Pr13Nd13Sm12(BiS2)64
_symmetry_space_group_name_H-M   'P 1'
_cell_length_a   16.08358225
_cell_length_b   16.06983302
_cell_length_c   27.37233247
_cell_angle_alpha   90.22906707
_cell_angle_beta   89.68041219
_cell_angle_gamma   90.18839747
_symmetry_Int_Tables_number   1
_chemical_formula_structural   La12Ce14Pr13Nd13Sm12(BiS2)64
_chemical_formula_sum   'La12 Ce14 Pr13 Nd13 Sm12 Bi64 S128'
_cell_volume   7074.46189591
_cell_formula_units_Z   1
loop_
 _symmetry_equiv_pos_site_id
 _symmetry_equiv_pos_as_xyz
  1  'x, y, z'
loop_
 _atom_type_symbol
 _atom_type_oxidation_number
  La3+  3.0
  Ce3+  3.0
  Pr3+  3.0
  Nd3+  3.0
  Sm3+  3.0
  Bi2+  2.0
  S2-  -2.0
loop_
 _atom_site_type_symbol
 _atom_site_label
 _atom_site_symmetry_multiplicity
 _atom_site_fract_x
 _atom_site_fract_y
 _atom_site_fract_z
 _atom_site_occupancy
  La3+  La0  1  0.13994604  -0.00527859  0.41760928  1
  La3+  La1  1  0.00879748  0.61367979  0.56410039  1
  La3+  La2  1  0.23856347  0.37288840  0.08089636  1
  La3+  La3  1  0.11617494  0.47909521  0.92913850  1
  La3+  La4  1  0.12367511  0.22952192  0.93549048  1
  La3+  La5  1  0.87923284  0.24531880  0.40019294  1
  La3+  La6  1  0.61328971  0.48107017  0.92275430  1
  La3+  La7  1  0.74050524  0.10950868  0.07271825  1
  La3+  La8  1  0.01004762  0.11916800  0.55376606  1
  La3+  La9  1  0.25135941  0.37124809  0.60539085  1
  La3+  La10  1  0.49414953  0.84970619  0.09465346  1
  La3+  La11  1  0.61490356  0.22996263  0.93108982  1
  Ce3+  Ce12  1  0.01247069  0.36355998  0.55372199  1
  Ce3+  Ce13  1  0.36136411  0.23176488  0.95999129  1
  Ce3+  Ce14  1  -0.01040863  0.36296407  0.06716554  1
  Ce3+  Ce15  1  0.75160480  0.36206744  0.56422075  1
  Ce3+  Ce16  1  0.38665630  -0.01578882  0.42784809  1
  Ce3+  Ce17  1  0.49216387  0.36028344  0.05783556  1
  Ce3+  Ce18  1  0.49336924  0.61230757  0.05721801  1
  Ce3+  Ce19  1  0.63598267  0.48767933  0.44403164  1
  Ce3+  Ce20  1  0.25805984  0.11729330  0.56013179  1
  Ce3+  Ce21  1  -0.01082509  0.12105983  0.08424908  1
  Ce3+  Ce22  1  0.13410396  0.73642507  0.42559834  1
  Ce3+  Ce23  1  0.36505252  0.48201121  0.94190278  1
  Ce3+  Ce24  1  0.49477201  0.10630580  0.08027502  1
  Ce3+  Ce25  1  0.88140310  -0.00808845  0.43722477  1
  Pr3+  Pr26  1  0.36676664  -0.01792876  0.95873782  1
  Pr3+  Pr27  1  0.75351069  0.11580486  0.55190139  1
  Pr3+  Pr28  1  0.86979838  0.73212808  0.93334389  1
  Pr3+  Pr29  1  0.23803942  0.85660136  0.07090728  1
  Pr3+  Pr30  1  0.23290648  0.10833254  0.08183853  1
  Pr3+  Pr31  1  0.76001102  0.61528505  0.57206476  1
  Pr3+  Pr32  1  0.64133470  -0.01470573  0.41695061  1
  Pr3+  Pr33  1  0.61260060  -0.01543353  0.93892775  1
  Pr3+  Pr34  1  0.38580455  0.73635928  0.42795740  1
  Pr3+  Pr35  1  0.86974402  0.47267175  0.93029511  1
  Pr3+  Pr36  1  0.11397284  -0.01591690  0.94226723  1
  Pr3+  Pr37  1  0.25469726  0.86828962  0.55501282  1
  Pr3+  Pr38  1  0.36993375  0.73812957  0.93702294  1
  Nd3+  Nd39  1  0.50472930  0.86246558  0.55748390  1
  Nd3+  Nd40  1  0.88230624  0.73651862  0.43800729  1
  Nd3+  Nd41  1  0.00653746  0.86695497  0.55157551  1
  Nd3+  Nd42  1  0.50797913  0.36415826  0.57267022  1
  Nd3+  Nd43  1  0.13331126  0.48641092  0.43205508  1
  Nd3+  Nd44  1  0.74835667  0.86710183  0.56279890  1
  Nd3+  Nd45  1  0.61701924  0.72966368  0.92727223  1
  Nd3+  Nd46  1  0.38254828  0.48870333  0.44712645  1
  Nd3+  Nd47  1  -0.01390094  0.60546848  0.06273826  1
  Nd3+  Nd48  1  0.73671292  0.36384949  0.06219924  1
  Nd3+  Nd49  1  0.38253293  0.24282124  0.43912468  1
  Nd3+  Nd50  1  0.86920401  -0.01379896  0.95149113  1
  Nd3+  Nd51  1  -0.00952824  0.85657211  0.07219332  1
  Sm3+  Sm52  1  0.50485601  0.61526356  0.55615617  1
  Sm3+  Sm53  1  0.64326975  0.73690428  0.43392993  1
  Sm3+  Sm54  1  0.24055233  0.61071229  0.05098214  1
  Sm3+  Sm55  1  0.11502780  0.73288085  0.94134601  1
  Sm3+  Sm56  1  0.87056448  0.23052023  0.94689268  1
  Sm3+  Sm57  1  0.73656046  0.85660512  0.05255037  1
  Sm3+  Sm58  1  0.14069629  0.24393662  0.42568341  1
  Sm3+  Sm59  1  0.63194635  0.24688451  0.43065166  1
  Sm3+  Sm60  1  0.73946568  0.61011705  0.04822274  1
  Sm3+  Sm61  1  0.88138409  0.48573152  0.44337045  1
  Sm3+  Sm62  1  0.50532366  0.11436090  0.54636923  1
  Sm3+  Sm63  1  0.25091369  0.61680098  0.56573137  1
  Bi2+  Bi64  1  0.04390355  0.08413020  0.25811334  1
  Bi2+  Bi65  1  -0.04134363  0.15928684  0.81519763  1
  Bi2+  Bi66  1  -0.04410020  0.51484242  0.29010908  1
  Bi2+  Bi67  1  -0.00590186  0.42227246  0.80415608  1
  Bi2+  Bi68  1  -0.06808815  0.70862781  0.29805732  1
  Bi2+  Bi69  1  -0.01576808  0.66194609  0.80620170  1
  Bi2+  Bi70  1  0.01060722  0.89592645  0.28032380  1
  Bi2+  Bi71  1  -0.00912663  0.90493996  0.74629778  1
  Bi2+  Bi72  1  0.24498209  0.15034521  0.28408637  1
  Bi2+  Bi73  1  0.20656757  0.10793923  0.77926233  1
  Bi2+  Bi74  1  0.24671800  0.41347824  0.30418792  1
  Bi2+  Bi75  1  0.28278337  0.36482114  0.82000438  1
  Bi2+  Bi76  1  0.24434771  0.67760761  0.29535281  1
  Bi2+  Bi77  1  0.31150541  0.67799694  0.74828326  1
  Bi2+  Bi78  1  0.27395009  0.88041784  0.28894831  1
  Bi2+  Bi79  1  0.24804423  0.91837976  0.80142869  1
  Bi2+  Bi80  1  0.50543449  0.19598389  0.28762459  1
  Bi2+  Bi81  1  0.47359675  0.11825350  0.81551839  1
  Bi2+  Bi82  1  0.46224072  0.39071478  0.30359212  1
  Bi2+  Bi83  1  0.49634519  0.31012518  0.78446134  1
  Bi2+  Bi84  1  0.51595286  0.67007244  0.29897850  1
  Bi2+  Bi85  1  0.47886604  0.66194657  0.80936038  1
  Bi2+  Bi86  1  0.52802304  0.88761877  0.28235324  1
  Bi2+  Bi87  1  0.52630417  0.92807001  0.77643411  1
  Bi2+  Bi88  1  0.75192898  0.08880347  0.28612700  1
  Bi2+  Bi89  1  0.77098657  0.10551554  0.79516416  1
  Bi2+  Bi90  1  0.73011323  0.37743196  0.29416907  1
  Bi2+  Bi91  1  0.69433053  0.43040830  0.76924838  1
  Bi2+  Bi92  1  0.68418338  0.57221321  0.31150947  1
  Bi2+  Bi93  1  0.71903129  0.72095961  0.77535233  1
  Bi2+  Bi94  1  0.75679535  0.83738149  0.28373032  1
  Bi2+  Bi95  1  0.72303460  0.92270299  0.75835690  1
  Bi2+  Bi96  1  0.20704780  -0.03932196  0.19593812  1
  Bi2+  Bi97  1  0.11713713  0.01742599  0.68869852  1
  Bi2+  Bi98  1  0.09657967  0.34056100  0.24559425  1
  Bi2+  Bi99  1  0.10827373  0.25826725  0.70841449  1
  Bi2+  Bi100  1  0.09847328  0.52358352  0.21118299  1
  Bi2+  Bi101  1  0.13523161  0.52842771  0.70315175  1
  Bi2+  Bi102  1  0.09698059  0.72312064  0.22127867  1
  Bi2+  Bi103  1  0.14118684  0.77901521  0.75188442  1
  Bi2+  Bi104  1  0.42356414  0.04204320  0.23908280  1
  Bi2+  Bi105  1  0.36374838  -0.04348479  0.71002032  1
  Bi2+  Bi106  1  0.38528476  0.31463225  0.20255800  1
  Bi2+  Bi107  1  0.37247262  0.16330769  0.72573071  1
  Bi2+  Bi108  1  0.35370752  0.50597829  0.20955990  1
  Bi2+  Bi109  1  0.45241653  0.46290299  0.72293131  1
  Bi2+  Bi110  1  0.37830412  0.71732255  0.21643034  1
  Bi2+  Bi111  1  0.36856326  0.78192594  0.65667320  1
  Bi2+  Bi112  1  0.67304971  -0.00745493  0.19790733  1
  Bi2+  Bi113  1  0.60039367  0.02758270  0.68495515  1
  Bi2+  Bi114  1  0.63366954  0.27337734  0.21268700  1
  Bi2+  Bi115  1  0.65503434  0.25218910  0.71795778  1
  Bi2+  Bi116  1  0.55856374  0.51053698  0.22848533  1
  Bi2+  Bi117  1  0.68074245  0.58312446  0.69410384  1
  Bi2+  Bi118  1  0.64933154  0.71691794  0.21267918  1
  Bi2+  Bi119  1  0.55194280  0.74040653  0.69183462  1
  Bi2+  Bi120  1  0.87439609  -0.10391841  0.19775515  1
  Bi2+  Bi121  1  0.86372107  0.03935655  0.69783313  1
  Bi2+  Bi122  1  0.87768556  0.24302011  0.21107408  1
  Bi2+  Bi123  1  0.84891415  0.30061730  0.74777152  1
  Bi2+  Bi124  1  0.83581845  0.51473941  0.20014756  1
  Bi2+  Bi125  1  0.85603256  0.48779786  0.71101816  1
  Bi2+  Bi126  1  0.91538554  0.71002648  0.17596983  1
  Bi2+  Bi127  1  0.87805975  0.75679880  0.70914793  1
  S2-  S128  1  0.10285537  0.07822607  0.15649208  1
  S2-  S129  1  -0.00038608  0.13918767  0.65519980  1
  S2-  S130  1  -0.00047777  0.26910548  0.15084723  1
  S2-  S131  1  0.07220088  0.39271252  0.64479286  1
  S2-  S132  1  -0.02052393  0.48937286  0.13762332  1
  S2-  S133  1  0.11989822  0.64609359  0.64007968  1
  S2-  S134  1  0.11275744  0.84662597  0.14581550  1
  S2-  S135  1  0.05918719  0.87515117  0.64674515  1
  S2-  S136  1  0.32020976  0.10358332  0.17389201  1
  S2-  S137  1  0.22983924  0.20950465  0.64624668  1
  S2-  S138  1  0.22095374  0.31107747  0.17640896  1
  S2-  S139  1  0.21873978  0.37509428  0.73099985  1
  S2-  S140  1  0.23466210  0.54136841  0.14088664  1
  S2-  S141  1  0.27172956  0.52970067  0.65250764  1
  S2-  S142  1  0.33797140  0.84589455  0.15673229  1
  S2-  S143  1  0.25545110  0.99033814  0.63021442  1
  S2-  S144  1  0.62495917  0.14727238  0.14876601  1
  S2-  S145  1  0.48647347  0.12376657  0.64523891  1
  S2-  S146  1  0.53701865  0.38237683  0.15116369  1
  S2-  S147  1  0.41011279  0.35869220  0.65608465  1
  S2-  S148  1  0.50622410  0.69274968  0.14348647  1
  S2-  S149  1  0.51249372  0.57347242  0.65276821  1
  S2-  S150  1  0.50937930  0.98797818  0.15723186  1
  S2-  S151  1  0.61684519  0.86742824  0.63485782  1
  S2-  S152  1  0.85465831  0.11228002  0.15405304  1
  S2-  S153  1  0.73801673  0.13115636  0.65208176  1
  S2-  S154  1  0.77243474  0.35766807  0.16023880  1
  S2-  S155  1  0.64349919  0.35379727  0.64111828  1
  S2-  S156  1  0.72557400  0.59721414  0.14648816  1
  S2-  S157  1  0.89095849  0.61675828  0.64359522  1
  S2-  S158  1  0.66691316  0.84628287  0.14255960  1
  S2-  S159  1  0.83339671  0.88193362  0.65030500  1
  S2-  S160  1  0.11617218  0.12778505  0.34762901  1
  S2-  S161  1  0.10145804  0.09645841  0.86382465  1
  S2-  S162  1  0.11151724  0.36765992  0.35225101  1
  S2-  S163  1  0.11834972  0.34783733  0.85760727  1
  S2-  S164  1  0.13404356  0.60985731  0.35815712  1
  S2-  S165  1  0.10025368  0.55430995  0.83371432  1
  S2-  S166  1  0.13502959  0.85882433  0.35031188  1
  S2-  S167  1  0.07736726  0.79029209  0.85242892  1
  S2-  S168  1  0.29253696  0.02600722  0.34841562  1
  S2-  S169  1  0.36469264  -0.00121057  0.85796673  1
  S2-  S170  1  0.29672877  0.25413696  0.34973743  1
  S2-  S171  1  0.28850176  0.22757069  0.87245248  1
  S2-  S172  1  0.37097547  0.51930030  0.34855984  1
  S2-  S173  1  0.39252759  0.50086498  0.84559115  1
  S2-  S174  1  0.40379113  0.85608744  0.35407121  1
  S2-  S175  1  0.32302020  0.74682426  0.83958008  1
  S2-  S176  1  0.57950806  0.04685248  0.32455653  1
  S2-  S177  1  0.62937385  0.09845701  0.86166372  1
  S2-  S178  1  0.72917780  0.22711233  0.34642800  1
  S2-  S179  1  0.62251806  0.34997004  0.85333959  1
  S2-  S180  1  0.60821839  0.38716315  0.36603174  1
  S2-  S181  1  0.61731369  0.60421463  0.84821860  1
  S2-  S182  1  0.62790274  0.84087638  0.35465368  1
  S2-  S183  1  0.54644533  0.80870265  0.84735577  1
  S2-  S184  1  0.79803947  -0.02422925  0.35183133  1
  S2-  S185  1  0.89269794  0.01899298  0.85449393  1
  S2-  S186  1  0.91310005  0.16489365  0.30484580  1
  S2-  S187  1  0.88267844  0.31117557  0.85816372  1
  S2-  S188  1  0.87459223  0.40603781  0.35366304  1
  S2-  S189  1  0.87488002  0.53961017  0.83653275  1
  S2-  S190  1  0.77768615  0.70088358  0.36041630  1
  S2-  S191  1  0.84539416  0.76796859  0.83579611  1
  S2-  S192  1  -0.00215183  0.12410897  0.44581113  1
  S2-  S193  1  -0.01007149  0.11034503  0.97134300  1
  S2-  S194  1  0.00187436  0.35984960  0.45161132  1
  S2-  S195  1  -0.00707055  0.35452740  0.96129023  1
  S2-  S196  1  0.00195108  0.61037679  0.45410310  1
  S2-  S197  1  -0.00895022  0.60807221  0.95431343  1
  S2-  S198  1  0.00287506  0.86453474  0.44503453  1
  S2-  S199  1  -0.00927557  0.85751737  0.96282269  1
  S2-  S200  1  0.26051673  0.11874836  0.45433792  1
  S2-  S201  1  0.23989713  0.10311770  0.97273603  1
  S2-  S202  1  0.25917406  0.36810476  0.45101732  1
  S2-  S203  1  0.24371499  0.36307024  0.96911746  1
  S2-  S204  1  0.26136584  0.61579684  0.45765377  1
  S2-  S205  1  0.24024027  0.61171322  0.94699615  1
  S2-  S206  1  0.26167646  0.86115441  0.45004059  1
  S2-  S207  1  0.23651112  0.85683235  0.95893329  1
  S2-  S208  1  0.51059783  0.11769668  0.44197356  1
  S2-  S209  1  0.48898431  0.10975822  0.96765304  1
  S2-  S210  1  0.50552303  0.36500664  0.46447981  1
  S2-  S211  1  0.48591845  0.35640514  0.95289007  1
  S2-  S212  1  0.51274080  0.61471775  0.45055798  1
  S2-  S213  1  0.48932417  0.60899971  0.95257471  1
  S2-  S214  1  0.51443306  0.85858808  0.45441110  1
  S2-  S215  1  0.49321120  0.85872372  0.95970804  1
  S2-  S216  1  0.75821906  0.12029563  0.44718588  1
  S2-  S217  1  0.74606923  0.10828674  0.96221695  1
  S2-  S218  1  0.75968908  0.36085857  0.45886254  1
  S2-  S219  1  0.74239769  0.35499532  0.95534368  1
  S2-  S220  1  0.76003357  0.60828468  0.46511255  1
  S2-  S221  1  0.74480166  0.60587542  0.94571372  1
  S2-  S222  1  0.76072538  0.86322922  0.45693607  1
  S2-  S223  1  0.74148324  0.86049866  0.94756534  1
  S2-  S224  1  0.11098403  -0.01885046  0.04815579  1
  S2-  S225  1  0.12936107  -0.00860752  0.52915519  1
  S2-  S226  1  0.12175947  0.23951280  0.05194429  1
  S2-  S227  1  0.13557075  0.24346636  0.53561696  1
  S2-  S228  1  0.11490565  0.48930891  0.03956014  1
  S2-  S229  1  0.13703830  0.48939038  0.53922039  1
  S2-  S230  1  0.11284061  0.72710726  0.04579821  1
  S2-  S231  1  0.13189202  0.74412931  0.53350389  1
  S2-  S232  1  0.36530069  -0.01652900  0.06155815  1
  S2-  S233  1  0.38732558  -0.01145369  0.53521325  1
  S2-  S234  1  0.36626607  0.23662259  0.06443565  1
  S2-  S235  1  0.38472865  0.24033609  0.54370021  1
  S2-  S236  1  0.36931444  0.48842918  0.04818322  1
  S2-  S237  1  0.38139065  0.49270191  0.55028768  1
  S2-  S238  1  0.36407207  0.73340580  0.04465929  1
  S2-  S239  1  0.38169204  0.73636244  0.53641130  1
  S2-  S240  1  0.61686529  -0.01859836  0.04461740  1
  S2-  S241  1  0.62911563  -0.00815848  0.53259647  1
  S2-  S242  1  0.61559844  0.23848511  0.04143701  1
  S2-  S243  1  0.62804358  0.23773572  0.53716739  1
  S2-  S244  1  0.61568657  0.48692877  0.03716683  1
  S2-  S245  1  0.63156790  0.49412510  0.54779803  1
  S2-  S246  1  0.61770359  0.73276149  0.03509184  1
  S2-  S247  1  0.63286155  0.73276842  0.54081657  1
  S2-  S248  1  0.86444533  -0.02394956  0.05571575  1
  S2-  S249  1  0.88096726  -0.00810980  0.54268737  1
  S2-  S250  1  0.86123489  0.24024395  0.04905354  1
  S2-  S251  1  0.87971861  0.24311067  0.55518587  1
  S2-  S252  1  0.85973005  0.48582201  0.03797900  1
  S2-  S253  1  0.88004688  0.48303319  0.54723526  1
  S2-  S254  1  0.86349523  0.73450029  0.04170744  1
  S2-  S255  1  0.87966561  0.74378326  0.54266889  1
