# generated using pymatgen
data_La12Ce14Pr13Nd13Sm12(BiS2)64
_symmetry_space_group_name_H-M   'P 1'
_cell_length_a   16.16623810
_cell_length_b   16.15226275
_cell_length_c   27.22109842
_cell_angle_alpha   89.98281860
_cell_angle_beta   89.81983511
_cell_angle_gamma   89.96000286
_symmetry_Int_Tables_number   1
_chemical_formula_structural   La12Ce14Pr13Nd13Sm12(BiS2)64
_chemical_formula_sum   'La12 Ce14 Pr13 Nd13 Sm12 Bi64 S128'
_cell_volume   7107.97211189
_cell_formula_units_Z   1
loop_
 _symmetry_equiv_pos_site_id
 _symmetry_equiv_pos_as_xyz
  1  'x, y, z'
loop_
 _atom_type_symbol
 _atom_type_oxidation_number
  La3+  3.0
  Ce3+  3.0
  Pr3+  3.0
  Nd3+  3.0
  Sm3+  3.0
  Bi2+  2.0
  S2-  -2.0
loop_
 _atom_site_type_symbol
 _atom_site_label
 _atom_site_symmetry_multiplicity
 _atom_site_fract_x
 _atom_site_fract_y
 _atom_site_fract_z
 _atom_site_occupancy
  La3+  La0  1  0.75358883  0.13790481  0.58043004  1
  La3+  La1  1  0.01138244  0.87261623  0.57665946  1
  La3+  La2  1  0.00446203  0.36337905  0.07230773  1
  La3+  La3  1  0.87203772  0.00224676  0.88281345  1
  La3+  La4  1  0.51363596  0.36663593  0.08878585  1
  La3+  La5  1  0.63027069  0.74387699  0.92822751  1
  La3+  La6  1  0.88220090  0.25096767  0.43540408  1
  La3+  La7  1  0.74298576  0.86508757  0.57816780  1
  La3+  La8  1  0.00733414  0.63627760  0.07866973  1
  La3+  La9  1  0.37400384  0.49511571  0.42439785  1
  La3+  La10  1  0.14155060  0.26691160  0.90546597  1
  La3+  La11  1  0.88425568  0.76408224  0.40688283  1
  Ce3+  Ce12  1  0.37829058  0.00267693  0.93093458  1
  Ce3+  Ce13  1  0.25587115  0.87470169  0.56237934  1
  Ce3+  Ce14  1  0.50397200  0.37771599  0.55054446  1
  Ce3+  Ce15  1  0.50123526  0.87573501  0.55360153  1
  Ce3+  Ce16  1  0.37860796  0.75364373  0.43409381  1
  Ce3+  Ce17  1  0.50339861  0.62624770  0.55328077  1
  Ce3+  Ce18  1  0.88147146  0.25582286  0.92649724  1
  Ce3+  Ce19  1  0.12795273  0.00239600  0.44694629  1
  Ce3+  Ce20  1  0.13161276  0.75495685  0.43944745  1
  Ce3+  Ce21  1  0.87835581  -0.00414860  0.45482500  1
  Ce3+  Ce22  1  0.25813518  0.38241089  0.56591005  1
  Ce3+  Ce23  1  0.00173133  0.62940676  0.55712635  1
  Ce3+  Ce24  1  0.75482373  0.37855353  0.05752998  1
  Ce3+  Ce25  1  0.37548455  0.00978679  0.44182630  1
  Pr3+  Pr26  1  0.75668029  0.63794223  0.07476513  1
  Pr3+  Pr27  1  0.63696544  0.24848973  0.43053428  1
  Pr3+  Pr28  1  0.63372242  0.25124545  0.93455405  1
  Pr3+  Pr29  1  0.63266132  0.50561380  0.43326272  1
  Pr3+  Pr30  1  0.00472337  0.12627194  0.04008550  1
  Pr3+  Pr31  1  0.75797393  0.12419250  0.05341894  1
  Pr3+  Pr32  1  0.62196615  0.75632427  0.42497330  1
  Pr3+  Pr33  1  0.01079322  0.12917238  0.57542041  1
  Pr3+  Pr34  1  0.50588710  0.87754935  0.06228580  1
  Pr3+  Pr35  1  0.13386513  0.00453653  0.92482894  1
  Pr3+  Pr36  1  0.13055427  0.74835654  0.93331507  1
  Pr3+  Pr37  1  0.25646172  0.13737318  0.57031226  1
  Pr3+  Pr38  1  0.00213508  0.38050265  0.56872588  1
  Nd3+  Nd39  1  0.39094925  0.25651430  0.93568735  1
  Nd3+  Nd40  1  0.50477073  0.13056377  0.55897250  1
  Nd3+  Nd41  1  0.25376772  0.88020715  0.05556211  1
  Nd3+  Nd42  1  0.25791297  0.37374773  0.06545597  1
  Nd3+  Nd43  1  0.13119244  0.49838494  0.95150000  1
  Nd3+  Nd44  1  0.88336389  0.50419062  0.94542858  1
  Nd3+  Nd45  1  0.50507348  0.12354607  0.05801071  1
  Nd3+  Nd46  1  0.88410861  0.74528518  0.93191324  1
  Nd3+  Nd47  1  0.75525197  0.63154537  0.54836630  1
  Nd3+  Nd48  1  0.50833453  0.63422800  0.08030273  1
  Nd3+  Nd49  1  0.25581297  0.62501890  0.06165588  1
  Nd3+  Nd50  1  0.75356341  0.38105747  0.56044801  1
  Nd3+  Nd51  1  0.38206913  0.74994687  0.94842145  1
  Sm3+  Sm52  1  0.38530503  0.24875081  0.42671369  1
  Sm3+  Sm53  1  0.63278394  -0.00152908  0.93483132  1
  Sm3+  Sm54  1  0.12649065  0.50434887  0.44759557  1
  Sm3+  Sm55  1  0.38593365  0.50014809  0.95539910  1
  Sm3+  Sm56  1  0.12458200  0.25051233  0.44212349  1
  Sm3+  Sm57  1  0.00733219  0.87638512  0.04982738  1
  Sm3+  Sm58  1  0.62865506  0.50552859  0.95153564  1
  Sm3+  Sm59  1  0.25525711  0.12799838  0.04985545  1
  Sm3+  Sm60  1  0.25700885  0.62160762  0.55995167  1
  Sm3+  Sm61  1  0.63422498  0.00291390  0.44842019  1
  Sm3+  Sm62  1  0.75773761  0.87499277  0.04928670  1
  Sm3+  Sm63  1  0.88221283  0.50757683  0.43820542  1
  Bi2+  Bi64  1  -0.02481732  0.12708061  0.29991431  1
  Bi2+  Bi65  1  -0.01029745  0.12627876  0.77389353  1
  Bi2+  Bi66  1  0.01617857  0.33615323  0.27336758  1
  Bi2+  Bi67  1  -0.05706642  0.41440848  0.82608233  1
  Bi2+  Bi68  1  0.00164901  0.60179051  0.30560376  1
  Bi2+  Bi69  1  0.00761597  0.58973385  0.79304899  1
  Bi2+  Bi70  1  0.05963381  0.87656367  0.27831135  1
  Bi2+  Bi71  1  0.00325468  0.85942999  0.78171463  1
  Bi2+  Bi72  1  0.24513335  0.06820053  0.29336804  1
  Bi2+  Bi73  1  0.32992960  0.13679206  0.77749165  1
  Bi2+  Bi74  1  0.22632170  0.27354170  0.28868788  1
  Bi2+  Bi75  1  0.26339949  0.40007985  0.79656814  1
  Bi2+  Bi76  1  0.24896213  0.67857628  0.28983752  1
  Bi2+  Bi77  1  0.27156116  0.66879871  0.78814298  1
  Bi2+  Bi78  1  0.25919480  0.86061107  0.32592233  1
  Bi2+  Bi79  1  0.27228912  0.87528740  0.79349136  1
  Bi2+  Bi80  1  0.50830408  0.11505275  0.29444231  1
  Bi2+  Bi81  1  0.51457164  0.08762799  0.80214701  1
  Bi2+  Bi82  1  0.46974708  0.38061613  0.29478743  1
  Bi2+  Bi83  1  0.52007354  0.38448176  0.79275237  1
  Bi2+  Bi84  1  0.49468117  0.63738040  0.28477858  1
  Bi2+  Bi85  1  0.49266629  0.59770372  0.80389061  1
  Bi2+  Bi86  1  0.44673023  0.90574279  0.29498905  1
  Bi2+  Bi87  1  0.47420084  0.89785503  0.78278092  1
  Bi2+  Bi88  1  0.78034970  0.12437474  0.30063283  1
  Bi2+  Bi89  1  0.68202550  0.18898241  0.80503869  1
  Bi2+  Bi90  1  0.74259592  0.33139278  0.26300929  1
  Bi2+  Bi91  1  0.74863952  0.37636844  0.81084361  1
  Bi2+  Bi92  1  0.74182319  0.60558095  0.30211622  1
  Bi2+  Bi93  1  0.75854155  0.58618460  0.78775226  1
  Bi2+  Bi94  1  0.74169496  0.92877382  0.29163746  1
  Bi2+  Bi95  1  0.73596924  0.86835489  0.78593892  1
  Bi2+  Bi96  1  0.14947323  -0.00605034  0.20209038  1
  Bi2+  Bi97  1  0.17554745  -0.01077142  0.71862084  1
  Bi2+  Bi98  1  0.10941289  0.18873005  0.21154933  1
  Bi2+  Bi99  1  0.14109149  0.25225883  0.70539073  1
  Bi2+  Bi100  1  0.16819125  0.45194044  0.25423118  1
  Bi2+  Bi101  1  0.16073034  0.52564908  0.72535156  1
  Bi2+  Bi102  1  0.12437787  0.73542374  0.20645680  1
  Bi2+  Bi103  1  0.20157072  0.70629534  0.68218539  1
  Bi2+  Bi104  1  0.43859055  -0.02559461  0.18107217  1
  Bi2+  Bi105  1  0.36365510  -0.00525814  0.69521625  1
  Bi2+  Bi106  1  0.38043867  0.15600910  0.21071384  1
  Bi2+  Bi107  1  0.39828942  0.29227712  0.71675233  1
  Bi2+  Bi108  1  0.33516501  0.49951916  0.19954996  1
  Bi2+  Bi109  1  0.36896736  0.51517130  0.72398831  1
  Bi2+  Bi110  1  0.34981952  0.80195677  0.21930361  1
  Bi2+  Bi111  1  0.37314258  0.79110150  0.70084187  1
  Bi2+  Bi112  1  0.63194025  -0.02051163  0.19534691  1
  Bi2+  Bi113  1  0.61746571  0.00406462  0.69921793  1
  Bi2+  Bi114  1  0.63871367  0.17856096  0.21350868  1
  Bi2+  Bi115  1  0.62856251  0.27041631  0.70352577  1
  Bi2+  Bi116  1  0.61231984  0.47972271  0.20707238  1
  Bi2+  Bi117  1  0.64316295  0.48082409  0.71866077  1
  Bi2+  Bi118  1  0.63670901  0.79218919  0.21601626  1
  Bi2+  Bi119  1  0.61047674  0.72236332  0.69848351  1
  Bi2+  Bi120  1  0.90607245  -0.02272113  0.23765693  1
  Bi2+  Bi121  1  0.89117923  -0.00668408  0.67949334  1
  Bi2+  Bi122  1  0.86457868  0.25544677  0.18761707  1
  Bi2+  Bi123  1  0.89146666  0.34334699  0.72524523  1
  Bi2+  Bi124  1  0.86270845  0.49026807  0.21498890  1
  Bi2+  Bi125  1  0.82621011  0.50732995  0.67964889  1
  Bi2+  Bi126  1  0.87691961  0.74454464  0.20223526  1
  Bi2+  Bi127  1  0.88448292  0.68898320  0.71210950  1
  S2-  S128  1  -0.00138151  0.20025352  0.13157985  1
  S2-  S129  1  -0.05123980  0.15298379  0.67109572  1
  S2-  S130  1  -0.02266068  0.39838361  0.17208026  1
  S2-  S131  1  0.03775763  0.36246307  0.66779891  1
  S2-  S132  1  -0.03198632  0.60135373  0.17866682  1
  S2-  S133  1  -0.01817208  0.59066285  0.65165927  1
  S2-  S134  1  -0.00006619  0.79435242  0.13707396  1
  S2-  S135  1  -0.03723593  0.82774612  0.67625953  1
  S2-  S136  1  0.24807193  0.11931417  0.14877352  1
  S2-  S137  1  0.14362908  0.11157899  0.64790575  1
  S2-  S138  1  0.23615247  0.37748496  0.16412974  1
  S2-  S139  1  0.27510298  0.27221239  0.64197168  1
  S2-  S140  1  0.21834953  0.62219338  0.15850900  1
  S2-  S141  1  0.27211876  0.51018234  0.63949219  1
  S2-  S142  1  0.22632693  0.86111023  0.15335003  1
  S2-  S143  1  0.15824771  0.86895833  0.64419628  1
  S2-  S144  1  0.51084752  0.20786956  0.14414523  1
  S2-  S145  1  0.54453467  0.13775396  0.65583746  1
  S2-  S146  1  0.45881118  0.39100318  0.18876524  1
  S2-  S147  1  0.50462701  0.37119049  0.64826997  1
  S2-  S148  1  0.48366861  0.59045011  0.18012992  1
  S2-  S149  1  0.50698363  0.62709858  0.65148611  1
  S2-  S150  1  0.53095573  0.77600880  0.14410349  1
  S2-  S151  1  0.56962943  0.85862554  0.64175991  1
  S2-  S152  1  0.77850328  0.12704844  0.15425937  1
  S2-  S153  1  0.74930030  0.09032744  0.67961069  1
  S2-  S154  1  0.67080933  0.37049973  0.14285427  1
  S2-  S155  1  0.75751225  0.28871239  0.64432988  1
  S2-  S156  1  0.72904222  0.58834369  0.17421008  1
  S2-  S157  1  0.73692891  0.70161651  0.63937754  1
  S2-  S158  1  0.76437981  0.79394333  0.13855482  1
  S2-  S159  1  0.75420812  0.89398915  0.67981326  1
  S2-  S160  1  0.10822164  0.06035708  0.35570268  1
  S2-  S161  1  0.04341162  -0.01121693  0.83832069  1
  S2-  S162  1  0.01162831  0.26580562  0.36507836  1
  S2-  S163  1  0.10085809  0.22518760  0.80506813  1
  S2-  S164  1  0.11836010  0.51158403  0.34940506  1
  S2-  S165  1  0.13584757  0.43071371  0.85946120  1
  S2-  S166  1  0.04413480  0.75275835  0.35459386  1
  S2-  S167  1  0.07342536  0.73229757  0.83776276  1
  S2-  S168  1  0.37153079  0.11296531  0.36253469  1
  S2-  S169  1  0.27035701  0.01433923  0.85330230  1
  S2-  S170  1  0.34225685  0.36187262  0.35434471  1
  S2-  S171  1  0.29481420  0.25944416  0.85152364  1
  S2-  S172  1  0.36881142  0.57533955  0.33146926  1
  S2-  S173  1  0.39736607  0.48144236  0.85747487  1
  S2-  S174  1  0.48313811  0.75808257  0.35430588  1
  S2-  S175  1  0.40285180  0.71924819  0.85145507  1
  S2-  S176  1  0.64079732  0.04364478  0.35239466  1
  S2-  S177  1  0.70030955  0.00997819  0.84429186  1
  S2-  S178  1  0.52948733  0.26250703  0.34854431  1
  S2-  S179  1  0.51514567  0.26416626  0.86067744  1
  S2-  S180  1  0.59391315  0.50920544  0.33312646  1
  S2-  S181  1  0.62546590  0.59561631  0.86658659  1
  S2-  S182  1  0.68018393  0.74740708  0.32810072  1
  S2-  S183  1  0.61205566  0.81177667  0.83353202  1
  S2-  S184  1  0.87247054  -0.07545704  0.36474023  1
  S2-  S185  1  0.87655144  -0.01522267  0.77541708  1
  S2-  S186  1  0.76336814  0.26743337  0.35853506  1
  S2-  S187  1  0.86831249  0.16976291  0.84115150  1
  S2-  S188  1  0.87529755  0.50016591  0.33891441  1
  S2-  S189  1  0.87486689  0.61035120  0.86399690  1
  S2-  S190  1  0.86671921  0.71052275  0.30514467  1
  S2-  S191  1  0.87116479  0.83174568  0.84514014  1
  S2-  S192  1  0.00272331  0.12341476  0.46630473  1
  S2-  S193  1  0.01538224  0.13885368  0.93663379  1
  S2-  S194  1  0.00302659  0.38534354  0.46067474  1
  S2-  S195  1  0.00613726  0.37570212  0.96067092  1
  S2-  S196  1  0.00160822  0.63035818  0.45210269  1
  S2-  S197  1  0.01131511  0.62420561  0.96356148  1
  S2-  S198  1  0.00779686  0.87625350  0.46370788  1
  S2-  S199  1  0.00881319  0.87653434  0.94769593  1
  S2-  S200  1  0.24736780  0.13280148  0.46091261  1
  S2-  S201  1  0.25626568  0.13427380  0.94876372  1
  S2-  S202  1  0.24273125  0.37601805  0.45824438  1
  S2-  S203  1  0.26233367  0.37931141  0.96029937  1
  S2-  S204  1  0.25287458  0.62676803  0.45197559  1
  S2-  S205  1  0.25781117  0.62274631  0.95415835  1
  S2-  S206  1  0.25637380  0.87959256  0.45649793  1
  S2-  S207  1  0.25534763  0.87331882  0.94947822  1
  S2-  S208  1  0.50932554  0.12612425  0.45500722  1
  S2-  S209  1  0.50816151  0.12030570  0.95184408  1
  S2-  S210  1  0.50978943  0.37808695  0.44682062  1
  S2-  S211  1  0.51035631  0.38074076  0.96659159  1
  S2-  S212  1  0.50196055  0.62339616  0.44768128  1
  S2-  S213  1  0.50214931  0.62583927  0.96966831  1
  S2-  S214  1  0.50210984  0.88690473  0.45012520  1
  S2-  S215  1  0.50471428  0.87766827  0.95176533  1
  S2-  S216  1  0.75773185  0.12332118  0.46367349  1
  S2-  S217  1  0.75724360  0.12174576  0.94798208  1
  S2-  S218  1  0.75881389  0.38564365  0.45408910  1
  S2-  S219  1  0.75352126  0.38211251  0.95156045  1
  S2-  S220  1  0.75963950  0.63422828  0.44199373  1
  S2-  S221  1  0.75667784  0.62482899  0.96610177  1
  S2-  S222  1  0.74949027  0.87361507  0.46061677  1
  S2-  S223  1  0.75627167  0.87612176  0.94760418  1
  S2-  S224  1  0.13024496  0.00263388  0.03815030  1
  S2-  S225  1  0.13358096  0.00113506  0.54872105  1
  S2-  S226  1  0.13717249  0.25141128  0.04265786  1
  S2-  S227  1  0.12633366  0.25867882  0.54591625  1
  S2-  S228  1  0.12815697  0.49896341  0.05773266  1
  S2-  S229  1  0.12710308  0.50478657  0.55096936  1
  S2-  S230  1  0.13478705  0.75201392  0.04123553  1
  S2-  S231  1  0.13349531  0.74420160  0.54429595  1
  S2-  S232  1  0.37870659  0.00230375  0.04004968  1
  S2-  S233  1  0.37874836  0.00541845  0.54974141  1
  S2-  S234  1  0.38043262  0.24969881  0.04630913  1
  S2-  S235  1  0.38273256  0.25413875  0.53560802  1
  S2-  S236  1  0.38462889  0.50068831  0.06063793  1
  S2-  S237  1  0.38162019  0.50240463  0.53460064  1
  S2-  S238  1  0.37631031  0.75313618  0.05435741  1
  S2-  S239  1  0.37716274  0.74846105  0.54369150  1
  S2-  S240  1  0.63212061  -0.00154156  0.04303113  1
  S2-  S241  1  0.62962026  0.00471023  0.55228149  1
  S2-  S242  1  0.63339462  0.24671412  0.04080133  1
  S2-  S243  1  0.62952916  0.25533896  0.53970456  1
  S2-  S244  1  0.62916549  0.50956009  0.05490176  1
  S2-  S245  1  0.63169826  0.50504370  0.54263915  1
  S2-  S246  1  0.63167559  0.75427841  0.03859869  1
  S2-  S247  1  0.62237505  0.74946595  0.53311191  1
  S2-  S248  1  0.88363457  -0.00459885  0.05255466  1
  S2-  S249  1  0.87795279  -0.00073086  0.56179410  1
  S2-  S250  1  0.87497121  0.25208110  0.03460746  1
  S2-  S251  1  0.88277780  0.25532844  0.54596524  1
  S2-  S252  1  0.88191865  0.50319161  0.05477078  1
  S2-  S253  1  0.87740158  0.50439873  0.54308961  1
  S2-  S254  1  0.88307678  0.75400772  0.03794116  1
  S2-  S255  1  0.88100103  0.75430727  0.54834377  1
