# generated using pymatgen
data_La12Ce14Pr13Nd13Sm12(BiS2)64
_symmetry_space_group_name_H-M   'P 1'
_cell_length_a   16.01936876
_cell_length_b   16.11222068
_cell_length_c   27.43873589
_cell_angle_alpha   90.27130316
_cell_angle_beta   90.29881304
_cell_angle_gamma   90.13678157
_symmetry_Int_Tables_number   1
_chemical_formula_structural   La12Ce14Pr13Nd13Sm12(BiS2)64
_chemical_formula_sum   'La12 Ce14 Pr13 Nd13 Sm12 Bi64 S128'
_cell_volume   7081.95008632
_cell_formula_units_Z   1
loop_
 _symmetry_equiv_pos_site_id
 _symmetry_equiv_pos_as_xyz
  1  'x, y, z'
loop_
 _atom_type_symbol
 _atom_type_oxidation_number
  La3+  3.0
  Ce3+  3.0
  Pr3+  3.0
  Nd3+  3.0
  Sm3+  3.0
  Bi2+  2.0
  S2-  -2.0
loop_
 _atom_site_type_symbol
 _atom_site_label
 _atom_site_symmetry_multiplicity
 _atom_site_fract_x
 _atom_site_fract_y
 _atom_site_fract_z
 _atom_site_occupancy
  La3+  La0  1  0.53233081  0.61697315  0.07980376  1
  La3+  La1  1  0.63726037  0.48507656  0.89079835  1
  La3+  La2  1  0.77840352  0.36569143  0.09591775  1
  La3+  La3  1  0.59748979  0.75666286  0.42220004  1
  La3+  La4  1  -0.04618455  0.87250576  0.61288285  1
  La3+  La5  1  -0.01908520  0.13190399  0.56195582  1
  La3+  La6  1  0.47954630  0.63700206  0.57654008  1
  La3+  La7  1  0.60232862  0.25444424  0.42717170  1
  La3+  La8  1  0.09981918  0.25974454  0.42726376  1
  La3+  La9  1  0.90115410  0.73787276  0.93295946  1
  La3+  La10  1  0.40486519  0.24494030  0.93894633  1
  La3+  La11  1  0.89494834  0.24436238  0.94040499  1
  Ce3+  Ce12  1  0.85748993  0.75706420  0.43373853  1
  Ce3+  Ce13  1  0.84929385  0.25534106  0.42540684  1
  Ce3+  Ce14  1  0.27584878  0.11785546  0.05732468  1
  Ce3+  Ce15  1  0.73420207  0.13113114  0.55204021  1
  Ce3+  Ce16  1  0.53606862  0.86949952  0.06941108  1
  Ce3+  Ce17  1  0.22945600  0.13790024  0.55583179  1
  Ce3+  Ce18  1  0.47970057  0.87792450  0.56454258  1
  Ce3+  Ce19  1  0.02630994  0.86555060  0.06265794  1
  Ce3+  Ce20  1  0.27670048  0.86811327  0.06153056  1
  Ce3+  Ce21  1  0.21862127  0.88253644  0.55772290  1
  Ce3+  Ce22  1  0.23576713  0.37586762  0.57218778  1
  Ce3+  Ce23  1  0.73436060  0.38219818  0.55595442  1
  Ce3+  Ce24  1  0.64883973  -0.00610260  0.94017323  1
  Ce3+  Ce25  1  0.02653902  0.11900563  0.06185806  1
  Pr3+  Pr26  1  0.10562075  0.74551263  0.42413614  1
  Pr3+  Pr27  1  0.27518377  0.61950990  0.06665538  1
  Pr3+  Pr28  1  0.02119593  0.61730886  0.06832055  1
  Pr3+  Pr29  1  0.15093821  -0.00657308  0.93712636  1
  Pr3+  Pr30  1  0.22925079  0.63007124  0.56405202  1
  Pr3+  Pr31  1  0.15366181  0.73881016  0.93224199  1
  Pr3+  Pr32  1  0.52613225  0.12525933  0.07581200  1
  Pr3+  Pr33  1  0.48311096  0.13196979  0.56202264  1
  Pr3+  Pr34  1  0.48965232  0.38540205  0.57512783  1
  Pr3+  Pr35  1  0.02520931  0.36694399  0.06809549  1
  Pr3+  Pr36  1  0.73248079  0.63384482  0.54931045  1
  Pr3+  Pr37  1  0.90242522  -0.00835102  0.93945203  1
  Pr3+  Pr38  1  0.59632450  0.50865337  0.43042741  1
  Nd3+  Nd39  1  0.85319912  0.50202649  0.42985112  1
  Nd3+  Nd40  1  0.35919239  0.25854101  0.43745503  1
  Nd3+  Nd41  1  0.27155747  0.36587986  0.07204321  1
  Nd3+  Nd42  1  0.14924127  0.24565200  0.93850668  1
  Nd3+  Nd43  1  0.64851625  0.23645427  0.93867598  1
  Nd3+  Nd44  1  0.40211075  0.73975082  0.94500013  1
  Nd3+  Nd45  1  0.14972881  0.49191357  0.94574785  1
  Nd3+  Nd46  1  0.35269177  0.00458519  0.44569772  1
  Nd3+  Nd47  1  0.10455646  0.01063732  0.43047410  1
  Nd3+  Nd48  1  0.77195882  0.11579001  0.07353574  1
  Nd3+  Nd49  1  0.88995576  0.48987049  0.94100041  1
  Nd3+  Nd50  1  0.78227867  0.86752084  0.06493354  1
  Nd3+  Nd51  1  0.77390208  0.61629809  0.06388815  1
  Sm3+  Sm52  1  0.35821072  0.50537745  0.44496129  1
  Sm3+  Sm53  1  0.52874159  0.36482446  0.06198497  1
  Sm3+  Sm54  1  0.40536307  0.49524625  0.95406016  1
  Sm3+  Sm55  1  0.35154561  0.75599330  0.43686663  1
  Sm3+  Sm56  1  -0.02389169  0.37904280  0.56279184  1
  Sm3+  Sm57  1  0.85926681  0.00127653  0.44033731  1
  Sm3+  Sm58  1  -0.01711588  0.63500786  0.55328435  1
  Sm3+  Sm59  1  0.60368431  0.00442654  0.44291103  1
  Sm3+  Sm60  1  0.40072326  -0.00779169  0.94851428  1
  Sm3+  Sm61  1  0.65267087  0.73920571  0.93981802  1
  Sm3+  Sm62  1  0.73178603  0.87852209  0.54955247  1
  Sm3+  Sm63  1  0.11007184  0.50036299  0.43820065  1
  Bi2+  Bi64  1  0.04433767  0.13925731  0.26235547  1
  Bi2+  Bi65  1  -0.00275102  0.10701656  0.80996454  1
  Bi2+  Bi66  1  0.02905922  0.43985180  0.30336563  1
  Bi2+  Bi67  1  -0.01352291  0.34099631  0.80151955  1
  Bi2+  Bi68  1  0.03703311  0.69487952  0.27861032  1
  Bi2+  Bi69  1  0.02782599  0.59542281  0.79029503  1
  Bi2+  Bi70  1  0.02796164  0.93875995  0.27211647  1
  Bi2+  Bi71  1  -0.05087430  0.86448407  0.81517395  1
  Bi2+  Bi72  1  0.25995230  0.13359815  0.29450634  1
  Bi2+  Bi73  1  0.27612475  0.09563763  0.77257227  1
  Bi2+  Bi74  1  0.32922018  0.33205140  0.31287715  1
  Bi2+  Bi75  1  0.24063030  0.41592613  0.75724338  1
  Bi2+  Bi76  1  0.30006673  0.53851451  0.30513869  1
  Bi2+  Bi77  1  0.22936513  0.61936567  0.79864843  1
  Bi2+  Bi78  1  0.21212071  0.92637540  0.31168496  1
  Bi2+  Bi79  1  0.19377477  0.84334831  0.73561485  1
  Bi2+  Bi80  1  0.50401018  0.10135360  0.29936042  1
  Bi2+  Bi81  1  0.46217959  0.11597792  0.81439180  1
  Bi2+  Bi82  1  0.48713469  0.34836258  0.23895509  1
  Bi2+  Bi83  1  0.50143491  0.36356047  0.79251122  1
  Bi2+  Bi84  1  0.46818923  0.63673709  0.28458939  1
  Bi2+  Bi85  1  0.43496793  0.65777983  0.81872760  1
  Bi2+  Bi86  1  0.42858052  0.84677596  0.26515927  1
  Bi2+  Bi87  1  0.46914406  0.89455052  0.80558879  1
  Bi2+  Bi88  1  0.77662498  0.11508327  0.28697069  1
  Bi2+  Bi89  1  0.69075334  0.08518326  0.77032364  1
  Bi2+  Bi90  1  0.77964599  0.37845304  0.29827686  1
  Bi2+  Bi91  1  0.78402008  0.35110390  0.79362604  1
  Bi2+  Bi92  1  0.75165186  0.62961818  0.30063302  1
  Bi2+  Bi93  1  0.75437273  0.63927151  0.79550224  1
  Bi2+  Bi94  1  0.80983485  0.87108404  0.29604118  1
  Bi2+  Bi95  1  0.65864798  0.89093913  0.78922368  1
  Bi2+  Bi96  1  0.18437124  -0.00610193  0.20665178  1
  Bi2+  Bi97  1  0.14312404  0.02678058  0.69735708  1
  Bi2+  Bi98  1  0.18926467  0.30280139  0.23217052  1
  Bi2+  Bi99  1  0.10299258  0.28016963  0.71473932  1
  Bi2+  Bi100  1  0.07629965  0.54753493  0.20229760  1
  Bi2+  Bi101  1  0.11027244  0.46801229  0.67536954  1
  Bi2+  Bi102  1  0.10502251  0.73558088  0.17469053  1
  Bi2+  Bi103  1  0.12188977  0.66033451  0.69840460  1
  Bi2+  Bi104  1  0.42616504  0.01010857  0.20660672  1
  Bi2+  Bi105  1  0.33616191  -0.02318759  0.68569910  1
  Bi2+  Bi106  1  0.37434393  0.19364577  0.18913721  1
  Bi2+  Bi107  1  0.34092406  0.25163870  0.71019766  1
  Bi2+  Bi108  1  0.32475139  0.44221015  0.20556398  1
  Bi2+  Bi109  1  0.38971498  0.51761716  0.71052640  1
  Bi2+  Bi110  1  0.27333471  0.72393471  0.26317642  1
  Bi2+  Bi111  1  0.37193654  0.77695907  0.70641159  1
  Bi2+  Bi112  1  0.68695608  -0.02786365  0.22811131  1
  Bi2+  Bi113  1  0.53212794  0.00977601  0.71387376  1
  Bi2+  Bi114  1  0.63874395  0.19451778  0.21644971  1
  Bi2+  Bi115  1  0.61527013  0.23272268  0.70974532  1
  Bi2+  Bi116  1  0.59113231  0.51469503  0.21390320  1
  Bi2+  Bi117  1  0.67874671  0.48713443  0.69084724  1
  Bi2+  Bi118  1  0.60457444  0.75107357  0.20439384  1
  Bi2+  Bi119  1  0.56091731  0.73855877  0.74307725  1
  Bi2+  Bi120  1  0.88766337  0.01891068  0.20029877  1
  Bi2+  Bi121  1  0.84082679  0.01222061  0.70538314  1
  Bi2+  Bi122  1  0.90626577  0.25665667  0.22023152  1
  Bi2+  Bi123  1  0.85383223  0.27213700  0.69837856  1
  Bi2+  Bi124  1  0.87593380  0.51523018  0.21274721  1
  Bi2+  Bi125  1  0.91789443  0.47765685  0.72646545  1
  Bi2+  Bi126  1  0.88252216  0.76066187  0.21118500  1
  Bi2+  Bi127  1  0.82335252  0.73573681  0.70398186  1
  S2-  S128  1  -0.00667240  0.13936613  0.15683914  1
  S2-  S129  1  -0.02320079  0.03902602  0.65028252  1
  S2-  S130  1  -0.07044471  0.38025517  0.15421893  1
  S2-  S131  1  -0.01333535  0.25680115  0.63765459  1
  S2-  S132  1  -0.10835848  0.63146068  0.14064282  1
  S2-  S133  1  -0.03706628  0.69860514  0.64468085  1
  S2-  S134  1  -0.08347931  0.87499733  0.13943217  1
  S2-  S135  1  -0.05946025  0.87199629  0.72115120  1
  S2-  S136  1  0.22620140  0.13433864  0.14915542  1
  S2-  S137  1  0.21847131  0.23141345  0.63830274  1
  S2-  S138  1  0.15013445  0.36015903  0.14357373  1
  S2-  S139  1  0.35937669  0.38667477  0.64600099  1
  S2-  S140  1  0.22927833  0.59469098  0.16197474  1
  S2-  S141  1  0.33507573  0.63388218  0.64673310  1
  S2-  S142  1  0.23142433  0.85016745  0.15387456  1
  S2-  S143  1  0.12813389  0.87469879  0.64128083  1
  S2-  S144  1  0.64127615  0.07304913  0.14705620  1
  S2-  S145  1  0.47869474  0.19451299  0.65681021  1
  S2-  S146  1  0.52729318  0.27035217  0.14532810  1
  S2-  S147  1  0.63168717  0.34844514  0.63720048  1
  S2-  S148  1  0.46539316  0.61305409  0.17471367  1
  S2-  S149  1  0.52559848  0.52271415  0.64986672  1
  S2-  S150  1  0.47280510  0.85085870  0.16107543  1
  S2-  S151  1  0.51365798  0.77836234  0.64243609  1
  S2-  S152  1  0.77759266  0.22276946  0.15526104  1
  S2-  S153  1  0.75564751  0.14197874  0.64914620  1
  S2-  S154  1  0.72902306  0.42307494  0.19444063  1
  S2-  S155  1  0.84657948  0.40754564  0.63480800  1
  S2-  S156  1  0.67247092  0.63190801  0.15185845  1
  S2-  S157  1  0.72652597  0.64032526  0.65026944  1
  S2-  S158  1  0.68111316  0.85616800  0.14755233  1
  S2-  S159  1  0.77531194  0.87991078  0.64496774  1
  S2-  S160  1  0.11175188  0.13106830  0.35445310  1
  S2-  S161  1  0.07968798  -0.02433969  0.84492005  1
  S2-  S162  1  0.14212304  0.38542079  0.36081657  1
  S2-  S163  1  0.10756668  0.21996156  0.84312017  1
  S2-  S164  1  0.09709470  0.60094745  0.35736564  1
  S2-  S165  1  0.17832151  0.47612567  0.84880748  1
  S2-  S166  1  0.23751574  0.77013114  0.35682553  1
  S2-  S167  1  0.03142835  0.72593586  0.85842865  1
  S2-  S168  1  0.35964521  0.02298725  0.34656369  1
  S2-  S169  1  0.34344864  -0.00403038  0.85512305  1
  S2-  S170  1  0.47011827  0.25380895  0.35670087  1
  S2-  S171  1  0.38023602  0.26367059  0.84050032  1
  S2-  S172  1  0.45494497  0.51953192  0.36149120  1
  S2-  S173  1  0.45306762  0.49361884  0.86023550  1
  S2-  S174  1  0.45769198  0.76724927  0.35801504  1
  S2-  S175  1  0.29405215  0.74102144  0.86328005  1
  S2-  S176  1  0.60892694  0.00598503  0.34482718  1
  S2-  S177  1  0.62343238  0.10461173  0.86612504  1
  S2-  S178  1  0.72126905  0.25300736  0.35076773  1
  S2-  S179  1  0.62723023  0.32070191  0.84941891  1
  S2-  S180  1  0.67263591  0.48738282  0.33696183  1
  S2-  S181  1  0.61993971  0.48682576  0.77791308  1
  S2-  S182  1  0.67531242  0.76003256  0.32965551  1
  S2-  S183  1  0.61458746  0.65375139  0.85758594  1
  S2-  S184  1  0.87790817  0.01981641  0.34309844  1
  S2-  S185  1  0.86336012  0.00148206  0.84105958  1
  S2-  S186  1  0.93373146  0.30501897  0.34414246  1
  S2-  S187  1  0.86597073  0.22164180  0.84114622  1
  S2-  S188  1  0.88038323  0.51840263  0.33041390  1
  S2-  S189  1  0.80748895  0.50400851  0.85196177  1
  S2-  S190  1  0.89549453  0.73537044  0.34063445  1
  S2-  S191  1  0.80219800  0.76601088  0.84813912  1
  S2-  S192  1  -0.02542065  0.13042635  0.45114800  1
  S2-  S193  1  0.02635463  0.11959215  0.95520890  1
  S2-  S194  1  -0.02215368  0.38576917  0.45632007  1
  S2-  S195  1  0.02341852  0.36893812  0.95539880  1
  S2-  S196  1  -0.02243583  0.62723006  0.45142450  1
  S2-  S197  1  0.02396292  0.60973355  0.96046117  1
  S2-  S198  1  -0.01389129  0.88092186  0.43514417  1
  S2-  S199  1  0.02801547  0.86663114  0.95755213  1
  S2-  S200  1  0.23431104  0.13533120  0.45233217  1
  S2-  S201  1  0.27514207  0.12026202  0.95155418  1
  S2-  S202  1  0.23859308  0.38151684  0.46282341  1
  S2-  S203  1  0.27749263  0.36987803  0.96021014  1
  S2-  S204  1  0.23507706  0.62712538  0.45728327  1
  S2-  S205  1  0.27688719  0.61262638  0.96075176  1
  S2-  S206  1  0.22643430  0.88324857  0.45408651  1
  S2-  S207  1  0.27513458  0.86977661  0.95789879  1
  S2-  S208  1  0.48025865  0.12503757  0.45626716  1
  S2-  S209  1  0.51969257  0.11589191  0.96818823  1
  S2-  S210  1  0.48175516  0.38153315  0.46070715  1
  S2-  S211  1  0.52888403  0.37202016  0.96004257  1
  S2-  S212  1  0.47605008  0.63636538  0.46235040  1
  S2-  S213  1  0.52345413  0.61804952  0.96871720  1
  S2-  S214  1  0.47857130  0.88484811  0.45811390  1
  S2-  S215  1  0.52450181  0.86704877  0.95535147  1
  S2-  S216  1  0.73073455  0.12176206  0.44840826  1
  S2-  S217  1  0.77552299  0.11488039  0.96095936  1
  S2-  S218  1  0.72724747  0.38424917  0.45007491  1
  S2-  S219  1  0.76730364  0.36728152  0.94794776  1
  S2-  S220  1  0.73024909  0.63256801  0.44341363  1
  S2-  S221  1  0.77023015  0.61619355  0.95849724  1
  S2-  S222  1  0.72976781  0.88219885  0.44540428  1
  S2-  S223  1  0.77203866  0.86853596  0.95641472  1
  S2-  S224  1  0.14968772  -0.00764338  0.04611484  1
  S2-  S225  1  0.10806670  0.01438517  0.53574804  1
  S2-  S226  1  0.15066379  0.24176560  0.04281929  1
  S2-  S227  1  0.10417321  0.26211176  0.53539851  1
  S2-  S228  1  0.14995655  0.49485062  0.04935234  1
  S2-  S229  1  0.10343435  0.50473790  0.54527818  1
  S2-  S230  1  0.14943835  0.74054890  0.04173554  1
  S2-  S231  1  0.10650012  0.75073330  0.53601901  1
  S2-  S232  1  0.40319747  -0.00634844  0.05383748  1
  S2-  S233  1  0.35293901  0.00706472  0.55022844  1
  S2-  S234  1  0.39641711  0.24637513  0.04688211  1
  S2-  S235  1  0.36216212  0.25545895  0.54211776  1
  S2-  S236  1  0.39984194  0.48774552  0.05897767  1
  S2-  S237  1  0.35707571  0.50633256  0.54619272  1
  S2-  S238  1  0.40257847  0.74314819  0.05155182  1
  S2-  S239  1  0.34957264  0.76255657  0.54425407  1
  S2-  S240  1  0.65315974  -0.00903383  0.04250206  1
  S2-  S241  1  0.60768652  0.00246688  0.54929146  1
  S2-  S242  1  0.65429862  0.24423148  0.04641524  1
  S2-  S243  1  0.60881303  0.24940825  0.53527799  1
  S2-  S244  1  0.65177800  0.48291941  0.06374115  1
  S2-  S245  1  0.60875625  0.50965175  0.53769768  1
  S2-  S246  1  0.65251447  0.74371876  0.04329832  1
  S2-  S247  1  0.60785839  0.76005088  0.53491700  1
  S2-  S248  1  0.90111045  -0.00217365  0.04524018  1
  S2-  S249  1  0.85764937  -0.00065936  0.54334911  1
  S2-  S250  1  0.89825914  0.24244932  0.04782319  1
  S2-  S251  1  0.85419640  0.25653843  0.53353469  1
  S2-  S252  1  0.89598464  0.48749304  0.04580054  1
  S2-  S253  1  0.86030730  0.51224275  0.53627144  1
  S2-  S254  1  0.90119251  0.74301909  0.03957418  1
  S2-  S255  1  0.86017889  0.76063485  0.53947505  1
