# generated using pymatgen
data_La12Ce14Pr13Nd13Sm12(BiS2)64
_symmetry_space_group_name_H-M   'P 1'
_cell_length_a   16.10157262
_cell_length_b   16.12658935
_cell_length_c   27.37742596
_cell_angle_alpha   89.96250054
_cell_angle_beta   90.22187983
_cell_angle_gamma   90.00798894
_symmetry_Int_Tables_number   1
_chemical_formula_structural   La12Ce14Pr13Nd13Sm12(BiS2)64
_chemical_formula_sum   'La12 Ce14 Pr13 Nd13 Sm12 Bi64 S128'
_cell_volume   7108.86196702
_cell_formula_units_Z   1
loop_
 _symmetry_equiv_pos_site_id
 _symmetry_equiv_pos_as_xyz
  1  'x, y, z'
loop_
 _atom_type_symbol
 _atom_type_oxidation_number
  La3+  3.0
  Ce3+  3.0
  Pr3+  3.0
  Nd3+  3.0
  Sm3+  3.0
  Bi2+  2.0
  S2-  -2.0
loop_
 _atom_site_type_symbol
 _atom_site_label
 _atom_site_symmetry_multiplicity
 _atom_site_fract_x
 _atom_site_fract_y
 _atom_site_fract_z
 _atom_site_occupancy
  La3+  La0  1  0.61897099  -0.01186448  0.43015158  1
  La3+  La1  1  0.14835837  0.50758697  0.90479520  1
  La3+  La2  1  0.11113606  0.73865798  0.42692926  1
  La3+  La3  1  0.63383799  0.52223839  0.93475586  1
  La3+  La4  1  0.01394251  0.89773601  0.06837644  1
  La3+  La5  1  -0.00334909  0.86701509  0.56664209  1
  La3+  La6  1  0.62133584  0.48917935  0.42622270  1
  La3+  La7  1  0.76668893  0.40065022  0.09163661  1
  La3+  La8  1  0.24464703  0.11036790  0.57501215  1
  La3+  La9  1  0.26383086  0.14974073  0.08249614  1
  La3+  La10  1  0.00150911  0.61176714  0.58063477  1
  La3+  La11  1  0.51325033  0.39517903  0.07237975  1
  Ce3+  Ce12  1  0.87067601  0.73769048  0.45337013  1
  Ce3+  Ce13  1  0.24276998  0.86945727  0.55324198  1
  Ce3+  Ce14  1  0.13462196  0.02255726  0.93872669  1
  Ce3+  Ce15  1  0.25185153  0.65205016  0.06539811  1
  Ce3+  Ce16  1  0.74681200  0.86841687  0.56349206  1
  Ce3+  Ce17  1  0.38082291  0.26978017  0.94998657  1
  Ce3+  Ce18  1  0.74531768  0.11696268  0.55172624  1
  Ce3+  Ce19  1  0.49629790  0.37097486  0.55848930  1
  Ce3+  Ce20  1  0.61648433  0.24396208  0.44087618  1
  Ce3+  Ce21  1  0.12108786  0.24038838  0.44491840  1
  Ce3+  Ce22  1  0.51220369  0.64565510  0.05482273  1
  Ce3+  Ce23  1  0.36768726  0.23922631  0.44308866  1
  Ce3+  Ce24  1  0.87384235  0.24343353  0.44203504  1
  Ce3+  Ce25  1  0.86762450  0.49293367  0.43873463  1
  Pr3+  Pr26  1  0.63274751  0.02534957  0.92924352  1
  Pr3+  Pr27  1  0.12019721  -0.00821608  0.41911483  1
  Pr3+  Pr28  1  0.24480487  0.61613989  0.55880804  1
  Pr3+  Pr29  1  0.76073247  0.88970223  0.05704492  1
  Pr3+  Pr30  1  0.73998602  0.60508963  0.58596618  1
  Pr3+  Pr31  1  0.51623956  0.13666517  0.07294746  1
  Pr3+  Pr32  1  0.75662047  0.14541822  0.06080000  1
  Pr3+  Pr33  1  0.49391055  0.11447620  0.57132177  1
  Pr3+  Pr34  1  0.51063288  0.89441208  0.05435242  1
  Pr3+  Pr35  1  0.76110817  0.65061727  0.06450887  1
  Pr3+  Pr36  1  0.89125030  0.76893017  0.92911217  1
  Pr3+  Pr37  1  0.38161688  0.02974228  0.93478532  1
  Pr3+  Pr38  1  0.63320215  0.77761911  0.92159305  1
  Nd3+  Nd39  1  0.36848001  -0.00791253  0.43493023  1
  Nd3+  Nd40  1  0.37443229  0.49514871  0.42831101  1
  Nd3+  Nd41  1  0.88415991  0.27303470  0.94237179  1
  Nd3+  Nd42  1  0.88350531  0.51979894  0.93697504  1
  Nd3+  Nd43  1  0.38077648  0.77221790  0.93915573  1
  Nd3+  Nd44  1  0.49727484  0.86889929  0.56778150  1
  Nd3+  Nd45  1  0.25969685  0.89889427  0.06252982  1
  Nd3+  Nd46  1  0.49393593  0.62280438  0.57139872  1
  Nd3+  Nd47  1  0.11980784  0.49256450  0.43102909  1
  Nd3+  Nd48  1  0.87102720  -0.01077894  0.43226237  1
  Nd3+  Nd49  1  -0.00393582  0.36862033  0.56267598  1
  Nd3+  Nd50  1  0.26349915  0.40665806  0.08737527  1
  Nd3+  Nd51  1  0.62086742  0.73876828  0.44906132  1
  Sm3+  Sm52  1  0.24725256  0.36952809  0.55403055  1
  Sm3+  Sm53  1  0.13480858  0.76936507  0.93572286  1
  Sm3+  Sm54  1  -0.00218973  0.11825730  0.56420885  1
  Sm3+  Sm55  1  0.74469313  0.36749252  0.55785330  1
  Sm3+  Sm56  1  0.88648061  0.02022461  0.94685232  1
  Sm3+  Sm57  1  0.00998207  0.14567303  0.05629998  1
  Sm3+  Sm58  1  0.63145930  0.26952133  0.93891697  1
  Sm3+  Sm59  1  0.00904727  0.39752068  0.05659007  1
  Sm3+  Sm60  1  0.01032904  0.64139872  0.04722118  1
  Sm3+  Sm61  1  0.37051103  0.74143690  0.44483844  1
  Sm3+  Sm62  1  0.38108777  0.52033318  0.94766611  1
  Sm3+  Sm63  1  0.13636739  0.27280187  0.94731284  1
  Bi2+  Bi64  1  0.00401094  0.13581331  0.23834131  1
  Bi2+  Bi65  1  0.01841605  0.08834548  0.79202261  1
  Bi2+  Bi66  1  -0.04263057  0.39991281  0.32036345  1
  Bi2+  Bi67  1  0.03400524  0.28678906  0.78646962  1
  Bi2+  Bi68  1  -0.00190998  0.58450478  0.28563165  1
  Bi2+  Bi69  1  -0.01695290  0.65369412  0.78794721  1
  Bi2+  Bi70  1  -0.00716613  0.87836660  0.29576591  1
  Bi2+  Bi71  1  -0.00704340  0.88898300  0.81268616  1
  Bi2+  Bi72  1  0.18962994  0.10472463  0.27448289  1
  Bi2+  Bi73  1  0.27556610  0.14004792  0.77652082  1
  Bi2+  Bi74  1  0.15214019  0.36571578  0.30658154  1
  Bi2+  Bi75  1  0.28490751  0.33676921  0.78367250  1
  Bi2+  Bi76  1  0.25619961  0.65301589  0.28785794  1
  Bi2+  Bi77  1  0.26386229  0.62734691  0.79228294  1
  Bi2+  Bi78  1  0.26981644  0.87834663  0.29407528  1
  Bi2+  Bi79  1  0.27617271  0.83926760  0.73225418  1
  Bi2+  Bi80  1  0.46657762  0.11142079  0.28495123  1
  Bi2+  Bi81  1  0.48677092  0.08603200  0.81230385  1
  Bi2+  Bi82  1  0.46213197  0.37800944  0.30861271  1
  Bi2+  Bi83  1  0.55611256  0.29404916  0.80540567  1
  Bi2+  Bi84  1  0.50633259  0.61537012  0.26192490  1
  Bi2+  Bi85  1  0.50091645  0.61000416  0.79517997  1
  Bi2+  Bi86  1  0.52554956  0.87328074  0.28841512  1
  Bi2+  Bi87  1  0.50109590  0.84698679  0.80217520  1
  Bi2+  Bi88  1  0.66611866  0.10530347  0.29151234  1
  Bi2+  Bi89  1  0.78918589  0.14014037  0.79154542  1
  Bi2+  Bi90  1  0.74437106  0.36564450  0.29500363  1
  Bi2+  Bi91  1  0.75019837  0.35148892  0.79425899  1
  Bi2+  Bi92  1  0.79574037  0.62706212  0.28714555  1
  Bi2+  Bi93  1  0.74563706  0.54965275  0.77850265  1
  Bi2+  Bi94  1  0.79750567  0.84248795  0.31173776  1
  Bi2+  Bi95  1  0.76363691  0.95432496  0.74908319  1
  Bi2+  Bi96  1  0.12888563  -0.05887327  0.18846364  1
  Bi2+  Bi97  1  0.13823047  -0.00138208  0.71480802  1
  Bi2+  Bi98  1  0.05276234  0.31881543  0.20824904  1
  Bi2+  Bi99  1  0.16579725  0.25089694  0.70295529  1
  Bi2+  Bi100  1  0.13401017  0.49469067  0.21347852  1
  Bi2+  Bi101  1  0.13075929  0.48680505  0.70864297  1
  Bi2+  Bi102  1  0.12417637  0.70007076  0.20815856  1
  Bi2+  Bi103  1  0.11252825  0.75724089  0.70108635  1
  Bi2+  Bi104  1  0.39049877  -0.03767127  0.21486851  1
  Bi2+  Bi105  1  0.38016353  0.00532283  0.70804159  1
  Bi2+  Bi106  1  0.30900162  0.22983608  0.22880103  1
  Bi2+  Bi107  1  0.43423452  0.24869997  0.71951159  1
  Bi2+  Bi108  1  0.34714509  0.48690549  0.22672417  1
  Bi2+  Bi109  1  0.37928567  0.48898521  0.73312647  1
  Bi2+  Bi110  1  0.38823368  0.76400488  0.22429147  1
  Bi2+  Bi111  1  0.35104853  0.66768709  0.68967328  1
  Bi2+  Bi112  1  0.66155662  -0.01223944  0.19871659  1
  Bi2+  Bi113  1  0.60279039  0.05590623  0.72230626  1
  Bi2+  Bi114  1  0.55075618  0.22496153  0.20727790  1
  Bi2+  Bi115  1  0.66089437  0.24850817  0.70797433  1
  Bi2+  Bi116  1  0.61240354  0.50368478  0.20128241  1
  Bi2+  Bi117  1  0.61049660  0.45055154  0.70335291  1
  Bi2+  Bi118  1  0.65983466  0.75193400  0.24582944  1
  Bi2+  Bi119  1  0.62544841  0.73096808  0.70462748  1
  Bi2+  Bi120  1  0.84171583  0.00743603  0.23501890  1
  Bi2+  Bi121  1  0.88407624  0.08396938  0.69491715  1
  Bi2+  Bi122  1  0.81467956  0.20409152  0.24021288  1
  Bi2+  Bi123  1  0.94712741  0.26736761  0.68180883  1
  Bi2+  Bi124  1  0.85740418  0.47423869  0.22170851  1
  Bi2+  Bi125  1  0.87434789  0.43682343  0.71940720  1
  Bi2+  Bi126  1  0.88158545  0.73793150  0.19463944  1
  Bi2+  Bi127  1  0.86575004  0.81022194  0.69893377  1
  S2-  S128  1  0.03489352  0.06926208  0.14286191  1
  S2-  S129  1  0.10815225  0.11288657  0.64251559  1
  S2-  S130  1  -0.07580145  0.38436755  0.14249744  1
  S2-  S131  1  -0.00121645  0.46930725  0.64473475  1
  S2-  S132  1  -0.00881783  0.64091852  0.14555883  1
  S2-  S133  1  -0.02891965  0.68010387  0.67873904  1
  S2-  S134  1  -0.02963610  0.86540185  0.16485640  1
  S2-  S135  1  0.01412569  0.89484604  0.66635950  1
  S2-  S136  1  0.25937064  0.00715818  0.14514232  1
  S2-  S137  1  0.37056695  0.14355272  0.64671759  1
  S2-  S138  1  0.21762581  0.27555906  0.15443799  1
  S2-  S139  1  0.22385303  0.39189502  0.65066872  1
  S2-  S140  1  0.25906873  0.55988807  0.14795878  1
  S2-  S141  1  0.15625414  0.61577957  0.64556740  1
  S2-  S142  1  0.20451435  0.79433719  0.14276227  1
  S2-  S143  1  0.25209024  0.94586716  0.64056663  1
  S2-  S144  1  0.41484128  0.17130330  0.15393727  1
  S2-  S145  1  0.50962731  -0.01457868  0.64337566  1
  S2-  S146  1  0.40349361  0.40446767  0.15345521  1
  S2-  S147  1  0.46828602  0.38836073  0.65451058  1
  S2-  S148  1  0.52582554  0.63125229  0.15132392  1
  S2-  S149  1  0.59508246  0.58880209  0.65074866  1
  S2-  S150  1  0.51911310  0.96978347  0.14413656  1
  S2-  S151  1  0.48499221  0.75783800  0.64695606  1
  S2-  S152  1  0.65356653  0.13753309  0.14185695  1
  S2-  S153  1  0.72103475  0.11357346  0.64713045  1
  S2-  S154  1  0.62876178  0.36150535  0.15210449  1
  S2-  S155  1  0.75407700  0.44992061  0.64392858  1
  S2-  S156  1  0.75293300  0.54778171  0.14795149  1
  S2-  S157  1  0.77176285  0.67030638  0.68333518  1
  S2-  S158  1  0.75055018  0.78145169  0.13514525  1
  S2-  S159  1  0.70868134  0.86862546  0.65940508  1
  S2-  S160  1  0.26017039  0.01613178  0.35502222  1
  S2-  S161  1  0.13692189  -0.00904888  0.84267291  1
  S2-  S162  1  0.12678648  0.20827821  0.34942308  1
  S2-  S163  1  0.15311388  0.34270412  0.85798608  1
  S2-  S164  1  0.12265296  0.60899366  0.35541638  1
  S2-  S165  1  0.09697172  0.54378107  0.80725889  1
  S2-  S166  1  0.12828381  0.85117770  0.34907181  1
  S2-  S167  1  0.09391432  0.76219739  0.83953708  1
  S2-  S168  1  0.48877910  -0.01431844  0.36038927  1
  S2-  S169  1  0.39227391  -0.05475559  0.84389915  1
  S2-  S170  1  0.39290746  0.23541016  0.34592318  1
  S2-  S171  1  0.36650526  0.17105902  0.86815694  1
  S2-  S172  1  0.30848332  0.44546853  0.33769213  1
  S2-  S173  1  0.30817379  0.51234906  0.85889847  1
  S2-  S174  1  0.35829261  0.74658216  0.34720776  1
  S2-  S175  1  0.38736476  0.72841056  0.84264794  1
  S2-  S176  1  0.74604334  -0.01549027  0.35725091  1
  S2-  S177  1  0.63009651  -0.08716642  0.85195841  1
  S2-  S178  1  0.61260969  0.33230377  0.35497600  1
  S2-  S179  1  0.63332495  0.15986651  0.86101946  1
  S2-  S180  1  0.50028133  0.52579044  0.35509125  1
  S2-  S181  1  0.59974751  0.49893888  0.83672383  1
  S2-  S182  1  0.61794433  0.76134721  0.35055677  1
  S2-  S183  1  0.62418794  0.71379377  0.82402903  1
  S2-  S184  1  0.98111708  0.00875340  0.35461117  1
  S2-  S185  1  0.87761574  0.01688017  0.84977136  1
  S2-  S186  1  0.86286122  0.25207873  0.34393392  1
  S2-  S187  1  0.88417147  0.26828653  0.84358336  1
  S2-  S188  1  0.75726795  0.50949602  0.35821849  1
  S2-  S189  1  0.87882271  0.54390838  0.83800146  1
  S2-  S190  1  0.93028416  0.75151274  0.36190261  1
  S2-  S191  1  0.87137261  0.77864992  0.82858932  1
  S2-  S192  1  -0.00562436  0.11885106  0.46013128  1
  S2-  S193  1  0.00956194  0.14823972  0.95140769  1
  S2-  S194  1  -0.00248863  0.36812955  0.45582115  1
  S2-  S195  1  0.01114578  0.39814102  0.95182014  1
  S2-  S196  1  -0.00683914  0.61068594  0.46130620  1
  S2-  S197  1  0.01746759  0.63689384  0.94308257  1
  S2-  S198  1  -0.00780697  0.86794077  0.45976228  1
  S2-  S199  1  0.01114894  0.89645911  0.95488910  1
  S2-  S200  1  0.24421203  0.11818249  0.46222720  1
  S2-  S201  1  0.25183529  0.14833902  0.96606939  1
  S2-  S202  1  0.24558926  0.36889250  0.45096877  1
  S2-  S203  1  0.25893916  0.39608796  0.96629278  1
  S2-  S204  1  0.24951207  0.61568460  0.45302355  1
  S2-  S205  1  0.25461181  0.64498391  0.95508746  1
  S2-  S206  1  0.24588969  0.86348085  0.45123827  1
  S2-  S207  1  0.25635871  0.89416294  0.95297373  1
  S2-  S208  1  0.49549137  0.11975597  0.45964748  1
  S2-  S209  1  0.51022978  0.14891703  0.96442902  1
  S2-  S210  1  0.48985237  0.36704673  0.45493336  1
  S2-  S211  1  0.50651660  0.39503322  0.95382426  1
  S2-  S212  1  0.49312473  0.62004060  0.46287066  1
  S2-  S213  1  0.50530555  0.64618208  0.94806038  1
  S2-  S214  1  0.49426134  0.86104249  0.46037622  1
  S2-  S215  1  0.50456188  0.89678494  0.95080934  1
  S2-  S216  1  0.74570377  0.12184242  0.44850330  1
  S2-  S217  1  0.76489254  0.14543548  0.95553052  1
  S2-  S218  1  0.74728564  0.36347028  0.45576984  1
  S2-  S219  1  0.75765056  0.39360233  0.94221861  1
  S2-  S220  1  0.74462038  0.61704376  0.46234404  1
  S2-  S221  1  0.76033879  0.64896049  0.94638998  1
  S2-  S222  1  0.74750423  0.86317182  0.45923937  1
  S2-  S223  1  0.76645465  0.89494483  0.95063540  1
  S2-  S224  1  0.13508157  0.02275079  0.04179246  1
  S2-  S225  1  0.11590759  -0.00785992  0.53920892  1
  S2-  S226  1  0.12631567  0.27141146  0.04968675  1
  S2-  S227  1  0.12189862  0.24664372  0.54891449  1
  S2-  S228  1  0.13099334  0.51758503  0.05202180  1
  S2-  S229  1  0.12294411  0.48927133  0.53785699  1
  S2-  S230  1  0.12797301  0.76988067  0.03775780  1
  S2-  S231  1  0.11909825  0.74196183  0.54302483  1
  S2-  S232  1  0.38526482  0.02018430  0.04218992  1
  S2-  S233  1  0.37235664  -0.00967021  0.54063212  1
  S2-  S234  1  0.38502044  0.27391197  0.05123743  1
  S2-  S235  1  0.36976274  0.24708813  0.54692175  1
  S2-  S236  1  0.38480780  0.52596195  0.04861336  1
  S2-  S237  1  0.37067278  0.49458783  0.54558192  1
  S2-  S238  1  0.38342382  0.77067793  0.04743807  1
  S2-  S239  1  0.36597232  0.74461850  0.54759545  1
  S2-  S240  1  0.64000270  0.01459994  0.03609822  1
  S2-  S241  1  0.62348227  -0.00832801  0.53961502  1
  S2-  S242  1  0.64140644  0.27528614  0.04084810  1
  S2-  S243  1  0.61933930  0.24373188  0.54879535  1
  S2-  S244  1  0.63821669  0.52007260  0.04222318  1
  S2-  S245  1  0.62015581  0.48985515  0.54002488  1
  S2-  S246  1  0.63277730  0.76938854  0.03221792  1
  S2-  S247  1  0.62615275  0.74031996  0.55314038  1
  S2-  S248  1  0.88302188  0.02047574  0.05120764  1
  S2-  S249  1  0.87245869  -0.00489570  0.54802742  1
  S2-  S250  1  0.88375176  0.26862950  0.04719528  1
  S2-  S251  1  0.87055537  0.24331743  0.54902081  1
  S2-  S252  1  0.88312499  0.51972981  0.04129821  1
  S2-  S253  1  0.86900072  0.49131448  0.54420812  1
  S2-  S254  1  0.89126069  0.76840730  0.03679222  1
  S2-  S255  1  0.86919615  0.73698083  0.55894485  1
