# generated using pymatgen
data_La12Ce14Pr13Nd13Sm12(BiS2)64
_symmetry_space_group_name_H-M   'P 1'
_cell_length_a   16.06680695
_cell_length_b   16.09765133
_cell_length_c   27.18979002
_cell_angle_alpha   90.29550845
_cell_angle_beta   89.83066841
_cell_angle_gamma   89.94419237
_symmetry_Int_Tables_number   1
_chemical_formula_structural   La12Ce14Pr13Nd13Sm12(BiS2)64
_chemical_formula_sum   'La12 Ce14 Pr13 Nd13 Sm12 Bi64 S128'
_cell_volume   7032.18132030
_cell_formula_units_Z   1
loop_
 _symmetry_equiv_pos_site_id
 _symmetry_equiv_pos_as_xyz
  1  'x, y, z'
loop_
 _atom_type_symbol
 _atom_type_oxidation_number
  La3+  3.0
  Ce3+  3.0
  Pr3+  3.0
  Nd3+  3.0
  Sm3+  3.0
  Bi2+  2.0
  S2-  -2.0
loop_
 _atom_site_type_symbol
 _atom_site_label
 _atom_site_symmetry_multiplicity
 _atom_site_fract_x
 _atom_site_fract_y
 _atom_site_fract_z
 _atom_site_occupancy
  La3+  La0  1  0.72340094  0.13140469  0.06996321  1
  La3+  La1  1  0.84570814  0.25105943  0.92052116  1
  La3+  La2  1  0.22311436  0.12246508  0.07088802  1
  La3+  La3  1  0.12438324  0.00685371  0.43534211  1
  La3+  La4  1  0.47113525  0.37751277  0.07555294  1
  La3+  La5  1  0.59604183  0.24415207  0.92646486  1
  La3+  La6  1  0.24488995  0.88948056  0.58708874  1
  La3+  La7  1  0.62555364  0.00297205  0.39434388  1
  La3+  La8  1  0.73766396  0.64041729  0.57767661  1
  La3+  La9  1  0.37183048  0.51291959  0.42734618  1
  La3+  La10  1  0.72489006  0.87511808  0.09923576  1
  La3+  La11  1  0.25124174  0.39141626  0.57483662  1
  Ce3+  Ce12  1  0.50279670  0.38576112  0.55485066  1
  Ce3+  Ce13  1  0.87832747  0.01244654  0.41893569  1
  Ce3+  Ce14  1  0.74998502  0.88751876  0.55767070  1
  Ce3+  Ce15  1  0.37409260  0.00850166  0.43468137  1
  Ce3+  Ce16  1  0.72413568  0.63143336  0.05195022  1
  Ce3+  Ce17  1  0.13065236  0.26331075  0.44017142  1
  Ce3+  Ce18  1  0.72268794  0.37470868  0.05344851  1
  Ce3+  Ce19  1  -0.00450279  0.88877360  0.56646792  1
  Ce3+  Ce20  1  -0.00566229  0.63148551  0.56644363  1
  Ce3+  Ce21  1  0.24733880  0.63447168  0.56182021  1
  Ce3+  Ce22  1  0.21960978  0.37847683  0.07083055  1
  Ce3+  Ce23  1  0.35194226  0.25284916  0.94340180  1
  Ce3+  Ce24  1  0.50085870  0.63410253  0.55384733  1
  Ce3+  Ce25  1  0.35649325  0.50198868  0.94023411  1
  Pr3+  Pr26  1  0.21941033  0.87762399  0.06955694  1
  Pr3+  Pr27  1  -0.02679795  0.38073084  0.06154030  1
  Pr3+  Pr28  1  -0.03105573  0.63087399  0.04925721  1
  Pr3+  Pr29  1  0.74205044  0.37436110  0.57696070  1
  Pr3+  Pr30  1  0.84805001  0.00402227  0.93891957  1
  Pr3+  Pr31  1  0.10292429  0.00281261  0.93197191  1
  Pr3+  Pr32  1  -0.02692439  0.88584396  0.08676943  1
  Pr3+  Pr33  1  0.47684954  0.62844505  0.06925740  1
  Pr3+  Pr34  1  0.49911360  0.13371238  0.55811590  1
  Pr3+  Pr35  1  0.10142913  0.49890353  0.92854043  1
  Pr3+  Pr36  1  0.47595033  0.88390922  0.07830233  1
  Pr3+  Pr37  1  0.59530009  0.75418086  0.93623619  1
  Pr3+  Pr38  1  0.62268803  0.50374802  0.42779436  1
  Nd3+  Nd39  1  0.34567012  0.00100303  0.93975610  1
  Nd3+  Nd40  1  0.87075598  0.26227873  0.43484686  1
  Nd3+  Nd41  1  0.12476464  0.51045176  0.43652762  1
  Nd3+  Nd42  1  0.22018685  0.63011931  0.05318641  1
  Nd3+  Nd43  1  0.24893310  0.13965812  0.57026916  1
  Nd3+  Nd44  1  0.37168285  0.25712835  0.43650359  1
  Nd3+  Nd45  1  0.84529646  0.49862220  0.90174750  1
  Nd3+  Nd46  1  0.50086064  0.88852110  0.55499293  1
  Nd3+  Nd47  1  -0.00338783  0.38546756  0.56412265  1
  Nd3+  Nd48  1  0.61902661  0.25301765  0.42208773  1
  Nd3+  Nd49  1  0.59750879  0.50209691  0.93060956  1
  Nd3+  Nd50  1  0.12039976  0.75995896  0.44920732  1
  Nd3+  Nd51  1  0.63350665  0.75737104  0.42817170  1
  Sm3+  Sm52  1  0.87000945  0.50283695  0.44562092  1
  Sm3+  Sm53  1  -0.00046469  0.13623520  0.55426455  1
  Sm3+  Sm54  1  0.09797232  0.75016210  0.93230014  1
  Sm3+  Sm55  1  0.47654899  0.12845139  0.06681613  1
  Sm3+  Sm56  1  0.74907809  0.13491921  0.54974350  1
  Sm3+  Sm57  1  0.59209639  -0.00120575  0.94313041  1
  Sm3+  Sm58  1  -0.02947405  0.12449344  0.05682758  1
  Sm3+  Sm59  1  0.87035868  0.75713717  0.44550597  1
  Sm3+  Sm60  1  0.37467519  0.76407257  0.45044169  1
  Sm3+  Sm61  1  0.09880156  0.25574187  0.94789309  1
  Sm3+  Sm62  1  0.84709498  0.75618124  0.93854959  1
  Sm3+  Sm63  1  0.34737565  0.75537291  0.94391583  1
  Bi2+  Bi64  1  -0.00763933  0.17725341  0.27947792  1
  Bi2+  Bi65  1  -0.00793429  0.15129552  0.79036792  1
  Bi2+  Bi66  1  0.03883616  0.37869602  0.32139127  1
  Bi2+  Bi67  1  0.12146778  0.39516209  0.80355685  1
  Bi2+  Bi68  1  0.01907309  0.57329366  0.31536719  1
  Bi2+  Bi69  1  -0.00976674  0.69949818  0.79367597  1
  Bi2+  Bi70  1  -0.01319510  0.77135666  0.29767984  1
  Bi2+  Bi71  1  0.01730667  0.96115059  0.80650108  1
  Bi2+  Bi72  1  0.18820597  0.14259745  0.30440611  1
  Bi2+  Bi73  1  0.23442082  0.13089641  0.78954655  1
  Bi2+  Bi74  1  0.23103673  0.39571698  0.28674423  1
  Bi2+  Bi75  1  0.30934232  0.44754400  0.81510979  1
  Bi2+  Bi76  1  0.30608265  0.65188293  0.27655893  1
  Bi2+  Bi77  1  0.23612260  0.62492545  0.78417024  1
  Bi2+  Bi78  1  0.14881863  0.90697488  0.30436363  1
  Bi2+  Bi79  1  0.32072797  0.87444641  0.81108752  1
  Bi2+  Bi80  1  0.39979732  0.12815779  0.28575158  1
  Bi2+  Bi81  1  0.49006084  0.10651459  0.79975410  1
  Bi2+  Bi82  1  0.51629542  0.37738696  0.28679507  1
  Bi2+  Bi83  1  0.54682894  0.35004995  0.73943925  1
  Bi2+  Bi84  1  0.61659417  0.58933664  0.29530130  1
  Bi2+  Bi85  1  0.48494628  0.53979746  0.75971129  1
  Bi2+  Bi86  1  0.45002843  0.82611552  0.28427865  1
  Bi2+  Bi87  1  0.57370397  0.88524132  0.79530884  1
  Bi2+  Bi88  1  0.76900440  0.10439497  0.27577655  1
  Bi2+  Bi89  1  0.74049776  0.13308409  0.78332806  1
  Bi2+  Bi90  1  0.76962655  0.33847591  0.28531025  1
  Bi2+  Bi91  1  0.76955850  0.37454982  0.78139576  1
  Bi2+  Bi92  1  0.81673359  0.58363161  0.30780607  1
  Bi2+  Bi93  1  0.74832864  0.63626399  0.78831431  1
  Bi2+  Bi94  1  0.73433221  0.83228083  0.28217634  1
  Bi2+  Bi95  1  0.83557866  0.90409452  0.77386738  1
  Bi2+  Bi96  1  0.11932067  0.05282828  0.21022387  1
  Bi2+  Bi97  1  0.12663562  0.01977088  0.71699135  1
  Bi2+  Bi98  1  0.09211422  0.30729733  0.21487357  1
  Bi2+  Bi99  1  0.12834397  0.26341369  0.71195081  1
  Bi2+  Bi100  1  0.08897368  0.55035394  0.20840686  1
  Bi2+  Bi101  1  0.17917045  0.48362906  0.70585919  1
  Bi2+  Bi102  1  0.17041607  0.75332140  0.21768558  1
  Bi2+  Bi103  1  0.12856459  0.80641023  0.74835809  1
  Bi2+  Bi104  1  0.31526441  -0.08817333  0.22372741  1
  Bi2+  Bi105  1  0.39683549  -0.02507135  0.70116737  1
  Bi2+  Bi106  1  0.35073070  0.26193370  0.21216322  1
  Bi2+  Bi107  1  0.36539888  0.26907377  0.76691213  1
  Bi2+  Bi108  1  0.37805880  0.53216200  0.20340694  1
  Bi2+  Bi109  1  0.38058753  0.42305079  0.68806893  1
  Bi2+  Bi110  1  0.39805011  0.74333992  0.17898541  1
  Bi2+  Bi111  1  0.39232853  0.71625536  0.74265912  1
  Bi2+  Bi112  1  0.56777344  0.00502000  0.21772149  1
  Bi2+  Bi113  1  0.67383287  -0.01882542  0.71226762  1
  Bi2+  Bi114  1  0.62013934  0.18950963  0.20383608  1
  Bi2+  Bi115  1  0.59948840  0.16747359  0.69620557  1
  Bi2+  Bi116  1  0.64475783  0.45281296  0.21113997  1
  Bi2+  Bi117  1  0.67978426  0.51435280  0.69394703  1
  Bi2+  Bi118  1  0.58876807  0.70763083  0.20983250  1
  Bi2+  Bi119  1  0.61206381  0.76755867  0.70718237  1
  Bi2+  Bi120  1  0.96523809  -0.06537610  0.23026533  1
  Bi2+  Bi121  1  0.86171942  -0.02468170  0.66501742  1
  Bi2+  Bi122  1  0.87916051  0.27271440  0.19490297  1
  Bi2+  Bi123  1  0.88002680  0.16255266  0.69572068  1
  Bi2+  Bi124  1  0.84534924  0.46654104  0.21040732  1
  Bi2+  Bi125  1  0.93811891  0.51269199  0.70430172  1
  Bi2+  Bi126  1  0.86099537  0.69543397  0.21293458  1
  Bi2+  Bi127  1  0.94792851  0.80347944  0.69515275  1
  S2-  S128  1  -0.01994354  0.04425014  0.14503546  1
  S2-  S129  1  0.04135007  0.13641249  0.65094163  1
  S2-  S130  1  0.08793948  0.41783186  0.13731762  1
  S2-  S131  1  0.02465764  0.37701457  0.66276792  1
  S2-  S132  1  -0.01809940  0.63984285  0.15097078  1
  S2-  S133  1  0.05143584  0.60799321  0.65916441  1
  S2-  S134  1  0.10525106  0.84048694  0.14723331  1
  S2-  S135  1  0.09139392  0.88150376  0.64930169  1
  S2-  S136  1  0.21830903  0.22036938  0.15734905  1
  S2-  S137  1  0.25688471  0.03089884  0.64935536  1
  S2-  S138  1  0.33138835  0.39585657  0.14728022  1
  S2-  S139  1  0.24961380  0.26451376  0.64618959  1
  S2-  S140  1  0.22132851  0.60630275  0.15283724  1
  S2-  S141  1  0.29111188  0.56247313  0.64650622  1
  S2-  S142  1  0.24238288  0.99836166  0.14664830  1
  S2-  S143  1  0.31120863  0.82402121  0.68081255  1
  S2-  S144  1  0.46096398  0.02362708  0.14734337  1
  S2-  S145  1  0.45018043  0.12555028  0.65679197  1
  S2-  S146  1  0.49343219  0.24276838  0.14711914  1
  S2-  S147  1  0.59409785  0.38786674  0.63889270  1
  S2-  S148  1  0.51307908  0.51033816  0.14500309  1
  S2-  S149  1  0.57739567  0.63481235  0.64132737  1
  S2-  S150  1  0.58786176  0.86235260  0.16089916  1
  S2-  S151  1  0.51398224  0.88983574  0.65589446  1
  S2-  S152  1  0.71292152  0.04481894  0.16135085  1
  S2-  S153  1  0.74384257  0.21516853  0.63781737  1
  S2-  S154  1  0.72522631  0.27493993  0.13744216  1
  S2-  S155  1  0.80564039  0.40528532  0.67587270  1
  S2-  S156  1  0.72378819  0.69024707  0.14468880  1
  S2-  S157  1  0.82126076  0.61135037  0.66869622  1
  S2-  S158  1  0.85881978  0.86521720  0.16578133  1
  S2-  S159  1  0.72766532  0.79568300  0.64031423  1
  S2-  S160  1  0.01157736  -0.02204227  0.35681524  1
  S2-  S161  1  0.23057487  0.00798072  0.85947814  1
  S2-  S162  1  0.24392947  0.27126891  0.36266555  1
  S2-  S163  1  0.12047537  0.23472383  0.84946210  1
  S2-  S164  1  0.23859890  0.51129859  0.35685111  1
  S2-  S165  1  0.09712787  0.57395350  0.83613072  1
  S2-  S166  1  0.13291249  0.74479275  0.34979362  1
  S2-  S167  1  0.18489846  0.78482994  0.84850103  1
  S2-  S168  1  0.25198501  0.00548294  0.36138787  1
  S2-  S169  1  0.45275231  -0.02887755  0.85913060  1
  S2-  S170  1  0.46434475  0.25583240  0.34828237  1
  S2-  S171  1  0.45360520  0.24686740  0.86086456  1
  S2-  S172  1  0.48737494  0.51116513  0.34913698  1
  S2-  S173  1  0.46582778  0.50694063  0.86146462  1
  S2-  S174  1  0.37898786  0.72716090  0.35384112  1
  S2-  S175  1  0.40533628  0.74889421  0.85042446  1
  S2-  S176  1  0.46456392  0.01658468  0.34433108  1
  S2-  S177  1  0.62329459  0.08023495  0.85602497  1
  S2-  S178  1  0.65024705  0.14687492  0.33467301  1
  S2-  S179  1  0.70414508  0.27055388  0.84489167  1
  S2-  S180  1  0.64937326  0.37851954  0.35327956  1
  S2-  S181  1  0.69770905  0.50228252  0.84326122  1
  S2-  S182  1  0.60363461  0.84530979  0.34006224  1
  S2-  S183  1  0.62341077  0.74167780  0.83432435  1
  S2-  S184  1  0.77891630  -0.03402746  0.33562950  1
  S2-  S185  1  0.86113548  0.10853764  0.85565362  1
  S2-  S186  1  0.87503356  0.15559862  0.35201624  1
  S2-  S187  1  0.89282759  0.36015665  0.84229701  1
  S2-  S188  1  0.87549595  0.39157532  0.36448062  1
  S2-  S189  1  0.89145068  0.55845144  0.80608163  1
  S2-  S190  1  0.77911778  0.73567012  0.36073590  1
  S2-  S191  1  0.84459372  0.75733055  0.83909183  1
  S2-  S192  1  0.00419146  0.14169801  0.45045856  1
  S2-  S193  1  -0.01985352  0.12882014  0.95345715  1
  S2-  S194  1  0.00347874  0.38706147  0.45905133  1
  S2-  S195  1  -0.02535066  0.38072296  0.95350482  1
  S2-  S196  1  -0.00652639  0.63120996  0.45631741  1
  S2-  S197  1  -0.03196931  0.62612930  0.94211278  1
  S2-  S198  1  -0.00741310  0.87818082  0.45999326  1
  S2-  S199  1  -0.02399309  0.87525375  0.93894478  1
  S2-  S200  1  0.24956643  0.13532827  0.46281734  1
  S2-  S201  1  0.22275060  0.13294487  0.96022292  1
  S2-  S202  1  0.24894510  0.38944124  0.46420492  1
  S2-  S203  1  0.22546703  0.37730454  0.95571128  1
  S2-  S204  1  0.24871361  0.63976534  0.45775687  1
  S2-  S205  1  0.22625760  0.62876200  0.94669092  1
  S2-  S206  1  0.24825362  0.87877116  0.46322286  1
  S2-  S207  1  0.22131920  0.87264650  0.96091328  1
  S2-  S208  1  0.50197551  0.12787501  0.45131925  1
  S2-  S209  1  0.47048817  0.12232194  0.96187372  1
  S2-  S210  1  0.49643850  0.38244997  0.45183230  1
  S2-  S211  1  0.47528219  0.37759056  0.96212788  1
  S2-  S212  1  0.50225525  0.63983708  0.44999199  1
  S2-  S213  1  0.47295756  0.63260412  0.96167845  1
  S2-  S214  1  0.50199675  0.88341950  0.44980260  1
  S2-  S215  1  0.47235150  0.87414366  0.96508133  1
  S2-  S216  1  0.74525536  0.13048843  0.44784277  1
  S2-  S217  1  0.72269358  0.12487502  0.96032382  1
  S2-  S218  1  0.74709746  0.38217225  0.46340882  1
  S2-  S219  1  0.72758752  0.38285832  0.95010910  1
  S2-  S220  1  0.74970292  0.62695463  0.46071031  1
  S2-  S221  1  0.72798201  0.62881761  0.94627855  1
  S2-  S222  1  0.75063018  0.88758025  0.45242120  1
  S2-  S223  1  0.72224754  0.87999134  0.93892901  1
  S2-  S224  1  0.09369102  0.00042417  0.03977934  1
  S2-  S225  1  0.12098894  0.01143031  0.54499400  1
  S2-  S226  1  0.09292494  0.24898644  0.05101110  1
  S2-  S227  1  0.12152637  0.26273340  0.54584847  1
  S2-  S228  1  0.09724205  0.50866394  0.03461043  1
  S2-  S229  1  0.12239133  0.51061160  0.54549396  1
  S2-  S230  1  0.09391819  0.75340568  0.03651950  1
  S2-  S231  1  0.12162364  0.75628776  0.55415865  1
  S2-  S232  1  0.35036745  0.00042995  0.04375247  1
  S2-  S233  1  0.37261873  0.00777886  0.54299540  1
  S2-  S234  1  0.34744106  0.24952794  0.04749224  1
  S2-  S235  1  0.37666001  0.26279607  0.54470241  1
  S2-  S236  1  0.34725367  0.50861443  0.04438492  1
  S2-  S237  1  0.37823594  0.51117572  0.53884621  1
  S2-  S238  1  0.34810998  0.75378599  0.05016078  1
  S2-  S239  1  0.37472575  0.76038449  0.55534262  1
  S2-  S240  1  0.60378141  -0.00049227  0.04765177  1
  S2-  S241  1  0.62762748  0.01172206  0.55600492  1
  S2-  S242  1  0.59661446  0.25245987  0.03749997  1
  S2-  S243  1  0.62132835  0.25570989  0.53462456  1
  S2-  S244  1  0.60441506  0.50453288  0.03852940  1
  S2-  S245  1  0.62360124  0.51022843  0.53785940  1
  S2-  S246  1  0.59958665  0.75612133  0.04535162  1
  S2-  S247  1  0.62094036  0.76293920  0.53523204  1
  S2-  S248  1  0.84669645  -0.00131548  0.04570117  1
  S2-  S249  1  0.87585134  0.01511921  0.53776452  1
  S2-  S250  1  0.85477562  0.25243258  0.03759677  1
  S2-  S251  1  0.87693419  0.25961381  0.54302801  1
  S2-  S252  1  0.84583034  0.50297534  0.05438949  1
  S2-  S253  1  0.86904875  0.50686651  0.55049143  1
  S2-  S254  1  0.84883605  0.76276626  0.04320758  1
  S2-  S255  1  0.87437036  0.75825352  0.54898199  1
