# generated using pymatgen
data_La12Ce14Pr13Nd13Sm12(BiS2)64
_symmetry_space_group_name_H-M   'P 1'
_cell_length_a   16.20642601
_cell_length_b   16.19645771
_cell_length_c   27.19247000
_cell_angle_alpha   89.89341590
_cell_angle_beta   89.93662487
_cell_angle_gamma   89.95727965
_symmetry_Int_Tables_number   1
_chemical_formula_structural   La12Ce14Pr13Nd13Sm12(BiS2)64
_chemical_formula_sum   'La12 Ce14 Pr13 Nd13 Sm12 Bi64 S128'
_cell_volume   7137.64284934
_cell_formula_units_Z   1
loop_
 _symmetry_equiv_pos_site_id
 _symmetry_equiv_pos_as_xyz
  1  'x, y, z'
loop_
 _atom_type_symbol
 _atom_type_oxidation_number
  La3+  3.0
  Ce3+  3.0
  Pr3+  3.0
  Nd3+  3.0
  Sm3+  3.0
  Bi2+  2.0
  S2-  -2.0
loop_
 _atom_site_type_symbol
 _atom_site_label
 _atom_site_symmetry_multiplicity
 _atom_site_fract_x
 _atom_site_fract_y
 _atom_site_fract_z
 _atom_site_occupancy
  La3+  La0  1  0.13248392  0.26355306  0.42795660  1
  La3+  La1  1  0.50596402  0.62267893  0.07706139  1
  La3+  La2  1  0.50795875  0.37717332  0.57844353  1
  La3+  La3  1  0.75184037  0.88822193  0.07338832  1
  La3+  La4  1  0.11965038  0.51392304  0.40181742  1
  La3+  La5  1  0.36983844  0.02307904  0.41590060  1
  La3+  La6  1  0.63297405  0.00571543  0.39791483  1
  La3+  La7  1  0.38443951  0.49952753  0.89219802  1
  La3+  La8  1  0.23741767  0.37389564  0.60128032  1
  La3+  La9  1  0.25580438  0.64051140  0.57585585  1
  La3+  La10  1  0.00187418  0.62587592  0.07359363  1
  La3+  La11  1  0.37999336  0.52470147  0.41095461  1
  Ce3+  Ce12  1  0.00337851  0.37873372  0.06278267  1
  Ce3+  Ce13  1  0.87737814  0.00319852  0.93897210  1
  Ce3+  Ce14  1  0.37777696  0.27005740  0.44432964  1
  Ce3+  Ce15  1  0.00307272  0.87925442  0.06037722  1
  Ce3+  Ce16  1  0.12709084  0.50526085  0.93664069  1
  Ce3+  Ce17  1  0.88222123  0.50486350  0.93853331  1
  Ce3+  Ce18  1  0.25849055  0.88811397  0.56241139  1
  Ce3+  Ce19  1  0.00791011  0.13966494  0.55510869  1
  Ce3+  Ce20  1  0.62360639  0.50497862  0.94242864  1
  Ce3+  Ce21  1  0.49930656  0.12851174  0.05439416  1
  Ce3+  Ce22  1  0.75004965  0.62465406  0.06042574  1
  Ce3+  Ce23  1  0.50314572  0.13467011  0.54847450  1
  Ce3+  Ce24  1  0.00814021  0.63271488  0.55877574  1
  Ce3+  Ce25  1  0.87550629  0.25884732  0.43960846  1
  Pr3+  Pr26  1  0.75003929  0.13571622  0.06285326  1
  Pr3+  Pr27  1  0.50067112  0.37759687  0.06442539  1
  Pr3+  Pr28  1  0.50961444  0.63806073  0.58011653  1
  Pr3+  Pr29  1  0.62479982  0.75214860  0.94113959  1
  Pr3+  Pr30  1  0.25879334  0.62823881  0.06656270  1
  Pr3+  Pr31  1  0.50169693  0.88261092  0.06496408  1
  Pr3+  Pr32  1  0.87583242  0.75373714  0.95223702  1
  Pr3+  Pr33  1  0.12684838  0.00351277  0.93971792  1
  Pr3+  Pr34  1  0.25142040  0.38312702  0.07022448  1
  Pr3+  Pr35  1  0.00328234  0.12770893  0.05899160  1
  Pr3+  Pr36  1  0.62255057  0.25819855  0.93142747  1
  Pr3+  Pr37  1  0.13436707  0.75616007  0.43893034  1
  Pr3+  Pr38  1  0.25179086  0.12620089  0.06226015  1
  Nd3+  Nd39  1  0.12993841  0.00830874  0.44184341  1
  Nd3+  Nd40  1  0.38319661  0.76252805  0.44590366  1
  Nd3+  Nd41  1  0.62617423  0.51134520  0.44176063  1
  Nd3+  Nd42  1  0.37670377  0.00106900  0.93420697  1
  Nd3+  Nd43  1  0.75262219  0.13594359  0.55316688  1
  Nd3+  Nd44  1  0.62824824  0.00566169  0.94075506  1
  Nd3+  Nd45  1  0.75471071  0.63546379  0.56573251  1
  Nd3+  Nd46  1  0.25356252  0.87715937  0.06048045  1
  Nd3+  Nd47  1  0.00720593  0.38912408  0.54934187  1
  Nd3+  Nd48  1  0.37757199  0.75130267  0.93699360  1
  Nd3+  Nd49  1  0.62495790  0.26152557  0.42833656  1
  Nd3+  Nd50  1  0.87799108  0.25628889  0.94102412  1
  Nd3+  Nd51  1  0.87987900  0.01182552  0.43434975  1
  Sm3+  Sm52  1  0.37369963  0.26058666  0.94577013  1
  Sm3+  Sm53  1  0.87675356  0.51223279  0.43927795  1
  Sm3+  Sm54  1  0.12983981  0.25610478  0.94713056  1
  Sm3+  Sm55  1  0.12839856  0.74974801  0.94922349  1
  Sm3+  Sm56  1  0.75408548  0.88958572  0.55539695  1
  Sm3+  Sm57  1  0.25752485  0.13378503  0.56188447  1
  Sm3+  Sm58  1  0.50631151  0.89055041  0.55202003  1
  Sm3+  Sm59  1  0.62722268  0.75873185  0.44658175  1
  Sm3+  Sm60  1  0.75387414  0.37611609  0.05759856  1
  Sm3+  Sm61  1  0.75133825  0.38399642  0.55461829  1
  Sm3+  Sm62  1  0.00409312  0.88609997  0.55491106  1
  Sm3+  Sm63  1  0.87745611  0.75973298  0.44766215  1
  Bi2+  Bi64  1  -0.00494512  0.08058485  0.29749760  1
  Bi2+  Bi65  1  0.03321861  0.06974314  0.75563000  1
  Bi2+  Bi66  1  -0.11542814  0.40718990  0.28170133  1
  Bi2+  Bi67  1  -0.00582546  0.35108733  0.79836923  1
  Bi2+  Bi68  1  0.00123748  0.64685394  0.28455119  1
  Bi2+  Bi69  1  -0.02389890  0.60488874  0.78400099  1
  Bi2+  Bi70  1  -0.02302079  0.88506852  0.29970801  1
  Bi2+  Bi71  1  -0.03383319  0.88969475  0.80628222  1
  Bi2+  Bi72  1  0.25100822  0.13375388  0.28109856  1
  Bi2+  Bi73  1  0.30065457  0.06667079  0.78059098  1
  Bi2+  Bi74  1  0.26377821  0.34911688  0.29894835  1
  Bi2+  Bi75  1  0.23362274  0.34643054  0.80266119  1
  Bi2+  Bi76  1  0.26477022  0.71425272  0.28654131  1
  Bi2+  Bi77  1  0.22946834  0.64801852  0.79272487  1
  Bi2+  Bi78  1  0.17216770  0.88200344  0.29963435  1
  Bi2+  Bi79  1  0.24541864  0.86964232  0.79251627  1
  Bi2+  Bi80  1  0.49456792  0.15099144  0.28984812  1
  Bi2+  Bi81  1  0.48841340  0.11293272  0.78553363  1
  Bi2+  Bi82  1  0.49105431  0.35499094  0.30966147  1
  Bi2+  Bi83  1  0.50991200  0.37599738  0.78733157  1
  Bi2+  Bi84  1  0.57320695  0.60542479  0.28195304  1
  Bi2+  Bi85  1  0.50417425  0.64029852  0.78495445  1
  Bi2+  Bi86  1  0.49822735  0.82187869  0.30846341  1
  Bi2+  Bi87  1  0.50967927  0.88261719  0.79432148  1
  Bi2+  Bi88  1  0.79178597  0.12010770  0.28427536  1
  Bi2+  Bi89  1  0.78737102  0.09809295  0.76562718  1
  Bi2+  Bi90  1  0.69122290  0.35588118  0.31148489  1
  Bi2+  Bi91  1  0.76153296  0.37356508  0.79825450  1
  Bi2+  Bi92  1  0.75514031  0.54794327  0.31510706  1
  Bi2+  Bi93  1  0.77984412  0.58045918  0.79945312  1
  Bi2+  Bi94  1  0.76926862  0.83108967  0.29721708  1
  Bi2+  Bi95  1  0.77570880  0.80698484  0.78948777  1
  Bi2+  Bi96  1  0.13288223  0.02277444  0.19745962  1
  Bi2+  Bi97  1  0.18653953  -0.00976702  0.69017740  1
  Bi2+  Bi98  1  0.03979402  0.24694635  0.23492328  1
  Bi2+  Bi99  1  0.08595115  0.23277184  0.70682487  1
  Bi2+  Bi100  1  0.13063753  0.48720919  0.20694980  1
  Bi2+  Bi101  1  0.09323694  0.50345308  0.70567857  1
  Bi2+  Bi102  1  0.08455873  0.77623974  0.21551017  1
  Bi2+  Bi103  1  0.11884283  0.81133526  0.71622447  1
  Bi2+  Bi104  1  0.38546237  0.05398619  0.21593274  1
  Bi2+  Bi105  1  0.37415238  0.01304322  0.67065845  1
  Bi2+  Bi106  1  0.43075760  0.28057478  0.21022103  1
  Bi2+  Bi107  1  0.38213489  0.20918655  0.70615509  1
  Bi2+  Bi108  1  0.36560091  0.52560839  0.20662388  1
  Bi2+  Bi109  1  0.36369984  0.51759100  0.68934259  1
  Bi2+  Bi110  1  0.36037209  0.80948875  0.20942097  1
  Bi2+  Bi111  1  0.38401515  0.82007373  0.71088411  1
  Bi2+  Bi112  1  0.63070749  -0.02342329  0.20135017  1
  Bi2+  Bi113  1  0.62484884  0.00526414  0.73590630  1
  Bi2+  Bi114  1  0.62211333  0.25163002  0.21442740  1
  Bi2+  Bi115  1  0.64004387  0.24635299  0.70043733  1
  Bi2+  Bi116  1  0.63286484  0.45474297  0.21182797  1
  Bi2+  Bi117  1  0.67028988  0.50163616  0.71621498  1
  Bi2+  Bi118  1  0.61748421  0.73654533  0.20900957  1
  Bi2+  Bi119  1  0.64918804  0.78352784  0.70344657  1
  Bi2+  Bi120  1  0.88430396  -0.00714822  0.21527927  1
  Bi2+  Bi121  1  0.88582815  -0.04393778  0.70795472  1
  Bi2+  Bi122  1  0.85086405  0.26021252  0.20994161  1
  Bi2+  Bi123  1  0.84784475  0.26222863  0.71087611  1
  Bi2+  Bi124  1  0.81593158  0.49894165  0.18490070  1
  Bi2+  Bi125  1  0.86387543  0.45822597  0.70693235  1
  Bi2+  Bi126  1  0.82904041  0.67439507  0.23143780  1
  Bi2+  Bi127  1  0.85378329  0.69186584  0.70908555  1
  S2-  S128  1  0.02753239  0.13017542  0.15949206  1
  S2-  S129  1  0.00191645  0.12026903  0.65184061  1
  S2-  S130  1  0.03204779  0.37340658  0.15962448  1
  S2-  S131  1  0.06120214  0.36498110  0.64291336  1
  S2-  S132  1  0.02436748  0.61801262  0.17437990  1
  S2-  S133  1  -0.01506075  0.61818806  0.65514024  1
  S2-  S134  1  -0.00630325  0.89127592  0.15729807  1
  S2-  S135  1  -0.00147577  0.86454421  0.65274713  1
  S2-  S136  1  0.25259599  0.13352433  0.16366608  1
  S2-  S137  1  0.23539155  0.21463553  0.64855000  1
  S2-  S138  1  0.26267582  0.38984609  0.17251838  1
  S2-  S139  1  0.23337560  0.40615296  0.70641262  1
  S2-  S140  1  0.22888758  0.60069182  0.16616089  1
  S2-  S141  1  0.21272042  0.60400805  0.67748925  1
  S2-  S142  1  0.25356360  0.90580764  0.15874382  1
  S2-  S143  1  0.24933975  0.79208047  0.64286481  1
  S2-  S144  1  0.51100125  0.07538029  0.14770426  1
  S2-  S145  1  0.52796106  0.18982879  0.63941153  1
  S2-  S146  1  0.49734605  0.47229442  0.14938366  1
  S2-  S147  1  0.44024033  0.36910044  0.67434229  1
  S2-  S148  1  0.41600137  0.66377048  0.16273253  1
  S2-  S149  1  0.44801007  0.66200437  0.67883275  1
  S2-  S150  1  0.50845549  0.86356055  0.16546111  1
  S2-  S151  1  0.52024728  0.86155432  0.64929664  1
  S2-  S152  1  0.76181734  0.03325371  0.14539909  1
  S2-  S153  1  0.75739656  0.14453828  0.65302789  1
  S2-  S154  1  0.73659544  0.26469481  0.13396889  1
  S2-  S155  1  0.65972197  0.37839551  0.63905969  1
  S2-  S156  1  0.65100399  0.63038636  0.13953890  1
  S2-  S157  1  0.65241777  0.63156967  0.64584806  1
  S2-  S158  1  0.73272297  0.84119114  0.17090661  1
  S2-  S159  1  0.75154455  0.88750362  0.65357131  1
  S2-  S160  1  0.21851134  0.02101649  0.35715104  1
  S2-  S161  1  0.08942584  -0.00802270  0.84229952  1
  S2-  S162  1  0.12854646  0.22529386  0.32841937  1
  S2-  S163  1  0.12678036  0.25500664  0.84773500  1
  S2-  S164  1  0.12969081  0.43478252  0.30793186  1
  S2-  S165  1  0.21914669  0.50080586  0.85135484  1
  S2-  S166  1  0.13749310  0.66361971  0.35257096  1
  S2-  S167  1  0.13799490  0.73364935  0.85010358  1
  S2-  S168  1  0.41378084  -0.05051622  0.32725221  1
  S2-  S169  1  0.37587518  -0.11559302  0.86045078  1
  S2-  S170  1  0.35506476  0.19059901  0.35769208  1
  S2-  S171  1  0.38413137  0.32510322  0.85396449  1
  S2-  S172  1  0.32658561  0.49286252  0.31157150  1
  S2-  S173  1  0.40124315  0.49958087  0.78348470  1
  S2-  S174  1  0.39180573  0.69185861  0.35469050  1
  S2-  S175  1  0.37435711  0.66396801  0.84933806  1
  S2-  S176  1  0.61162988  -0.05578356  0.29675909  1
  S2-  S177  1  0.60247914  0.01135409  0.84352510  1
  S2-  S178  1  0.63731798  0.15809161  0.34635852  1
  S2-  S179  1  0.62970685  0.26908046  0.83076062  1
  S2-  S180  1  0.52926332  0.50762587  0.35848269  1
  S2-  S181  1  0.55628076  0.50240211  0.85228069  1
  S2-  S182  1  0.64450408  0.74696179  0.34871537  1
  S2-  S183  1  0.59335544  0.74208324  0.84049071  1
  S2-  S184  1  0.79012545  -0.01800133  0.35123293  1
  S2-  S185  1  0.84144443  0.00371736  0.84406301  1
  S2-  S186  1  0.89522535  0.20394158  0.34817597  1
  S2-  S187  1  0.88484300  0.25827980  0.84145623  1
  S2-  S188  1  0.95559706  0.52092708  0.35173974  1
  S2-  S189  1  0.99508655  0.49742826  0.86244651  1
  S2-  S190  1  0.89065703  0.74800145  0.35032887  1
  S2-  S191  1  0.89425440  0.74139207  0.85248404  1
  S2-  S192  1  0.00660432  0.13400114  0.44932715  1
  S2-  S193  1  0.00359684  0.13189204  0.95059025  1
  S2-  S194  1  0.00160271  0.38580413  0.44336524  1
  S2-  S195  1  0.00511613  0.37467924  0.95816666  1
  S2-  S196  1  0.00142577  0.63470596  0.45502519  1
  S2-  S197  1  0.00250603  0.63129467  0.96407675  1
  S2-  S198  1  0.00406961  0.88302617  0.44954194  1
  S2-  S199  1  0.00405731  0.87597382  0.95470441  1
  S2-  S200  1  0.24971446  0.14003285  0.45954044  1
  S2-  S201  1  0.25430843  0.12952924  0.95151585  1
  S2-  S202  1  0.25320022  0.39575720  0.43264944  1
  S2-  S203  1  0.25024292  0.37685444  0.96146900  1
  S2-  S204  1  0.26050784  0.63470103  0.46059778  1
  S2-  S205  1  0.25102047  0.63052644  0.95907805  1
  S2-  S206  1  0.25639601  0.88378988  0.45389240  1
  S2-  S207  1  0.24807955  0.87618708  0.95512020  1
  S2-  S208  1  0.50584763  0.13312878  0.44495988  1
  S2-  S209  1  0.49593984  0.13149578  0.94684840  1
  S2-  S210  1  0.50143864  0.38849763  0.46086621  1
  S2-  S211  1  0.49824627  0.38013107  0.95685894  1
  S2-  S212  1  0.50620928  0.63584331  0.46516104  1
  S2-  S213  1  0.50136169  0.62822272  0.96008102  1
  S2-  S214  1  0.51068354  0.88954450  0.44639372  1
  S2-  S215  1  0.50453654  0.88140038  0.95693981  1
  S2-  S216  1  0.75233819  0.13212386  0.44858416  1
  S2-  S217  1  0.75008395  0.13375571  0.95047502  1
  S2-  S218  1  0.75327721  0.38647467  0.44963099  1
  S2-  S219  1  0.75258423  0.38003351  0.95197930  1
  S2-  S220  1  0.75423764  0.63591514  0.45839565  1
  S2-  S221  1  0.75189922  0.62721178  0.95277886  1
  S2-  S222  1  0.75145136  0.88245170  0.45223732  1
  S2-  S223  1  0.74993560  0.87980268  0.95671437  1
  S2-  S224  1  0.12884053  0.00210444  0.04739459  1
  S2-  S225  1  0.12922539  0.01015333  0.54787842  1
  S2-  S226  1  0.12940519  0.25298270  0.05253149  1
  S2-  S227  1  0.13172212  0.26295692  0.53774424  1
  S2-  S228  1  0.12697911  0.50486063  0.05022813  1
  S2-  S229  1  0.13420953  0.50822333  0.55364999  1
  S2-  S230  1  0.12822616  0.75272103  0.05563613  1
  S2-  S231  1  0.12539279  0.76243613  0.54541088  1
  S2-  S232  1  0.37449139  0.00283601  0.04154518  1
  S2-  S233  1  0.37966506  0.01189955  0.53585683  1
  S2-  S234  1  0.37430800  0.25338345  0.05195110  1
  S2-  S235  1  0.37225358  0.26314226  0.54918324  1
  S2-  S236  1  0.37561945  0.50222971  0.05363794  1
  S2-  S237  1  0.37852901  0.50821270  0.57266846  1
  S2-  S238  1  0.37893389  0.75683533  0.04666521  1
  S2-  S239  1  0.38791233  0.76330323  0.55031013  1
  S2-  S240  1  0.62586594  0.00821446  0.04520859  1
  S2-  S241  1  0.63071703  0.01078175  0.54969823  1
  S2-  S242  1  0.62090793  0.25453248  0.03818689  1
  S2-  S243  1  0.63200439  0.25859658  0.53438021  1
  S2-  S244  1  0.63138335  0.49466595  0.04592518  1
  S2-  S245  1  0.63084810  0.51024567  0.54533414  1
  S2-  S246  1  0.62782474  0.75986220  0.04692076  1
  S2-  S247  1  0.63134492  0.76638843  0.54869422  1
  S2-  S248  1  0.88001214  0.00621881  0.04466419  1
  S2-  S249  1  0.88055663  0.01091013  0.54228018  1
  S2-  S250  1  0.88162463  0.25514014  0.04640577  1
  S2-  S251  1  0.87828222  0.26358348  0.54691572  1
  S2-  S252  1  0.87636528  0.50025451  0.04677179  1
  S2-  S253  1  0.87504181  0.50810979  0.54604975  1
  S2-  S254  1  0.87426939  0.75270045  0.06037361  1
  S2-  S255  1  0.87772049  0.76253636  0.55180036  1
