# generated using pymatgen
data_La12Ce14Pr13Nd13Sm12(BiS2)64
_symmetry_space_group_name_H-M   'P 1'
_cell_length_a   16.09271459
_cell_length_b   16.10567556
_cell_length_c   27.20419120
_cell_angle_alpha   89.93589264
_cell_angle_beta   89.90439519
_cell_angle_gamma   90.15297503
_symmetry_Int_Tables_number   1
_chemical_formula_structural   La12Ce14Pr13Nd13Sm12(BiS2)64
_chemical_formula_sum   'La12 Ce14 Pr13 Nd13 Sm12 Bi64 S128'
_cell_volume   7050.85278303
_cell_formula_units_Z   1
loop_
 _symmetry_equiv_pos_site_id
 _symmetry_equiv_pos_as_xyz
  1  'x, y, z'
loop_
 _atom_type_symbol
 _atom_type_oxidation_number
  La3+  3.0
  Ce3+  3.0
  Pr3+  3.0
  Nd3+  3.0
  Sm3+  3.0
  Bi2+  2.0
  S2-  -2.0
loop_
 _atom_site_type_symbol
 _atom_site_label
 _atom_site_symmetry_multiplicity
 _atom_site_fract_x
 _atom_site_fract_y
 _atom_site_fract_z
 _atom_site_occupancy
  La3+  La0  1  0.86957657  0.24258387  0.91432708  1
  La3+  La1  1  -0.01058536  0.14526324  0.58654912  1
  La3+  La2  1  0.73340855  0.65084538  0.58801639  1
  La3+  La3  1  0.74703431  0.61007051  0.10152708  1
  La3+  La4  1  0.36180530  0.02647267  0.42727478  1
  La3+  La5  1  0.61860349  0.76318171  0.40448612  1
  La3+  La6  1  0.74917291  0.10912057  0.07336799  1
  La3+  La7  1  0.25632711  0.13872036  0.59511188  1
  La3+  La8  1  0.13596193  0.23879645  0.91841781  1
  La3+  La9  1  0.73979619  0.39450801  0.57615444  1
  La3+  La10  1  0.12548435  -0.01915289  0.88644230  1
  La3+  La11  1  0.10891409  0.26997081  0.42073187  1
  Ce3+  Ce12  1  0.12732264  0.73562435  0.93803380  1
  Ce3+  Ce13  1  0.12463646  0.48563964  0.93510464  1
  Ce3+  Ce14  1  0.24106327  0.64232039  0.56792073  1
  Ce3+  Ce15  1  0.73862553  0.13957622  0.56672246  1
  Ce3+  Ce16  1  0.24053556  0.38731311  0.56606676  1
  Ce3+  Ce17  1  -0.00834415  0.89126184  0.56124895  1
  Ce3+  Ce18  1  0.50526821  0.61267632  0.06089281  1
  Ce3+  Ce19  1  0.25093699  0.86061684  0.05802874  1
  Ce3+  Ce20  1  0.36331897  0.50975517  0.43827526  1
  Ce3+  Ce21  1  0.63416051  -0.01217309  0.93346531  1
  Ce3+  Ce22  1  0.86802443  0.26895409  0.45170847  1
  Ce3+  Ce23  1  0.11763133  0.51454771  0.44883350  1
  Ce3+  Ce24  1  0.87385954  0.48610788  0.94291355  1
  Ce3+  Ce25  1  0.00230958  0.35738724  0.05343789  1
  Pr3+  Pr26  1  -0.00155102  0.61278651  0.06394051  1
  Pr3+  Pr27  1  -0.00945942  0.39074807  0.57912920  1
  Pr3+  Pr28  1  0.86820196  0.02009312  0.44774220  1
  Pr3+  Pr29  1  0.48910154  0.89243083  0.54946724  1
  Pr3+  Pr30  1  0.38001154  0.23254355  0.93258935  1
  Pr3+  Pr31  1  0.87724918  -0.00910632  0.93534785  1
  Pr3+  Pr32  1  0.75335081  0.35778526  0.06849997  1
  Pr3+  Pr33  1  0.49200888  0.39224614  0.57014305  1
  Pr3+  Pr34  1  0.87774930  0.73819016  0.93625408  1
  Pr3+  Pr35  1  0.50198136  0.36133854  0.05610209  1
  Pr3+  Pr36  1  0.37887070  -0.01549625  0.93506730  1
  Pr3+  Pr37  1  0.61916023  0.01916961  0.42850248  1
  Pr3+  Pr38  1  0.11354683  0.76555155  0.42838293  1
  Nd3+  Nd39  1  0.38054044  0.48733129  0.93936856  1
  Nd3+  Nd40  1  0.75246858  0.86316480  0.06936079  1
  Nd3+  Nd41  1  0.25082407  0.36093107  0.05891064  1
  Nd3+  Nd42  1  0.24282061  0.88686662  0.56046456  1
  Nd3+  Nd43  1  0.49105931  0.64249022  0.55381611  1
  Nd3+  Nd44  1  0.49483619  0.10911223  0.06502006  1
  Nd3+  Nd45  1  0.11699503  0.02306570  0.45135304  1
  Nd3+  Nd46  1  0.86306494  0.51802448  0.44750500  1
  Nd3+  Nd47  1  0.36559963  0.76726203  0.42979474  1
  Nd3+  Nd48  1  0.73763590  0.88778396  0.55422110  1
  Nd3+  Nd49  1  0.24811743  0.11012987  0.06012290  1
  Nd3+  Nd50  1  0.61686846  0.26786202  0.43602430  1
  Nd3+  Nd51  1  0.00838820  0.11377952  0.05072608  1
  Sm3+  Sm52  1  0.37886039  0.73719267  0.94334158  1
  Sm3+  Sm53  1  0.86611596  0.76493799  0.43207029  1
  Sm3+  Sm54  1  0.62794274  0.23564099  0.94286072  1
  Sm3+  Sm55  1  0.49292299  0.14065731  0.55678558  1
  Sm3+  Sm56  1  0.36511303  0.26980970  0.43781984  1
  Sm3+  Sm57  1  0.25182437  0.61126850  0.04989377  1
  Sm3+  Sm58  1  0.63226818  0.73620323  0.94283059  1
  Sm3+  Sm59  1  -0.01012217  0.64484424  0.55787769  1
  Sm3+  Sm60  1  0.61813742  0.51412067  0.43873916  1
  Sm3+  Sm61  1  0.63032047  0.48848063  0.94359520  1
  Sm3+  Sm62  1  0.00230914  0.86157381  0.05338569  1
  Sm3+  Sm63  1  0.50532320  0.86008868  0.05463740  1
  Bi2+  Bi64  1  0.00731130  0.11166829  0.31126439  1
  Bi2+  Bi65  1  -0.01557018  0.07313627  0.77366532  1
  Bi2+  Bi66  1  -0.00585652  0.37710016  0.29790928  1
  Bi2+  Bi67  1  0.01197910  0.42638462  0.78822006  1
  Bi2+  Bi68  1  0.05064027  0.64660943  0.30559815  1
  Bi2+  Bi69  1  0.05789208  0.61434661  0.82025170  1
  Bi2+  Bi70  1  -0.02186148  0.90974307  0.24618525  1
  Bi2+  Bi71  1  -0.01999677  0.79452200  0.80097719  1
  Bi2+  Bi72  1  0.24641053  0.07786274  0.29748048  1
  Bi2+  Bi73  1  0.25392197  0.10439536  0.78435394  1
  Bi2+  Bi74  1  0.25106891  0.45643831  0.29164930  1
  Bi2+  Bi75  1  0.28741405  0.39585668  0.79265868  1
  Bi2+  Bi76  1  0.23866660  0.62665130  0.34991524  1
  Bi2+  Bi77  1  0.24318911  0.60190963  0.77970985  1
  Bi2+  Bi78  1  0.21319811  0.79789928  0.29281202  1
  Bi2+  Bi79  1  0.28139581  0.83173055  0.78660804  1
  Bi2+  Bi80  1  0.49383131  0.16202958  0.28371453  1
  Bi2+  Bi81  1  0.49220318  0.18351311  0.81343783  1
  Bi2+  Bi82  1  0.49013292  0.38071822  0.28825324  1
  Bi2+  Bi83  1  0.50798065  0.37886634  0.78812068  1
  Bi2+  Bi84  1  0.48397725  0.61270961  0.28423681  1
  Bi2+  Bi85  1  0.48589627  0.66671742  0.77478815  1
  Bi2+  Bi86  1  0.46882789  0.88278273  0.28163683  1
  Bi2+  Bi87  1  0.51914273  0.98815085  0.81374332  1
  Bi2+  Bi88  1  0.75939717  0.13153338  0.29208961  1
  Bi2+  Bi89  1  0.68946609  0.11397161  0.78632171  1
  Bi2+  Bi90  1  0.73464325  0.33002168  0.29606593  1
  Bi2+  Bi91  1  0.74011239  0.37286234  0.79306389  1
  Bi2+  Bi92  1  0.75022628  0.61796247  0.28993374  1
  Bi2+  Bi93  1  0.72342110  0.61624660  0.78279646  1
  Bi2+  Bi94  1  0.75184280  0.90446930  0.28830074  1
  Bi2+  Bi95  1  0.67786531  0.86757179  0.80315239  1
  Bi2+  Bi96  1  0.16605097  -0.05029300  0.22101605  1
  Bi2+  Bi97  1  0.12721474  -0.04817576  0.68244938  1
  Bi2+  Bi98  1  0.12444380  0.22791468  0.20040700  1
  Bi2+  Bi99  1  0.14470730  0.27576062  0.72547836  1
  Bi2+  Bi100  1  0.09763264  0.49219844  0.22167931  1
  Bi2+  Bi101  1  0.13480225  0.49133652  0.70003752  1
  Bi2+  Bi102  1  0.14006134  0.68390247  0.20350364  1
  Bi2+  Bi103  1  0.10015522  0.68783822  0.70734151  1
  Bi2+  Bi104  1  0.37038243  -0.00215245  0.21221733  1
  Bi2+  Bi105  1  0.42753190  -0.01006295  0.71081779  1
  Bi2+  Bi106  1  0.37970024  0.24859158  0.20830323  1
  Bi2+  Bi107  1  0.40679835  0.26428785  0.71283886  1
  Bi2+  Bi108  1  0.38143873  0.50576308  0.21121415  1
  Bi2+  Bi109  1  0.32650980  0.51286545  0.66882141  1
  Bi2+  Bi110  1  0.34140047  0.70157870  0.22133457  1
  Bi2+  Bi111  1  0.34987061  0.70295771  0.69319518  1
  Bi2+  Bi112  1  0.63934120  -0.01894466  0.20668528  1
  Bi2+  Bi113  1  0.62041363  0.06646930  0.67639187  1
  Bi2+  Bi114  1  0.63413506  0.23855947  0.20627165  1
  Bi2+  Bi115  1  0.61813611  0.25444262  0.70997952  1
  Bi2+  Bi116  1  0.64254411  0.46456538  0.22973417  1
  Bi2+  Bi117  1  0.51353415  0.51437204  0.70064019  1
  Bi2+  Bi118  1  0.60635718  0.74204339  0.21256112  1
  Bi2+  Bi119  1  0.59857285  0.78287498  0.70846748  1
  Bi2+  Bi120  1  0.89454107  0.07512892  0.20825620  1
  Bi2+  Bi121  1  0.76957326  -0.03183469  0.71881708  1
  Bi2+  Bi122  1  0.88365303  0.27233740  0.22176728  1
  Bi2+  Bi123  1  0.87733030  0.26650057  0.71614397  1
  Bi2+  Bi124  1  0.90307544  0.52230694  0.24128166  1
  Bi2+  Bi125  1  0.89321120  0.52763457  0.72219275  1
  Bi2+  Bi126  1  0.88994243  0.74833785  0.21246264  1
  Bi2+  Bi127  1  0.86349978  0.78492611  0.71313912  1
  S2-  S128  1  0.11946561  0.11516122  0.13491149  1
  S2-  S129  1  -0.00754111  0.04435272  0.67128467  1
  S2-  S130  1  0.01020907  0.31015433  0.14877513  1
  S2-  S131  1  0.02237846  0.27553264  0.66022567  1
  S2-  S132  1  -0.09249924  0.61416987  0.15059601  1
  S2-  S133  1  -0.04794610  0.64430377  0.65506134  1
  S2-  S134  1  0.00008721  0.83858589  0.15167227  1
  S2-  S135  1  -0.00863465  0.84685432  0.65632702  1
  S2-  S136  1  0.36548659  0.11352604  0.13847711  1
  S2-  S137  1  0.18118090  0.12564531  0.68973389  1
  S2-  S138  1  0.24799109  0.31997559  0.15676563  1
  S2-  S139  1  0.26436676  0.30160373  0.65167783  1
  S2-  S140  1  0.26445199  0.59395758  0.14718029  1
  S2-  S141  1  0.21558438  0.76202557  0.63824910  1
  S2-  S142  1  0.27798866  0.87868924  0.15486388  1
  S2-  S143  1  0.29402280  0.96551029  0.64657380  1
  S2-  S144  1  0.59981865  0.10151512  0.14528459  1
  S2-  S145  1  0.41657045  0.13951355  0.64657704  1
  S2-  S146  1  0.50129924  0.32546424  0.15459977  1
  S2-  S147  1  0.60963539  0.39381405  0.64743011  1
  S2-  S148  1  0.57858752  0.61747784  0.15006262  1
  S2-  S149  1  0.57306635  0.65137585  0.64227332  1
  S2-  S150  1  0.53624398  0.86491569  0.15250731  1
  S2-  S151  1  0.50079339  0.87816334  0.65097240  1
  S2-  S152  1  0.77067425  0.23732119  0.14389346  1
  S2-  S153  1  0.81917808  0.16427229  0.65264394  1
  S2-  S154  1  0.74280262  0.45832812  0.15423106  1
  S2-  S155  1  0.85973827  0.40203789  0.65320201  1
  S2-  S156  1  0.74941239  0.76287771  0.15577738  1
  S2-  S157  1  0.74848703  0.58326649  0.68926403  1
  S2-  S158  1  0.77629579  0.98174246  0.14627865  1
  S2-  S159  1  0.74548675  0.80278883  0.64254057  1
  S2-  S160  1  0.11106732  0.00419466  0.35063832  1
  S2-  S161  1  0.13763881  -0.02991496  0.77680048  1
  S2-  S162  1  0.14935236  0.21086770  0.31899332  1
  S2-  S163  1  0.11035766  0.14077563  0.83511423  1
  S2-  S164  1  0.11214160  0.42331427  0.36452393  1
  S2-  S165  1  0.13797936  0.38749435  0.85335286  1
  S2-  S166  1  -0.01272906  0.77396479  0.35673253  1
  S2-  S167  1  0.14627795  0.80572186  0.84969241  1
  S2-  S168  1  0.34656733  -0.06390573  0.33888658  1
  S2-  S169  1  0.29660631  -0.02431913  0.84646756  1
  S2-  S170  1  0.37013122  0.16280612  0.35478104  1
  S2-  S171  1  0.29489149  0.24104363  0.84479644  1
  S2-  S172  1  0.36708528  0.39284868  0.36273867  1
  S2-  S173  1  0.40385974  0.48998762  0.84091706  1
  S2-  S174  1  0.46707003  0.75329870  0.34707954  1
  S2-  S175  1  0.38391288  0.75506340  0.84477992  1
  S2-  S176  1  0.61953625  0.14879517  0.35730020  1
  S2-  S177  1  0.75046688  -0.00212986  0.86019429  1
  S2-  S178  1  0.61507102  0.38964191  0.36261530  1
  S2-  S179  1  0.71126839  0.24970722  0.85653461  1
  S2-  S180  1  0.62250921  0.60291331  0.35063895  1
  S2-  S181  1  0.65503885  0.48925087  0.84487586  1
  S2-  S182  1  0.61145609  0.91819808  0.34197629  1
  S2-  S183  1  0.61646050  0.71318127  0.84461728  1
  S2-  S184  1  0.85729122  0.01379836  0.34679618  1
  S2-  S185  1  0.96155069  -0.04485190  0.84758216  1
  S2-  S186  1  0.94815947  0.25279713  0.36518357  1
  S2-  S187  1  0.90235510  0.19277698  0.81341453  1
  S2-  S188  1  0.85954146  0.51312177  0.34666361  1
  S2-  S189  1  0.87431210  0.40274312  0.85643063  1
  S2-  S190  1  0.76824466  0.76355515  0.34564521  1
  S2-  S191  1  0.85458317  0.69354394  0.83784748  1
  S2-  S192  1  -0.00744845  0.14357771  0.46870198  1
  S2-  S193  1  0.00309714  0.11513393  0.94536744  1
  S2-  S194  1  -0.01026186  0.39461550  0.46951144  1
  S2-  S195  1  0.00164633  0.36098867  0.95022285  1
  S2-  S196  1  -0.00913865  0.63803704  0.45377923  1
  S2-  S197  1  0.00038711  0.61024687  0.95555232  1
  S2-  S198  1  -0.00874471  0.89499669  0.45610923  1
  S2-  S199  1  0.00595080  0.86027727  0.95104807  1
  S2-  S200  1  0.23441553  0.15131606  0.45116411  1
  S2-  S201  1  0.25304265  0.10723462  0.95106386  1
  S2-  S202  1  0.23860673  0.38794659  0.46224792  1
  S2-  S203  1  0.25891244  0.36587359  0.95367104  1
  S2-  S204  1  0.24161093  0.64110754  0.46132956  1
  S2-  S205  1  0.25483812  0.61117983  0.94486094  1
  S2-  S206  1  0.23867791  0.88984868  0.45156138  1
  S2-  S207  1  0.25514923  0.85681575  0.95370651  1
  S2-  S208  1  0.49247134  0.14532901  0.45501102  1
  S2-  S209  1  0.50526573  0.11013663  0.95470622  1
  S2-  S210  1  0.49286203  0.39141653  0.46385206  1
  S2-  S211  1  0.50512533  0.36186692  0.94838788  1
  S2-  S212  1  0.48670832  0.63437244  0.44965656  1
  S2-  S213  1  0.50493993  0.61367387  0.95265095  1
  S2-  S214  1  0.48759898  0.89452613  0.44512355  1
  S2-  S215  1  0.50613241  0.85820819  0.94917478  1
  S2-  S216  1  0.74329435  0.14415992  0.45930714  1
  S2-  S217  1  0.75214872  0.11771936  0.95996658  1
  S2-  S218  1  0.74284009  0.39158183  0.46413183  1
  S2-  S219  1  0.74759753  0.36354702  0.96075195  1
  S2-  S220  1  0.74239804  0.64183121  0.45328187  1
  S2-  S221  1  0.75156471  0.61183139  0.95085526  1
  S2-  S222  1  0.74357644  0.89109950  0.44966468  1
  S2-  S223  1  0.75294839  0.85946114  0.95825771  1
  S2-  S224  1  0.12740982  -0.02026136  0.04514497  1
  S2-  S225  1  0.12102775  0.01824983  0.55699680  1
  S2-  S226  1  0.13129571  0.24025345  0.03229115  1
  S2-  S227  1  0.12078298  0.26386388  0.55478369  1
  S2-  S228  1  0.12707186  0.48836512  0.04591830  1
  S2-  S229  1  0.11417468  0.51902709  0.55671067  1
  S2-  S230  1  0.12712564  0.73401859  0.04668385  1
  S2-  S231  1  0.11139279  0.76581854  0.53654789  1
  S2-  S232  1  0.37912416  -0.02032466  0.04187853  1
  S2-  S233  1  0.36613676  0.02103912  0.53632195  1
  S2-  S234  1  0.37506405  0.23850934  0.03947409  1
  S2-  S235  1  0.37094237  0.26621121  0.54394344  1
  S2-  S236  1  0.37681752  0.48817922  0.04655546  1
  S2-  S237  1  0.36656346  0.51559765  0.54594515  1
  S2-  S238  1  0.37858324  0.73490116  0.04904182  1
  S2-  S239  1  0.36685698  0.76450945  0.53845724  1
  S2-  S240  1  0.62486802  -0.01780061  0.04074356  1
  S2-  S241  1  0.61624378  0.01591530  0.53904980  1
  S2-  S242  1  0.62252233  0.23578351  0.04531942  1
  S2-  S243  1  0.61574174  0.26319235  0.54725137  1
  S2-  S244  1  0.62753030  0.48820572  0.04748364  1
  S2-  S245  1  0.61806072  0.52022842  0.54437912  1
  S2-  S246  1  0.62969519  0.73644933  0.04620302  1
  S2-  S247  1  0.61322739  0.76768129  0.53660208  1
  S2-  S248  1  0.88484000  -0.01338229  0.04313098  1
  S2-  S249  1  0.86327016  0.01270681  0.55499169  1
  S2-  S250  1  0.88223033  0.23364525  0.03839995  1
  S2-  S251  1  0.86499718  0.26778072  0.55315603  1
  S2-  S252  1  0.87788538  0.48416991  0.04820849  1
  S2-  S253  1  0.86178454  0.52716626  0.55353095  1
  S2-  S254  1  0.87602899  0.73850724  0.04439102  1
  S2-  S255  1  0.86711683  0.76532491  0.54014609  1
