# generated using pymatgen
data_La12Ce14Pr13Nd13Sm12(BiS2)64
_symmetry_space_group_name_H-M   'P 1'
_cell_length_a   16.12112176
_cell_length_b   16.11402824
_cell_length_c   27.17933860
_cell_angle_alpha   89.73945931
_cell_angle_beta   89.85002265
_cell_angle_gamma   90.04150224
_symmetry_Int_Tables_number   1
_chemical_formula_structural   La12Ce14Pr13Nd13Sm12(BiS2)64
_chemical_formula_sum   'La12 Ce14 Pr13 Nd13 Sm12 Bi64 S128'
_cell_volume   7060.44650449
_cell_formula_units_Z   1
loop_
 _symmetry_equiv_pos_site_id
 _symmetry_equiv_pos_as_xyz
  1  'x, y, z'
loop_
 _atom_type_symbol
 _atom_type_oxidation_number
  La3+  3.0
  Ce3+  3.0
  Pr3+  3.0
  Nd3+  3.0
  Sm3+  3.0
  Bi2+  2.0
  S2-  -2.0
loop_
 _atom_site_type_symbol
 _atom_site_label
 _atom_site_symmetry_multiplicity
 _atom_site_fract_x
 _atom_site_fract_y
 _atom_site_fract_z
 _atom_site_occupancy
  La3+  La0  1  0.24894408  0.11984952  0.08644461  1
  La3+  La1  1  0.25259802  0.62618672  0.08059875  1
  La3+  La2  1  0.24836538  0.12775316  0.57881385  1
  La3+  La3  1  -0.00022107  0.62627085  0.07704562  1
  La3+  La4  1  0.25342063  0.62705792  0.56624529  1
  La3+  La5  1  0.87190562  -0.01336517  0.89488949  1
  La3+  La6  1  0.38289865  0.50688282  0.43120132  1
  La3+  La7  1  0.00093490  0.38559899  0.56735930  1
  La3+  La8  1  0.12846162  0.00866144  0.92198286  1
  La3+  La9  1  0.87233916  0.76671286  0.41317401  1
  La3+  La10  1  -0.00646338  0.35917627  0.09928818  1
  La3+  La11  1  0.26127750  0.37658407  0.61592878  1
  Ce3+  Ce12  1  0.13539301  0.51277420  0.42749688  1
  Ce3+  Ce13  1  0.88208848  0.00995932  0.44067609  1
  Ce3+  Ce14  1  0.63358377  0.25757361  0.44747239  1
  Ce3+  Ce15  1  0.37349128  0.74954821  0.94203423  1
  Ce3+  Ce16  1  0.75473042  0.63860225  0.55821966  1
  Ce3+  Ce17  1  0.00146181  0.87710690  0.05496769  1
  Ce3+  Ce18  1  0.63299726  0.50750240  0.43024835  1
  Ce3+  Ce19  1  0.13063062  0.75588333  0.44046323  1
  Ce3+  Ce20  1  0.50355394  0.13441028  0.55688755  1
  Ce3+  Ce21  1  0.62977731  0.24953232  0.94477256  1
  Ce3+  Ce22  1  0.24954589  0.88001878  0.05300478  1
  Ce3+  Ce23  1  0.00198990  0.88027116  0.55785106  1
  Ce3+  Ce24  1  0.50030294  0.37643995  0.06462797  1
  Ce3+  Ce25  1  0.37732931  0.01020420  0.43856163  1
  Pr3+  Pr26  1  0.88114106  0.26148942  0.43395689  1
  Pr3+  Pr27  1  0.75190712  0.62801225  0.07711454  1
  Pr3+  Pr28  1  0.50608943  0.62986461  0.55835494  1
  Pr3+  Pr29  1  0.62058776  0.50391321  0.92748670  1
  Pr3+  Pr30  1  0.37633187  0.25935790  0.44380941  1
  Pr3+  Pr31  1  0.37424586  0.00541726  0.93056998  1
  Pr3+  Pr32  1  0.13016147  0.00940503  0.43978170  1
  Pr3+  Pr33  1  0.63323036  0.01085555  0.43710974  1
  Pr3+  Pr34  1  0.25260293  0.37732043  0.07451378  1
  Pr3+  Pr35  1  0.12316826  0.25580430  0.93864580  1
  Pr3+  Pr36  1  0.75389870  0.12157644  0.06884509  1
  Pr3+  Pr37  1  0.25377959  0.88151103  0.56734307  1
  Pr3+  Pr38  1  0.86899491  0.25019231  0.93103913  1
  Nd3+  Nd39  1  0.38034326  0.75766377  0.44408454  1
  Nd3+  Nd40  1  0.74857194  0.37798368  0.05879173  1
  Nd3+  Nd41  1  0.00314926  0.63219141  0.55409834  1
  Nd3+  Nd42  1  0.49986775  0.12166509  0.06644057  1
  Nd3+  Nd43  1  0.87809436  0.50192715  0.94193304  1
  Nd3+  Nd44  1  0.50574728  0.88447440  0.55215946  1
  Nd3+  Nd45  1  0.75719057  0.88035217  0.56726785  1
  Nd3+  Nd46  1  0.13166506  0.26201746  0.44499630  1
  Nd3+  Nd47  1  0.87838590  0.74772524  0.93922487  1
  Nd3+  Nd48  1  0.62704098  0.00233994  0.93793985  1
  Nd3+  Nd49  1  0.12698196  0.74729743  0.93964134  1
  Nd3+  Nd50  1  0.75208817  0.87689870  0.06696101  1
  Nd3+  Nd51  1  0.37436130  0.25296366  0.94618964  1
  Sm3+  Sm52  1  0.75528865  0.38391906  0.56165961  1
  Sm3+  Sm53  1  -0.00223414  0.12713336  0.04759747  1
  Sm3+  Sm54  1  0.00359068  0.13464752  0.56549321  1
  Sm3+  Sm55  1  0.49844601  0.87854728  0.05491843  1
  Sm3+  Sm56  1  0.76041717  0.12769916  0.57126552  1
  Sm3+  Sm57  1  0.50017090  0.62431753  0.06060438  1
  Sm3+  Sm58  1  0.50516849  0.38312799  0.56078291  1
  Sm3+  Sm59  1  0.12728115  0.49715759  0.94451841  1
  Sm3+  Sm60  1  0.62744423  0.75311838  0.94724299  1
  Sm3+  Sm61  1  0.37062319  0.50525595  0.93830462  1
  Sm3+  Sm62  1  0.88480749  0.50869588  0.43711616  1
  Sm3+  Sm63  1  0.63239289  0.75852734  0.43731534  1
  Bi2+  Bi64  1  -0.01121646  0.07706222  0.28965079  1
  Bi2+  Bi65  1  0.01493209  0.12139644  0.78653436  1
  Bi2+  Bi66  1  -0.05898098  0.37372261  0.29811610  1
  Bi2+  Bi67  1  -0.00680676  0.39788729  0.79500728  1
  Bi2+  Bi68  1  0.03540602  0.61374234  0.28528361  1
  Bi2+  Bi69  1  0.00473037  0.63870210  0.76148275  1
  Bi2+  Bi70  1  -0.01324295  0.87455348  0.28913397  1
  Bi2+  Bi71  1  -0.01312043  0.83623134  0.78378090  1
  Bi2+  Bi72  1  0.26342929  0.13830928  0.30711974  1
  Bi2+  Bi73  1  0.27651711  0.12761847  0.79627407  1
  Bi2+  Bi74  1  0.25841949  0.35922254  0.29530795  1
  Bi2+  Bi75  1  0.27353381  0.39817576  0.81837525  1
  Bi2+  Bi76  1  0.28019406  0.64003912  0.29015202  1
  Bi2+  Bi77  1  0.26440261  0.64951481  0.78033444  1
  Bi2+  Bi78  1  0.23630499  0.88354823  0.27659290  1
  Bi2+  Bi79  1  0.23041579  0.84846190  0.78699890  1
  Bi2+  Bi80  1  0.52618002  0.10027095  0.28472112  1
  Bi2+  Bi81  1  0.48841614  0.07169962  0.81976960  1
  Bi2+  Bi82  1  0.52816266  0.39697219  0.27198567  1
  Bi2+  Bi83  1  0.55933520  0.37212364  0.79250690  1
  Bi2+  Bi84  1  0.49364105  0.64587057  0.29568902  1
  Bi2+  Bi85  1  0.57245245  0.60401014  0.79515979  1
  Bi2+  Bi86  1  0.51878819  0.84848513  0.24532299  1
  Bi2+  Bi87  1  0.49726144  0.87489140  0.80063114  1
  Bi2+  Bi88  1  0.72655904  0.13486063  0.29052010  1
  Bi2+  Bi89  1  0.67628681  0.11352633  0.79276100  1
  Bi2+  Bi90  1  0.71995628  0.35014658  0.27891498  1
  Bi2+  Bi91  1  0.75522642  0.37188551  0.79806570  1
  Bi2+  Bi92  1  0.68340278  0.61354390  0.30701037  1
  Bi2+  Bi93  1  0.75784183  0.56388227  0.82354167  1
  Bi2+  Bi94  1  0.70613838  0.88243654  0.27170419  1
  Bi2+  Bi95  1  0.68927034  0.85064445  0.77281977  1
  Bi2+  Bi96  1  0.11872638  -0.00748404  0.21030965  1
  Bi2+  Bi97  1  0.12132056  -0.04042459  0.69304187  1
  Bi2+  Bi98  1  0.07531330  0.23907338  0.22136205  1
  Bi2+  Bi99  1  0.14468789  0.24147500  0.71794452  1
  Bi2+  Bi100  1  0.13774144  0.48389675  0.21543730  1
  Bi2+  Bi101  1  0.11656720  0.50991879  0.70556613  1
  Bi2+  Bi102  1  0.11851287  0.77200287  0.21094738  1
  Bi2+  Bi103  1  0.21034699  0.76501225  0.68367887  1
  Bi2+  Bi104  1  0.37744508  -0.01855719  0.20851263  1
  Bi2+  Bi105  1  0.37600424  -0.02149082  0.72946699  1
  Bi2+  Bi106  1  0.44392764  0.23962985  0.21898292  1
  Bi2+  Bi107  1  0.42437213  0.19152012  0.72857151  1
  Bi2+  Bi108  1  0.40967485  0.50120954  0.20358350  1
  Bi2+  Bi109  1  0.45596982  0.49294333  0.72564668  1
  Bi2+  Bi110  1  0.33016660  0.76578129  0.20303139  1
  Bi2+  Bi111  1  0.39855465  0.76165100  0.71201834  1
  Bi2+  Bi112  1  0.62995698  0.11167244  0.18543193  1
  Bi2+  Bi113  1  0.59068837  -0.02143027  0.70591650  1
  Bi2+  Bi114  1  0.62231050  0.30652476  0.17413638  1
  Bi2+  Bi115  1  0.64160977  0.24509782  0.70718644  1
  Bi2+  Bi116  1  0.60682692  0.50512631  0.15356325  1
  Bi2+  Bi117  1  0.62330930  0.43299903  0.67160728  1
  Bi2+  Bi118  1  0.61622096  0.68659210  0.20478337  1
  Bi2+  Bi119  1  0.62870498  0.69816146  0.69675831  1
  Bi2+  Bi120  1  0.85568583  -0.01736176  0.22403014  1
  Bi2+  Bi121  1  0.86372754  0.00225527  0.70318521  1
  Bi2+  Bi122  1  0.82468891  0.20753958  0.19584484  1
  Bi2+  Bi123  1  0.83518799  0.26162704  0.71155234  1
  Bi2+  Bi124  1  0.76669753  0.52025660  0.22170244  1
  Bi2+  Bi125  1  0.79433134  0.50232197  0.70816098  1
  Bi2+  Bi126  1  0.86797462  0.73764963  0.21021590  1
  Bi2+  Bi127  1  0.81588569  0.69812863  0.73859289  1
  S2-  S128  1  -0.02162565  0.18675977  0.14283565  1
  S2-  S129  1  0.09938851  0.11419110  0.64987395  1
  S2-  S130  1  -0.01227225  0.42784445  0.20216594  1
  S2-  S131  1  0.08662001  0.35610809  0.65469342  1
  S2-  S132  1  0.11634661  0.62901175  0.15528675  1
  S2-  S133  1  0.00004193  0.60793861  0.65414145  1
  S2-  S134  1  -0.01650519  0.81630374  0.14762572  1
  S2-  S135  1  -0.03078678  0.88568385  0.65596668  1
  S2-  S136  1  0.19474622  0.14417158  0.19010702  1
  S2-  S137  1  0.28996265  0.21786073  0.66281158  1
  S2-  S138  1  0.14565275  0.33952106  0.15614547  1
  S2-  S139  1  0.24084312  0.38318480  0.72590622  1
  S2-  S140  1  0.26792674  0.50017055  0.15171186  1
  S2-  S141  1  0.25172808  0.54303931  0.65333892  1
  S2-  S142  1  0.24307845  0.95646658  0.13982233  1
  S2-  S143  1  0.27188038  0.98803978  0.64865889  1
  S2-  S144  1  0.39778649  0.11972343  0.14832907  1
  S2-  S145  1  0.52149512  0.12582886  0.65468628  1
  S2-  S146  1  0.40004178  0.35590264  0.14616308  1
  S2-  S147  1  0.43255510  0.38690836  0.65067297  1
  S2-  S148  1  0.40838094  0.64911015  0.14521150  1
  S2-  S149  1  0.47316927  0.63305893  0.65768649  1
  S2-  S150  1  0.50653081  0.91671784  0.15108704  1
  S2-  S151  1  0.49932232  0.87242716  0.65111531  1
  S2-  S152  1  0.74736375  -0.00727536  0.14437905  1
  S2-  S153  1  0.88646904  0.14401381  0.64341510  1
  S2-  S154  1  0.82802706  0.34974798  0.14611920  1
  S2-  S155  1  0.86335098  0.38110257  0.64088972  1
  S2-  S156  1  0.87531944  0.60654234  0.15417774  1
  S2-  S157  1  0.76318366  0.74714167  0.63676288  1
  S2-  S158  1  0.74386397  0.76545500  0.14661904  1
  S2-  S159  1  0.73904758  0.99698958  0.64316445  1
  S2-  S160  1  0.14675156  0.03994146  0.34026860  1
  S2-  S161  1  0.02680479  -0.02526599  0.83894032  1
  S2-  S162  1  0.14926917  0.25971819  0.34179159  1
  S2-  S163  1  0.13990384  0.15726493  0.85335114  1
  S2-  S164  1  0.04969737  0.47019295  0.34380614  1
  S2-  S165  1  0.12427547  0.38278410  0.86238262  1
  S2-  S166  1  0.14366106  0.69099628  0.35083892  1
  S2-  S167  1  0.08292145  0.73145401  0.84175241  1
  S2-  S168  1  0.38276091  0.03485019  0.34097501  1
  S2-  S169  1  0.26323077  -0.01810404  0.85060817  1
  S2-  S170  1  0.37214052  0.27500127  0.34171453  1
  S2-  S171  1  0.36394160  0.26337861  0.84526333  1
  S2-  S172  1  0.26930124  0.50734357  0.35172033  1
  S2-  S173  1  0.24501990  0.54501380  0.86719528  1
  S2-  S174  1  0.38516016  0.75009253  0.34500980  1
  S2-  S175  1  0.35053525  0.74444417  0.84433221  1
  S2-  S176  1  0.63263533  -0.00931500  0.33663419  1
  S2-  S177  1  0.70675650  -0.02396591  0.85063182  1
  S2-  S178  1  0.63577664  0.25119741  0.34915265  1
  S2-  S179  1  0.72520534  0.23307068  0.86283284  1
  S2-  S180  1  0.51219886  0.49556696  0.35701849  1
  S2-  S181  1  0.48344236  0.49331984  0.86025603  1
  S2-  S182  1  0.71608816  0.76910205  0.35123154  1
  S2-  S183  1  0.60764350  0.75689507  0.84871844  1
  S2-  S184  1  0.87242787  -0.07297256  0.35616857  1
  S2-  S185  1  0.86187665  0.07114382  0.79822294  1
  S2-  S186  1  0.91401301  0.20936915  0.33889327  1
  S2-  S187  1  0.94669849  0.26171903  0.83675232  1
  S2-  S188  1  0.83237848  0.47239225  0.34532192  1
  S2-  S189  1  0.94507890  0.52747566  0.84681283  1
  S2-  S190  1  0.91525137  0.70603934  0.31698818  1
  S2-  S191  1  0.86502869  0.82402152  0.84897759  1
  S2-  S192  1  0.00626146  0.13470963  0.45643507  1
  S2-  S193  1  -0.01114078  0.11994293  0.94525457  1
  S2-  S194  1  0.00324636  0.38419278  0.45624492  1
  S2-  S195  1  -0.00466149  0.37721606  0.95639400  1
  S2-  S196  1  0.00059627  0.63502841  0.44665670  1
  S2-  S197  1  0.00371376  0.62517374  0.96025769  1
  S2-  S198  1  0.00729230  0.88139081  0.45004848  1
  S2-  S199  1  0.00185745  0.87392197  0.95030901  1
  S2-  S200  1  0.25367727  0.13308974  0.45932190  1
  S2-  S201  1  0.25378140  0.12837034  0.95761397  1
  S2-  S202  1  0.25362351  0.38355883  0.45117546  1
  S2-  S203  1  0.25550444  0.37888706  0.96352744  1
  S2-  S204  1  0.25826611  0.63567133  0.45794701  1
  S2-  S205  1  0.25098729  0.62901120  0.97032160  1
  S2-  S206  1  0.25541460  0.88220117  0.45350087  1
  S2-  S207  1  0.24986599  0.87389888  0.95013683  1
  S2-  S208  1  0.50524369  0.13387284  0.44948317  1
  S2-  S209  1  0.50280853  0.12750798  0.95688400  1
  S2-  S210  1  0.50898995  0.37859488  0.45658442  1
  S2-  S211  1  0.50361996  0.37307762  0.95814351  1
  S2-  S212  1  0.50964070  0.63699437  0.45181400  1
  S2-  S213  1  0.50017721  0.63049633  0.95589218  1
  S2-  S214  1  0.50715447  0.88280132  0.44485490  1
  S2-  S215  1  0.50006476  0.87680619  0.94967585  1
  S2-  S216  1  0.75866887  0.13317882  0.45566318  1
  S2-  S217  1  0.75257183  0.11759260  0.96036580  1
  S2-  S218  1  0.75609315  0.38415823  0.45573903  1
  S2-  S219  1  0.74709194  0.38342429  0.95184809  1
  S2-  S220  1  0.75620747  0.63231132  0.45069035  1
  S2-  S221  1  0.74802073  0.62815838  0.95738321  1
  S2-  S222  1  0.75204740  0.88480635  0.45911735  1
  S2-  S223  1  0.75129496  0.87340526  0.95808867  1
  S2-  S224  1  0.12264028  0.00570096  0.04019992  1
  S2-  S225  1  0.12531786  0.00262901  0.54523333  1
  S2-  S226  1  0.12589951  0.24416465  0.04635675  1
  S2-  S227  1  0.12992272  0.25684394  0.54968333  1
  S2-  S228  1  0.11744431  0.49359126  0.05107118  1
  S2-  S229  1  0.12547696  0.50903387  0.54237006  1
  S2-  S230  1  0.12781806  0.75455960  0.04728962  1
  S2-  S231  1  0.12853894  0.75712307  0.54758212  1
  S2-  S232  1  0.37727567  0.00159367  0.03874685  1
  S2-  S233  1  0.38102731  0.00750579  0.54461406  1
  S2-  S234  1  0.37336811  0.24506862  0.04931519  1
  S2-  S235  1  0.37985248  0.25949840  0.54994020  1
  S2-  S236  1  0.38193540  0.50142062  0.04272376  1
  S2-  S237  1  0.38377349  0.50479492  0.54323743  1
  S2-  S238  1  0.37681396  0.75747580  0.04645632  1
  S2-  S239  1  0.38024837  0.75819122  0.55017587  1
  S2-  S240  1  0.62317400  -0.00082820  0.04357608  1
  S2-  S241  1  0.62942061  0.01028522  0.54294547  1
  S2-  S242  1  0.62610418  0.24688781  0.04941775  1
  S2-  S243  1  0.63523439  0.25582253  0.55377647  1
  S2-  S244  1  0.62571609  0.50504201  0.03794032  1
  S2-  S245  1  0.63315398  0.50747798  0.54040155  1
  S2-  S246  1  0.61894343  0.75175440  0.04997500  1
  S2-  S247  1  0.62738226  0.75971161  0.54125352  1
  S2-  S248  1  0.88082464  -0.00041044  0.05172081  1
  S2-  S249  1  0.88117697  0.00709520  0.54424772  1
  S2-  S250  1  0.87105925  0.24898679  0.03897123  1
  S2-  S251  1  0.87551587  0.25547118  0.54082024  1
  S2-  S252  1  0.87415368  0.49911098  0.04843432  1
  S2-  S253  1  0.87419299  0.51247227  0.54260540  1
  S2-  S254  1  0.87555894  0.75042365  0.04377813  1
  S2-  S255  1  0.88090882  0.75787484  0.53421858  1
