# generated using pymatgen
data_La12Ce14Pr13Nd13Sm12(BiS2)64
_symmetry_space_group_name_H-M   'P 1'
_cell_length_a   16.19001548
_cell_length_b   16.21360635
_cell_length_c   27.07709672
_cell_angle_alpha   90.06534745
_cell_angle_beta   90.08636252
_cell_angle_gamma   89.99144500
_symmetry_Int_Tables_number   1
_chemical_formula_structural   La12Ce14Pr13Nd13Sm12(BiS2)64
_chemical_formula_sum   'La12 Ce14 Pr13 Nd13 Sm12 Bi64 S128'
_cell_volume   7107.68552213
_cell_formula_units_Z   1
loop_
 _symmetry_equiv_pos_site_id
 _symmetry_equiv_pos_as_xyz
  1  'x, y, z'
loop_
 _atom_type_symbol
 _atom_type_oxidation_number
  La3+  3.0
  Ce3+  3.0
  Pr3+  3.0
  Nd3+  3.0
  Sm3+  3.0
  Bi2+  2.0
  S2-  -2.0
loop_
 _atom_site_type_symbol
 _atom_site_label
 _atom_site_symmetry_multiplicity
 _atom_site_fract_x
 _atom_site_fract_y
 _atom_site_fract_z
 _atom_site_occupancy
  La3+  La0  1  0.12356250  0.00586482  0.91488576  1
  La3+  La1  1  0.00166888  0.87000832  0.58617834  1
  La3+  La2  1  0.49444175  0.87451139  0.07852379  1
  La3+  La3  1  -0.00935717  0.13311519  0.59047220  1
  La3+  La4  1  0.61994994  0.49551277  0.42859293  1
  La3+  La5  1  0.50693396  0.11899666  0.56874574  1
  La3+  La6  1  0.39191979  0.74862971  0.92324323  1
  La3+  La7  1  0.61806005  0.00751257  0.40663106  1
  La3+  La8  1  0.61593091  0.74490259  0.40989033  1
  La3+  La9  1  0.01221087  0.12180794  0.07248844  1
  La3+  La10  1  0.12932506  0.74815008  0.92595415  1
  La3+  La11  1  0.76724682  0.87069052  0.09534240  1
  Ce3+  Ce12  1  0.75433108  0.62997182  0.06085705  1
  Ce3+  Ce13  1  0.63152291  -0.00242961  0.94809674  1
  Ce3+  Ce14  1  0.38131785  0.00071761  0.93687432  1
  Ce3+  Ce15  1  0.37682884  -0.00129309  0.44347437  1
  Ce3+  Ce16  1  0.88192577  0.24814513  0.94582007  1
  Ce3+  Ce17  1  -0.00081751  0.62902607  0.56233603  1
  Ce3+  Ce18  1  0.74949090  0.62867634  0.55036580  1
  Ce3+  Ce19  1  0.62731265  0.24485565  0.44234976  1
  Ce3+  Ce20  1  0.12200417  0.00005550  0.45974935  1
  Ce3+  Ce21  1  0.50598938  0.37361578  0.56186028  1
  Ce3+  Ce22  1  0.00785039  0.87329881  0.05935876  1
  Ce3+  Ce23  1  0.87942404  0.50281911  0.94438157  1
  Ce3+  Ce24  1  0.25534478  0.87484154  0.04808504  1
  Ce3+  Ce25  1  0.25169494  0.62757478  0.55592261  1
  Pr3+  Pr26  1  0.12310410  0.24535024  0.44400228  1
  Pr3+  Pr27  1  0.37333088  0.49772086  0.44497512  1
  Pr3+  Pr28  1  0.88077256  0.75371183  0.42881472  1
  Pr3+  Pr29  1  0.00521343  0.37673087  0.05890789  1
  Pr3+  Pr30  1  0.50708315  0.12138742  0.06100777  1
  Pr3+  Pr31  1  0.50414452  0.37383473  0.06569961  1
  Pr3+  Pr32  1  0.25416293  0.37402012  0.05567134  1
  Pr3+  Pr33  1  0.25181156  0.37454083  0.56219144  1
  Pr3+  Pr34  1  0.63082364  0.25651327  0.93509237  1
  Pr3+  Pr35  1  0.00044112  0.37850000  0.56500339  1
  Pr3+  Pr36  1  0.62913908  0.50108329  0.94160144  1
  Pr3+  Pr37  1  0.75570415  0.37593312  0.06165621  1
  Pr3+  Pr38  1  0.37879027  0.24848441  0.94110293  1
  Nd3+  Nd39  1  0.37896054  0.49804173  0.94108086  1
  Nd3+  Nd40  1  0.74871057  0.37714325  0.55606577  1
  Nd3+  Nd41  1  0.87947451  0.75240350  0.94015025  1
  Nd3+  Nd42  1  0.25002252  0.12432479  0.56811936  1
  Nd3+  Nd43  1  0.87620160  0.50009164  0.44020719  1
  Nd3+  Nd44  1  0.25771480  0.87271910  0.57116696  1
  Nd3+  Nd45  1  0.88933142  0.00341555  0.42978458  1
  Nd3+  Nd46  1  0.50614334  0.87015877  0.56198634  1
  Nd3+  Nd47  1  0.12281568  0.75277637  0.43970831  1
  Nd3+  Nd48  1  0.75541800  0.12245347  0.06008003  1
  Nd3+  Nd49  1  0.12470145  0.49855314  0.44755929  1
  Nd3+  Nd50  1  0.25691175  0.62837206  0.05401659  1
  Nd3+  Nd51  1  0.11992530  0.24999993  0.92963514  1
  Sm3+  Sm52  1  0.75329834  0.11620326  0.55665366  1
  Sm3+  Sm53  1  0.75049360  0.87538298  0.53889695  1
  Sm3+  Sm54  1  0.50419568  0.62567190  0.55622229  1
  Sm3+  Sm55  1  0.25156049  0.12397706  0.05281484  1
  Sm3+  Sm56  1  0.50416403  0.62606442  0.06333493  1
  Sm3+  Sm57  1  0.87735452  0.24772573  0.44488293  1
  Sm3+  Sm58  1  0.37616516  0.24648315  0.45281964  1
  Sm3+  Sm59  1  0.63072931  0.75426540  0.94560523  1
  Sm3+  Sm60  1  0.12988263  0.50106079  0.94432063  1
  Sm3+  Sm61  1  0.37502606  0.75212814  0.43959133  1
  Sm3+  Sm62  1  0.00669832  0.62860992  0.05602108  1
  Sm3+  Sm63  1  0.87917760  -0.00132299  0.94312168  1
  Bi2+  Bi64  1  0.00885310  0.13799566  0.30425344  1
  Bi2+  Bi65  1  0.00114860  0.12096260  0.79529981  1
  Bi2+  Bi66  1  0.00206408  0.38204352  0.29472788  1
  Bi2+  Bi67  1  -0.02179114  0.37213402  0.78580340  1
  Bi2+  Bi68  1  0.03085699  0.62783210  0.29588516  1
  Bi2+  Bi69  1  -0.03207390  0.61664107  0.78140540  1
  Bi2+  Bi70  1  0.03902012  0.89426067  0.29057709  1
  Bi2+  Bi71  1  -0.00175115  0.87031693  0.78584858  1
  Bi2+  Bi72  1  0.24016160  0.09033481  0.28668507  1
  Bi2+  Bi73  1  0.28244836  0.13740190  0.78507737  1
  Bi2+  Bi74  1  0.23114073  0.41636527  0.27708540  1
  Bi2+  Bi75  1  0.16816556  0.39383039  0.79030228  1
  Bi2+  Bi76  1  0.22531949  0.62422472  0.28375079  1
  Bi2+  Bi77  1  0.23670422  0.59274385  0.77804009  1
  Bi2+  Bi78  1  0.24278476  0.89001129  0.29493378  1
  Bi2+  Bi79  1  0.25914470  0.85201091  0.79326063  1
  Bi2+  Bi80  1  0.48389027  0.14917780  0.29623085  1
  Bi2+  Bi81  1  0.52695302  0.09635820  0.76973018  1
  Bi2+  Bi82  1  0.47588888  0.35096125  0.29968323  1
  Bi2+  Bi83  1  0.51603918  0.34238481  0.80774893  1
  Bi2+  Bi84  1  0.48399046  0.61250375  0.28924901  1
  Bi2+  Bi85  1  0.52748803  0.59960341  0.78585227  1
  Bi2+  Bi86  1  0.49887484  0.88204489  0.28733531  1
  Bi2+  Bi87  1  0.54297962  0.89235261  0.77808822  1
  Bi2+  Bi88  1  0.74722662  0.21501698  0.27794077  1
  Bi2+  Bi89  1  0.72619343  0.14229363  0.76780830  1
  Bi2+  Bi90  1  0.66935446  0.38024878  0.31480432  1
  Bi2+  Bi91  1  0.77237818  0.41181453  0.78531628  1
  Bi2+  Bi92  1  0.77134909  0.56864177  0.29108945  1
  Bi2+  Bi93  1  0.70184392  0.67446814  0.80038056  1
  Bi2+  Bi94  1  0.77564016  0.86577526  0.29374971  1
  Bi2+  Bi95  1  0.74406781  0.86555157  0.79140570  1
  Bi2+  Bi96  1  0.13771049  -0.01562121  0.20469292  1
  Bi2+  Bi97  1  0.14358001  -0.01150953  0.70160406  1
  Bi2+  Bi98  1  0.14463226  0.24733889  0.20573951  1
  Bi2+  Bi99  1  0.14461001  0.25796185  0.69952426  1
  Bi2+  Bi100  1  0.08769534  0.50099602  0.21196285  1
  Bi2+  Bi101  1  0.04568261  0.50155760  0.69717667  1
  Bi2+  Bi102  1  0.13281968  0.78335207  0.20890144  1
  Bi2+  Bi103  1  0.11960699  0.69238308  0.69884822  1
  Bi2+  Bi104  1  0.34773623  -0.00264709  0.20713073  1
  Bi2+  Bi105  1  0.38186186  -0.02993587  0.73151598  1
  Bi2+  Bi106  1  0.33233402  0.23348473  0.22711423  1
  Bi2+  Bi107  1  0.33836526  0.30178024  0.73092092  1
  Bi2+  Bi108  1  0.35815935  0.50617669  0.21308704  1
  Bi2+  Bi109  1  0.38337317  0.49114215  0.73986237  1
  Bi2+  Bi110  1  0.32307984  0.74250036  0.21165191  1
  Bi2+  Bi111  1  0.37996636  0.74005607  0.70200372  1
  Bi2+  Bi112  1  0.61801102  0.02250656  0.20324272  1
  Bi2+  Bi113  1  0.62311500  0.02691137  0.67735471  1
  Bi2+  Bi114  1  0.59238354  0.28074473  0.21549324  1
  Bi2+  Bi115  1  0.61912020  0.28732762  0.70263712  1
  Bi2+  Bi116  1  0.62939500  0.47782412  0.21482754  1
  Bi2+  Bi117  1  0.64201153  0.49923741  0.71408283  1
  Bi2+  Bi118  1  0.62467400  0.72525722  0.20568463  1
  Bi2+  Bi119  1  0.62947094  0.78058137  0.69964367  1
  Bi2+  Bi120  1  0.87308557  0.02339197  0.20677651  1
  Bi2+  Bi121  1  0.81407663  -0.00954497  0.71043838  1
  Bi2+  Bi122  1  0.88600653  0.29780846  0.21312804  1
  Bi2+  Bi123  1  0.86161794  0.25327216  0.71572834  1
  Bi2+  Bi124  1  0.89071307  0.50286581  0.20575657  1
  Bi2+  Bi125  1  0.84836571  0.51714815  0.69544687  1
  Bi2+  Bi126  1  0.90366295  0.69495764  0.21783416  1
  Bi2+  Bi127  1  0.84121191  0.71800364  0.71593934  1
  S2-  S128  1  -0.04949414  0.14369321  0.16861289  1
  S2-  S129  1  0.04915592  0.12024570  0.69192805  1
  S2-  S130  1  0.03516881  0.33771914  0.15521406  1
  S2-  S131  1  -0.00313363  0.29164365  0.65112265  1
  S2-  S132  1  0.02831432  0.68463872  0.14807788  1
  S2-  S133  1  -0.02486401  0.72320051  0.64388741  1
  S2-  S134  1  -0.06892760  0.90193907  0.14552232  1
  S2-  S135  1  -0.02199890  0.93185998  0.68350343  1
  S2-  S136  1  0.15976207  0.11770732  0.13558905  1
  S2-  S137  1  0.26024989  0.10800008  0.66748562  1
  S2-  S138  1  0.26758702  0.33867653  0.15365990  1
  S2-  S139  1  0.24824411  0.39268769  0.66197631  1
  S2-  S140  1  0.27147991  0.60834915  0.15316014  1
  S2-  S141  1  0.27349912  0.64210767  0.65343818  1
  S2-  S142  1  0.33694704  0.86609500  0.13620187  1
  S2-  S143  1  0.16344973  0.84556683  0.65416642  1
  S2-  S144  1  0.47147306  0.08102712  0.15714755  1
  S2-  S145  1  0.50793987  0.16065880  0.66770785  1
  S2-  S146  1  0.49510768  0.42376916  0.16174701  1
  S2-  S147  1  0.52273745  0.40937082  0.65723451  1
  S2-  S148  1  0.50116679  0.66130004  0.16013820  1
  S2-  S149  1  0.50449144  0.68383529  0.65005753  1
  S2-  S150  1  0.54963304  0.86955251  0.17570553  1
  S2-  S151  1  0.39523190  0.87712638  0.64176645  1
  S2-  S152  1  0.74030505  0.11272381  0.15982105  1
  S2-  S153  1  0.83954849  0.12254995  0.64265486  1
  S2-  S154  1  0.76457060  0.39503376  0.16114649  1
  S2-  S155  1  0.75915442  0.35049786  0.65439828  1
  S2-  S156  1  0.76582144  0.70899877  0.14822308  1
  S2-  S157  1  0.73232569  0.62746481  0.64842658  1
  S2-  S158  1  0.74147291  0.90893342  0.19434274  1
  S2-  S159  1  0.72686102  0.88558881  0.63803482  1
  S2-  S160  1  0.04874815  0.01467860  0.37189923  1
  S2-  S161  1  0.12736332  -0.03313684  0.81206523  1
  S2-  S162  1  0.10433347  0.25278986  0.34290139  1
  S2-  S163  1  0.14265477  0.15620528  0.84706735  1
  S2-  S164  1  0.13471041  0.49258306  0.34873724  1
  S2-  S165  1  0.13816710  0.54198234  0.84929049  1
  S2-  S166  1  0.02276113  0.76890356  0.35831499  1
  S2-  S167  1  0.12353693  0.77117615  0.82555518  1
  S2-  S168  1  0.45432871  0.00495452  0.35575943  1
  S2-  S169  1  0.34669568  -0.00023033  0.84029070  1
  S2-  S170  1  0.37202490  0.23835871  0.35471006  1
  S2-  S171  1  0.37155590  0.24700540  0.84015547  1
  S2-  S172  1  0.42818531  0.49761837  0.34925969  1
  S2-  S173  1  0.42284741  0.48640511  0.84497932  1
  S2-  S174  1  0.44183920  0.75161109  0.34927071  1
  S2-  S175  1  0.33487377  0.72249365  0.82771163  1
  S2-  S176  1  0.64323701  -0.02390258  0.30439626  1
  S2-  S177  1  0.64844490  -0.03298547  0.85222438  1
  S2-  S178  1  0.62786661  0.16482164  0.35535291  1
  S2-  S179  1  0.60518600  0.20340801  0.83981497  1
  S2-  S180  1  0.61803567  0.59646745  0.34655716  1
  S2-  S181  1  0.64105801  0.40532355  0.85711985  1
  S2-  S182  1  0.62450736  0.78431968  0.30734543  1
  S2-  S183  1  0.54912763  0.72360535  0.86060882  1
  S2-  S184  1  0.85687167  -0.01038496  0.32800996  1
  S2-  S185  1  0.92691033  -0.00149214  0.84701591  1
  S2-  S186  1  0.88336920  0.20675134  0.34822342  1
  S2-  S187  1  0.94629796  0.24040435  0.85497774  1
  S2-  S188  1  0.88319373  0.45767678  0.34331998  1
  S2-  S189  1  0.88960202  0.49855247  0.84642089  1
  S2-  S190  1  0.82027826  0.70916426  0.33532477  1
  S2-  S191  1  0.91796932  0.75206993  0.84277184  1
  S2-  S192  1  -0.00196830  0.12891945  0.47085474  1
  S2-  S193  1  0.00299636  0.12164538  0.95911060  1
  S2-  S194  1  -0.00002000  0.37391921  0.45693068  1
  S2-  S195  1  0.00588457  0.38002942  0.95158998  1
  S2-  S196  1  0.00142147  0.62316001  0.45434143  1
  S2-  S197  1  0.00539545  0.62518106  0.95095274  1
  S2-  S198  1  0.00133225  0.87531964  0.46642704  1
  S2-  S199  1  0.00520620  0.87618383  0.95039857  1
  S2-  S200  1  0.25101280  0.12365074  0.45914705  1
  S2-  S201  1  0.25275493  0.12447615  0.94931486  1
  S2-  S202  1  0.24981645  0.37123317  0.45404806  1
  S2-  S203  1  0.25075100  0.37428708  0.94700152  1
  S2-  S204  1  0.24977011  0.62755798  0.44729853  1
  S2-  S205  1  0.25719628  0.62421853  0.94776372  1
  S2-  S206  1  0.25029169  0.87403151  0.45698789  1
  S2-  S207  1  0.25588295  0.87476583  0.94129853  1
  S2-  S208  1  0.49867592  0.12542780  0.45994717  1
  S2-  S209  1  0.50662861  0.12535195  0.95232189  1
  S2-  S210  1  0.49956062  0.36877290  0.45514890  1
  S2-  S211  1  0.50275409  0.37464023  0.95831543  1
  S2-  S212  1  0.49525150  0.62516482  0.45289996  1
  S2-  S213  1  0.50530913  0.61985599  0.95868042  1
  S2-  S214  1  0.50113688  0.87307488  0.45401188  1
  S2-  S215  1  0.50553882  0.87691208  0.95735093  1
  S2-  S216  1  0.75728128  0.11997374  0.45201855  1
  S2-  S217  1  0.75589545  0.12510314  0.95114582  1
  S2-  S218  1  0.75245012  0.37222186  0.44975370  1
  S2-  S219  1  0.75974599  0.37534579  0.95561981  1
  S2-  S220  1  0.75019076  0.62268219  0.44598513  1
  S2-  S221  1  0.75234873  0.62836979  0.95273212  1
  S2-  S222  1  0.74708033  0.87632905  0.43399729  1
  S2-  S223  1  0.75728423  0.87387614  0.95479323  1
  S2-  S224  1  0.13148821  -0.00386201  0.03495372  1
  S2-  S225  1  0.12326030  0.00263013  0.56404211  1
  S2-  S226  1  0.13007231  0.25180774  0.03733481  1
  S2-  S227  1  0.12729189  0.24963384  0.55211391  1
  S2-  S228  1  0.13049707  0.50348321  0.04995613  1
  S2-  S229  1  0.12661842  0.50266772  0.55332994  1
  S2-  S230  1  0.13182370  0.74950358  0.03796613  1
  S2-  S231  1  0.12842498  0.74932047  0.54481314  1
  S2-  S232  1  0.37642737  0.00400987  0.04243278  1
  S2-  S233  1  0.37655719  0.00087449  0.54872899  1
  S2-  S234  1  0.37908289  0.24566228  0.04923407  1
  S2-  S235  1  0.37779133  0.24840540  0.55872955  1
  S2-  S236  1  0.38058313  0.50099438  0.04828944  1
  S2-  S237  1  0.37925448  0.50143949  0.55227037  1
  S2-  S238  1  0.38274418  0.74595009  0.03700736  1
  S2-  S239  1  0.37919442  0.74801355  0.54261615  1
  S2-  S240  1  0.63304387  -0.00719678  0.05610873  1
  S2-  S241  1  0.62751359  -0.00288816  0.53684000  1
  S2-  S242  1  0.63067011  0.25019713  0.04882720  1
  S2-  S243  1  0.63189275  0.24513703  0.55007592  1
  S2-  S244  1  0.62893753  0.50234549  0.05059190  1
  S2-  S245  1  0.62510246  0.50139394  0.54087722  1
  S2-  S246  1  0.62596240  0.75239436  0.05041013  1
  S2-  S247  1  0.62509497  0.74964924  0.53507306  1
  S2-  S248  1  0.87844811  0.00093958  0.04707015  1
  S2-  S249  1  0.87511474  -0.00653474  0.54381679  1
  S2-  S250  1  0.88041957  0.24942651  0.05237812  1
  S2-  S251  1  0.87063613  0.25411230  0.54738559  1
  S2-  S252  1  0.88199917  0.50551526  0.05219758  1
  S2-  S253  1  0.87487151  0.50125904  0.54784150  1
  S2-  S254  1  0.88262928  0.75034172  0.04571771  1
  S2-  S255  1  0.87163152  0.75222433  0.53807732  1
