# generated using pymatgen
data_La12Ce14Pr13Nd13Sm12(BiS2)64
_symmetry_space_group_name_H-M   'P 1'
_cell_length_a   16.12316338
_cell_length_b   16.16264997
_cell_length_c   27.17390796
_cell_angle_alpha   89.93643876
_cell_angle_beta   89.79886008
_cell_angle_gamma   89.89730126
_symmetry_Int_Tables_number   1
_chemical_formula_structural   La12Ce14Pr13Nd13Sm12(BiS2)64
_chemical_formula_sum   'La12 Ce14 Pr13 Nd13 Sm12 Bi64 S128'
_cell_volume   7081.27213275
_cell_formula_units_Z   1
loop_
 _symmetry_equiv_pos_site_id
 _symmetry_equiv_pos_as_xyz
  1  'x, y, z'
loop_
 _atom_type_symbol
 _atom_type_oxidation_number
  La3+  3.0
  Ce3+  3.0
  Pr3+  3.0
  Nd3+  3.0
  Sm3+  3.0
  Bi2+  2.0
  S2-  -2.0
loop_
 _atom_site_type_symbol
 _atom_site_label
 _atom_site_symmetry_multiplicity
 _atom_site_fract_x
 _atom_site_fract_y
 _atom_site_fract_z
 _atom_site_occupancy
  La3+  La0  1  0.74122234  0.61308521  0.57837673  1
  La3+  La1  1  -0.00182296  0.36964148  0.56813509  1
  La3+  La2  1  0.37167839  0.49233143  0.89105273  1
  La3+  La3  1  0.24258357  0.36725633  0.56528317  1
  La3+  La4  1  0.49164414  0.12103873  0.60160470  1
  La3+  La5  1  0.63973386  0.50372615  0.90363906  1
  La3+  La6  1  0.12535430  -0.00235994  0.93387862  1
  La3+  La7  1  0.37420005  0.24358251  0.43858467  1
  La3+  La8  1  0.49204924  0.36996628  0.57603775  1
  La3+  La9  1  0.12355924  0.24913016  0.40065213  1
  La3+  La10  1  0.63584589  0.74563554  0.93048973  1
  La3+  La11  1  0.74258143  0.87334975  0.09288111  1
  Ce3+  Ce12  1  0.87748110  0.25128904  0.94017259  1
  Ce3+  Ce13  1  0.38053575  0.73993571  0.94346456  1
  Ce3+  Ce14  1  0.25727277  0.87558326  0.06345571  1
  Ce3+  Ce15  1  0.01212462  0.62109821  0.07389912  1
  Ce3+  Ce16  1  -0.00257731  0.11973857  0.56526395  1
  Ce3+  Ce17  1  0.24511070  0.87078311  0.55725821  1
  Ce3+  Ce18  1  0.25670033  0.12047853  0.05911044  1
  Ce3+  Ce19  1  0.87554093  0.74619118  0.94830994  1
  Ce3+  Ce20  1  0.61697751  0.23941942  0.43173811  1
  Ce3+  Ce21  1  0.87078846  -0.00432224  0.44399268  1
  Ce3+  Ce22  1  0.75380273  0.12148339  0.05022726  1
  Ce3+  Ce23  1  0.62629028  0.74138516  0.42343705  1
  Ce3+  Ce24  1  0.62113305  0.49544144  0.43960708  1
  Ce3+  Ce25  1  0.12230032  -0.00288867  0.43585122  1
  Pr3+  Pr26  1  0.13010018  0.74494369  0.95145303  1
  Pr3+  Pr27  1  0.86648093  0.74302156  0.43936280  1
  Pr3+  Pr28  1  0.37356118  -0.00379636  0.92538374  1
  Pr3+  Pr29  1  0.12238151  0.49847070  0.43423408  1
  Pr3+  Pr30  1  0.26260234  0.62015110  0.07387373  1
  Pr3+  Pr31  1  0.24492367  0.62232763  0.56436724  1
  Pr3+  Pr32  1  0.26047766  0.36851836  0.06437712  1
  Pr3+  Pr33  1  0.37222633  0.49508999  0.43897479  1
  Pr3+  Pr34  1  0.37589773  -0.00444397  0.44211910  1
  Pr3+  Pr35  1  0.13316558  0.49833172  0.94382570  1
  Pr3+  Pr36  1  0.75802539  0.62054718  0.07264875  1
  Pr3+  Pr37  1  0.87302771  0.24543563  0.43691356  1
  Pr3+  Pr38  1  0.50569097  0.12346492  0.06317921  1
  Nd3+  Nd39  1  0.87999038  -0.00412191  0.93219606  1
  Nd3+  Nd40  1  0.62832980  -0.00381415  0.93922758  1
  Nd3+  Nd41  1  0.00342732  0.37043352  0.06040642  1
  Nd3+  Nd42  1  0.62594988  0.24833416  0.93190090  1
  Nd3+  Nd43  1  0.74222568  0.86789620  0.56450063  1
  Nd3+  Nd44  1  0.50577677  0.62106888  0.06006135  1
  Nd3+  Nd45  1  0.12498546  0.74380688  0.43022818  1
  Nd3+  Nd46  1  0.12943966  0.25077839  0.93989815  1
  Nd3+  Nd47  1  0.23971490  0.11746522  0.56296607  1
  Nd3+  Nd48  1  -0.00591945  0.86795317  0.55141868  1
  Nd3+  Nd49  1  0.50303840  0.87194052  0.57184862  1
  Nd3+  Nd50  1  0.74269426  0.12160860  0.56221704  1
  Nd3+  Nd51  1  0.37895379  0.24351932  0.92823011  1
  Sm3+  Sm52  1  0.00084909  0.12133357  0.05638580  1
  Sm3+  Sm53  1  0.62035182  -0.00800073  0.43937180  1
  Sm3+  Sm54  1  0.50431995  0.87309300  0.05211827  1
  Sm3+  Sm55  1  0.37686256  0.74716672  0.45076285  1
  Sm3+  Sm56  1  0.75006405  0.37246501  0.05389844  1
  Sm3+  Sm57  1  -0.00087822  0.87458505  0.06071625  1
  Sm3+  Sm58  1  0.74369275  0.36904849  0.55756036  1
  Sm3+  Sm59  1  0.49909445  0.62098624  0.55896535  1
  Sm3+  Sm60  1  -0.00374351  0.62173167  0.55683770  1
  Sm3+  Sm61  1  0.50348578  0.37508722  0.04246956  1
  Sm3+  Sm62  1  0.87268229  0.49275389  0.44401636  1
  Sm3+  Sm63  1  0.87768123  0.49879159  0.94535376  1
  Bi2+  Bi64  1  -0.06317919  0.14384999  0.26956938  1
  Bi2+  Bi65  1  -0.02651335  0.12385836  0.78148265  1
  Bi2+  Bi66  1  -0.01403775  0.39120524  0.29068455  1
  Bi2+  Bi67  1  0.01338141  0.40986501  0.79134275  1
  Bi2+  Bi68  1  -0.01115339  0.67475626  0.29586261  1
  Bi2+  Bi69  1  -0.00253901  0.67550277  0.75118310  1
  Bi2+  Bi70  1  -0.03087411  0.86952366  0.29921316  1
  Bi2+  Bi71  1  0.00988642  0.85833567  0.79412783  1
  Bi2+  Bi72  1  0.25674424  0.12792222  0.28620523  1
  Bi2+  Bi73  1  0.24687843  0.10481207  0.78680255  1
  Bi2+  Bi74  1  0.25322471  0.38417297  0.28231472  1
  Bi2+  Bi75  1  0.20722047  0.35869982  0.80314658  1
  Bi2+  Bi76  1  0.25347512  0.66248715  0.29225942  1
  Bi2+  Bi77  1  0.23528243  0.69089324  0.78623349  1
  Bi2+  Bi78  1  0.17194659  0.86220686  0.31777390  1
  Bi2+  Bi79  1  0.34131999  0.85800172  0.81621064  1
  Bi2+  Bi80  1  0.50548442  0.13808973  0.29242983  1
  Bi2+  Bi81  1  0.51252395  0.11162101  0.78632531  1
  Bi2+  Bi82  1  0.56592590  0.39870184  0.30346808  1
  Bi2+  Bi83  1  0.51007599  0.34703866  0.77256131  1
  Bi2+  Bi84  1  0.46159706  0.60498961  0.30086428  1
  Bi2+  Bi85  1  0.49276939  0.65812817  0.78121097  1
  Bi2+  Bi86  1  0.49692363  0.81442965  0.27746803  1
  Bi2+  Bi87  1  0.53531761  0.85569203  0.79318847  1
  Bi2+  Bi88  1  0.74215695  0.12961895  0.28570649  1
  Bi2+  Bi89  1  0.78002051  0.08140722  0.78205595  1
  Bi2+  Bi90  1  0.74249151  0.31647864  0.32599228  1
  Bi2+  Bi91  1  0.81490078  0.36078587  0.79006722  1
  Bi2+  Bi92  1  0.70116748  0.64740632  0.27521191  1
  Bi2+  Bi93  1  0.82520501  0.62962406  0.78454274  1
  Bi2+  Bi94  1  0.73032095  0.87972211  0.29939361  1
  Bi2+  Bi95  1  0.81959190  0.89861382  0.81431148  1
  Bi2+  Bi96  1  0.08523143  0.00992560  0.25982370  1
  Bi2+  Bi97  1  0.08509748  -0.01008590  0.70246416  1
  Bi2+  Bi98  1  0.12441089  0.25591620  0.17350863  1
  Bi2+  Bi99  1  0.09796626  0.25145608  0.71530941  1
  Bi2+  Bi100  1  0.03818737  0.53778396  0.21346704  1
  Bi2+  Bi101  1  0.11506905  0.51068372  0.70898869  1
  Bi2+  Bi102  1  0.12831675  0.74990285  0.22036576  1
  Bi2+  Bi103  1  0.15832970  0.77597988  0.69860598  1
  Bi2+  Bi104  1  0.34027435  -0.07409010  0.26054060  1
  Bi2+  Bi105  1  0.34849139  -0.01872440  0.71892310  1
  Bi2+  Bi106  1  0.37740337  0.25000722  0.18564609  1
  Bi2+  Bi107  1  0.32117548  0.24232127  0.71456820  1
  Bi2+  Bi108  1  0.47327822  0.48384930  0.21104283  1
  Bi2+  Bi109  1  0.40794821  0.51744610  0.68596998  1
  Bi2+  Bi110  1  0.33488881  0.74968551  0.19907818  1
  Bi2+  Bi111  1  0.38220683  0.77292484  0.71334250  1
  Bi2+  Bi112  1  0.60033433  0.01115879  0.19760439  1
  Bi2+  Bi113  1  0.63995507  -0.02330386  0.70324635  1
  Bi2+  Bi114  1  0.62928073  0.26143909  0.22987708  1
  Bi2+  Bi115  1  0.73247954  0.23389412  0.71631407  1
  Bi2+  Bi116  1  0.66015291  0.52064944  0.18475922  1
  Bi2+  Bi117  1  0.65395352  0.51910011  0.71196632  1
  Bi2+  Bi118  1  0.56528536  0.69396879  0.19428906  1
  Bi2+  Bi119  1  0.69253909  0.77810837  0.73583164  1
  Bi2+  Bi120  1  0.87023591  0.02380327  0.18554054  1
  Bi2+  Bi121  1  0.89363314  0.04959183  0.68128541  1
  Bi2+  Bi122  1  0.84500156  0.29283370  0.21380098  1
  Bi2+  Bi123  1  0.91238774  0.24641392  0.66908941  1
  Bi2+  Bi124  1  0.80547569  0.47936500  0.26170942  1
  Bi2+  Bi125  1  0.90547747  0.44035169  0.69729161  1
  Bi2+  Bi126  1  0.88030378  0.73921684  0.20486320  1
  Bi2+  Bi127  1  0.86571661  0.85769154  0.70105744  1
  S2-  S128  1  0.00338405  0.13711421  0.15402437  1
  S2-  S129  1  0.11298142  0.11557186  0.64152035  1
  S2-  S130  1  0.00510699  0.38503178  0.15990517  1
  S2-  S131  1  0.12170783  0.37162305  0.64423310  1
  S2-  S132  1  -0.09510379  0.60546297  0.15036380  1
  S2-  S133  1  -0.00889679  0.59332584  0.65426435  1
  S2-  S134  1  -0.04615622  0.88128914  0.15539354  1
  S2-  S135  1  0.01607231  0.84117311  0.64908017  1
  S2-  S136  1  0.24878528  0.13709377  0.15709677  1
  S2-  S137  1  0.32852650  0.11618190  0.65077900  1
  S2-  S138  1  0.25806286  0.37362675  0.16806331  1
  S2-  S139  1  0.35093118  0.37323098  0.64637318  1
  S2-  S140  1  0.14310297  0.61045200  0.15059945  1
  S2-  S141  1  0.24888619  0.57875621  0.66232712  1
  S2-  S142  1  0.31052056  0.90220189  0.15503090  1
  S2-  S143  1  0.22921900  0.91394140  0.65199316  1
  S2-  S144  1  0.47566628  0.10330365  0.16288728  1
  S2-  S145  1  0.48199154  0.21047562  0.69890307  1
  S2-  S146  1  0.48207266  0.34447289  0.14054061  1
  S2-  S147  1  0.55570963  0.40665873  0.67414728  1
  S2-  S148  1  0.39868046  0.60875751  0.14405883  1
  S2-  S149  1  0.54369248  0.61722691  0.65461098  1
  S2-  S150  1  0.56648464  0.88134612  0.14333424  1
  S2-  S151  1  0.48694954  0.97291665  0.65674210  1
  S2-  S152  1  0.72673058  0.10361087  0.14547076  1
  S2-  S153  1  0.65680171  0.12130762  0.65011175  1
  S2-  S154  1  0.72838071  0.35465335  0.15166242  1
  S2-  S155  1  0.75511155  0.46022359  0.64165900  1
  S2-  S156  1  0.73672229  0.72914260  0.15080020  1
  S2-  S157  1  0.76496734  0.66012621  0.67869808  1
  S2-  S158  1  0.75203348  0.91361351  0.19848401  1
  S2-  S159  1  0.63443939  0.84091430  0.64197117  1
  S2-  S160  1  0.12813697  0.08713480  0.35199120  1
  S2-  S161  1  0.23406988  -0.02455506  0.85512723  1
  S2-  S162  1  0.14258158  0.24832473  0.26761140  1
  S2-  S163  1  0.15528113  0.20124645  0.84604036  1
  S2-  S164  1  0.12495814  0.40565489  0.34783971  1
  S2-  S165  1  0.20710607  0.50503961  0.85258513  1
  S2-  S166  1  0.12782911  0.62408966  0.35748596  1
  S2-  S167  1  0.11949024  0.75240037  0.85058876  1
  S2-  S168  1  0.38474260  0.03572606  0.34215138  1
  S2-  S169  1  0.39334679  0.12066004  0.85228356  1
  S2-  S170  1  0.28130456  0.25636347  0.35009362  1
  S2-  S171  1  0.36589846  0.33398267  0.84233667  1
  S2-  S172  1  0.34345053  0.48049849  0.33830502  1
  S2-  S173  1  0.41707682  0.49694900  0.78323870  1
  S2-  S174  1  0.38696264  0.74298177  0.35180264  1
  S2-  S175  1  0.36665329  0.66093104  0.85730060  1
  S2-  S176  1  0.62467159  0.10229770  0.35917898  1
  S2-  S177  1  0.59729664  -0.00887537  0.84104646  1
  S2-  S178  1  0.49366805  0.26556190  0.35834457  1
  S2-  S179  1  0.59254096  0.22970624  0.83398623  1
  S2-  S180  1  0.61127223  0.59798145  0.35876391  1
  S2-  S181  1  0.62841602  0.43624769  0.80701268  1
  S2-  S182  1  0.59920892  0.88029179  0.35855352  1
  S2-  S183  1  0.61015211  0.64710578  0.84681008  1
  S2-  S184  1  0.85049477  -0.02390918  0.34685955  1
  S2-  S185  1  1.00113365  0.00153636  0.85673996  1
  S2-  S186  1  0.96623027  0.24837025  0.35103405  1
  S2-  S187  1  0.92008326  0.25937944  0.84508020  1
  S2-  S188  1  0.90404993  0.51252222  0.34725595  1
  S2-  S189  1  0.81047552  0.51122709  0.85408173  1
  S2-  S190  1  0.76884965  0.74368958  0.35533534  1
  S2-  S191  1  0.79300555  0.74414560  0.86185655  1
  S2-  S192  1  -0.00584150  0.11719444  0.45673349  1
  S2-  S193  1  0.00121357  0.12783030  0.95320718  1
  S2-  S194  1  -0.00391381  0.37210504  0.45707101  1
  S2-  S195  1  0.00343918  0.37536734  0.95299114  1
  S2-  S196  1  -0.00733715  0.62181430  0.45367157  1
  S2-  S197  1  0.00198026  0.61937692  0.95930333  1
  S2-  S198  1  -0.00385249  0.86651642  0.44560162  1
  S2-  S199  1  0.00108819  0.86894335  0.95605004  1
  S2-  S200  1  0.24711459  0.11686896  0.45587202  1
  S2-  S201  1  0.25175713  0.12334379  0.95469359  1
  S2-  S202  1  0.24664756  0.37248844  0.45682762  1
  S2-  S203  1  0.25669191  0.37113977  0.95535632  1
  S2-  S204  1  0.25285114  0.62563596  0.45676999  1
  S2-  S205  1  0.25419012  0.62142084  0.96528476  1
  S2-  S206  1  0.24894995  0.86773854  0.45059806  1
  S2-  S207  1  0.25531430  0.86815905  0.95880067  1
  S2-  S208  1  0.49942869  0.11621949  0.45907469  1
  S2-  S209  1  0.50706594  0.12217852  0.95467053  1
  S2-  S210  1  0.49812798  0.37448855  0.46217021  1
  S2-  S211  1  0.50801023  0.38015461  0.93787397  1
  S2-  S212  1  0.49409080  0.62185147  0.45623515  1
  S2-  S213  1  0.50654936  0.61640945  0.95417451  1
  S2-  S214  1  0.49701097  0.86848850  0.46328451  1
  S2-  S215  1  0.50341452  0.87086102  0.94671509  1
  S2-  S216  1  0.74865219  0.12030013  0.45655575  1
  S2-  S217  1  0.75401476  0.12235873  0.94210260  1
  S2-  S218  1  0.74554022  0.37061834  0.45374112  1
  S2-  S219  1  0.75023304  0.37464508  0.94876721  1
  S2-  S220  1  0.75018108  0.61266517  0.46132849  1
  S2-  S221  1  0.75421736  0.61690425  0.96346216  1
  S2-  S222  1  0.74696766  0.87163484  0.45968172  1
  S2-  S223  1  0.75525047  0.87752818  0.95631612  1
  S2-  S224  1  0.12491348  -0.00241034  0.04815283  1
  S2-  S225  1  0.11764903  -0.01050775  0.54078696  1
  S2-  S226  1  0.12795034  0.24469643  0.04699300  1
  S2-  S227  1  0.11698342  0.24220249  0.54268717  1
  S2-  S228  1  0.13158172  0.49104388  0.05040798  1
  S2-  S229  1  0.11988252  0.50232656  0.54310148  1
  S2-  S230  1  0.12892040  0.75437236  0.05777836  1
  S2-  S231  1  0.11986876  0.74467758  0.54053245  1
  S2-  S232  1  0.38263306  -0.00211225  0.03991181  1
  S2-  S233  1  0.37218430  -0.00791757  0.54851924  1
  S2-  S234  1  0.38221482  0.24556680  0.03774466  1
  S2-  S235  1  0.37381502  0.23872498  0.54851921  1
  S2-  S236  1  0.38082015  0.49151863  0.04626366  1
  S2-  S237  1  0.37224079  0.50146749  0.54656359  1
  S2-  S238  1  0.38242205  0.75118153  0.04899480  1
  S2-  S239  1  0.37467406  0.74648399  0.55641981  1
  S2-  S240  1  0.62990430  -0.00340998  0.04399332  1
  S2-  S241  1  0.62230189  -0.00399192  0.54524038  1
  S2-  S242  1  0.62843823  0.24875813  0.03991080  1
  S2-  S243  1  0.62048141  0.24819535  0.54992892  1
  S2-  S244  1  0.62845064  0.49486184  0.04908852  1
  S2-  S245  1  0.61855286  0.49309025  0.54562480  1
  S2-  S246  1  0.62722405  0.74846998  0.04171177  1
  S2-  S247  1  0.62296722  0.73757959  0.53934553  1
  S2-  S248  1  0.87731935  -0.00282104  0.04257767  1
  S2-  S249  1  0.86760807  -0.00734956  0.55038400  1
  S2-  S250  1  0.87678192  0.24835419  0.04804022  1
  S2-  S251  1  0.86761017  0.24639799  0.54488664  1
  S2-  S252  1  0.87762499  0.49097469  0.04863285  1
  S2-  S253  1  0.87432160  0.49576105  0.54681121  1
  S2-  S254  1  0.87842221  0.75131393  0.05183555  1
  S2-  S255  1  0.86842145  0.74203941  0.54971931  1
