# generated using pymatgen
data_La12Ce14Pr13Nd13Sm12(BiS2)64
_symmetry_space_group_name_H-M   'P 1'
_cell_length_a   16.04995247
_cell_length_b   16.07240104
_cell_length_c   27.24723290
_cell_angle_alpha   90.38931875
_cell_angle_beta   89.69815943
_cell_angle_gamma   89.89287398
_symmetry_Int_Tables_number   1
_chemical_formula_structural   La12Ce14Pr13Nd13Sm12(BiS2)64
_chemical_formula_sum   'La12 Ce14 Pr13 Nd13 Sm12 Bi64 S128'
_cell_volume   7028.45832569
_cell_formula_units_Z   1
loop_
 _symmetry_equiv_pos_site_id
 _symmetry_equiv_pos_as_xyz
  1  'x, y, z'
loop_
 _atom_type_symbol
 _atom_type_oxidation_number
  La3+  3.0
  Ce3+  3.0
  Pr3+  3.0
  Nd3+  3.0
  Sm3+  3.0
  Bi2+  2.0
  S2-  -2.0
loop_
 _atom_site_type_symbol
 _atom_site_label
 _atom_site_symmetry_multiplicity
 _atom_site_fract_x
 _atom_site_fract_y
 _atom_site_fract_z
 _atom_site_occupancy
  La3+  La0  1  0.37540089  0.74948421  0.43780497  1
  La3+  La1  1  0.61355491  0.00291015  0.43067405  1
  La3+  La2  1  0.62432551  0.24593036  0.91786120  1
  La3+  La3  1  0.00077528  0.12449791  0.56712213  1
  La3+  La4  1  0.24360597  0.37230001  0.08429273  1
  La3+  La5  1  0.62683531  0.74548135  0.42908193  1
  La3+  La6  1  0.60791572  -0.00642350  0.92074710  1
  La3+  La7  1  0.24047112  0.86879991  0.59945698  1
  La3+  La8  1  0.24081726  0.62311883  0.56898738  1
  La3+  La9  1  0.50491493  0.86924205  0.58374157  1
  La3+  La10  1  0.86834266  0.00273710  0.41885039  1
  La3+  La11  1  0.25755388  0.13232696  0.58123639  1
  Ce3+  Ce12  1  0.73202157  0.37628965  0.06344262  1
  Ce3+  Ce13  1  -0.02561955  0.13707889  0.07664312  1
  Ce3+  Ce14  1  0.87579410  0.49709077  0.45176167  1
  Ce3+  Ce15  1  0.50021542  0.37966287  0.55997982  1
  Ce3+  Ce16  1  0.23726687  0.87373978  0.06122159  1
  Ce3+  Ce17  1  0.87680367  0.74901679  0.44433620  1
  Ce3+  Ce18  1  0.74477023  0.87828570  0.55561146  1
  Ce3+  Ce19  1  0.24713952  0.37349141  0.55351853  1
  Ce3+  Ce20  1  0.37229132  0.50011630  0.43968348  1
  Ce3+  Ce21  1  -0.01342295  0.87729664  0.06569121  1
  Ce3+  Ce22  1  0.87002144  0.24759060  0.93980383  1
  Ce3+  Ce23  1  0.37551839  0.24512849  0.44381964  1
  Ce3+  Ce24  1  0.12793713  0.00104867  0.44635945  1
  Ce3+  Ce25  1  0.36056301  0.74405634  0.93308158  1
  Pr3+  Pr26  1  0.62802888  0.49872061  0.43808881  1
  Pr3+  Pr27  1  0.74703433  0.12821255  0.56955535  1
  Pr3+  Pr28  1  0.12987147  0.74706795  0.42859725  1
  Pr3+  Pr29  1  -0.01114712  0.38540504  0.07336048  1
  Pr3+  Pr30  1  0.50442992  0.13209725  0.57888742  1
  Pr3+  Pr31  1  0.12988136  0.23710549  0.42842092  1
  Pr3+  Pr32  1  0.11067906  -0.00180942  0.93116561  1
  Pr3+  Pr33  1  0.22688093  0.12165401  0.06628867  1
  Pr3+  Pr34  1  0.74661321  0.37610304  0.57377617  1
  Pr3+  Pr35  1  0.36230224  0.49787663  0.93678264  1
  Pr3+  Pr36  1  0.48090217  0.87754775  0.05959411  1
  Pr3+  Pr37  1  0.48630859  0.62668071  0.05807808  1
  Pr3+  Pr38  1  0.36196320  0.25162230  0.93025222  1
  Nd3+  Nd39  1  0.00195057  0.62813149  0.55686171  1
  Nd3+  Nd40  1  0.72277250  0.12780061  0.06529578  1
  Nd3+  Nd41  1  -0.01242519  0.62479423  0.05527008  1
  Nd3+  Nd42  1  0.35584611  -0.00215100  0.92691654  1
  Nd3+  Nd43  1  0.10868669  0.25044993  0.94463337  1
  Nd3+  Nd44  1  -0.00324616  0.88187099  0.56099878  1
  Nd3+  Nd45  1  0.48497740  0.12835535  0.04873882  1
  Nd3+  Nd46  1  0.10894491  0.75022929  0.93154689  1
  Nd3+  Nd47  1  0.10418019  0.50026453  0.92269508  1
  Nd3+  Nd48  1  0.86037263  0.49630382  0.93141804  1
  Nd3+  Nd49  1  0.86033510  -0.00038640  0.95099292  1
  Nd3+  Nd50  1  0.74941782  0.62394030  0.57409139  1
  Nd3+  Nd51  1  0.62643117  0.25018336  0.43835058  1
  Sm3+  Sm52  1  0.49564492  0.62807065  0.56216189  1
  Sm3+  Sm53  1  0.00271947  0.36821074  0.56602112  1
  Sm3+  Sm54  1  0.12010040  0.48650020  0.43150723  1
  Sm3+  Sm55  1  0.85935769  0.75129569  0.94815132  1
  Sm3+  Sm56  1  0.61171443  0.75167530  0.93597792  1
  Sm3+  Sm57  1  0.61748787  0.49669558  0.93236973  1
  Sm3+  Sm58  1  0.49163013  0.37460020  0.05919637  1
  Sm3+  Sm59  1  0.73596781  0.62556718  0.05513666  1
  Sm3+  Sm60  1  0.72644361  0.88105822  0.07012163  1
  Sm3+  Sm61  1  0.37940991  -0.00485969  0.46084409  1
  Sm3+  Sm62  1  0.23372447  0.62338385  0.05312740  1
  Sm3+  Sm63  1  0.87497862  0.24778571  0.44132892  1
  Bi2+  Bi64  1  0.02399215  0.21322917  0.30232975  1
  Bi2+  Bi65  1  -0.01965042  0.09198312  0.79627377  1
  Bi2+  Bi66  1  -0.03152438  0.42168953  0.28052182  1
  Bi2+  Bi67  1  0.04918520  0.45657023  0.69540933  1
  Bi2+  Bi68  1  0.04550983  0.65311155  0.31074549  1
  Bi2+  Bi69  1  0.01113658  0.59544419  0.78335215  1
  Bi2+  Bi70  1  0.08707419  0.84441792  0.29862698  1
  Bi2+  Bi71  1  -0.04279717  0.81699647  0.77978908  1
  Bi2+  Bi72  1  0.22879677  0.10910921  0.28480551  1
  Bi2+  Bi73  1  0.15975946  0.16437670  0.82161950  1
  Bi2+  Bi74  1  0.27863404  0.32024771  0.27737597  1
  Bi2+  Bi75  1  0.17223446  0.38388549  0.78226492  1
  Bi2+  Bi76  1  0.28521322  0.62894599  0.28629632  1
  Bi2+  Bi77  1  0.24689851  0.57351656  0.77927786  1
  Bi2+  Bi78  1  0.28120679  0.89250324  0.28982888  1
  Bi2+  Bi79  1  0.21533892  0.85688791  0.80618039  1
  Bi2+  Bi80  1  0.52954583  0.16940830  0.27198220  1
  Bi2+  Bi81  1  0.48730041  0.16240648  0.79622407  1
  Bi2+  Bi82  1  0.47702424  0.35666204  0.29506428  1
  Bi2+  Bi83  1  0.45604499  0.42803256  0.78490338  1
  Bi2+  Bi84  1  0.52920580  0.64286181  0.29407039  1
  Bi2+  Bi85  1  0.56649920  0.65721839  0.79275840  1
  Bi2+  Bi86  1  0.53406151  0.90642276  0.30285502  1
  Bi2+  Bi87  1  0.48824759  0.87289451  0.78373976  1
  Bi2+  Bi88  1  0.74187346  0.09054299  0.29252993  1
  Bi2+  Bi89  1  0.77026964  0.12664284  0.78637082  1
  Bi2+  Bi90  1  0.66224652  0.38189874  0.32454335  1
  Bi2+  Bi91  1  0.84589943  0.38693928  0.79682602  1
  Bi2+  Bi92  1  0.83526703  0.59659061  0.28597769  1
  Bi2+  Bi93  1  0.75953715  0.61670777  0.79072997  1
  Bi2+  Bi94  1  0.80426652  0.84996605  0.27886315  1
  Bi2+  Bi95  1  0.76073504  0.87132653  0.79470430  1
  Bi2+  Bi96  1  0.21287730  -0.00760177  0.18689035  1
  Bi2+  Bi97  1  0.08109423  -0.03691097  0.71325509  1
  Bi2+  Bi98  1  0.09858037  0.26345823  0.20348368  1
  Bi2+  Bi99  1  0.12275820  0.22417145  0.71567909  1
  Bi2+  Bi100  1  0.11375062  0.54940200  0.21063795  1
  Bi2+  Bi101  1  0.25090834  0.47188617  0.67500820  1
  Bi2+  Bi102  1  0.18467402  0.79013508  0.19198433  1
  Bi2+  Bi103  1  0.13797311  0.71121135  0.71243066  1
  Bi2+  Bi104  1  0.39872176  0.03928819  0.23133587  1
  Bi2+  Bi105  1  0.33058426  0.04412514  0.72445258  1
  Bi2+  Bi106  1  0.40308751  0.22595563  0.18845459  1
  Bi2+  Bi107  1  0.33575974  0.31265940  0.72482743  1
  Bi2+  Bi108  1  0.36484341  0.47282108  0.22956198  1
  Bi2+  Bi109  1  0.45444920  0.49568904  0.67233307  1
  Bi2+  Bi110  1  0.38016329  0.77340747  0.21227595  1
  Bi2+  Bi111  1  0.40545965  0.66869400  0.72071363  1
  Bi2+  Bi112  1  0.69149606  0.00108482  0.19642351  1
  Bi2+  Bi113  1  0.59658358  -0.01505866  0.71811912  1
  Bi2+  Bi114  1  0.67645753  0.24789544  0.18635056  1
  Bi2+  Bi115  1  0.64054521  0.25287283  0.71085860  1
  Bi2+  Bi116  1  0.69329707  0.49438956  0.23106113  1
  Bi2+  Bi117  1  0.62554953  0.49337993  0.73011117  1
  Bi2+  Bi118  1  0.64026761  0.74304287  0.17588360  1
  Bi2+  Bi119  1  0.66622650  0.73529108  0.70113519  1
  Bi2+  Bi120  1  1.00790658  -0.02180193  0.23412329  1
  Bi2+  Bi121  1  0.84641225  -0.03675376  0.70971124  1
  Bi2+  Bi122  1  0.81166742  0.27699810  0.27915630  1
  Bi2+  Bi123  1  0.89816267  0.24261949  0.72811285  1
  Bi2+  Bi124  1  0.84845475  0.39866782  0.18822865  1
  Bi2+  Bi125  1  0.88142405  0.56338744  0.69703228  1
  Bi2+  Bi126  1  0.94975274  0.70230283  0.21628530  1
  Bi2+  Bi127  1  0.86158807  0.76000394  0.68314170  1
  S2-  S128  1  0.07018374  0.08033844  0.15240779  1
  S2-  S129  1  -0.03784195  0.00781643  0.64131398  1
  S2-  S130  1  -0.03805810  0.26852063  0.14905961  1
  S2-  S131  1  0.00472898  0.25091186  0.64159112  1
  S2-  S132  1  -0.02196352  0.57333314  0.14982788  1
  S2-  S133  1  0.09647022  0.60781548  0.63925946  1
  S2-  S134  1  0.01382409  0.84404089  0.16090814  1
  S2-  S135  1  0.07978151  0.83142409  0.64557815  1
  S2-  S136  1  0.24709199  0.22607174  0.14752115  1
  S2-  S137  1  0.18118490  0.07650604  0.66829548  1
  S2-  S138  1  0.11994893  0.41172623  0.15231453  1
  S2-  S139  1  0.24053838  0.29155031  0.64073082  1
  S2-  S140  1  0.22942884  0.63291334  0.15260801  1
  S2-  S141  1  0.28055524  0.71831384  0.65386229  1
  S2-  S142  1  0.35632565  0.87805048  0.13531921  1
  S2-  S143  1  0.24522390  0.90134001  0.70633972  1
  S2-  S144  1  0.57704299  0.13735427  0.13405436  1
  S2-  S145  1  0.38874303  0.13921459  0.65904082  1
  S2-  S146  1  0.39176755  0.38840195  0.14354464  1
  S2-  S147  1  0.53820630  0.31111756  0.64752513  1
  S2-  S148  1  0.48823205  0.66416953  0.15696254  1
  S2-  S149  1  0.51264871  0.71895320  0.64704254  1
  S2-  S150  1  0.59052779  0.90037437  0.13764869  1
  S2-  S151  1  0.45046547  0.93049481  0.68138132  1
  S2-  S152  1  0.79753883  0.11770391  0.15839539  1
  S2-  S153  1  0.63240520  0.10848253  0.65160776  1
  S2-  S154  1  0.61178539  0.37824117  0.13602792  1
  S2-  S155  1  0.77375519  0.25886931  0.64916500  1
  S2-  S156  1  0.72740155  0.60277024  0.15236626  1
  S2-  S157  1  0.73350312  0.50234530  0.64846644  1
  S2-  S158  1  0.78258889  0.86244463  0.16803958  1
  S2-  S159  1  0.65986071  0.88280967  0.64307163  1
  S2-  S160  1  0.11839280  0.09454498  0.36210674  1
  S2-  S161  1  0.23282045  0.00658414  0.85296719  1
  S2-  S162  1  0.08268081  0.34890270  0.35428347  1
  S2-  S163  1  0.00702507  0.22887303  0.86305367  1
  S2-  S164  1  0.16751846  0.54609180  0.34225435  1
  S2-  S165  1  0.12817169  0.63234930  0.85344230  1
  S2-  S166  1  0.26201233  0.75061041  0.35633199  1
  S2-  S167  1  0.07405358  0.87111151  0.85782907  1
  S2-  S168  1  0.45757179  -0.00799363  0.36930615  1
  S2-  S169  1  0.45781326  -0.00135491  0.84237594  1
  S2-  S170  1  0.31138403  0.21521686  0.35398981  1
  S2-  S171  1  0.34249408  0.20228207  0.83307991  1
  S2-  S172  1  0.40624518  0.55613757  0.34872032  1
  S2-  S173  1  0.37928535  0.55534388  0.84270621  1
  S2-  S174  1  0.49444364  0.77203423  0.35853052  1
  S2-  S175  1  0.35834920  0.79276695  0.83922120  1
  S2-  S176  1  0.70545613  -0.05220407  0.34521557  1
  S2-  S177  1  0.63688258  0.10711517  0.84380747  1
  S2-  S178  1  0.61785817  0.14399599  0.35829389  1
  S2-  S179  1  0.54975739  0.30763744  0.83158598  1
  S2-  S180  1  0.63933412  0.60721694  0.35933570  1
  S2-  S181  1  0.73483484  0.48479299  0.85666627  1
  S2-  S182  1  0.64239654  0.77102271  0.26985167  1
  S2-  S183  1  0.62933362  0.85339177  0.85583042  1
  S2-  S184  1  0.92766080  -0.05332835  0.32112726  1
  S2-  S185  1  0.85543648  0.00230333  0.85032373  1
  S2-  S186  1  0.87447247  0.15423569  0.35682427  1
  S2-  S187  1  0.78002349  0.26437706  0.85476609  1
  S2-  S188  1  0.86527551  0.47282863  0.35508283  1
  S2-  S189  1  0.97276781  0.46978484  0.85303131  1
  S2-  S190  1  0.82771036  0.74267908  0.35042164  1
  S2-  S191  1  0.85679434  0.73706123  0.84927502  1
  S2-  S192  1  -0.00500007  0.12214559  0.45925755  1
  S2-  S193  1  -0.01188329  0.11927912  0.96631562  1
  S2-  S194  1  -0.00364453  0.36880821  0.46132160  1
  S2-  S195  1  -0.01382997  0.37764496  0.96287007  1
  S2-  S196  1  0.00233994  0.62141454  0.45114358  1
  S2-  S197  1  -0.01847293  0.62710568  0.95088002  1
  S2-  S198  1  0.00039187  0.87553580  0.44980762  1
  S2-  S199  1  -0.01777244  0.87128691  0.96122737  1
  S2-  S200  1  0.25644646  0.11954669  0.46665484  1
  S2-  S201  1  0.23563009  0.12853453  0.95744840  1
  S2-  S202  1  0.24962804  0.37253276  0.44752504  1
  S2-  S203  1  0.23222799  0.37646492  0.93611773  1
  S2-  S204  1  0.24384867  0.61675122  0.45810111  1
  S2-  S205  1  0.23591769  0.62212199  0.95056876  1
  S2-  S206  1  0.25144023  0.88031085  0.45249598  1
  S2-  S207  1  0.23719876  0.86957763  0.95450061  1
  S2-  S208  1  0.49688851  0.12893694  0.46831579  1
  S2-  S209  1  0.48413688  0.12609739  0.94469762  1
  S2-  S210  1  0.49896237  0.37501448  0.45064640  1
  S2-  S211  1  0.49072496  0.37769138  0.94965990  1
  S2-  S212  1  0.49910884  0.62111837  0.45972366  1
  S2-  S213  1  0.49377037  0.62343638  0.94918548  1
  S2-  S214  1  0.50277226  0.87074972  0.47004035  1
  S2-  S215  1  0.48112479  0.86909104  0.95228097  1
  S2-  S216  1  0.74902838  0.12682350  0.45844153  1
  S2-  S217  1  0.73933695  0.12238962  0.95731760  1
  S2-  S218  1  0.75101390  0.37196588  0.46123098  1
  S2-  S219  1  0.73829902  0.37587091  0.95821481  1
  S2-  S220  1  0.75553253  0.62233125  0.46527470  1
  S2-  S221  1  0.73414886  0.62851949  0.95059817  1
  S2-  S222  1  0.75063051  0.87281556  0.45258905  1
  S2-  S223  1  0.73756107  0.87255275  0.96190814  1
  S2-  S224  1  0.11052760  -0.00587096  0.04128057  1
  S2-  S225  1  0.13141296  -0.00385565  0.55098401  1
  S2-  S226  1  0.11074398  0.25416268  0.04832408  1
  S2-  S227  1  0.12646556  0.24851082  0.53779555  1
  S2-  S228  1  0.11574756  0.50150134  0.03664066  1
  S2-  S229  1  0.11842458  0.49173221  0.53839064  1
  S2-  S230  1  0.11159307  0.74807103  0.04282890  1
  S2-  S231  1  0.12391866  0.75319276  0.53686540  1
  S2-  S232  1  0.35846345  0.00654445  0.03782173  1
  S2-  S233  1  0.37183606  -0.00809227  0.56318504  1
  S2-  S234  1  0.36300004  0.25459110  0.03758147  1
  S2-  S235  1  0.37939820  0.25609967  0.54713401  1
  S2-  S236  1  0.36051627  0.50128188  0.04321623  1
  S2-  S237  1  0.37213260  0.50131422  0.54505912  1
  S2-  S238  1  0.35843911  0.74401547  0.03958025  1
  S2-  S239  1  0.36993912  0.75023889  0.54723238  1
  S2-  S240  1  0.60803617  0.00073956  0.03208238  1
  S2-  S241  1  0.62195360  0.00352052  0.54250549  1
  S2-  S242  1  0.60852965  0.25346661  0.03067830  1
  S2-  S243  1  0.62601407  0.25400671  0.54280423  1
  S2-  S244  1  0.61152258  0.50477712  0.03670067  1
  S2-  S245  1  0.62225872  0.50432187  0.54585085  1
  S2-  S246  1  0.61237110  0.75027719  0.04082685  1
  S2-  S247  1  0.62954648  0.74214953  0.54285839  1
  S2-  S248  1  0.85767624  -0.00180828  0.05648358  1
  S2-  S249  1  0.86676783  0.00062334  0.53690569  1
  S2-  S250  1  0.85238720  0.25289415  0.04633420  1
  S2-  S251  1  0.87340574  0.25160540  0.54343480  1
  S2-  S252  1  0.85816260  0.50310706  0.04212606  1
  S2-  S253  1  0.88143171  0.49726678  0.55603475  1
  S2-  S254  1  0.85838182  0.74989108  0.05335971  1
  S2-  S255  1  0.87384272  0.74992397  0.55050521  1
