# generated using pymatgen
data_La12Ce14Pr13Nd13Sm12(BiS2)64
_symmetry_space_group_name_H-M   'P 1'
_cell_length_a   16.16398287
_cell_length_b   16.15860527
_cell_length_c   27.18813901
_cell_angle_alpha   90.28015319
_cell_angle_beta   89.94382181
_cell_angle_gamma   90.00636899
_symmetry_Int_Tables_number   1
_chemical_formula_structural   La12Ce14Pr13Nd13Sm12(BiS2)64
_chemical_formula_sum   'La12 Ce14 Pr13 Nd13 Sm12 Bi64 S128'
_cell_volume   7101.11150791
_cell_formula_units_Z   1
loop_
 _symmetry_equiv_pos_site_id
 _symmetry_equiv_pos_as_xyz
  1  'x, y, z'
loop_
 _atom_type_symbol
 _atom_type_oxidation_number
  La3+  3.0
  Ce3+  3.0
  Pr3+  3.0
  Nd3+  3.0
  Sm3+  3.0
  Bi2+  2.0
  S2-  -2.0
loop_
 _atom_site_type_symbol
 _atom_site_label
 _atom_site_symmetry_multiplicity
 _atom_site_fract_x
 _atom_site_fract_y
 _atom_site_fract_z
 _atom_site_occupancy
  La3+  La0  1  0.38319699  0.23839889  0.40589554  1
  La3+  La1  1  0.86578532  0.49589745  0.40644519  1
  La3+  La2  1  0.37609766  -0.00999746  0.92555742  1
  La3+  La3  1  0.25236485  0.87430890  0.59869078  1
  La3+  La4  1  0.11049280  0.73461046  0.91783720  1
  La3+  La5  1  0.87335041  0.49056229  0.94923993  1
  La3+  La6  1  0.63360352  0.25057272  0.88853816  1
  La3+  La7  1  0.24863883  0.35746085  0.07068454  1
  La3+  La8  1  0.49029248  0.38032654  0.60045401  1
  La3+  La9  1  0.50254377  0.11655863  0.09285632  1
  La3+  La10  1  0.48930849  0.62362114  0.56648626  1
  La3+  La11  1  0.74284195  0.36619601  0.06729067  1
  Ce3+  Ce12  1  -0.00671296  0.61697110  0.55403983  1
  Ce3+  Ce13  1  0.37022993  -0.00901279  0.43140768  1
  Ce3+  Ce14  1  0.86855236  0.24742605  0.43972529  1
  Ce3+  Ce15  1  0.74559873  0.86954550  0.56262998  1
  Ce3+  Ce16  1  0.49373730  0.61771027  0.06288232  1
  Ce3+  Ce17  1  0.37385355  0.73974193  0.93589000  1
  Ce3+  Ce18  1  0.12378310  -0.00644788  0.44496220  1
  Ce3+  Ce19  1  0.00000832  0.86714933  0.06190094  1
  Ce3+  Ce20  1  0.74715092  0.61954462  0.07084130  1
  Ce3+  Ce21  1  0.24241387  0.61740398  0.05267523  1
  Ce3+  Ce22  1  0.49418026  0.87064641  0.55217449  1
  Ce3+  Ce23  1  0.61991119  -0.00485071  0.44028508  1
  Ce3+  Ce24  1  0.62197683  0.73862203  0.94216118  1
  Ce3+  Ce25  1  0.24261726  0.61894721  0.55456132  1
  Pr3+  Pr26  1  0.12848535  0.24066028  0.92856795  1
  Pr3+  Pr27  1  0.12080652  -0.00910964  0.94178037  1
  Pr3+  Pr28  1  0.12015849  0.74384905  0.44019324  1
  Pr3+  Pr29  1  0.61895897  0.49274538  0.43650659  1
  Pr3+  Pr30  1  0.37107074  0.74591838  0.43185776  1
  Pr3+  Pr31  1  0.49727843  0.36973945  0.06006456  1
  Pr3+  Pr32  1  0.24701639  0.86826055  0.05051967  1
  Pr3+  Pr33  1  0.12077349  0.48852250  0.93943709  1
  Pr3+  Pr34  1  0.74564641  0.86899341  0.05655696  1
  Pr3+  Pr35  1  0.00711938  0.62158072  0.09147054  1
  Pr3+  Pr36  1  -0.00097185  0.36072212  0.06830474  1
  Pr3+  Pr37  1  0.37832532  0.24234109  0.93344691  1
  Pr3+  Pr38  1  0.74390667  0.11601939  0.06303938  1
  Nd3+  Nd39  1  0.74939921  0.37554696  0.56646486  1
  Nd3+  Nd40  1  0.49148023  0.11853000  0.56433086  1
  Nd3+  Nd41  1  -0.00189373  0.12011191  0.55591078  1
  Nd3+  Nd42  1  0.87147540  0.75260655  0.43321591  1
  Nd3+  Nd43  1  0.12174279  0.48992115  0.43443513  1
  Nd3+  Nd44  1  0.74398696  0.12139504  0.55793402  1
  Nd3+  Nd45  1  0.87195523  -0.00690471  0.94403603  1
  Nd3+  Nd46  1  0.62394351  -0.00252623  0.93114071  1
  Nd3+  Nd47  1  0.37524500  0.49011913  0.93718187  1
  Nd3+  Nd48  1  0.12037096  0.24416837  0.43709443  1
  Nd3+  Nd49  1  0.49434321  0.86936246  0.05807319  1
  Nd3+  Nd50  1  0.24871924  0.12188640  0.55937711  1
  Nd3+  Nd51  1  -0.00159090  0.86905465  0.56833813  1
  Sm3+  Sm52  1  -0.00117251  0.12053563  0.06034435  1
  Sm3+  Sm53  1  -0.00858752  0.37104723  0.55792891  1
  Sm3+  Sm54  1  0.37268137  0.49072036  0.44127040  1
  Sm3+  Sm55  1  0.86951449  -0.00664858  0.44448151  1
  Sm3+  Sm56  1  0.87395115  0.73998859  0.95025131  1
  Sm3+  Sm57  1  0.62160640  0.74281858  0.44302635  1
  Sm3+  Sm58  1  0.24770759  0.36833205  0.55405138  1
  Sm3+  Sm59  1  0.62367796  0.49915769  0.94093904  1
  Sm3+  Sm60  1  0.87072482  0.24128599  0.94418452  1
  Sm3+  Sm61  1  0.61802488  0.24474994  0.44850360  1
  Sm3+  Sm62  1  0.25216096  0.11687730  0.05649845  1
  Sm3+  Sm63  1  0.74752309  0.61783170  0.55177397  1
  Bi2+  Bi64  1  -0.02459240  0.12170422  0.29154448  1
  Bi2+  Bi65  1  0.01857057  0.18996371  0.81653358  1
  Bi2+  Bi66  1  -0.01836625  0.32922663  0.29312272  1
  Bi2+  Bi67  1  0.05948871  0.37791915  0.82305199  1
  Bi2+  Bi68  1  0.02048314  0.64541411  0.28958508  1
  Bi2+  Bi69  1  -0.03750003  0.61942337  0.79484867  1
  Bi2+  Bi70  1  -0.00504313  0.91611123  0.29334047  1
  Bi2+  Bi71  1  0.01056031  0.89947877  0.81097666  1
  Bi2+  Bi72  1  0.23580883  0.06594526  0.27330806  1
  Bi2+  Bi73  1  0.19162183  0.17033525  0.76033215  1
  Bi2+  Bi74  1  0.22378364  0.42174606  0.29858215  1
  Bi2+  Bi75  1  0.25417348  0.37457957  0.79986060  1
  Bi2+  Bi76  1  0.27291955  0.68082754  0.24420638  1
  Bi2+  Bi77  1  0.22860215  0.56538957  0.78135508  1
  Bi2+  Bi78  1  0.22958566  0.84523164  0.30222193  1
  Bi2+  Bi79  1  0.26304084  0.89771365  0.79942820  1
  Bi2+  Bi80  1  0.50103390  0.12433974  0.28877947  1
  Bi2+  Bi81  1  0.50277051  0.12317085  0.78908758  1
  Bi2+  Bi82  1  0.49228872  0.39866666  0.30952241  1
  Bi2+  Bi83  1  0.51602864  0.39722368  0.78923213  1
  Bi2+  Bi84  1  0.53045804  0.66495151  0.32200226  1
  Bi2+  Bi85  1  0.49591973  0.67287827  0.80536029  1
  Bi2+  Bi86  1  0.47611615  0.82940791  0.27203638  1
  Bi2+  Bi87  1  0.57023827  0.87689944  0.79029617  1
  Bi2+  Bi88  1  0.77594610  0.11064066  0.28332916  1
  Bi2+  Bi89  1  0.84769944  0.13040711  0.77920579  1
  Bi2+  Bi90  1  0.68874592  0.37212309  0.29835846  1
  Bi2+  Bi91  1  0.77821618  0.39262977  0.79068150  1
  Bi2+  Bi92  1  0.77730731  0.70770009  0.27097365  1
  Bi2+  Bi93  1  0.75496138  0.65932172  0.78634095  1
  Bi2+  Bi94  1  0.72684032  0.92912163  0.30821731  1
  Bi2+  Bi95  1  0.76051268  0.86078917  0.80143247  1
  Bi2+  Bi96  1  0.08885973  0.01760597  0.19876863  1
  Bi2+  Bi97  1  0.09388197  0.00004902  0.71496405  1
  Bi2+  Bi98  1  0.12401719  0.20836941  0.21726944  1
  Bi2+  Bi99  1  0.09618262  0.25910655  0.67168692  1
  Bi2+  Bi100  1  0.12942116  0.50005759  0.20487744  1
  Bi2+  Bi101  1  0.11398678  0.44249540  0.71674607  1
  Bi2+  Bi102  1  0.15524531  0.82072561  0.19766276  1
  Bi2+  Bi103  1  0.06341046  0.74430544  0.72638147  1
  Bi2+  Bi104  1  0.37913991  -0.02849436  0.21433979  1
  Bi2+  Bi105  1  0.38576014  0.00284227  0.70489251  1
  Bi2+  Bi106  1  0.35604243  0.28411978  0.20397367  1
  Bi2+  Bi107  1  0.32270639  0.25886601  0.70140512  1
  Bi2+  Bi108  1  0.41288489  0.53882247  0.23858961  1
  Bi2+  Bi109  1  0.36760930  0.52833755  0.70914098  1
  Bi2+  Bi110  1  0.42644687  0.72233877  0.17565465  1
  Bi2+  Bi111  1  0.41622329  0.73916415  0.69835067  1
  Bi2+  Bi112  1  0.64592503  -0.00756546  0.20831848  1
  Bi2+  Bi113  1  0.68780148  -0.00496357  0.72445182  1
  Bi2+  Bi114  1  0.62731330  0.27359855  0.21123927  1
  Bi2+  Bi115  1  0.62935195  0.22677585  0.68511505  1
  Bi2+  Bi116  1  0.62015871  0.54586057  0.24484158  1
  Bi2+  Bi117  1  0.66494179  0.54037158  0.70956399  1
  Bi2+  Bi118  1  0.61540844  0.73981330  0.20758284  1
  Bi2+  Bi119  1  0.61712185  0.73521786  0.71116888  1
  Bi2+  Bi120  1  0.88628026  0.03900292  0.18387852  1
  Bi2+  Bi121  1  0.90403188  -0.02101875  0.71050164  1
  Bi2+  Bi122  1  0.87206474  0.23075176  0.20887144  1
  Bi2+  Bi123  1  0.92646031  0.30135379  0.73010608  1
  Bi2+  Bi124  1  0.86499306  0.48996177  0.21534552  1
  Bi2+  Bi125  1  0.92626446  0.51640402  0.69409065  1
  Bi2+  Bi126  1  0.87334050  0.84601173  0.21244609  1
  Bi2+  Bi127  1  0.87658694  0.78145112  0.71601259  1
  S2-  S128  1  0.01197337  0.22438457  0.13916994  1
  S2-  S129  1  -0.00086342  0.10501928  0.65527772  1
  S2-  S130  1  0.00115143  0.42912264  0.16236337  1
  S2-  S131  1  -0.11654222  0.37594940  0.63583998  1
  S2-  S132  1  -0.04418479  0.61371322  0.19168608  1
  S2-  S133  1  0.03715155  0.62279532  0.64946826  1
  S2-  S134  1  0.00674823  0.79063107  0.14761532  1
  S2-  S135  1  0.09766778  0.86304550  0.65094035  1
  S2-  S136  1  0.24166629  0.21248311  0.13933373  1
  S2-  S137  1  0.26022490  0.03690432  0.64658501  1
  S2-  S138  1  0.26204471  0.42388540  0.16558966  1
  S2-  S139  1  0.30448583  0.40103616  0.64573330  1
  S2-  S140  1  0.16635164  0.62683974  0.14031644  1
  S2-  S141  1  0.29272276  0.64658462  0.64625859  1
  S2-  S142  1  0.28086858  0.90488305  0.14765916  1
  S2-  S143  1  0.28972171  0.84347775  0.70281718  1
  S2-  S144  1  0.42966219  0.14058856  0.18921412  1
  S2-  S145  1  0.50048199  0.10370423  0.66570146  1
  S2-  S146  1  0.50258835  0.32940506  0.15958997  1
  S2-  S147  1  0.47368278  0.31682113  0.69703824  1
  S2-  S148  1  0.49238848  0.54550968  0.15028168  1
  S2-  S149  1  0.50522848  0.53390017  0.65245579  1
  S2-  S150  1  0.51014462  0.95812715  0.14374112  1
  S2-  S151  1  0.46402128  0.88328417  0.64693884  1
  S2-  S152  1  0.65383689  0.12569068  0.15216886  1
  S2-  S153  1  0.75420040  0.12705727  0.65744948  1
  S2-  S154  1  0.76905528  0.35487685  0.16731797  1
  S2-  S155  1  0.65705662  0.38261534  0.65097036  1
  S2-  S156  1  0.73989819  0.57832218  0.16627076  1
  S2-  S157  1  0.78331697  0.59330785  0.64802930  1
  S2-  S158  1  0.72349256  0.85687277  0.15604643  1
  S2-  S159  1  0.70782816  0.86960358  0.65787221  1
  S2-  S160  1  0.13899816  -0.00201652  0.34632852  1
  S2-  S161  1  0.13976536  -0.00064693  0.84176927  1
  S2-  S162  1  0.13561308  0.29740952  0.34371178  1
  S2-  S163  1  0.25447667  0.23332502  0.85606050  1
  S2-  S164  1  0.13969358  0.54472069  0.33924230  1
  S2-  S165  1  0.10735537  0.58525612  0.85486178  1
  S2-  S166  1  0.07967803  0.76789173  0.34255409  1
  S2-  S167  1  0.15594033  0.78556537  0.82048667  1
  S2-  S168  1  0.36823591  0.09065290  0.34845159  1
  S2-  S169  1  0.37983122  0.03209653  0.82503279  1
  S2-  S170  1  0.35296389  0.29914457  0.31000941  1
  S2-  S171  1  0.47008742  0.26326662  0.84503648  1
  S2-  S172  1  0.36275637  0.50472883  0.34287923  1
  S2-  S173  1  0.42719686  0.52124999  0.84212158  1
  S2-  S174  1  0.37049778  0.86556848  0.35593411  1
  S2-  S175  1  0.38445480  0.79876453  0.84407756  1
  S2-  S176  1  0.58020377  0.00265559  0.34458050  1
  S2-  S177  1  0.63218302  0.08710165  0.84378699  1
  S2-  S178  1  0.55229415  0.23082511  0.35549602  1
  S2-  S179  1  0.64536819  0.27779742  0.77605886  1
  S2-  S180  1  0.71561031  0.50767275  0.35236968  1
  S2-  S181  1  0.63974057  0.42145078  0.85337379  1
  S2-  S182  1  0.66929451  0.76529989  0.34873643  1
  S2-  S183  1  0.63357071  0.63427411  0.86361930  1
  S2-  S184  1  0.87784740  -0.10510106  0.36362052  1
  S2-  S185  1  0.86746120  -0.00509711  0.84448760  1
  S2-  S186  1  0.84226378  0.31781974  0.35284449  1
  S2-  S187  1  0.80513158  0.25582978  0.85359634  1
  S2-  S188  1  0.94105686  0.48639016  0.31176759  1
  S2-  S189  1  0.86383621  0.50117135  0.84817326  1
  S2-  S190  1  0.87677780  0.66763948  0.34587357  1
  S2-  S191  1  0.95034903  0.75155947  0.86193577  1
  S2-  S192  1  -0.00626745  0.11825124  0.44889608  1
  S2-  S193  1  -0.00419519  0.11800248  0.95452253  1
  S2-  S194  1  -0.00459000  0.37025788  0.45157002  1
  S2-  S195  1  -0.00270980  0.36108768  0.95758032  1
  S2-  S196  1  -0.00366710  0.61561687  0.44791721  1
  S2-  S197  1  -0.00532246  0.61633438  0.96432970  1
  S2-  S198  1  -0.00322505  0.87152042  0.46183719  1
  S2-  S199  1  -0.00477480  0.86875363  0.95756133  1
  S2-  S200  1  0.24707890  0.12490210  0.45244925  1
  S2-  S201  1  0.24995397  0.11195120  0.95328284  1
  S2-  S202  1  0.25209548  0.36519824  0.44936467  1
  S2-  S203  1  0.24963664  0.36851234  0.95628189  1
  S2-  S204  1  0.24826689  0.61736487  0.44806162  1
  S2-  S205  1  0.24953480  0.61605858  0.94691091  1
  S2-  S206  1  0.24291910  0.86841768  0.45221010  1
  S2-  S207  1  0.24539339  0.86423823  0.94459984  1
  S2-  S208  1  0.49448954  0.11956123  0.45875503  1
  S2-  S209  1  0.49868516  0.11426736  0.94228848  1
  S2-  S210  1  0.49339136  0.36754713  0.44926768  1
  S2-  S211  1  0.50256137  0.37292902  0.95404633  1
  S2-  S212  1  0.49388889  0.62008001  0.45568094  1
  S2-  S213  1  0.49538928  0.61749789  0.95826285  1
  S2-  S214  1  0.50121132  0.86626393  0.44904155  1
  S2-  S215  1  0.50240103  0.86750060  0.95074581  1
  S2-  S216  1  0.74496082  0.11973084  0.44969245  1
  S2-  S217  1  0.74968200  0.11777892  0.95534503  1
  S2-  S218  1  0.74022212  0.36629476  0.45864462  1
  S2-  S219  1  0.74621923  0.36636271  0.95948201  1
  S2-  S220  1  0.74611829  0.62395032  0.45039527  1
  S2-  S221  1  0.75119282  0.61944490  0.96367510  1
  S2-  S222  1  0.74321976  0.87015196  0.45829890  1
  S2-  S223  1  0.74904804  0.86543415  0.94961947  1
  S2-  S224  1  0.12298400  -0.00237636  0.04970232  1
  S2-  S225  1  0.12258582  -0.00530715  0.54949494  1
  S2-  S226  1  0.12572828  0.23728149  0.03572372  1
  S2-  S227  1  0.12059825  0.24679070  0.54345792  1
  S2-  S228  1  0.12162695  0.48754825  0.04670909  1
  S2-  S229  1  0.12110822  0.48866522  0.54328685  1
  S2-  S230  1  0.12273320  0.74494269  0.03723662  1
  S2-  S231  1  0.12185286  0.74476162  0.54687651  1
  S2-  S232  1  0.37477411  -0.00384488  0.03921624  1
  S2-  S233  1  0.36863697  -0.00708645  0.54133123  1
  S2-  S234  1  0.38044906  0.23567130  0.04399583  1
  S2-  S235  1  0.37271334  0.24826838  0.55745127  1
  S2-  S236  1  0.36808555  0.49248763  0.04514808  1
  S2-  S237  1  0.37062303  0.49382348  0.54366452  1
  S2-  S238  1  0.37058373  0.74289499  0.04269955  1
  S2-  S239  1  0.36537500  0.74989203  0.54139248  1
  S2-  S240  1  0.62104464  -0.00690925  0.03883644  1
  S2-  S241  1  0.62063014  -0.00355289  0.54887930  1
  S2-  S242  1  0.61921962  0.24153487  0.05345791  1
  S2-  S243  1  0.61592317  0.24575882  0.55209554  1
  S2-  S244  1  0.62315952  0.49586245  0.04862360  1
  S2-  S245  1  0.62041606  0.49867298  0.54360220  1
  S2-  S246  1  0.61981218  0.74333066  0.05019080  1
  S2-  S247  1  0.62178837  0.74252612  0.54961388  1
  S2-  S248  1  0.87421220  -0.00623520  0.05001048  1
  S2-  S249  1  0.87177585  -0.00487603  0.54961143  1
  S2-  S250  1  0.86935261  0.23924933  0.04837891  1
  S2-  S251  1  0.87229932  0.24119843  0.54470684  1
  S2-  S252  1  0.87427794  0.49395170  0.05795903  1
  S2-  S253  1  0.87168339  0.49637550  0.53373710  1
  S2-  S254  1  0.87177963  0.74176164  0.05472799  1
  S2-  S255  1  0.87128803  0.74582203  0.54690739  1
