# generated using pymatgen
data_La12Ce14Pr13Nd13Sm12(BiS2)64
_symmetry_space_group_name_H-M   'P 1'
_cell_length_a   16.20377503
_cell_length_b   16.21393064
_cell_length_c   27.17093513
_cell_angle_alpha   90.06164393
_cell_angle_beta   89.92149809
_cell_angle_gamma   90.02511196
_symmetry_Int_Tables_number   1
_chemical_formula_structural   La12Ce14Pr13Nd13Sm12(BiS2)64
_chemical_formula_sum   'La12 Ce14 Pr13 Nd13 Sm12 Bi64 S128'
_cell_volume   7138.52362356
_cell_formula_units_Z   1
loop_
 _symmetry_equiv_pos_site_id
 _symmetry_equiv_pos_as_xyz
  1  'x, y, z'
loop_
 _atom_type_symbol
 _atom_type_oxidation_number
  La3+  3.0
  Ce3+  3.0
  Pr3+  3.0
  Nd3+  3.0
  Sm3+  3.0
  Bi2+  2.0
  S2-  -2.0
loop_
 _atom_site_type_symbol
 _atom_site_label
 _atom_site_symmetry_multiplicity
 _atom_site_fract_x
 _atom_site_fract_y
 _atom_site_fract_z
 _atom_site_occupancy
  La3+  La0  1  0.87346154  0.24035941  0.43025186  1
  La3+  La1  1  -0.00507077  0.86695138  0.55081628  1
  La3+  La2  1  0.11520329  -0.00331604  0.92728095  1
  La3+  La3  1  0.38298377  0.49382676  0.90696384  1
  La3+  La4  1  0.38490910  0.75666473  0.90721653  1
  La3+  La5  1  0.61854062  0.48755724  0.40703390  1
  La3+  La6  1  0.12247616  0.49190702  0.42834077  1
  La3+  La7  1  0.74659512  0.12300426  0.07962011  1
  La3+  La8  1  0.12124256  0.73972994  0.42971067  1
  La3+  La9  1  0.74570288  0.62853790  0.08289874  1
  La3+  La10  1  0.49684418  0.85974128  0.57672706  1
  La3+  La11  1  0.12917380  -0.01303245  0.40314926  1
  Ce3+  Ce12  1  0.00245538  0.11974412  0.07554893  1
  Ce3+  Ce13  1  0.61857552  0.24523034  0.44205346  1
  Ce3+  Ce14  1  0.74494602  0.61216323  0.55630064  1
  Ce3+  Ce15  1  0.49876346  0.87030346  0.05640871  1
  Ce3+  Ce16  1  0.49584503  0.11609045  0.55499513  1
  Ce3+  Ce17  1  0.75167132  0.87108598  0.06236492  1
  Ce3+  Ce18  1  0.24437650  0.61413007  0.55987998  1
  Ce3+  Ce19  1  0.24480949  0.11363984  0.55507519  1
  Ce3+  Ce20  1  0.74592939  0.11550954  0.55552666  1
  Ce3+  Ce21  1  0.61920757  -0.00919077  0.43870179  1
  Ce3+  Ce22  1  0.49929909  0.12267797  0.06986906  1
  Ce3+  Ce23  1  0.12543437  0.25072336  0.94622162  1
  Ce3+  Ce24  1  0.62504130  0.50061743  0.94170183  1
  Ce3+  Ce25  1  0.86988850  0.49075944  0.44285663  1
  Pr3+  Pr26  1  0.62857192  0.24874591  0.94827818  1
  Pr3+  Pr27  1  0.74983055  0.37744620  0.07298850  1
  Pr3+  Pr28  1  0.37143127  0.48839919  0.43436371  1
  Pr3+  Pr29  1  0.49470378  0.60699425  0.56989492  1
  Pr3+  Pr30  1  0.87775372  -0.00475694  0.95211793  1
  Pr3+  Pr31  1  -0.00628785  0.61596189  0.56153497  1
  Pr3+  Pr32  1  0.37268119  -0.01163595  0.43891919  1
  Pr3+  Pr33  1  0.00516182  0.37322424  0.06541426  1
  Pr3+  Pr34  1  0.86224985  -0.00811985  0.42234061  1
  Pr3+  Pr35  1  0.00549383  0.62528191  0.06858745  1
  Pr3+  Pr36  1  0.86646573  0.73746099  0.42964518  1
  Pr3+  Pr37  1  0.01118801  0.86996764  0.08215685  1
  Pr3+  Pr38  1  0.87948920  0.74743835  0.94009182  1
  Nd3+  Nd39  1  0.25316865  0.87280139  0.05452586  1
  Nd3+  Nd40  1  0.87661271  0.24887972  0.95282699  1
  Nd3+  Nd41  1  0.61746970  0.73899289  0.44437546  1
  Nd3+  Nd42  1  -0.00512692  0.11387692  0.55095302  1
  Nd3+  Nd43  1  0.37987205  -0.00037310  0.93528153  1
  Nd3+  Nd44  1  0.87525762  0.50089556  0.95481999  1
  Nd3+  Nd45  1  0.74841254  0.86569766  0.55498009  1
  Nd3+  Nd46  1  0.49803025  0.61955176  0.06290976  1
  Nd3+  Nd47  1  0.24338066  0.86874551  0.56486243  1
  Nd3+  Nd48  1  0.24325908  0.36641413  0.56121137  1
  Nd3+  Nd49  1  0.25190236  0.12227198  0.04817222  1
  Nd3+  Nd50  1  0.37369380  0.74067795  0.44789347  1
  Nd3+  Nd51  1  0.38029419  0.24778764  0.93517211  1
  Sm3+  Sm52  1  0.49897414  0.37547476  0.05830379  1
  Sm3+  Sm53  1  0.25926863  0.62221285  0.04668835  1
  Sm3+  Sm54  1  -0.00381694  0.36304390  0.55392880  1
  Sm3+  Sm55  1  0.12143442  0.23887613  0.44056720  1
  Sm3+  Sm56  1  0.62517937  0.74865523  0.94006867  1
  Sm3+  Sm57  1  0.74642753  0.36506512  0.55567266  1
  Sm3+  Sm58  1  0.62766210  -0.00082037  0.94867080  1
  Sm3+  Sm59  1  0.37000064  0.24219403  0.44813115  1
  Sm3+  Sm60  1  0.13008140  0.74689385  0.94410828  1
  Sm3+  Sm61  1  0.49595239  0.36902158  0.56438639  1
  Sm3+  Sm62  1  0.12864440  0.49954056  0.94485331  1
  Sm3+  Sm63  1  0.25608831  0.37471803  0.05595130  1
  Bi2+  Bi64  1  -0.03047842  0.12880620  0.29441683  1
  Bi2+  Bi65  1  -0.00587682  0.15691110  0.79033053  1
  Bi2+  Bi66  1  0.06229407  0.38767582  0.31153125  1
  Bi2+  Bi67  1  -0.06811908  0.37514689  0.79404681  1
  Bi2+  Bi68  1  0.03646130  0.63304928  0.23468322  1
  Bi2+  Bi69  1  -0.09193869  0.65774295  0.80450535  1
  Bi2+  Bi70  1  0.01806298  0.86693996  0.28390292  1
  Bi2+  Bi71  1  0.00548964  0.90642534  0.80034571  1
  Bi2+  Bi72  1  0.30683057  0.13892987  0.28443809  1
  Bi2+  Bi73  1  0.27794389  0.17008717  0.77152405  1
  Bi2+  Bi74  1  0.25435087  0.43156621  0.32178976  1
  Bi2+  Bi75  1  0.20423198  0.34957851  0.79438446  1
  Bi2+  Bi76  1  0.23572633  0.61819821  0.29262783  1
  Bi2+  Bi77  1  0.20538814  0.61461476  0.78074484  1
  Bi2+  Bi78  1  0.29376799  0.87203525  0.28364337  1
  Bi2+  Bi79  1  0.25729405  0.88551395  0.78214646  1
  Bi2+  Bi80  1  0.50179964  0.09257405  0.30833177  1
  Bi2+  Bi81  1  0.46161564  0.13681006  0.80624407  1
  Bi2+  Bi82  1  0.43936703  0.37192859  0.28376224  1
  Bi2+  Bi83  1  0.49564326  0.34399752  0.79061845  1
  Bi2+  Bi84  1  0.43767138  0.63035882  0.27881747  1
  Bi2+  Bi85  1  0.51333962  0.60533831  0.78235619  1
  Bi2+  Bi86  1  0.48295371  0.89872402  0.31812584  1
  Bi2+  Bi87  1  0.53257570  0.87283980  0.79329677  1
  Bi2+  Bi88  1  0.68632798  0.12736491  0.28562060  1
  Bi2+  Bi89  1  0.80412494  0.13769374  0.76599748  1
  Bi2+  Bi90  1  0.73670660  0.35745715  0.28882526  1
  Bi2+  Bi91  1  0.73470926  0.35625750  0.79982953  1
  Bi2+  Bi92  1  0.78502591  0.63259285  0.30359762  1
  Bi2+  Bi93  1  0.72913360  0.56905642  0.78789066  1
  Bi2+  Bi94  1  0.67159160  0.86215947  0.29534445  1
  Bi2+  Bi95  1  0.75863846  0.84898436  0.76454209  1
  Bi2+  Bi96  1  0.13277272  0.02191410  0.19917284  1
  Bi2+  Bi97  1  0.13337338  -0.00824305  0.69030108  1
  Bi2+  Bi98  1  0.18728313  0.28299140  0.24930039  1
  Bi2+  Bi99  1  0.10178621  0.24680073  0.71348511  1
  Bi2+  Bi100  1  0.13910172  0.47062661  0.21187305  1
  Bi2+  Bi101  1  0.08024264  0.47597344  0.74027579  1
  Bi2+  Bi102  1  0.19231578  0.74836825  0.20671962  1
  Bi2+  Bi103  1  0.06507048  0.73883175  0.75096581  1
  Bi2+  Bi104  1  0.39801206  0.04173194  0.19704517  1
  Bi2+  Bi105  1  0.38462352  0.03027197  0.71716711  1
  Bi2+  Bi106  1  0.37652224  0.23669805  0.18747993  1
  Bi2+  Bi107  1  0.41098707  0.25593425  0.69864363  1
  Bi2+  Bi108  1  0.37068256  0.49956169  0.20234394  1
  Bi2+  Bi109  1  0.35644412  0.49159809  0.70152906  1
  Bi2+  Bi110  1  0.38535479  0.76482155  0.19195846  1
  Bi2+  Bi111  1  0.37098769  0.75716973  0.69847307  1
  Bi2+  Bi112  1  0.59606559  -0.00679469  0.21487170  1
  Bi2+  Bi113  1  0.64694357  0.01576146  0.75029519  1
  Bi2+  Bi114  1  0.55833638  0.24338315  0.22722228  1
  Bi2+  Bi115  1  0.59704740  0.20448625  0.72176775  1
  Bi2+  Bi116  1  0.64558699  0.49500574  0.20003048  1
  Bi2+  Bi117  1  0.62107214  0.44851544  0.71986624  1
  Bi2+  Bi118  1  0.57486235  0.73690636  0.22586185  1
  Bi2+  Bi119  1  0.64581994  0.71062123  0.72015543  1
  Bi2+  Bi120  1  0.83189183  -0.03192046  0.21293658  1
  Bi2+  Bi121  1  0.88731630  0.01506321  0.68657935  1
  Bi2+  Bi122  1  0.91851236  0.24099941  0.21215277  1
  Bi2+  Bi123  1  0.86543460  0.28959531  0.69171414  1
  Bi2+  Bi124  1  0.92158318  0.47403333  0.24209218  1
  Bi2+  Bi125  1  0.89197419  0.52787744  0.71898552  1
  Bi2+  Bi126  1  0.85518998  0.72680889  0.21502779  1
  Bi2+  Bi127  1  0.88219991  0.76874080  0.68128071  1
  S2-  S128  1  0.05063996  0.16735204  0.16663007  1
  S2-  S129  1  0.02022408  0.10887997  0.65084428  1
  S2-  S130  1  -0.01669715  0.38522900  0.16495149  1
  S2-  S131  1  0.01957049  0.35437239  0.65143255  1
  S2-  S132  1  -0.00466758  0.73114429  0.14752760  1
  S2-  S133  1  0.01295069  0.66860488  0.65638839  1
  S2-  S134  1  -0.02292907  0.95043705  0.17345652  1
  S2-  S135  1  0.00009918  0.89466580  0.65081020  1
  S2-  S136  1  0.26025236  0.10168178  0.14714963  1
  S2-  S137  1  0.24926760  0.08279155  0.65173065  1
  S2-  S138  1  0.26125930  0.37491020  0.15437767  1
  S2-  S139  1  0.27574551  0.37295847  0.65934630  1
  S2-  S140  1  0.29059393  0.63178869  0.14361436  1
  S2-  S141  1  0.27891583  0.61911140  0.65742134  1
  S2-  S142  1  0.17160880  0.88752073  0.14249697  1
  S2-  S143  1  0.22855192  0.85331391  0.66604670  1
  S2-  S144  1  0.60799908  0.12991331  0.14763478  1
  S2-  S145  1  0.50386119  0.11534121  0.65239282  1
  S2-  S146  1  0.50523900  0.44803509  0.14817019  1
  S2-  S147  1  0.49702658  0.47779261  0.64285175  1
  S2-  S148  1  0.60252788  0.63687958  0.14483644  1
  S2-  S149  1  0.50379425  0.71410398  0.65067397  1
  S2-  S150  1  0.50527097  0.87082841  0.15454324  1
  S2-  S151  1  0.45123091  0.89984236  0.67279457  1
  S2-  S152  1  0.83202410  0.11703135  0.16959253  1
  S2-  S153  1  0.79089116  0.14198849  0.64842102  1
  S2-  S154  1  0.73077011  0.36027091  0.17431495  1
  S2-  S155  1  0.74698596  0.38238334  0.65424664  1
  S2-  S156  1  0.80514115  0.57935292  0.17552183  1
  S2-  S157  1  0.76677291  0.64657501  0.65179246  1
  S2-  S158  1  0.75717167  0.83225690  0.15735696  1
  S2-  S159  1  0.76679605  0.90106747  0.65188583  1
  S2-  S160  1  0.09528892  0.02105611  0.29955778  1
  S2-  S161  1  0.15677216  -0.01290157  0.82662623  1
  S2-  S162  1  0.09635158  0.22150027  0.34380407  1
  S2-  S163  1  0.10435181  0.23616144  0.85013374  1
  S2-  S164  1  0.10859233  0.61431526  0.35660659  1
  S2-  S165  1  0.13190677  0.49334726  0.84677712  1
  S2-  S166  1  0.13830609  0.83675497  0.34551135  1
  S2-  S167  1  0.08478409  0.78045662  0.85291338  1
  S2-  S168  1  0.28466646  -0.00153326  0.35178045  1
  S2-  S169  1  0.38711840  -0.08561543  0.84813720  1
  S2-  S170  1  0.37056035  0.25919815  0.35036657  1
  S2-  S171  1  0.35857419  0.34317873  0.85342437  1
  S2-  S172  1  0.47147649  0.50820153  0.35332647  1
  S2-  S173  1  0.35350272  0.54117301  0.80622669  1
  S2-  S174  1  0.38108851  0.75905495  0.34889020  1
  S2-  S175  1  0.30773440  0.73505007  0.81385774  1
  S2-  S176  1  0.71475341  0.00531615  0.35602254  1
  S2-  S177  1  0.63693330  -0.02681640  0.85186018  1
  S2-  S178  1  0.62426209  0.32575883  0.35500879  1
  S2-  S179  1  0.62263701  0.25956946  0.84784222  1
  S2-  S180  1  0.66918482  0.51136203  0.30555657  1
  S2-  S181  1  0.54209136  0.50051665  0.85579964  1
  S2-  S182  1  0.65038809  0.71261438  0.34794948  1
  S2-  S183  1  0.54011514  0.74233628  0.85241482  1
  S2-  S184  1  0.90744329  -0.02086221  0.32308983  1
  S2-  S185  1  0.96185128  0.01954871  0.86510424  1
  S2-  S186  1  0.84707054  0.24551473  0.33028811  1
  S2-  S187  1  0.85799572  0.23742654  0.85411496  1
  S2-  S188  1  0.87438973  0.50041545  0.34559199  1
  S2-  S189  1  0.89075638  0.50864078  0.85687340  1
  S2-  S190  1  0.90851038  0.75165667  0.33114559  1
  S2-  S191  1  0.85421844  0.81619828  0.84747096  1
  S2-  S192  1  -0.00075550  0.11075901  0.44292008  1
  S2-  S193  1  0.00049215  0.12801241  0.96711774  1
  S2-  S194  1  -0.00154295  0.36501479  0.44898512  1
  S2-  S195  1  0.00204620  0.37741732  0.95765192  1
  S2-  S196  1  -0.00860025  0.61580605  0.45455965  1
  S2-  S197  1  0.00589707  0.62314050  0.95915864  1
  S2-  S198  1  -0.00844029  0.86919212  0.44253710  1
  S2-  S199  1  0.00355098  0.86800248  0.96609372  1
  S2-  S200  1  0.24565669  0.11910613  0.44961758  1
  S2-  S201  1  0.25323791  0.12314181  0.94128242  1
  S2-  S202  1  0.24337622  0.36182088  0.45450041  1
  S2-  S203  1  0.25051677  0.37608924  0.95246808  1
  S2-  S204  1  0.25091929  0.61529357  0.45342077  1
  S2-  S205  1  0.25536940  0.62270528  0.94101288  1
  S2-  S206  1  0.24847045  0.86506851  0.45660743  1
  S2-  S207  1  0.25130792  0.87253315  0.94776093  1
  S2-  S208  1  0.49437953  0.11849518  0.44929634  1
  S2-  S209  1  0.50332552  0.12199987  0.95827558  1
  S2-  S210  1  0.49354179  0.36540224  0.45882850  1
  S2-  S211  1  0.50187918  0.37233420  0.95481748  1
  S2-  S212  1  0.49676503  0.61519221  0.46015489  1
  S2-  S213  1  0.49965954  0.62560981  0.95500222  1
  S2-  S214  1  0.49719722  0.86503971  0.46296221  1
  S2-  S215  1  0.50531470  0.87565363  0.95260216  1
  S2-  S216  1  0.74287138  0.12267535  0.45137298  1
  S2-  S217  1  0.75245131  0.12165196  0.96466955  1
  S2-  S218  1  0.74736448  0.36754990  0.45105384  1
  S2-  S219  1  0.75231639  0.37497796  0.96205825  1
  S2-  S220  1  0.74108268  0.61008322  0.44959244  1
  S2-  S221  1  0.74913198  0.62606652  0.95333798  1
  S2-  S222  1  0.74333265  0.86236619  0.44886579  1
  S2-  S223  1  0.74815656  0.87246494  0.95624306  1
  S2-  S224  1  0.12725670  -0.00008569  0.04030340  1
  S2-  S225  1  0.12107065  -0.00874612  0.54071148  1
  S2-  S226  1  0.13206383  0.25131824  0.05249851  1
  S2-  S227  1  0.12017836  0.24007593  0.54606130  1
  S2-  S228  1  0.13203873  0.49997135  0.05114471  1
  S2-  S229  1  0.11797991  0.48916403  0.54437734  1
  S2-  S230  1  0.13460895  0.74276679  0.04690403  1
  S2-  S231  1  0.12212189  0.74130318  0.54248208  1
  S2-  S232  1  0.37649258  -0.00241288  0.04210979  1
  S2-  S233  1  0.37189522  -0.01063025  0.54773272  1
  S2-  S234  1  0.37777965  0.24971155  0.04273624  1
  S2-  S235  1  0.37113199  0.24354008  0.55260248  1
  S2-  S236  1  0.37723820  0.49647868  0.03971587  1
  S2-  S237  1  0.36710970  0.48734250  0.54257457  1
  S2-  S238  1  0.37637174  0.74778479  0.03878326  1
  S2-  S239  1  0.36670823  0.74098873  0.55265839  1
  S2-  S240  1  0.62526202  -0.00607139  0.05238984  1
  S2-  S241  1  0.62106925  -0.01057035  0.54811266  1
  S2-  S242  1  0.62392221  0.25530693  0.05406552  1
  S2-  S243  1  0.61994456  0.24498236  0.55079764  1
  S2-  S244  1  0.62683156  0.49863619  0.04636814  1
  S2-  S245  1  0.62438097  0.48590903  0.54516976  1
  S2-  S246  1  0.62461971  0.74866844  0.04356031  1
  S2-  S247  1  0.62488595  0.73996133  0.54984953  1
  S2-  S248  1  0.87671192  -0.00514449  0.05742606  1
  S2-  S249  1  0.86860321  -0.00685441  0.53383452  1
  S2-  S250  1  0.87525379  0.25117842  0.05971866  1
  S2-  S251  1  0.87262710  0.24255361  0.53922128  1
  S2-  S252  1  0.87779348  0.50105887  0.05999408  1
  S2-  S253  1  0.87318934  0.48622083  0.55046952  1
  S2-  S254  1  0.87359304  0.74394564  0.04777157  1
  S2-  S255  1  0.86921723  0.73955057  0.53869996  1
