# generated using pymatgen
data_La12Ce14Pr13Nd13Sm12(BiS2)64
_symmetry_space_group_name_H-M   'P 1'
_cell_length_a   16.10425649
_cell_length_b   16.10620415
_cell_length_c   27.43525045
_cell_angle_alpha   90.11429545
_cell_angle_beta   90.07303028
_cell_angle_gamma   89.99136340
_symmetry_Int_Tables_number   1
_chemical_formula_structural   La12Ce14Pr13Nd13Sm12(BiS2)64
_chemical_formula_sum   'La12 Ce14 Pr13 Nd13 Sm12 Bi64 S128'
_cell_volume   7116.09251747
_cell_formula_units_Z   1
loop_
 _symmetry_equiv_pos_site_id
 _symmetry_equiv_pos_as_xyz
  1  'x, y, z'
loop_
 _atom_type_symbol
 _atom_type_oxidation_number
  La3+  3.0
  Ce3+  3.0
  Pr3+  3.0
  Nd3+  3.0
  Sm3+  3.0
  Bi2+  2.0
  S2-  -2.0
loop_
 _atom_site_type_symbol
 _atom_site_label
 _atom_site_symmetry_multiplicity
 _atom_site_fract_x
 _atom_site_fract_y
 _atom_site_fract_z
 _atom_site_occupancy
  La3+  La0  1  0.49698027  0.11747706  0.56670938  1
  La3+  La1  1  0.24797276  0.62696163  0.57037388  1
  La3+  La2  1  -0.01346339  0.87468500  0.58578471  1
  La3+  La3  1  0.86648670  0.48557933  0.39634201  1
  La3+  La4  1  0.23548597  0.37614020  0.61028390  1
  La3+  La5  1  0.62867944  0.50516573  0.91023415  1
  La3+  La6  1  -0.00365652  0.12373059  0.56586413  1
  La3+  La7  1  0.63235239  0.74595365  0.93358017  1
  La3+  La8  1  0.89384018  0.73845060  0.89896754  1
  La3+  La9  1  0.02030430  0.63261784  0.10690162  1
  La3+  La10  1  0.37023065  -0.00752222  0.40945368  1
  La3+  La11  1  0.64247129  0.25155124  0.92242464  1
  Ce3+  Ce12  1  0.75570842  0.37348917  0.06170166  1
  Ce3+  Ce13  1  0.38775650  -0.00102148  0.93723614  1
  Ce3+  Ce14  1  0.11931556  0.74798135  0.44787481  1
  Ce3+  Ce15  1  0.62213358  0.74081695  0.44566452  1
  Ce3+  Ce16  1  0.26225488  0.12009567  0.05947813  1
  Ce3+  Ce17  1  0.13110425  0.74669488  0.93887887  1
  Ce3+  Ce18  1  0.49395993  0.87054672  0.55017897  1
  Ce3+  Ce19  1  0.63472397  -0.00619058  0.94882423  1
  Ce3+  Ce20  1  0.12142716  -0.00644595  0.44994878  1
  Ce3+  Ce21  1  0.12181963  0.24751587  0.44336200  1
  Ce3+  Ce22  1  -0.00380064  0.37160885  0.56010374  1
  Ce3+  Ce23  1  0.75792165  0.11906810  0.06484733  1
  Ce3+  Ce24  1  0.88013535  0.24794697  0.95210206  1
  Ce3+  Ce25  1  0.36561068  0.49430320  0.89367472  1
  Pr3+  Pr26  1  0.01018832  0.37337758  0.06826903  1
  Pr3+  Pr27  1  0.76282881  0.62298339  0.06086933  1
  Pr3+  Pr28  1  0.38324254  0.74598623  0.93280858  1
  Pr3+  Pr29  1  0.00939002  0.12113214  0.06975958  1
  Pr3+  Pr30  1  0.12924563  0.49825817  0.94075475  1
  Pr3+  Pr31  1  0.50512292  0.86136159  0.07008663  1
  Pr3+  Pr32  1  0.50662792  0.37216878  0.04701244  1
  Pr3+  Pr33  1  -0.00458611  0.61934091  0.55704374  1
  Pr3+  Pr34  1  0.76431262  0.86699326  0.05581485  1
  Pr3+  Pr35  1  0.49573330  0.61607636  0.56324062  1
  Pr3+  Pr36  1  0.87432446  -0.00765942  0.42803760  1
  Pr3+  Pr37  1  0.13113719  0.00206630  0.93405582  1
  Pr3+  Pr38  1  0.61714041  -0.00563781  0.43349401  1
  Nd3+  Nd39  1  0.36753795  0.73694087  0.42846992  1
  Nd3+  Nd40  1  0.88419949  0.49971166  0.94566866  1
  Nd3+  Nd41  1  0.88311604  -0.00424366  0.93835829  1
  Nd3+  Nd42  1  0.12007720  0.49603045  0.44155524  1
  Nd3+  Nd43  1  0.50391690  0.36230855  0.58638589  1
  Nd3+  Nd44  1  0.51077398  0.12249372  0.05974116  1
  Nd3+  Nd45  1  0.37221709  0.49291774  0.44892782  1
  Nd3+  Nd46  1  0.25777264  0.87257308  0.05297843  1
  Nd3+  Nd47  1  0.61350185  0.24767170  0.43675717  1
  Nd3+  Nd48  1  0.39088708  0.24175221  0.91421752  1
  Nd3+  Nd49  1  0.87031782  0.74537138  0.43414477  1
  Nd3+  Nd50  1  0.50487486  0.62001358  0.05590433  1
  Nd3+  Nd51  1  0.13472777  0.24777968  0.94249556  1
  Sm3+  Sm52  1  0.25543137  0.62021034  0.05734812  1
  Sm3+  Sm53  1  0.26060953  0.37205198  0.05199948  1
  Sm3+  Sm54  1  0.36950480  0.24570069  0.44940001  1
  Sm3+  Sm55  1  0.00993385  0.87541422  0.06303650  1
  Sm3+  Sm56  1  0.24822120  0.12424159  0.56107215  1
  Sm3+  Sm57  1  0.87152152  0.24512666  0.44347693  1
  Sm3+  Sm58  1  0.24841095  0.87117030  0.56301542  1
  Sm3+  Sm59  1  0.74598577  0.11768875  0.54584897  1
  Sm3+  Sm60  1  0.74620384  0.36890757  0.55903009  1
  Sm3+  Sm61  1  0.62392820  0.49288968  0.44505079  1
  Sm3+  Sm62  1  0.74805530  0.61855277  0.56086467  1
  Sm3+  Sm63  1  0.74646170  0.86933406  0.55674948  1
  Bi2+  Bi64  1  -0.07199716  0.10188913  0.31296536  1
  Bi2+  Bi65  1  -0.02639214  0.14591379  0.77937132  1
  Bi2+  Bi66  1  0.01740284  0.34844463  0.29508179  1
  Bi2+  Bi67  1  -0.00374455  0.34286327  0.79834015  1
  Bi2+  Bi68  1  0.02537558  0.60997588  0.30624478  1
  Bi2+  Bi69  1  0.04261520  0.57123207  0.81433166  1
  Bi2+  Bi70  1  -0.01131999  0.91766685  0.29849046  1
  Bi2+  Bi71  1  0.03009500  0.88304875  0.78686267  1
  Bi2+  Bi72  1  0.17549643  0.24315966  0.25740410  1
  Bi2+  Bi73  1  0.24638032  0.08436107  0.78491211  1
  Bi2+  Bi74  1  0.32248466  0.42288837  0.25769708  1
  Bi2+  Bi75  1  0.19833163  0.32328931  0.79907405  1
  Bi2+  Bi76  1  0.26782605  0.66806130  0.24001247  1
  Bi2+  Bi77  1  0.22639285  0.62165475  0.78176224  1
  Bi2+  Bi78  1  0.26111687  0.95339513  0.28595737  1
  Bi2+  Bi79  1  0.27855260  0.86309614  0.78310815  1
  Bi2+  Bi80  1  0.46511947  0.16524714  0.30412130  1
  Bi2+  Bi81  1  0.51242346  0.08362572  0.79249584  1
  Bi2+  Bi82  1  0.47593113  0.45548655  0.32749974  1
  Bi2+  Bi83  1  0.52018921  0.36795824  0.78605960  1
  Bi2+  Bi84  1  0.46775131  0.64919650  0.29949932  1
  Bi2+  Bi85  1  0.50256543  0.70021624  0.80500580  1
  Bi2+  Bi86  1  0.48122660  0.89634506  0.28166352  1
  Bi2+  Bi87  1  0.46292202  0.88540645  0.82586554  1
  Bi2+  Bi88  1  0.74191767  0.07024991  0.29393842  1
  Bi2+  Bi89  1  0.77269636  0.11761554  0.79303687  1
  Bi2+  Bi90  1  0.74129863  0.35277119  0.29027043  1
  Bi2+  Bi91  1  0.79577139  0.34828531  0.78163373  1
  Bi2+  Bi92  1  0.72994760  0.62941744  0.29380421  1
  Bi2+  Bi93  1  0.76577622  0.59463528  0.77819983  1
  Bi2+  Bi94  1  0.76098387  0.88278737  0.26621400  1
  Bi2+  Bi95  1  0.74811893  0.91449513  0.78657210  1
  Bi2+  Bi96  1  0.07006563  0.08201600  0.23105078  1
  Bi2+  Bi97  1  0.23129495  -0.03023672  0.68744275  1
  Bi2+  Bi98  1  0.02137719  0.25243159  0.18167106  1
  Bi2+  Bi99  1  0.11057438  0.13395405  0.69584960  1
  Bi2+  Bi100  1  0.15857059  0.48637324  0.20919681  1
  Bi2+  Bi101  1  -0.00818986  0.48534959  0.71730398  1
  Bi2+  Bi102  1  0.13817933  0.80703674  0.26412093  1
  Bi2+  Bi103  1  0.13253783  0.69327676  0.69644670  1
  Bi2+  Bi104  1  0.35866077  0.02849139  0.19110309  1
  Bi2+  Bi105  1  0.41419252  0.02999816  0.69508646  1
  Bi2+  Bi106  1  0.38440863  0.27979485  0.18456858  1
  Bi2+  Bi107  1  0.37846739  0.24721839  0.71175161  1
  Bi2+  Bi108  1  0.41923664  0.56238391  0.19432167  1
  Bi2+  Bi109  1  0.36355461  0.52585584  0.71451398  1
  Bi2+  Bi110  1  0.37646649  0.80744098  0.18902605  1
  Bi2+  Bi111  1  0.39278664  0.76830443  0.71093678  1
  Bi2+  Bi112  1  0.60119157  0.04753471  0.21559637  1
  Bi2+  Bi113  1  0.60790436  0.02138603  0.69507848  1
  Bi2+  Bi114  1  0.57146681  0.31578466  0.24490145  1
  Bi2+  Bi115  1  0.68852781  0.22760403  0.71326687  1
  Bi2+  Bi116  1  0.59466890  0.51454071  0.23698000  1
  Bi2+  Bi117  1  0.63816265  0.57060231  0.69901716  1
  Bi2+  Bi118  1  0.61143235  0.76168392  0.24506979  1
  Bi2+  Bi119  1  0.59813256  0.82845503  0.73780307  1
  Bi2+  Bi120  1  0.85677866  0.03514526  0.18758710  1
  Bi2+  Bi121  1  0.85818636  0.01120015  0.70583548  1
  Bi2+  Bi122  1  0.83474047  0.23510214  0.21063756  1
  Bi2+  Bi123  1  0.95028670  0.25744735  0.68669309  1
  Bi2+  Bi124  1  0.85589257  0.50936592  0.19664420  1
  Bi2+  Bi125  1  0.79710481  0.45436338  0.68510303  1
  Bi2+  Bi126  1  0.87562369  0.77106552  0.19298064  1
  Bi2+  Bi127  1  0.87960622  0.74976496  0.70521130  1
  S2-  S128  1  0.01191491  0.00314937  0.14395904  1
  S2-  S129  1  -0.01118096  0.02333122  0.64711131  1
  S2-  S130  1  0.01013757  0.46821210  0.15278623  1
  S2-  S131  1  0.06918757  0.37196751  0.64891115  1
  S2-  S132  1  -0.02905120  0.64074566  0.21295554  1
  S2-  S133  1  -0.01859235  0.63153666  0.65737489  1
  S2-  S134  1  0.02101953  0.79580577  0.14928665  1
  S2-  S135  1  0.03753266  0.82554422  0.68435225  1
  S2-  S136  1  0.26026484  0.14627395  0.15694340  1
  S2-  S137  1  0.24973424  0.20763351  0.64818660  1
  S2-  S138  1  0.24624167  0.38642772  0.15053433  1
  S2-  S139  1  0.26299740  0.37840214  0.71624841  1
  S2-  S140  1  0.18540776  0.62547910  0.14765597  1
  S2-  S141  1  0.22306630  0.54267031  0.65622997  1
  S2-  S142  1  0.25213769  0.90631400  0.15087205  1
  S2-  S143  1  0.26774256  0.76286766  0.64077342  1
  S2-  S144  1  0.48463192  0.14123909  0.15836493  1
  S2-  S145  1  0.49408629  0.21655827  0.64907414  1
  S2-  S146  1  0.51265689  0.35990115  0.14860143  1
  S2-  S147  1  0.46685745  0.41346451  0.68366012  1
  S2-  S148  1  0.50112937  0.71481531  0.13956664  1
  S2-  S149  1  0.47657633  0.63218193  0.66256344  1
  S2-  S150  1  0.51023407  0.93558102  0.16205903  1
  S2-  S151  1  0.51756386  0.88234154  0.64642642  1
  S2-  S152  1  0.70773354  0.14303216  0.15709608  1
  S2-  S153  1  0.74128852  0.10727541  0.64359899  1
  S2-  S154  1  0.76999777  0.37616262  0.15920751  1
  S2-  S155  1  0.66329169  0.35240169  0.64436644  1
  S2-  S156  1  0.76530566  0.64149425  0.16153883  1
  S2-  S157  1  0.74280920  0.67874764  0.65402830  1
  S2-  S158  1  0.75936563  0.89603569  0.15572613  1
  S2-  S159  1  0.83088228  0.87521729  0.64188150  1
  S2-  S160  1  0.13399184  -0.02980808  0.35456250  1
  S2-  S161  1  0.15006723  -0.04192107  0.83702463  1
  S2-  S162  1  0.11306446  0.22073883  0.34711278  1
  S2-  S163  1  0.14912812  0.17957224  0.85237144  1
  S2-  S164  1  0.10968766  0.47496682  0.34259040  1
  S2-  S165  1  0.19709933  0.48499118  0.84764855  1
  S2-  S166  1  0.13751429  0.72077503  0.35187187  1
  S2-  S167  1  0.05136410  0.74611837  0.84996540  1
  S2-  S168  1  0.32360556  0.09975362  0.33186004  1
  S2-  S169  1  0.37023677  0.09554370  0.85532846  1
  S2-  S170  1  0.41846887  0.29058738  0.35843029  1
  S2-  S171  1  0.35971029  0.34560230  0.83546553  1
  S2-  S172  1  0.35329350  0.59203075  0.36549288  1
  S2-  S173  1  0.50076621  0.50766180  0.83183495  1
  S2-  S174  1  0.36006363  0.84629526  0.34955816  1
  S2-  S175  1  0.34871924  0.65340112  0.84992774  1
  S2-  S176  1  0.52523221  0.01400694  0.34889663  1
  S2-  S177  1  0.66104065  0.01348201  0.85356977  1
  S2-  S178  1  0.63322347  0.24269094  0.33782900  1
  S2-  S179  1  0.53413081  0.22449058  0.84429715  1
  S2-  S180  1  0.70245365  0.49036971  0.35646073  1
  S2-  S181  1  0.66234915  0.38633939  0.83935217  1
  S2-  S182  1  0.63641608  0.74650167  0.35010807  1
  S2-  S183  1  0.65530631  0.65267408  0.84946555  1
  S2-  S184  1  0.86261758  -0.13534769  0.35718554  1
  S2-  S185  1  0.92518796  -0.04889381  0.84498612  1
  S2-  S186  1  0.86938105  0.31369727  0.35484815  1
  S2-  S187  1  0.80522842  0.23269969  0.86543044  1
  S2-  S188  1  0.91087893  0.47837624  0.29141515  1
  S2-  S189  1  0.87940188  0.56867140  0.85303319  1
  S2-  S190  1  0.87156216  0.64742224  0.35047979  1
  S2-  S191  1  0.83649580  0.76265949  0.80204205  1
  S2-  S192  1  -0.00448955  0.12130868  0.45675702  1
  S2-  S193  1  0.00551913  0.12415514  0.95620755  1
  S2-  S194  1  -0.00765661  0.37210470  0.45404380  1
  S2-  S195  1  0.00698713  0.37054531  0.95630079  1
  S2-  S196  1  -0.00595668  0.61724042  0.45212958  1
  S2-  S197  1  0.00704979  0.62481553  0.95289676  1
  S2-  S198  1  -0.00434892  0.87078953  0.45978215  1
  S2-  S199  1  0.00748449  0.87175315  0.95511707  1
  S2-  S200  1  0.24916537  0.11995291  0.45720252  1
  S2-  S201  1  0.25989583  0.12324880  0.95605304  1
  S2-  S202  1  0.24818545  0.37123777  0.44469746  1
  S2-  S203  1  0.26062029  0.37058704  0.94960400  1
  S2-  S204  1  0.24233646  0.62042032  0.46350699  1
  S2-  S205  1  0.25501401  0.62045243  0.95427066  1
  S2-  S206  1  0.24842969  0.86994107  0.45918039  1
  S2-  S207  1  0.25804413  0.87409484  0.94643190  1
  S2-  S208  1  0.49132958  0.12028219  0.45689287  1
  S2-  S209  1  0.51351709  0.12116997  0.95443193  1
  S2-  S210  1  0.49895181  0.37251482  0.46686243  1
  S2-  S211  1  0.50413738  0.37603734  0.94239491  1
  S2-  S212  1  0.50048821  0.61674149  0.45701737  1
  S2-  S213  1  0.50497959  0.61940149  0.95168404  1
  S2-  S214  1  0.49492075  0.86572043  0.44713600  1
  S2-  S215  1  0.50878016  0.86991063  0.95889027  1
  S2-  S216  1  0.74462719  0.12089104  0.44225724  1
  S2-  S217  1  0.75731870  0.11817601  0.96033555  1
  S2-  S218  1  0.74514968  0.36698367  0.45635515  1
  S2-  S219  1  0.75647380  0.38006898  0.95623527  1
  S2-  S220  1  0.74755453  0.61615431  0.45758417  1
  S2-  S221  1  0.76264381  0.62439683  0.95452245  1
  S2-  S222  1  0.74219149  0.87174142  0.45400650  1
  S2-  S223  1  0.76686823  0.86322302  0.94664387  1
  S2-  S224  1  0.13464753  -0.00131664  0.04120887  1
  S2-  S225  1  0.12546961  -0.00427428  0.55357290  1
  S2-  S226  1  0.13504922  0.24704606  0.04858579  1
  S2-  S227  1  0.12451292  0.24909849  0.54768153  1
  S2-  S228  1  0.13465785  0.49526656  0.04545412  1
  S2-  S229  1  0.12256322  0.49335518  0.54750645  1
  S2-  S230  1  0.13481474  0.74743348  0.04388895  1
  S2-  S231  1  0.11397219  0.75313478  0.55269333  1
  S2-  S232  1  0.38708682  -0.00504513  0.04499226  1
  S2-  S233  1  0.36827038  -0.00429052  0.55273493  1
  S2-  S234  1  0.38295049  0.24624574  0.04111155  1
  S2-  S235  1  0.37136160  0.24975402  0.55052572  1
  S2-  S236  1  0.37935154  0.49785644  0.05243785  1
  S2-  S237  1  0.37041969  0.48806123  0.55695159  1
  S2-  S238  1  0.37655860  0.74410755  0.03922536  1
  S2-  S239  1  0.37627096  0.74520738  0.53797231  1
  S2-  S240  1  0.63216907  -0.00831330  0.05263693  1
  S2-  S241  1  0.62319139  -0.00639178  0.54050215  1
  S2-  S242  1  0.63401317  0.24715334  0.04166802  1
  S2-  S243  1  0.62344290  0.24104368  0.54192806  1
  S2-  S244  1  0.63166253  0.49997858  0.05232019  1
  S2-  S245  1  0.62360754  0.49475843  0.54968942  1
  S2-  S246  1  0.63489654  0.74593071  0.04192392  1
  S2-  S247  1  0.62271452  0.74401395  0.55062437  1
  S2-  S248  1  0.88389130  -0.00350349  0.04350031  1
  S2-  S249  1  0.86824447  -0.00404558  0.53675162  1
  S2-  S250  1  0.88227047  0.24659282  0.05589486  1
  S2-  S251  1  0.86698040  0.24481124  0.54780607  1
  S2-  S252  1  0.88530055  0.49700199  0.04995303  1
  S2-  S253  1  0.86819573  0.49369197  0.55558649  1
  S2-  S254  1  0.89005007  0.74478624  0.05521532  1
  S2-  S255  1  0.86874460  0.74415782  0.54280524  1
