# generated using pymatgen
data_La12Ce14Pr13Nd13Sm12(BiS2)64
_symmetry_space_group_name_H-M   'P 1'
_cell_length_a   16.17358114
_cell_length_b   16.18581603
_cell_length_c   27.10812310
_cell_angle_alpha   90.03762336
_cell_angle_beta   89.80164851
_cell_angle_gamma   89.95510334
_symmetry_Int_Tables_number   1
_chemical_formula_structural   La12Ce14Pr13Nd13Sm12(BiS2)64
_chemical_formula_sum   'La12 Ce14 Pr13 Nd13 Sm12 Bi64 S128'
_cell_volume   7096.38894356
_cell_formula_units_Z   1
loop_
 _symmetry_equiv_pos_site_id
 _symmetry_equiv_pos_as_xyz
  1  'x, y, z'
loop_
 _atom_type_symbol
 _atom_type_oxidation_number
  La3+  3.0
  Ce3+  3.0
  Pr3+  3.0
  Nd3+  3.0
  Sm3+  3.0
  Bi2+  2.0
  S2-  -2.0
loop_
 _atom_site_type_symbol
 _atom_site_label
 _atom_site_symmetry_multiplicity
 _atom_site_fract_x
 _atom_site_fract_y
 _atom_site_fract_z
 _atom_site_occupancy
  La3+  La0  1  0.38601395  0.24805056  0.93117007  1
  La3+  La1  1  0.75750660  0.12021428  0.61897447  1
  La3+  La2  1  0.14448501  0.49935799  0.41262586  1
  La3+  La3  1  0.25872428  0.61739897  0.08475005  1
  La3+  La4  1  0.75037045  0.11632896  0.08723127  1
  La3+  La5  1  0.76726943  0.38713228  0.57340367  1
  La3+  La6  1  0.63901124  0.51015001  0.43219213  1
  La3+  La7  1  0.14472217  0.76354109  0.41430279  1
  La3+  La8  1  0.00347872  0.38006824  0.06681414  1
  La3+  La9  1  0.14037489  0.50139248  0.89834201  1
  La3+  La10  1  0.00920612  0.87192949  0.07649862  1
  La3+  La11  1  0.26490554  0.64310635  0.57318003  1
  Ce3+  Ce12  1  0.51481308  0.88774967  0.55549870  1
  Ce3+  Ce13  1  0.87544232  0.24867320  0.95544010  1
  Ce3+  Ce14  1  0.25783327  0.37363602  0.06120432  1
  Ce3+  Ce15  1  0.13964756  0.01153224  0.43591070  1
  Ce3+  Ce16  1  0.63789825  0.01460249  0.44136038  1
  Ce3+  Ce17  1  0.63156592  0.49743082  0.94493308  1
  Ce3+  Ce18  1  0.76237250  0.63048782  0.56263331  1
  Ce3+  Ce19  1  0.88653648  0.74660847  0.94858632  1
  Ce3+  Ce20  1  0.63916148  0.25898978  0.44331218  1
  Ce3+  Ce21  1  0.63603297  0.76258312  0.44275922  1
  Ce3+  Ce22  1  0.26040723  0.12519093  0.05902382  1
  Ce3+  Ce23  1  0.51055158  0.63581465  0.55534727  1
  Ce3+  Ce24  1  0.76367900  0.88709360  0.55780679  1
  Ce3+  Ce25  1  0.51221833  0.38387995  0.55783529  1
  Pr3+  Pr26  1  0.25536623  0.88237254  0.07564065  1
  Pr3+  Pr27  1  0.87391535  0.49453896  0.93001567  1
  Pr3+  Pr28  1  0.00574540  0.12301704  0.06567615  1
  Pr3+  Pr29  1  0.88302141  -0.00306553  0.94389977  1
  Pr3+  Pr30  1  0.50918072  0.13767678  0.57229059  1
  Pr3+  Pr31  1  0.88803002  0.75830030  0.43751165  1
  Pr3+  Pr32  1  0.75086469  0.38180040  0.08339390  1
  Pr3+  Pr33  1  0.01263782  0.88408234  0.55575313  1
  Pr3+  Pr34  1  0.50835394  0.37063276  0.06403314  1
  Pr3+  Pr35  1  0.39039257  -0.00259068  0.93627035  1
  Pr3+  Pr36  1  0.12894399  0.25191318  0.94518358  1
  Pr3+  Pr37  1  0.13412219  0.75060019  0.93784509  1
  Pr3+  Pr38  1  0.25973684  0.13331333  0.57288784  1
  Nd3+  Nd39  1  0.75402185  0.86881516  0.06965144  1
  Nd3+  Nd40  1  0.50934460  0.12283856  0.05967149  1
  Nd3+  Nd41  1  0.64262327  0.24755395  0.93801238  1
  Nd3+  Nd42  1  0.89017608  0.50778249  0.43385696  1
  Nd3+  Nd43  1  0.01313674  0.38822132  0.56124785  1
  Nd3+  Nd44  1  0.25973117  0.38833152  0.56314116  1
  Nd3+  Nd45  1  0.13482228  -0.00313027  0.93540766  1
  Nd3+  Nd46  1  0.88672107  0.26020369  0.44260391  1
  Nd3+  Nd47  1  0.50230386  0.87028198  0.06525056  1
  Nd3+  Nd48  1  0.37748187  0.74770979  0.94047205  1
  Nd3+  Nd49  1  0.75550915  0.62468642  0.06108464  1
  Nd3+  Nd50  1  0.64167513  -0.00609146  0.93802876  1
  Nd3+  Nd51  1  0.63380417  0.74695223  0.93510375  1
  Sm3+  Sm52  1  0.38252795  0.51123304  0.43924990  1
  Sm3+  Sm53  1  0.88789936  0.01218191  0.43684770  1
  Sm3+  Sm54  1  0.38679139  0.25901761  0.44607275  1
  Sm3+  Sm55  1  0.00559494  0.13377973  0.56071933  1
  Sm3+  Sm56  1  0.13835525  0.25950197  0.44886991  1
  Sm3+  Sm57  1  0.01180099  0.62109499  0.05127915  1
  Sm3+  Sm58  1  0.37856464  0.50002297  0.94090499  1
  Sm3+  Sm59  1  0.01800141  0.63547688  0.54585176  1
  Sm3+  Sm60  1  0.26256830  0.88578275  0.55812194  1
  Sm3+  Sm61  1  0.50313011  0.62412645  0.05738982  1
  Sm3+  Sm62  1  0.38686935  0.01380249  0.44580241  1
  Sm3+  Sm63  1  0.38677987  0.76017703  0.43647681  1
  Bi2+  Bi64  1  0.06401525  0.09811858  0.29526664  1
  Bi2+  Bi65  1  -0.01250687  0.08255219  0.81601419  1
  Bi2+  Bi66  1  0.02536929  0.36386646  0.29591861  1
  Bi2+  Bi67  1  0.01508687  0.26981326  0.79106417  1
  Bi2+  Bi68  1  -0.05758138  0.64242539  0.29516320  1
  Bi2+  Bi69  1  -0.01316245  0.68600941  0.78201925  1
  Bi2+  Bi70  1  -0.00616818  0.91169302  0.30551737  1
  Bi2+  Bi71  1  0.00299165  0.89162386  0.80149545  1
  Bi2+  Bi72  1  0.25508958  0.11772022  0.30716348  1
  Bi2+  Bi73  1  0.18149793  0.09868603  0.79318879  1
  Bi2+  Bi74  1  0.27388883  0.39114477  0.27884306  1
  Bi2+  Bi75  1  0.24795304  0.37497942  0.78452428  1
  Bi2+  Bi76  1  0.24438809  0.64481130  0.28536892  1
  Bi2+  Bi77  1  0.24209795  0.62030837  0.78391252  1
  Bi2+  Bi78  1  0.33636655  0.87612765  0.27808720  1
  Bi2+  Bi79  1  0.18935991  0.89552532  0.76056425  1
  Bi2+  Bi80  1  0.51268492  0.06650048  0.28715595  1
  Bi2+  Bi81  1  0.46342101  0.12954182  0.80549666  1
  Bi2+  Bi82  1  0.45931235  0.34266656  0.29279262  1
  Bi2+  Bi83  1  0.50176714  0.43890692  0.75422580  1
  Bi2+  Bi84  1  0.48340696  0.61461039  0.29157029  1
  Bi2+  Bi85  1  0.47863166  0.62804321  0.78351406  1
  Bi2+  Bi86  1  0.51187450  0.80451354  0.31901783  1
  Bi2+  Bi87  1  0.41287921  0.88541766  0.79070613  1
  Bi2+  Bi88  1  0.69207141  0.13530090  0.27565543  1
  Bi2+  Bi89  1  0.69939853  0.12356183  0.82055171  1
  Bi2+  Bi90  1  0.76479548  0.36581443  0.30374351  1
  Bi2+  Bi91  1  0.78218601  0.38224984  0.79608401  1
  Bi2+  Bi92  1  0.68289739  0.59782484  0.28286871  1
  Bi2+  Bi93  1  0.68344558  0.63895461  0.79765163  1
  Bi2+  Bi94  1  0.68019226  0.85416264  0.26083159  1
  Bi2+  Bi95  1  0.76814310  0.86290170  0.79089335  1
  Bi2+  Bi96  1  0.18264264  -0.02610728  0.23448067  1
  Bi2+  Bi97  1  0.15446387  0.03892560  0.67753306  1
  Bi2+  Bi98  1  0.16931864  0.24082479  0.23181023  1
  Bi2+  Bi99  1  0.14394401  0.22576647  0.70551887  1
  Bi2+  Bi100  1  0.12330549  0.51497246  0.20175199  1
  Bi2+  Bi101  1  0.08220481  0.48278823  0.68961939  1
  Bi2+  Bi102  1  0.05678931  0.75189036  0.20450148  1
  Bi2+  Bi103  1  0.09502156  0.74395501  0.69336334  1
  Bi2+  Bi104  1  0.38117229  0.06832628  0.20082787  1
  Bi2+  Bi105  1  0.34091890  0.00866313  0.70803299  1
  Bi2+  Bi106  1  0.33314879  0.25062947  0.16758510  1
  Bi2+  Bi107  1  0.39277421  0.26153743  0.72351452  1
  Bi2+  Bi108  1  0.41403255  0.48290674  0.21299484  1
  Bi2+  Bi109  1  0.35234308  0.50299042  0.69439660  1
  Bi2+  Bi110  1  0.44124461  0.75170099  0.20903321  1
  Bi2+  Bi111  1  0.37329242  0.76093707  0.70621110  1
  Bi2+  Bi112  1  0.57056641  -0.03672950  0.19190303  1
  Bi2+  Bi113  1  0.55685763  -0.04531365  0.72010995  1
  Bi2+  Bi114  1  0.51856124  0.24344853  0.20227401  1
  Bi2+  Bi115  1  0.61413091  0.24117000  0.71399323  1
  Bi2+  Bi116  1  0.59778110  0.53117955  0.18738642  1
  Bi2+  Bi117  1  0.60288768  0.57908693  0.69367250  1
  Bi2+  Bi118  1  0.63077194  0.74916547  0.15762415  1
  Bi2+  Bi119  1  0.64042722  0.77694001  0.70484279  1
  Bi2+  Bi120  1  0.87419963  -0.00177862  0.21095409  1
  Bi2+  Bi121  1  0.90657734  -0.02023866  0.71130885  1
  Bi2+  Bi122  1  0.93582867  0.23520522  0.20677426  1
  Bi2+  Bi123  1  0.87960495  0.25831013  0.71315140  1
  Bi2+  Bi124  1  0.88843062  0.49135779  0.20377826  1
  Bi2+  Bi125  1  0.85369924  0.51930426  0.72996885  1
  Bi2+  Bi126  1  0.79660206  0.71876398  0.21508803  1
  Bi2+  Bi127  1  0.82888775  0.71878155  0.71673163  1
  S2-  S128  1  0.00079882  0.08694137  0.16460970  1
  S2-  S129  1  -0.07189349  0.12751643  0.65025001  1
  S2-  S130  1  0.03268691  0.37300238  0.16761762  1
  S2-  S131  1  -0.05732826  0.39208688  0.65293917  1
  S2-  S132  1  -0.00388785  0.60555755  0.15144285  1
  S2-  S133  1  0.00590592  0.62359072  0.64504788  1
  S2-  S134  1  -0.07569991  0.85024771  0.16873491  1
  S2-  S135  1  -0.00367879  0.87032514  0.65674412  1
  S2-  S136  1  0.24413848  0.03698469  0.14153694  1
  S2-  S137  1  0.37929473  0.14351272  0.64908426  1
  S2-  S138  1  0.24204631  0.46519740  0.14462625  1
  S2-  S139  1  0.22064052  0.37242591  0.66112200  1
  S2-  S140  1  0.20391414  0.66543014  0.18361957  1
  S2-  S141  1  0.21448181  0.58465843  0.66814140  1
  S2-  S142  1  0.13349244  0.86326352  0.15186510  1
  S2-  S143  1  0.24451179  0.79005510  0.63943003  1
  S2-  S144  1  0.59726555  0.11816474  0.14594148  1
  S2-  S145  1  0.59335972  0.10109051  0.65877156  1
  S2-  S146  1  0.60711625  0.37163070  0.14825230  1
  S2-  S147  1  0.50521670  0.33810086  0.65341657  1
  S2-  S148  1  0.41343127  0.61550321  0.14216659  1
  S2-  S149  1  0.41677330  0.63868786  0.63897993  1
  S2-  S150  1  0.39018941  0.86415585  0.14361154  1
  S2-  S151  1  0.45965644  0.88526175  0.64877201  1
  S2-  S152  1  0.79903156  0.15206080  0.18944716  1
  S2-  S153  1  0.75354432  0.13652399  0.73076271  1
  S2-  S154  1  0.81973026  0.35061070  0.18125634  1
  S2-  S155  1  0.73531941  0.28997593  0.65560390  1
  S2-  S156  1  0.76663832  0.53078501  0.14537079  1
  S2-  S157  1  0.75545343  0.52582731  0.64221236  1
  S2-  S158  1  0.74914465  0.96860209  0.15131420  1
  S2-  S159  1  0.77427009  0.95020087  0.64920918  1
  S2-  S160  1  0.14119062  -0.08643669  0.35653983  1
  S2-  S161  1  0.14452062  -0.12410598  0.86261833  1
  S2-  S162  1  0.14353331  0.33282951  0.35975215  1
  S2-  S163  1  0.13263756  0.33566687  0.85692873  1
  S2-  S164  1  0.06034990  0.51430296  0.32069087  1
  S2-  S165  1  0.12249240  0.49495015  0.78254924  1
  S2-  S166  1  0.09774804  0.71737836  0.31264412  1
  S2-  S167  1  0.12829837  0.66026096  0.84769761  1
  S2-  S168  1  0.37473352  -0.00287680  0.34755008  1
  S2-  S169  1  0.33416850  0.02313711  0.84201138  1
  S2-  S170  1  0.37000754  0.23647443  0.34880370  1
  S2-  S171  1  0.35122998  0.26137015  0.83191876  1
  S2-  S172  1  0.28954155  0.51490527  0.35373262  1
  S2-  S173  1  0.30114507  0.49654965  0.85122733  1
  S2-  S174  1  0.29357438  0.75156264  0.35222979  1
  S2-  S175  1  0.36551265  0.73096202  0.83968720  1
  S2-  S176  1  0.65268748  0.00904721  0.34204031  1
  S2-  S177  1  0.56078250  0.01791705  0.84847703  1
  S2-  S178  1  0.65593236  0.24626197  0.34347465  1
  S2-  S179  1  0.57463216  0.24344219  0.84333279  1
  S2-  S180  1  0.62745437  0.45771142  0.33613399  1
  S2-  S181  1  0.69513408  0.48487636  0.85534713  1
  S2-  S182  1  0.67247539  0.74264789  0.34798741  1
  S2-  S183  1  0.63617496  0.79263673  0.83897367  1
  S2-  S184  1  0.89410411  0.03059371  0.33656384  1
  S2-  S185  1  0.77401531  -0.01047099  0.86466634  1
  S2-  S186  1  0.88661635  0.27866168  0.34129186  1
  S2-  S187  1  0.79031583  0.24937698  0.86950968  1
  S2-  S188  1  0.84055930  0.50827373  0.33766152  1
  S2-  S189  1  0.90899056  0.47936860  0.82949302  1
  S2-  S190  1  0.88986981  0.77912598  0.33683183  1
  S2-  S191  1  0.88467069  0.76803576  0.85071122  1
  S2-  S192  1  0.01357672  0.13639174  0.45293294  1
  S2-  S193  1  0.00581564  0.12444918  0.95678453  1
  S2-  S194  1  0.01378382  0.38468487  0.45474600  1
  S2-  S195  1  -0.00038008  0.37320763  0.95673911  1
  S2-  S196  1  0.01743586  0.63256627  0.44046272  1
  S2-  S197  1  0.00645426  0.61515500  0.94685722  1
  S2-  S198  1  0.00903281  0.88660061  0.44970664  1
  S2-  S199  1  0.00738404  0.87385140  0.96314593  1
  S2-  S200  1  0.26190456  0.13669469  0.46085518  1
  S2-  S201  1  0.25598519  0.12458879  0.95081884  1
  S2-  S202  1  0.26538857  0.38189663  0.45752724  1
  S2-  S203  1  0.25921972  0.37436642  0.95545547  1
  S2-  S204  1  0.26448131  0.63499666  0.45789078  1
  S2-  S205  1  0.25773815  0.62131039  0.95378353  1
  S2-  S206  1  0.26813218  0.88802956  0.45497378  1
  S2-  S207  1  0.26272069  0.87737246  0.96200587  1
  S2-  S208  1  0.50969294  0.13613516  0.45636432  1
  S2-  S209  1  0.51270943  0.12447485  0.95478438  1
  S2-  S210  1  0.50705665  0.38511370  0.44965235  1
  S2-  S211  1  0.50616938  0.37565593  0.95154058  1
  S2-  S212  1  0.50850219  0.63451198  0.44728616  1
  S2-  S213  1  0.50506954  0.62290351  0.94855286  1
  S2-  S214  1  0.50994251  0.88822199  0.44985541  1
  S2-  S215  1  0.50846701  0.86877918  0.95332632  1
  S2-  S216  1  0.76604946  0.13443958  0.44539426  1
  S2-  S217  1  0.75817874  0.11960322  0.97067064  1
  S2-  S218  1  0.76409398  0.38550343  0.45641763  1
  S2-  S219  1  0.75528040  0.37723584  0.96875645  1
  S2-  S220  1  0.76413061  0.63324160  0.45342117  1
  S2-  S221  1  0.75750602  0.62481785  0.95377928  1
  S2-  S222  1  0.76441483  0.88747583  0.44931555  1
  S2-  S223  1  0.75922849  0.86501953  0.96256186  1
  S2-  S224  1  0.12942874  0.00203683  0.04115082  1
  S2-  S225  1  0.13603390  0.01014616  0.54409071  1
  S2-  S226  1  0.13069158  0.24892393  0.05349670  1
  S2-  S227  1  0.13323644  0.25680381  0.55362619  1
  S2-  S228  1  0.13046158  0.49919974  0.04597778  1
  S2-  S229  1  0.13761951  0.51116902  0.54408609  1
  S2-  S230  1  0.13534345  0.74213099  0.04691869  1
  S2-  S231  1  0.13577131  0.76172026  0.53430294  1
  S2-  S232  1  0.38689923  0.00176828  0.04362166  1
  S2-  S233  1  0.38524617  0.00874779  0.54923152  1
  S2-  S234  1  0.38586144  0.24780885  0.04097677  1
  S2-  S235  1  0.38186399  0.26297394  0.54976206  1
  S2-  S236  1  0.38491464  0.49461020  0.04370413  1
  S2-  S237  1  0.38624240  0.50703725  0.54383682  1
  S2-  S238  1  0.37904910  0.74392003  0.04490856  1
  S2-  S239  1  0.38931585  0.76608412  0.53936769  1
  S2-  S240  1  0.62782631  -0.01048740  0.04446983  1
  S2-  S241  1  0.63926886  0.01128240  0.54757163  1
  S2-  S242  1  0.63450063  0.24864675  0.04626695  1
  S2-  S243  1  0.63461826  0.25942779  0.54800818  1
  S2-  S244  1  0.62623749  0.50384707  0.04738699  1
  S2-  S245  1  0.63247447  0.51004207  0.54122080  1
  S2-  S246  1  0.62764213  0.74649810  0.04165666  1
  S2-  S247  1  0.63833822  0.75882325  0.55023077  1
  S2-  S248  1  0.88180007  -0.00445485  0.05152447  1
  S2-  S249  1  0.88768644  0.01076157  0.54242515  1
  S2-  S250  1  0.87768327  0.24882279  0.06139736  1
  S2-  S251  1  0.89107159  0.26102281  0.54790483  1
  S2-  S252  1  0.88139518  0.50318737  0.04193352  1
  S2-  S253  1  0.89244662  0.51356109  0.54079087  1
  S2-  S254  1  0.88241333  0.74418586  0.05462480  1
  S2-  S255  1  0.88778909  0.75641656  0.54592001  1
