# generated using pymatgen
data_La12Ce14Pr13Nd13Sm12(BiS2)64
_symmetry_space_group_name_H-M   'P 1'
_cell_length_a   16.15877388
_cell_length_b   16.12229456
_cell_length_c   27.16888563
_cell_angle_alpha   89.98556056
_cell_angle_beta   90.19449843
_cell_angle_gamma   89.95465283
_symmetry_Int_Tables_number   1
_chemical_formula_structural   La12Ce14Pr13Nd13Sm12(BiS2)64
_chemical_formula_sum   'La12 Ce14 Pr13 Nd13 Sm12 Bi64 S128'
_cell_volume   7077.90009757
_cell_formula_units_Z   1
loop_
 _symmetry_equiv_pos_site_id
 _symmetry_equiv_pos_as_xyz
  1  'x, y, z'
loop_
 _atom_type_symbol
 _atom_type_oxidation_number
  La3+  3.0
  Ce3+  3.0
  Pr3+  3.0
  Nd3+  3.0
  Sm3+  3.0
  Bi2+  2.0
  S2-  -2.0
loop_
 _atom_site_type_symbol
 _atom_site_label
 _atom_site_symmetry_multiplicity
 _atom_site_fract_x
 _atom_site_fract_y
 _atom_site_fract_z
 _atom_site_occupancy
  La3+  La0  1  0.63045818  0.74363244  0.91663267  1
  La3+  La1  1  0.01129451  0.87235332  0.09185839  1
  La3+  La2  1  0.62038781  0.24969756  0.92457677  1
  La3+  La3  1  0.12277546  -0.00072178  0.93653980  1
  La3+  La4  1  0.12720214  -0.03307271  0.41943298  1
  La3+  La5  1  0.50791393  0.84378031  0.56920222  1
  La3+  La6  1  0.51065694  0.12861370  0.07770862  1
  La3+  La7  1  0.74330020  0.86433196  0.08272534  1
  La3+  La8  1  0.24946708  0.12590522  0.10062252  1
  La3+  La9  1  0.62672317  -0.00552426  0.93595416  1
  La3+  La10  1  0.87850586  0.75236203  0.93627874  1
  La3+  La11  1  0.87521572  0.47408057  0.43425658  1
  Ce3+  Ce12  1  0.25358934  0.84531094  0.55522086  1
  Ce3+  Ce13  1  0.76138999  0.84513893  0.57375869  1
  Ce3+  Ce14  1  0.87831027  0.50023173  0.94356268  1
  Ce3+  Ce15  1  0.00148702  0.62806262  0.06385526  1
  Ce3+  Ce16  1  0.50791797  0.60013747  0.56059309  1
  Ce3+  Ce17  1  0.62539578  0.49626130  0.93040431  1
  Ce3+  Ce18  1  0.12429927  0.49758498  0.94176969  1
  Ce3+  Ce19  1  0.74743755  0.62712887  0.05745797  1
  Ce3+  Ce20  1  0.25263658  0.59748416  0.56190103  1
  Ce3+  Ce21  1  0.75408228  0.09696279  0.55985005  1
  Ce3+  Ce22  1  0.13091587  0.22125571  0.42954927  1
  Ce3+  Ce23  1  0.38246896  -0.02995690  0.43281726  1
  Ce3+  Ce24  1  0.24772260  0.87464933  0.05929471  1
  Ce3+  Ce25  1  0.37532069  0.49724644  0.94270432  1
  Pr3+  Pr26  1  0.50088803  0.37274179  0.06720827  1
  Pr3+  Pr27  1  0.50452901  0.34490968  0.55884533  1
  Pr3+  Pr28  1  0.38319860  0.47223922  0.43782333  1
  Pr3+  Pr29  1  0.00949161  0.58948204  0.57447802  1
  Pr3+  Pr30  1  0.00066638  0.37693363  0.06489211  1
  Pr3+  Pr31  1  0.37509890  0.74989606  0.93707214  1
  Pr3+  Pr32  1  0.12593609  0.72078397  0.43113348  1
  Pr3+  Pr33  1  0.12346874  0.24637456  0.94283480  1
  Pr3+  Pr34  1  0.87541243  0.24674207  0.94270681  1
  Pr3+  Pr35  1  0.37736288  0.24439168  0.93821737  1
  Pr3+  Pr36  1  0.38325440  0.71935693  0.42915218  1
  Pr3+  Pr37  1  0.01026607  0.34682152  0.55869626  1
  Pr3+  Pr38  1  0.01385926  0.84708302  0.56797444  1
  Nd3+  Nd39  1  0.49822241  0.87854178  0.06111656  1
  Nd3+  Nd40  1  0.25713800  0.09575987  0.55204592  1
  Nd3+  Nd41  1  0.00107965  0.13131827  0.07391663  1
  Nd3+  Nd42  1  0.63509489  0.72561935  0.43947355  1
  Nd3+  Nd43  1  0.12451602  0.47868363  0.42674904  1
  Nd3+  Nd44  1  0.75304121  0.34657405  0.56358897  1
  Nd3+  Nd45  1  0.88111567  0.22200763  0.44362875  1
  Nd3+  Nd46  1  0.12111271  0.75507982  0.92919550  1
  Nd3+  Nd47  1  0.24944397  0.62681023  0.05138478  1
  Nd3+  Nd48  1  0.63035641  0.21708008  0.43023906  1
  Nd3+  Nd49  1  0.01019835  0.09785105  0.55432121  1
  Nd3+  Nd50  1  0.76133556  0.58992018  0.58054760  1
  Nd3+  Nd51  1  0.63201740  -0.02945765  0.43655705  1
  Sm3+  Sm52  1  0.74932358  0.12318435  0.05814702  1
  Sm3+  Sm53  1  0.87447195  -0.00575916  0.95859103  1
  Sm3+  Sm54  1  0.50080892  0.62421805  0.05248634  1
  Sm3+  Sm55  1  0.87987289  0.72135308  0.45227216  1
  Sm3+  Sm56  1  0.37596162  0.00063335  0.94900862  1
  Sm3+  Sm57  1  0.63209432  0.46695204  0.43454195  1
  Sm3+  Sm58  1  0.25219205  0.36883191  0.05797142  1
  Sm3+  Sm59  1  0.50651425  0.09406370  0.55718342  1
  Sm3+  Sm60  1  0.25811834  0.34670101  0.54420166  1
  Sm3+  Sm61  1  0.74845521  0.37563704  0.05538166  1
  Sm3+  Sm62  1  0.88237893  -0.03038974  0.44733971  1
  Sm3+  Sm63  1  0.38286136  0.21491075  0.42634939  1
  Bi2+  Bi64  1  -0.01488333  0.13111091  0.30786191  1
  Bi2+  Bi65  1  0.07072862  0.07480007  0.80057919  1
  Bi2+  Bi66  1  0.03660466  0.38517954  0.27550190  1
  Bi2+  Bi67  1  0.01379405  0.34422647  0.79433516  1
  Bi2+  Bi68  1  0.01218541  0.61511299  0.29121347  1
  Bi2+  Bi69  1  -0.00039355  0.59830396  0.79632623  1
  Bi2+  Bi70  1  -0.02648499  0.86402839  0.29497945  1
  Bi2+  Bi71  1  -0.00221635  0.88294337  0.79872801  1
  Bi2+  Bi72  1  0.27479531  0.15921984  0.29878322  1
  Bi2+  Bi73  1  0.22708505  0.20669652  0.75806329  1
  Bi2+  Bi74  1  0.20294351  0.45370020  0.22293130  1
  Bi2+  Bi75  1  0.29339734  0.38888913  0.78107544  1
  Bi2+  Bi76  1  0.26644078  0.61318111  0.27982629  1
  Bi2+  Bi77  1  0.19732544  0.68690825  0.78407581  1
  Bi2+  Bi78  1  0.25722019  0.81796036  0.28514544  1
  Bi2+  Bi79  1  0.23650951  0.88333435  0.76682937  1
  Bi2+  Bi80  1  0.53005998  0.18249837  0.30476576  1
  Bi2+  Bi81  1  0.49437433  0.19240544  0.75564634  1
  Bi2+  Bi82  1  0.49553590  0.43087160  0.29669435  1
  Bi2+  Bi83  1  0.50032321  0.38464221  0.80362250  1
  Bi2+  Bi84  1  0.48564284  0.68725254  0.30592194  1
  Bi2+  Bi85  1  0.41447931  0.64801587  0.78290765  1
  Bi2+  Bi86  1  0.52297247  0.87684840  0.29528634  1
  Bi2+  Bi87  1  0.47339608  0.93192729  0.80374032  1
  Bi2+  Bi88  1  0.71491326  0.15199235  0.25008012  1
  Bi2+  Bi89  1  0.76183755  0.19032452  0.78841656  1
  Bi2+  Bi90  1  0.82719769  0.39036475  0.29142061  1
  Bi2+  Bi91  1  0.72837764  0.42874738  0.75763599  1
  Bi2+  Bi92  1  0.66706901  0.62849968  0.31843598  1
  Bi2+  Bi93  1  0.73995515  0.61984202  0.79267170  1
  Bi2+  Bi94  1  0.74991502  0.87018186  0.27403729  1
  Bi2+  Bi95  1  0.72791505  0.90432613  0.80493110  1
  Bi2+  Bi96  1  0.14415124  -0.00605993  0.22406689  1
  Bi2+  Bi97  1  0.12408874  0.01215285  0.69539399  1
  Bi2+  Bi98  1  0.12640064  0.24621676  0.21316204  1
  Bi2+  Bi99  1  0.09017010  0.29816463  0.68984488  1
  Bi2+  Bi100  1  0.02529134  0.51207816  0.18232757  1
  Bi2+  Bi101  1  0.18471694  0.51868452  0.72406481  1
  Bi2+  Bi102  1  0.13044329  0.73818352  0.20724649  1
  Bi2+  Bi103  1  0.07258129  0.75393566  0.69881104  1
  Bi2+  Bi104  1  0.38564311  -0.08737013  0.21310247  1
  Bi2+  Bi105  1  0.34525987  0.04988163  0.74396783  1
  Bi2+  Bi106  1  0.37160906  0.33772707  0.22236707  1
  Bi2+  Bi107  1  0.38535748  0.31144300  0.68914563  1
  Bi2+  Bi108  1  0.45250775  0.49521460  0.18321759  1
  Bi2+  Bi109  1  0.36270622  0.55756890  0.67917644  1
  Bi2+  Bi110  1  0.37577436  0.71976849  0.20083831  1
  Bi2+  Bi111  1  0.32799018  0.75294644  0.69930610  1
  Bi2+  Bi112  1  0.61811326  -0.00204956  0.20471890  1
  Bi2+  Bi113  1  0.61019779  0.02698104  0.69724130  1
  Bi2+  Bi114  1  0.61230363  0.30975085  0.21065503  1
  Bi2+  Bi115  1  0.67517467  0.27311333  0.69789525  1
  Bi2+  Bi116  1  0.63495523  0.50612694  0.22428467  1
  Bi2+  Bi117  1  0.53923918  0.51332731  0.71920192  1
  Bi2+  Bi118  1  0.63432813  0.74270145  0.21111979  1
  Bi2+  Bi119  1  0.58967799  0.77722660  0.70713990  1
  Bi2+  Bi120  1  0.88643020  0.05902990  0.21667171  1
  Bi2+  Bi121  1  0.88490653  0.04064417  0.76313539  1
  Bi2+  Bi122  1  0.86911639  0.25665639  0.21027351  1
  Bi2+  Bi123  1  0.91441824  0.22730751  0.71580169  1
  Bi2+  Bi124  1  0.83232206  0.51171586  0.20060061  1
  Bi2+  Bi125  1  0.90307237  0.47927074  0.71496596  1
  Bi2+  Bi126  1  0.83615616  0.69120178  0.25963175  1
  Bi2+  Bi127  1  0.83017260  0.74513635  0.70689397  1
  S2-  S128  1  0.09995049  0.10341572  0.15565036  1
  S2-  S129  1  0.00666466  0.11049417  0.65331383  1
  S2-  S130  1  0.00018515  0.27362108  0.14538798  1
  S2-  S131  1  0.01569498  0.44160286  0.64296412  1
  S2-  S132  1  -0.00040715  0.72067303  0.14658931  1
  S2-  S133  1  -0.10662534  0.61382953  0.65267445  1
  S2-  S134  1  -0.01165945  0.92443131  0.19458699  1
  S2-  S135  1  -0.06653875  0.84167226  0.66044384  1
  S2-  S136  1  0.28441182  0.07820329  0.20229740  1
  S2-  S137  1  0.25886021  0.08655688  0.65179876  1
  S2-  S138  1  0.25409911  0.28834066  0.14634426  1
  S2-  S139  1  0.23899966  0.34668133  0.64165181  1
  S2-  S140  1  0.24254393  0.64423846  0.14992952  1
  S2-  S141  1  0.14405941  0.61614122  0.64177028  1
  S2-  S142  1  0.17321885  0.87771649  0.14712940  1
  S2-  S143  1  0.15179093  0.86169943  0.63568920  1
  S2-  S144  1  0.47414972  0.02726913  0.15869742  1
  S2-  S145  1  0.51030983  0.13428816  0.65312815  1
  S2-  S146  1  0.49061175  0.26524547  0.14864085  1
  S2-  S147  1  0.54589163  0.37970586  0.65555615  1
  S2-  S148  1  0.51558471  0.65113132  0.14926547  1
  S2-  S149  1  0.49356151  0.70868627  0.63861807  1
  S2-  S150  1  0.59360791  0.85972665  0.14266021  1
  S2-  S151  1  0.50465092  0.91743947  0.66592014  1
  S2-  S152  1  0.66849939  0.13192111  0.14390138  1
  S2-  S153  1  0.74074392  0.12535536  0.65561063  1
  S2-  S154  1  0.75757044  0.36419851  0.15335230  1
  S2-  S155  1  0.76822152  0.43221216  0.64990739  1
  S2-  S156  1  0.75305988  0.71258549  0.14185002  1
  S2-  S157  1  0.69366117  0.65637134  0.66789885  1
  S2-  S158  1  0.78297373  0.93303662  0.17985781  1
  S2-  S159  1  0.71969661  0.87612613  0.66950041  1
  S2-  S160  1  0.14222765  0.04600209  0.32712337  1
  S2-  S161  1  0.14057280  -0.11201412  0.85569741  1
  S2-  S162  1  0.12209020  0.25715635  0.33302428  1
  S2-  S163  1  0.12307971  0.22622938  0.84279083  1
  S2-  S164  1  0.14645368  0.60364237  0.35464036  1
  S2-  S165  1  0.09927636  0.47824777  0.84567215  1
  S2-  S166  1  0.11334870  0.83356474  0.35065465  1
  S2-  S167  1  -0.00508425  0.74065081  0.85616510  1
  S2-  S168  1  0.39313947  0.08374443  0.35098729  1
  S2-  S169  1  0.36583841  0.02519633  0.85116889  1
  S2-  S170  1  0.35623295  0.28732314  0.33578894  1
  S2-  S171  1  0.48314974  0.23271046  0.85658721  1
  S2-  S172  1  0.38762869  0.55780283  0.35019639  1
  S2-  S173  1  0.37591338  0.50400308  0.84465782  1
  S2-  S174  1  0.37947502  0.85109432  0.35837059  1
  S2-  S175  1  0.38702512  0.78941811  0.83888695  1
  S2-  S176  1  0.63267182  0.09016135  0.35757109  1
  S2-  S177  1  0.61611627  0.02252845  0.83529407  1
  S2-  S178  1  0.60054087  0.32299264  0.34962541  1
  S2-  S179  1  0.64663274  0.38184557  0.85427098  1
  S2-  S180  1  0.74938989  0.48575779  0.36113118  1
  S2-  S181  1  0.61522736  0.60185306  0.85129298  1
  S2-  S182  1  0.65343099  0.84881079  0.36333706  1
  S2-  S183  1  0.59689723  0.81069377  0.81686240  1
  S2-  S184  1  0.90187862  -0.01699180  0.34820513  1
  S2-  S185  1  0.87088752  -0.03323666  0.86039183  1
  S2-  S186  1  0.87102166  0.23567913  0.34431490  1
  S2-  S187  1  0.88206355  0.27459050  0.84351947  1
  S2-  S188  1  0.98758600  0.48102741  0.35605457  1
  S2-  S189  1  0.87005630  0.53185105  0.84663419  1
  S2-  S190  1  0.91154532  0.72768705  0.35415637  1
  S2-  S191  1  0.77685474  0.75696550  0.85154346  1
  S2-  S192  1  0.00560977  0.09653986  0.44835240  1
  S2-  S193  1  -0.00332063  0.12190606  0.96003667  1
  S2-  S194  1  0.00694879  0.34477572  0.45162894  1
  S2-  S195  1  0.00008400  0.37229587  0.95735714  1
  S2-  S196  1  0.00251468  0.59946118  0.46200425  1
  S2-  S197  1  0.00453095  0.62128308  0.95791958  1
  S2-  S198  1  0.00157998  0.84693612  0.45974796  1
  S2-  S199  1  0.00125691  0.87828550  0.96395615  1
  S2-  S200  1  0.25503704  0.09716692  0.44582594  1
  S2-  S201  1  0.25057030  0.12261459  0.94716264  1
  S2-  S202  1  0.25428818  0.35032832  0.44078002  1
  S2-  S203  1  0.25097435  0.37017201  0.95153471  1
  S2-  S204  1  0.25880763  0.59653862  0.45549082  1
  S2-  S205  1  0.24707393  0.62605670  0.94404411  1
  S2-  S206  1  0.25442262  0.84567210  0.45218134  1
  S2-  S207  1  0.25402770  0.87523964  0.95486616  1
  S2-  S208  1  0.50515026  0.09552929  0.45567901  1
  S2-  S209  1  0.50217526  0.11971422  0.96156761  1
  S2-  S210  1  0.50327737  0.34452734  0.45255316  1
  S2-  S211  1  0.49829133  0.37482393  0.95897530  1
  S2-  S212  1  0.51390588  0.59665417  0.45347307  1
  S2-  S213  1  0.49706568  0.62231016  0.94909223  1
  S2-  S214  1  0.50733112  0.84624754  0.45964807  1
  S2-  S215  1  0.49898055  0.87397917  0.95268594  1
  S2-  S216  1  0.76100382  0.09446262  0.45428680  1
  S2-  S217  1  0.75083297  0.12274462  0.95163265  1
  S2-  S218  1  0.75215887  0.34142243  0.45629870  1
  S2-  S219  1  0.75530381  0.37341040  0.95296126  1
  S2-  S220  1  0.75453618  0.60141061  0.46371910  1
  S2-  S221  1  0.75143701  0.61978153  0.95396026  1
  S2-  S222  1  0.76234810  0.84899246  0.46498187  1
  S2-  S223  1  0.74999521  0.87435965  0.96206910  1
  S2-  S224  1  0.12769035  0.00506749  0.04738344  1
  S2-  S225  1  0.13178149  -0.02395367  0.53328491  1
  S2-  S226  1  0.12941457  0.24713314  0.04724706  1
  S2-  S227  1  0.13498638  0.22205085  0.53863677  1
  S2-  S228  1  0.13044849  0.49621653  0.04945463  1
  S2-  S229  1  0.13609402  0.46919899  0.53502372  1
  S2-  S230  1  0.12629592  0.74972916  0.03882986  1
  S2-  S231  1  0.13211807  0.72154570  0.53823134  1
  S2-  S232  1  0.36869709  0.00276409  0.05364116  1
  S2-  S233  1  0.38164636  -0.02857949  0.54551904  1
  S2-  S234  1  0.37236771  0.24396189  0.04492794  1
  S2-  S235  1  0.38131382  0.21999451  0.53825927  1
  S2-  S236  1  0.37235413  0.49805961  0.04954507  1
  S2-  S237  1  0.38147620  0.47157139  0.54505459  1
  S2-  S238  1  0.37627551  0.74949028  0.04573968  1
  S2-  S239  1  0.37623980  0.72056312  0.53809394  1
  S2-  S240  1  0.62903463  -0.00293970  0.04491775  1
  S2-  S241  1  0.63192820  -0.02723551  0.54649312  1
  S2-  S242  1  0.62996951  0.25264537  0.03831209  1
  S2-  S243  1  0.62877165  0.22033030  0.54207091  1
  S2-  S244  1  0.62378666  0.49871630  0.04764939  1
  S2-  S245  1  0.63083848  0.47201885  0.54249591  1
  S2-  S246  1  0.61923795  0.74546691  0.03520698  1
  S2-  S247  1  0.63863197  0.72157577  0.54591710  1
  S2-  S248  1  0.87752153  0.00081861  0.06259191  1
  S2-  S249  1  0.88371228  -0.02524202  0.55288371  1
  S2-  S250  1  0.86998149  0.24898384  0.04889824  1
  S2-  S251  1  0.88160981  0.22320715  0.55082266  1
  S2-  S252  1  0.87391130  0.50009504  0.05106599  1
  S2-  S253  1  0.87869063  0.46711281  0.54249726  1
  S2-  S254  1  0.87779290  0.75135335  0.04530514  1
  S2-  S255  1  0.88364453  0.72120226  0.55378042  1
