# generated using pymatgen
data_La12Ce14Pr13Nd13Sm12(BiS2)64
_symmetry_space_group_name_H-M   'P 1'
_cell_length_a   16.17084041
_cell_length_b   16.15916464
_cell_length_c   27.13900447
_cell_angle_alpha   89.90439362
_cell_angle_beta   90.02182097
_cell_angle_gamma   90.00365160
_symmetry_Int_Tables_number   1
_chemical_formula_structural   La12Ce14Pr13Nd13Sm12(BiS2)64
_chemical_formula_sum   'La12 Ce14 Pr13 Nd13 Sm12 Bi64 S128'
_cell_volume   7091.60883804
_cell_formula_units_Z   1
loop_
 _symmetry_equiv_pos_site_id
 _symmetry_equiv_pos_as_xyz
  1  'x, y, z'
loop_
 _atom_type_symbol
 _atom_type_oxidation_number
  La3+  3.0
  Ce3+  3.0
  Pr3+  3.0
  Nd3+  3.0
  Sm3+  3.0
  Bi2+  2.0
  S2-  -2.0
loop_
 _atom_site_type_symbol
 _atom_site_label
 _atom_site_symmetry_multiplicity
 _atom_site_fract_x
 _atom_site_fract_y
 _atom_site_fract_z
 _atom_site_occupancy
  La3+  La0  1  0.88612364  0.24998413  0.38674810  1
  La3+  La1  1  0.12107495  0.25022389  0.89913941  1
  La3+  La2  1  0.62619524  0.00106263  0.41678137  1
  La3+  La3  1  0.52914451  0.37375635  0.60601625  1
  La3+  La4  1  0.12750426  0.51376634  0.92821198  1
  La3+  La5  1  0.88131560  -0.01034605  0.40961247  1
  La3+  La6  1  0.87469393  0.51069806  0.93038463  1
  La3+  La7  1  0.51077056  0.62120851  0.57442282  1
  La3+  La8  1  0.23996781  0.62613186  0.09741747  1
  La3+  La9  1  0.26216005  0.36206521  0.58214139  1
  La3+  La10  1  0.38430160  0.49118599  0.41430635  1
  La3+  La11  1  0.38350561  0.24982413  0.90163072  1
  Ce3+  Ce12  1  0.13469112  0.48918682  0.44270919  1
  Ce3+  Ce13  1  0.25062609  0.13614330  0.05391159  1
  Ce3+  Ce14  1  0.01185087  0.61843412  0.56224188  1
  Ce3+  Ce15  1  0.24953771  0.87929898  0.06929810  1
  Ce3+  Ce16  1  0.76388898  0.61790991  0.56017540  1
  Ce3+  Ce17  1  0.25934996  0.86795831  0.55372549  1
  Ce3+  Ce18  1  0.12682503  0.75614034  0.94317731  1
  Ce3+  Ce19  1  0.62437681  0.00850753  0.94273915  1
  Ce3+  Ce20  1  0.24974604  0.38361054  0.04230005  1
  Ce3+  Ce21  1  0.74875211  0.38096882  0.05564305  1
  Ce3+  Ce22  1  0.74772634  0.88335404  0.06297510  1
  Ce3+  Ce23  1  -0.00095758  0.88111598  0.05840522  1
  Ce3+  Ce24  1  -0.00017945  0.13548026  0.05919997  1
  Ce3+  Ce25  1  0.76123352  0.87080414  0.55132651  1
  Pr3+  Pr26  1  0.87305769  0.75690336  0.93772329  1
  Pr3+  Pr27  1  0.13845944  0.24797803  0.43431885  1
  Pr3+  Pr28  1  0.88407310  0.74203157  0.43462408  1
  Pr3+  Pr29  1  0.36994339  0.75807401  0.94118871  1
  Pr3+  Pr30  1  0.13724722  0.74026315  0.43893643  1
  Pr3+  Pr31  1  0.62513726  0.25609264  0.93516995  1
  Pr3+  Pr32  1  0.37501969  0.51537759  0.92986028  1
  Pr3+  Pr33  1  0.51697853  0.11711159  0.56939934  1
  Pr3+  Pr34  1  0.76143712  0.11728418  0.54388630  1
  Pr3+  Pr35  1  0.13525357  -0.00245530  0.43411430  1
  Pr3+  Pr36  1  0.39310650  0.73981539  0.42858995  1
  Pr3+  Pr37  1  0.87279466  0.26227583  0.92677757  1
  Pr3+  Pr38  1  0.01043233  0.36598631  0.56402448  1
  Nd3+  Nd39  1  0.26284582  0.61484073  0.56133074  1
  Nd3+  Nd40  1  0.74972371  0.63000359  0.06986368  1
  Nd3+  Nd41  1  -0.00515022  0.62922833  0.06476019  1
  Nd3+  Nd42  1  0.37204377  0.00690674  0.93991507  1
  Nd3+  Nd43  1  0.51144231  0.86740715  0.56550971  1
  Nd3+  Nd44  1  0.12532979  0.00772241  0.94041796  1
  Nd3+  Nd45  1  0.63050511  0.24690189  0.43527488  1
  Nd3+  Nd46  1  0.63544136  0.73810040  0.44114899  1
  Nd3+  Nd47  1  0.38740674  -0.00459337  0.44510423  1
  Nd3+  Nd48  1  0.00060326  0.38139056  0.05237169  1
  Nd3+  Nd49  1  0.25683425  0.11714186  0.56686988  1
  Nd3+  Nd50  1  0.49467627  0.62979191  0.06734012  1
  Nd3+  Nd51  1  0.62113238  0.51396702  0.93782747  1
  Sm3+  Sm52  1  0.38524028  0.24770665  0.45719371  1
  Sm3+  Sm53  1  0.74780249  0.13390345  0.06260242  1
  Sm3+  Sm54  1  0.49785147  0.38192609  0.04947624  1
  Sm3+  Sm55  1  0.63100143  0.49164329  0.44365595  1
  Sm3+  Sm56  1  0.00725581  0.11901072  0.54921139  1
  Sm3+  Sm57  1  0.49868764  0.88298538  0.05734631  1
  Sm3+  Sm58  1  0.87461088  0.00989804  0.94671283  1
  Sm3+  Sm59  1  0.62374569  0.75998041  0.94759405  1
  Sm3+  Sm60  1  0.89249860  0.49132978  0.43902124  1
  Sm3+  Sm61  1  0.49696149  0.13417311  0.05884969  1
  Sm3+  Sm62  1  0.76021286  0.36528425  0.55398434  1
  Sm3+  Sm63  1  0.01026178  0.86930681  0.55273140  1
  Bi2+  Bi64  1  0.03276853  0.14211820  0.28210720  1
  Bi2+  Bi65  1  -0.00548776  0.07673579  0.79328343  1
  Bi2+  Bi66  1  -0.00915249  0.42699014  0.28168019  1
  Bi2+  Bi67  1  -0.00696074  0.36514632  0.78337917  1
  Bi2+  Bi68  1  -0.03566754  0.69587129  0.30376432  1
  Bi2+  Bi69  1  -0.00698447  0.69366181  0.79432261  1
  Bi2+  Bi70  1  -0.01275410  0.89345520  0.26847814  1
  Bi2+  Bi71  1  0.04974644  0.88005293  0.80483113  1
  Bi2+  Bi72  1  0.24510186  0.15400054  0.30567636  1
  Bi2+  Bi73  1  0.26557344  0.02994398  0.78453487  1
  Bi2+  Bi74  1  0.24972136  0.35425960  0.27713218  1
  Bi2+  Bi75  1  0.24249781  0.40695965  0.78338205  1
  Bi2+  Bi76  1  0.19176779  0.59893035  0.31893803  1
  Bi2+  Bi77  1  0.25711623  0.69694741  0.79158544  1
  Bi2+  Bi78  1  0.30244787  0.88955295  0.28684261  1
  Bi2+  Bi79  1  0.24131432  0.87096697  0.84890270  1
  Bi2+  Bi80  1  0.43732866  0.11956120  0.28727757  1
  Bi2+  Bi81  1  0.54512141  0.08939620  0.79904919  1
  Bi2+  Bi82  1  0.45107164  0.38038549  0.29827479  1
  Bi2+  Bi83  1  0.50031404  0.37565129  0.78268525  1
  Bi2+  Bi84  1  0.49987892  0.62904960  0.28793059  1
  Bi2+  Bi85  1  0.51805407  0.61594030  0.80046283  1
  Bi2+  Bi86  1  0.50316111  0.86698241  0.28928472  1
  Bi2+  Bi87  1  0.47510925  0.87560468  0.79348226  1
  Bi2+  Bi88  1  0.72864311  0.10034293  0.28405757  1
  Bi2+  Bi89  1  0.74973248  0.14317081  0.81444765  1
  Bi2+  Bi90  1  0.71335463  0.48912991  0.31025236  1
  Bi2+  Bi91  1  0.74771979  0.33161483  0.79289887  1
  Bi2+  Bi92  1  0.77303028  0.67491314  0.32455610  1
  Bi2+  Bi93  1  0.75464149  0.69519740  0.78288418  1
  Bi2+  Bi94  1  0.69176522  0.84466783  0.25586512  1
  Bi2+  Bi95  1  0.75755122  0.89169885  0.79525822  1
  Bi2+  Bi96  1  0.15674676  -0.00430489  0.23568223  1
  Bi2+  Bi97  1  0.13249442  -0.02953482  0.70628207  1
  Bi2+  Bi98  1  0.16012079  0.23325439  0.21004614  1
  Bi2+  Bi99  1  0.09652279  0.22738483  0.69437481  1
  Bi2+  Bi100  1  0.10404451  0.48091914  0.19771153  1
  Bi2+  Bi101  1  0.10049578  0.52925987  0.69453720  1
  Bi2+  Bi102  1  0.10051226  0.76726801  0.21388691  1
  Bi2+  Bi103  1  0.12243338  0.76752494  0.71506886  1
  Bi2+  Bi104  1  0.34330771  0.01895161  0.19962090  1
  Bi2+  Bi105  1  0.42528396  0.00383419  0.70417466  1
  Bi2+  Bi106  1  0.46114531  0.26058258  0.20708699  1
  Bi2+  Bi107  1  0.38181852  0.19868778  0.71735152  1
  Bi2+  Bi108  1  0.36347018  0.48682532  0.20686019  1
  Bi2+  Bi109  1  0.36696308  0.53094173  0.69202331  1
  Bi2+  Bi110  1  0.37833776  0.76177033  0.21521208  1
  Bi2+  Bi111  1  0.37060541  0.79249455  0.71409015  1
  Bi2+  Bi112  1  0.54398569  0.00028897  0.20420938  1
  Bi2+  Bi113  1  0.61916422  0.00567819  0.69021817  1
  Bi2+  Bi114  1  0.63166311  0.31866260  0.26955767  1
  Bi2+  Bi115  1  0.65312867  0.22283471  0.71365796  1
  Bi2+  Bi116  1  0.61827946  0.48796279  0.20612045  1
  Bi2+  Bi117  1  0.67767884  0.49327924  0.71607463  1
  Bi2+  Bi118  1  0.62984403  0.67745520  0.19212886  1
  Bi2+  Bi119  1  0.61107571  0.81305906  0.71557745  1
  Bi2+  Bi120  1  0.87568430  0.00782106  0.18643123  1
  Bi2+  Bi121  1  0.83881557  0.02034974  0.71560410  1
  Bi2+  Bi122  1  0.87453224  0.26072699  0.19588098  1
  Bi2+  Bi123  1  0.86914319  0.21290013  0.72805573  1
  Bi2+  Bi124  1  0.84052955  0.49757648  0.21877139  1
  Bi2+  Bi125  1  0.85893092  0.55861659  0.72655927  1
  Bi2+  Bi126  1  0.82338775  0.71788214  0.21297846  1
  Bi2+  Bi127  1  0.88117906  0.82244155  0.71456186  1
  S2-  S128  1  -0.01272043  0.13218405  0.15809097  1
  S2-  S129  1  0.03628302  0.10440046  0.64706242  1
  S2-  S130  1  -0.00262040  0.37351592  0.15359335  1
  S2-  S131  1  0.01802214  0.38250046  0.66591266  1
  S2-  S132  1  0.08682383  0.63425068  0.15071762  1
  S2-  S133  1  -0.03407941  0.62251698  0.65651914  1
  S2-  S134  1  -0.00995135  0.87377633  0.15712663  1
  S2-  S135  1  0.01565356  0.86589979  0.65172419  1
  S2-  S136  1  0.27833062  0.16276543  0.15040104  1
  S2-  S137  1  0.24902499  0.21344985  0.65061829  1
  S2-  S138  1  0.24452593  0.44763713  0.13429956  1
  S2-  S139  1  0.22482878  0.43046136  0.67676818  1
  S2-  S140  1  0.23786429  0.58998171  0.22825955  1
  S2-  S141  1  0.23123571  0.63391713  0.66018999  1
  S2-  S142  1  0.23832419  0.78421827  0.15190291  1
  S2-  S143  1  0.26143371  0.89118395  0.65116309  1
  S2-  S144  1  0.55245268  0.14769108  0.15183272  1
  S2-  S145  1  0.52391393  0.21236527  0.65406206  1
  S2-  S146  1  0.49399822  0.40682433  0.14750204  1
  S2-  S147  1  0.41599638  0.37580340  0.68761553  1
  S2-  S148  1  0.39539667  0.62503841  0.14850475  1
  S2-  S149  1  0.53118189  0.53344591  0.66429080  1
  S2-  S150  1  0.48579000  0.86112550  0.15486567  1
  S2-  S151  1  0.49680362  0.75673570  0.64405242  1
  S2-  S152  1  0.77322153  0.13553615  0.16129590  1
  S2-  S153  1  0.74145226  0.10897619  0.64455746  1
  S2-  S154  1  0.76371382  0.37401680  0.15395499  1
  S2-  S155  1  0.69555843  0.36709221  0.64625088  1
  S2-  S156  1  0.87295247  0.60459777  0.14056533  1
  S2-  S157  1  0.73439340  0.61798873  0.65706675  1
  S2-  S158  1  0.74498875  0.91304744  0.15992778  1
  S2-  S159  1  0.74710721  0.85258859  0.64847273  1
  S2-  S160  1  0.08466239  -0.00619053  0.33752525  1
  S2-  S161  1  0.13461647  0.08839384  0.85094543  1
  S2-  S162  1  0.04801428  0.27040247  0.34636305  1
  S2-  S163  1  0.14434875  0.27751175  0.79341680  1
  S2-  S164  1  0.03897690  0.52779408  0.35808857  1
  S2-  S165  1  0.09683889  0.45814380  0.83146097  1
  S2-  S166  1  0.13777321  0.75288932  0.33717672  1
  S2-  S167  1  0.12857698  0.65822679  0.86064972  1
  S2-  S168  1  0.47648257  -0.00372963  0.35987340  1
  S2-  S169  1  0.38735302  0.08586868  0.85128681  1
  S2-  S170  1  0.37252725  0.24248342  0.35760964  1
  S2-  S171  1  0.34277658  0.27106957  0.80034172  1
  S2-  S172  1  0.23594915  0.44257321  0.36322506  1
  S2-  S173  1  0.38839228  0.45813548  0.83167118  1
  S2-  S174  1  0.35941596  0.63168751  0.34692901  1
  S2-  S175  1  0.38697524  0.65473124  0.85925654  1
  S2-  S176  1  0.72354830  -0.04020772  0.33442404  1
  S2-  S177  1  0.61119594  -0.04570912  0.84915749  1
  S2-  S178  1  0.62551579  0.15302367  0.35033640  1
  S2-  S179  1  0.53943450  0.25597886  0.84706789  1
  S2-  S180  1  0.53768970  0.50541248  0.35847299  1
  S2-  S181  1  0.61166500  0.49132098  0.83749534  1
  S2-  S182  1  0.53280107  0.74433517  0.36068627  1
  S2-  S183  1  0.61807327  0.70457471  0.85432135  1
  S2-  S184  1  0.88773530  0.09818689  0.33025815  1
  S2-  S185  1  0.86259241  -0.00097805  0.84895477  1
  S2-  S186  1  0.80376762  0.25857551  0.28501237  1
  S2-  S187  1  0.96991582  0.22531301  0.84568367  1
  S2-  S188  1  0.86797062  0.41478495  0.35180415  1
  S2-  S189  1  0.86680209  0.40462421  0.84980122  1
  S2-  S190  1  0.90169015  0.84395608  0.35070743  1
  S2-  S191  1  0.86516620  0.64189654  0.86047748  1
  S2-  S192  1  0.00898199  0.12182042  0.44493370  1
  S2-  S193  1  -0.00088997  0.13080887  0.95402641  1
  S2-  S194  1  0.00728978  0.36518858  0.45684627  1
  S2-  S195  1  0.00671559  0.37782916  0.94686627  1
  S2-  S196  1  0.00837897  0.62089803  0.45878173  1
  S2-  S197  1  -0.00183870  0.63546392  0.95888956  1
  S2-  S198  1  0.01460568  0.86873863  0.44948120  1
  S2-  S199  1  -0.00241065  0.88410067  0.95117577  1
  S2-  S200  1  0.26163923  0.12010425  0.45854732  1
  S2-  S201  1  0.25137882  0.13676643  0.94898144  1
  S2-  S202  1  0.26341832  0.36561930  0.47026305  1
  S2-  S203  1  0.25187557  0.37483135  0.93484728  1
  S2-  S204  1  0.26228830  0.61516471  0.45625029  1
  S2-  S205  1  0.25039450  0.63416926  0.96169846  1
  S2-  S206  1  0.26259700  0.86971901  0.44528510  1
  S2-  S207  1  0.24833573  0.88495848  0.96485538  1
  S2-  S208  1  0.50692593  0.12399915  0.46159617  1
  S2-  S209  1  0.49949086  0.13145011  0.95488260  1
  S2-  S210  1  0.50670036  0.36813686  0.45274650  1
  S2-  S211  1  0.49855716  0.38357091  0.94603247  1
  S2-  S212  1  0.50866057  0.61380418  0.46437167  1
  S2-  S213  1  0.50250923  0.63668686  0.96157298  1
  S2-  S214  1  0.51053398  0.86839325  0.46028040  1
  S2-  S215  1  0.49820933  0.88199962  0.95275042  1
  S2-  S216  1  0.76681571  0.12674397  0.43976329  1
  S2-  S217  1  0.75124163  0.13228250  0.95515157  1
  S2-  S218  1  0.75742080  0.36792279  0.45026693  1
  S2-  S219  1  0.74297909  0.38473504  0.94964808  1
  S2-  S220  1  0.76083160  0.61097567  0.45341150  1
  S2-  S221  1  0.74407893  0.63500831  0.96236542  1
  S2-  S222  1  0.75422274  0.86779357  0.44668467  1
  S2-  S223  1  0.74995242  0.88283287  0.95504461  1
  S2-  S224  1  0.12517831  0.00797946  0.05049475  1
  S2-  S225  1  0.13323844  -0.00527390  0.54251415  1
  S2-  S226  1  0.12547255  0.25796735  0.04793040  1
  S2-  S227  1  0.13296748  0.23968948  0.54318030  1
  S2-  S228  1  0.12034743  0.50750556  0.03895358  1
  S2-  S229  1  0.13542166  0.49225606  0.55141501  1
  S2-  S230  1  0.12153551  0.75807423  0.04817149  1
  S2-  S231  1  0.13507448  0.74393180  0.54751186  1
  S2-  S232  1  0.37635674  0.00710228  0.04855587  1
  S2-  S233  1  0.38638069  -0.00491738  0.55167586  1
  S2-  S234  1  0.37775987  0.25901328  0.04458197  1
  S2-  S235  1  0.38963747  0.24091549  0.55864071  1
  S2-  S236  1  0.37876063  0.50464663  0.03776033  1
  S2-  S237  1  0.38687529  0.48999022  0.56605683  1
  S2-  S238  1  0.37681516  0.76040501  0.04801613  1
  S2-  S239  1  0.38082102  0.74535016  0.54041998  1
  S2-  S240  1  0.62290639  0.00983043  0.04967784  1
  S2-  S241  1  0.63405679  -0.00828805  0.53938377  1
  S2-  S242  1  0.62308593  0.25602504  0.04351622  1
  S2-  S243  1  0.63616435  0.24447754  0.54169174  1
  S2-  S244  1  0.62343237  0.50766029  0.04684530  1
  S2-  S245  1  0.63764493  0.49177993  0.54690373  1
  S2-  S246  1  0.62280194  0.75702110  0.05274196  1
  S2-  S247  1  0.63838289  0.74381751  0.54603282  1
  S2-  S248  1  0.87242974  0.00955000  0.05032632  1
  S2-  S249  1  0.88881016  -0.00750627  0.53898017  1
  S2-  S250  1  0.87209568  0.25588922  0.04014084  1
  S2-  S251  1  0.88411949  0.24245743  0.55613567  1
  S2-  S252  1  0.87193955  0.50176698  0.03832216  1
  S2-  S253  1  0.88418503  0.48970576  0.54763073  1
  S2-  S254  1  0.87033303  0.75894397  0.04670189  1
  S2-  S255  1  0.88695294  0.74563985  0.54386927  1
