# generated using pymatgen
data_La12Ce14Pr13Nd13Sm12(BiS2)64
_symmetry_space_group_name_H-M   'P 1'
_cell_length_a   16.05053710
_cell_length_b   16.16444013
_cell_length_c   27.28455021
_cell_angle_alpha   89.82405157
_cell_angle_beta   90.20372877
_cell_angle_gamma   90.13017806
_symmetry_Int_Tables_number   1
_chemical_formula_structural   La12Ce14Pr13Nd13Sm12(BiS2)64
_chemical_formula_sum   'La12 Ce14 Pr13 Nd13 Sm12 Bi64 S128'
_cell_volume   7078.82428323
_cell_formula_units_Z   1
loop_
 _symmetry_equiv_pos_site_id
 _symmetry_equiv_pos_as_xyz
  1  'x, y, z'
loop_
 _atom_type_symbol
 _atom_type_oxidation_number
  La3+  3.0
  Ce3+  3.0
  Pr3+  3.0
  Nd3+  3.0
  Sm3+  3.0
  Bi2+  2.0
  S2-  -2.0
loop_
 _atom_site_type_symbol
 _atom_site_label
 _atom_site_symmetry_multiplicity
 _atom_site_fract_x
 _atom_site_fract_y
 _atom_site_fract_z
 _atom_site_occupancy
  La3+  La0  1  0.13899502  0.51380595  0.37896628  1
  La3+  La1  1  0.72709409  0.36669640  0.05331496  1
  La3+  La2  1  0.03423412  0.11450911  0.57354569  1
  La3+  La3  1  -0.02411058  0.86742861  0.07667055  1
  La3+  La4  1  0.59414093  0.24492885  0.91481451  1
  La3+  La5  1  0.27146214  0.86107312  0.59499686  1
  La3+  La6  1  0.85988000  -0.00508621  0.92836404  1
  La3+  La7  1  0.85108744  0.24343620  0.89785707  1
  La3+  La8  1  0.02601480  0.36481379  0.55852827  1
  La3+  La9  1  0.01958608  0.86490922  0.57059237  1
  La3+  La10  1  0.85276207  0.49443135  0.92570484  1
  La3+  La11  1  0.59666331  0.50100591  0.90983323  1
  Ce3+  Ce12  1  0.64912254  0.48846563  0.44259483  1
  Ce3+  Ce13  1  0.14487341  -0.00415689  0.43693223  1
  Ce3+  Ce14  1  0.35126330  0.74824271  0.94048494  1
  Ce3+  Ce15  1  0.23248012  0.85560351  0.08580400  1
  Ce3+  Ce16  1  0.85581145  0.74386860  0.94425275  1
  Ce3+  Ce17  1  0.38961890  0.49004049  0.44092690  1
  Ce3+  Ce18  1  0.22978669  0.61957924  0.05794883  1
  Ce3+  Ce19  1  0.39365053  0.24125239  0.44231455  1
  Ce3+  Ce20  1  0.35060501  0.24634791  0.93879588  1
  Ce3+  Ce21  1  0.35055853  -0.00921357  0.94523778  1
  Ce3+  Ce22  1  0.52226880  0.61255891  0.56451549  1
  Ce3+  Ce23  1  0.22667620  0.36934087  0.06001855  1
  Ce3+  Ce24  1  0.14568495  0.74433022  0.44003267  1
  Ce3+  Ce25  1  0.76933632  0.86627144  0.57347111  1
  Pr3+  Pr26  1  0.48118465  0.61909554  0.05927400  1
  Pr3+  Pr27  1  -0.02976274  0.12347347  0.06725308  1
  Pr3+  Pr28  1  0.60117848  -0.00626018  0.93308358  1
  Pr3+  Pr29  1  0.64609542  -0.01078433  0.44335491  1
  Pr3+  Pr30  1  0.15273640  0.24421275  0.42255293  1
  Pr3+  Pr31  1  0.26846675  0.36390671  0.56693789  1
  Pr3+  Pr32  1  0.89885069  0.23939093  0.44168895  1
  Pr3+  Pr33  1  0.77744798  0.61338001  0.56545396  1
  Pr3+  Pr34  1  0.10036300  0.49444248  0.93139913  1
  Pr3+  Pr35  1  -0.02259558  0.61152225  0.07244200  1
  Pr3+  Pr36  1  0.22618184  0.11832893  0.05891796  1
  Pr3+  Pr37  1  0.27185494  0.61826117  0.56179264  1
  Pr3+  Pr38  1  0.52186367  0.36433590  0.56345605  1
  Nd3+  Nd39  1  0.52353330  0.86365586  0.57930086  1
  Nd3+  Nd40  1  0.02328055  0.61506363  0.55434154  1
  Nd3+  Nd41  1  0.89600098  0.74196505  0.43848206  1
  Nd3+  Nd42  1  0.89488723  -0.00723433  0.45212676  1
  Nd3+  Nd43  1  0.89260004  0.48637602  0.43031409  1
  Nd3+  Nd44  1  -0.02771971  0.36596751  0.06783196  1
  Nd3+  Nd45  1  0.60153147  0.74731254  0.93280516  1
  Nd3+  Nd46  1  0.39604320  0.74107508  0.44319926  1
  Nd3+  Nd47  1  0.72484742  0.11847422  0.05405012  1
  Nd3+  Nd48  1  0.77924951  0.36679355  0.57332737  1
  Nd3+  Nd49  1  0.64458636  0.73988717  0.44745963  1
  Nd3+  Nd50  1  0.72908498  0.86801619  0.06411677  1
  Nd3+  Nd51  1  0.48340052  0.36659049  0.06144010  1
  Sm3+  Sm52  1  0.35362447  0.49514026  0.94502985  1
  Sm3+  Sm53  1  0.09984479  -0.00738071  0.94803048  1
  Sm3+  Sm54  1  0.10177420  0.74382307  0.94949223  1
  Sm3+  Sm55  1  0.72803250  0.61522828  0.05051230  1
  Sm3+  Sm56  1  0.47854296  0.11719051  0.05741852  1
  Sm3+  Sm57  1  0.27238918  0.11131869  0.55827514  1
  Sm3+  Sm58  1  0.09855583  0.24466229  0.93930024  1
  Sm3+  Sm59  1  0.52060308  0.11405646  0.55897310  1
  Sm3+  Sm60  1  0.64698799  0.24167967  0.45069421  1
  Sm3+  Sm61  1  0.47990949  0.86965796  0.06809540  1
  Sm3+  Sm62  1  0.39676194  -0.01233777  0.44767458  1
  Sm3+  Sm63  1  0.77251846  0.11711834  0.57067952  1
  Bi2+  Bi64  1  0.02212408  0.13867387  0.27921351  1
  Bi2+  Bi65  1  -0.01546428  0.08970214  0.78887718  1
  Bi2+  Bi66  1  -0.00635299  0.38046311  0.28718644  1
  Bi2+  Bi67  1  0.02966884  0.36264853  0.79292167  1
  Bi2+  Bi68  1  0.02375890  0.65468852  0.28223387  1
  Bi2+  Bi69  1  0.00552746  0.63264534  0.79381995  1
  Bi2+  Bi70  1  0.04433364  0.89219544  0.25439937  1
  Bi2+  Bi71  1  0.06836121  0.86527608  0.78751880  1
  Bi2+  Bi72  1  0.33325337  0.10430579  0.28796460  1
  Bi2+  Bi73  1  0.21112055  0.10893726  0.79428355  1
  Bi2+  Bi74  1  0.37900845  0.36542223  0.29490539  1
  Bi2+  Bi75  1  0.22026216  0.31889930  0.83192165  1
  Bi2+  Bi76  1  0.37769530  0.62344223  0.28041754  1
  Bi2+  Bi77  1  0.20791214  0.51297945  0.81062210  1
  Bi2+  Bi78  1  0.20660285  0.95308599  0.30943122  1
  Bi2+  Bi79  1  0.25938269  0.91704954  0.79001942  1
  Bi2+  Bi80  1  0.51205364  0.19266116  0.28127853  1
  Bi2+  Bi81  1  0.40285047  0.14757098  0.76569361  1
  Bi2+  Bi82  1  0.54458761  0.46085025  0.32635602  1
  Bi2+  Bi83  1  0.41925310  0.37338227  0.79650948  1
  Bi2+  Bi84  1  0.56331057  0.65860544  0.31606487  1
  Bi2+  Bi85  1  0.46284540  0.62847316  0.78371328  1
  Bi2+  Bi86  1  0.46882999  0.89042421  0.28307199  1
  Bi2+  Bi87  1  0.54379567  0.88496201  0.81716782  1
  Bi2+  Bi88  1  0.78401540  0.14466324  0.32341531  1
  Bi2+  Bi89  1  0.70502345  0.10562994  0.77470132  1
  Bi2+  Bi90  1  0.71915017  0.37504123  0.29114357  1
  Bi2+  Bi91  1  0.69893450  0.37613992  0.77612716  1
  Bi2+  Bi92  1  0.73116487  0.62957667  0.25400171  1
  Bi2+  Bi93  1  0.73649611  0.63698636  0.78884006  1
  Bi2+  Bi94  1  0.80132364  0.88750524  0.32688743  1
  Bi2+  Bi95  1  0.74173528  0.87232975  0.79802551  1
  Bi2+  Bi96  1  0.14565929  0.04935284  0.20374804  1
  Bi2+  Bi97  1  0.05234576  -0.00018526  0.69603398  1
  Bi2+  Bi98  1  0.14616882  0.24680772  0.21219412  1
  Bi2+  Bi99  1  0.15716245  0.25777857  0.72489532  1
  Bi2+  Bi100  1  0.16311941  0.54628173  0.17937252  1
  Bi2+  Bi101  1  0.12559412  0.49070878  0.70511519  1
  Bi2+  Bi102  1  0.22337134  0.82739237  0.22275871  1
  Bi2+  Bi103  1  0.11286332  0.68668663  0.68838126  1
  Bi2+  Bi104  1  0.44144023  0.02690333  0.20219970  1
  Bi2+  Bi105  1  0.30577877  0.02207803  0.69654387  1
  Bi2+  Bi106  1  0.44937577  0.30258528  0.19084521  1
  Bi2+  Bi107  1  0.34340350  0.30016329  0.68868216  1
  Bi2+  Bi108  1  0.38966453  0.48962927  0.19885673  1
  Bi2+  Bi109  1  0.31916852  0.49821464  0.71169940  1
  Bi2+  Bi110  1  0.48470145  0.75558048  0.19964384  1
  Bi2+  Bi111  1  0.27238838  0.69669221  0.75794671  1
  Bi2+  Bi112  1  0.70198974  0.04358923  0.23995479  1
  Bi2+  Bi113  1  0.53438207  -0.04109840  0.71336300  1
  Bi2+  Bi114  1  0.64197698  0.22664816  0.19929136  1
  Bi2+  Bi115  1  0.53157058  0.25533987  0.70202158  1
  Bi2+  Bi116  1  0.60675337  0.47636056  0.21713133  1
  Bi2+  Bi117  1  0.59210815  0.53623699  0.70642856  1
  Bi2+  Bi118  1  0.64993886  0.85161246  0.23270328  1
  Bi2+  Bi119  1  0.61098444  0.77108264  0.72710737  1
  Bi2+  Bi120  1  0.89677666  0.02472586  0.21751460  1
  Bi2+  Bi121  1  0.84152942  -0.02543222  0.71436429  1
  Bi2+  Bi122  1  0.87458746  0.24464967  0.20092076  1
  Bi2+  Bi123  1  0.85414722  0.25333675  0.70131441  1
  Bi2+  Bi124  1  0.86996245  0.51533288  0.19524993  1
  Bi2+  Bi125  1  0.86390757  0.50979313  0.69827624  1
  Bi2+  Bi126  1  0.85421525  0.76308181  0.21375175  1
  Bi2+  Bi127  1  0.89722252  0.79153732  0.74287663  1
  S2-  S128  1  0.00848938  0.24390165  0.14400823  1
  S2-  S129  1  -0.03210659  0.15566646  0.66625667  1
  S2-  S130  1  0.01091476  0.48194972  0.14298272  1
  S2-  S131  1  -0.08101407  0.37809185  0.64193338  1
  S2-  S132  1  -0.02428746  0.68157170  0.17118802  1
  S2-  S133  1  -0.04427950  0.61266039  0.64789442  1
  S2-  S134  1  0.10227046  0.87541523  0.15231493  1
  S2-  S135  1  -0.11190081  0.84909417  0.64629625  1
  S2-  S136  1  0.25990929  0.15054603  0.15670061  1
  S2-  S137  1  0.17999211  0.10039617  0.64133228  1
  S2-  S138  1  0.21168829  0.38028818  0.15851612  1
  S2-  S139  1  0.14084882  0.35079914  0.64069885  1
  S2-  S140  1  0.23698868  0.69639326  0.14784055  1
  S2-  S141  1  0.27360027  0.70610109  0.65014699  1
  S2-  S142  1  0.36910618  0.88233791  0.15068305  1
  S2-  S143  1  0.12365988  0.86201807  0.65425981  1
  S2-  S144  1  0.56492849  0.09770322  0.14289128  1
  S2-  S145  1  0.52329344  0.10692760  0.65684115  1
  S2-  S146  1  0.60807785  0.36578002  0.13447088  1
  S2-  S147  1  0.51060742  0.42147857  0.65847093  1
  S2-  S148  1  0.51269939  0.59868849  0.15810150  1
  S2-  S149  1  0.51389079  0.66577710  0.65743189  1
  S2-  S150  1  0.60545172  0.85090508  0.13692613  1
  S2-  S151  1  0.41149289  0.88396820  0.65733265  1
  S2-  S152  1  0.83142339  0.11620084  0.13696491  1
  S2-  S153  1  0.75327840  0.11686232  0.66945252  1
  S2-  S154  1  0.83071918  0.37636465  0.14213485  1
  S2-  S155  1  0.72393321  0.36192240  0.67007732  1
  S2-  S156  1  0.75451115  0.61302737  0.14877241  1
  S2-  S157  1  0.74472428  0.60680680  0.66572690  1
  S2-  S158  1  0.84228897  0.88049670  0.14420736  1
  S2-  S159  1  0.65316794  0.87580250  0.64894222  1
  S2-  S160  1  0.12532078  0.10213706  0.35819930  1
  S2-  S161  1  0.00907524  -0.02942301  0.86326203  1
  S2-  S162  1  0.11983286  0.34871101  0.34109351  1
  S2-  S163  1  0.01491096  0.21971331  0.85359385  1
  S2-  S164  1  0.13368725  0.52394828  0.26948677  1
  S2-  S165  1  -0.01595317  0.50193098  0.85392179  1
  S2-  S166  1  0.13818924  0.68721692  0.34713130  1
  S2-  S167  1  0.10642197  0.73006093  0.85011953  1
  S2-  S168  1  0.43516029  0.00978958  0.35239201  1
  S2-  S169  1  0.38833168  -0.03694117  0.85145993  1
  S2-  S170  1  0.30986920  0.24016386  0.35622573  1
  S2-  S171  1  0.43811689  0.22776928  0.85470026  1
  S2-  S172  1  0.31318908  0.50376886  0.35186415  1
  S2-  S173  1  0.42375040  0.51200399  0.85570097  1
  S2-  S174  1  0.39681775  0.75472800  0.34270313  1
  S2-  S175  1  0.36086445  0.73315671  0.84239955  1
  S2-  S176  1  0.67653367  0.01597782  0.34581235  1
  S2-  S177  1  0.59429001  0.05738735  0.83746274  1
  S2-  S178  1  0.64508739  0.24600127  0.35171862  1
  S2-  S179  1  0.70508195  0.23717028  0.83459053  1
  S2-  S180  1  0.75224402  0.48355253  0.36320152  1
  S2-  S181  1  0.57428130  0.37844096  0.83897743  1
  S2-  S182  1  0.66578738  0.78553649  0.35229745  1
  S2-  S183  1  0.59671706  0.65199720  0.84820985  1
  S2-  S184  1  0.90185942  0.02080078  0.35375381  1
  S2-  S185  1  0.84013544  0.08880695  0.84176287  1
  S2-  S186  1  0.88663349  0.28921797  0.34422820  1
  S2-  S187  1  0.86902383  0.33019356  0.79841223  1
  S2-  S188  1  0.96655731  0.52141741  0.34047388  1
  S2-  S189  1  0.74457287  0.50045120  0.84187882  1
  S2-  S190  1  0.90571125  0.75743220  0.33854815  1
  S2-  S191  1  0.86666827  0.69834748  0.84986719  1
  S2-  S192  1  0.02038979  0.11519857  0.46347226  1
  S2-  S193  1  -0.01899036  0.11883459  0.95953233  1
  S2-  S194  1  0.01995788  0.36720994  0.45124098  1
  S2-  S195  1  -0.02312191  0.36485606  0.95186563  1
  S2-  S196  1  0.02035915  0.61698315  0.44980663  1
  S2-  S197  1  -0.01961973  0.62133595  0.96047103  1
  S2-  S198  1  0.01946048  0.86869490  0.45439692  1
  S2-  S199  1  -0.01942659  0.86404272  0.96527629  1
  S2-  S200  1  0.27574510  0.11071649  0.45538791  1
  S2-  S201  1  0.22487333  0.11744717  0.95010336  1
  S2-  S202  1  0.27375839  0.36464165  0.45989274  1
  S2-  S203  1  0.22749921  0.37151089  0.95404374  1
  S2-  S204  1  0.26923345  0.61955039  0.45503459  1
  S2-  S205  1  0.22909750  0.61980688  0.95088403  1
  S2-  S206  1  0.27278583  0.86770818  0.44577497  1
  S2-  S207  1  0.22348111  0.86920884  0.95696623  1
  S2-  S208  1  0.52193462  0.11726796  0.45445159  1
  S2-  S209  1  0.47383448  0.11468780  0.95468120  1
  S2-  S210  1  0.52106333  0.36378215  0.45648077  1
  S2-  S211  1  0.47386219  0.37167253  0.95614544  1
  S2-  S212  1  0.51994959  0.61366401  0.45634542  1
  S2-  S213  1  0.47452176  0.62429468  0.95420799  1
  S2-  S214  1  0.52118525  0.86578014  0.45968175  1
  S2-  S215  1  0.47769663  0.86823793  0.96069812  1
  S2-  S216  1  0.76873194  0.11734679  0.46382234  1
  S2-  S217  1  0.72680012  0.11857279  0.94907853  1
  S2-  S218  1  0.77038865  0.36021993  0.46450001  1
  S2-  S219  1  0.72809881  0.36556510  0.94308815  1
  S2-  S220  1  0.77138760  0.61941484  0.45652301  1
  S2-  S221  1  0.72637030  0.62331912  0.94872061  1
  S2-  S222  1  0.77118243  0.86568307  0.46427637  1
  S2-  S223  1  0.72890277  0.86836431  0.95001715  1
  S2-  S224  1  0.10021751  -0.00367443  0.05122607  1
  S2-  S225  1  0.15458748  -0.01835911  0.54262154  1
  S2-  S226  1  0.10521094  0.24494983  0.04226187  1
  S2-  S227  1  0.15282862  0.23584633  0.53635757  1
  S2-  S228  1  0.10668102  0.49357995  0.03848244  1
  S2-  S229  1  0.14816459  0.49604557  0.55205940  1
  S2-  S230  1  0.10197226  0.74015143  0.05179064  1
  S2-  S231  1  0.14683941  0.74257416  0.54434540  1
  S2-  S232  1  0.35236588  -0.00643452  0.04975374  1
  S2-  S233  1  0.39690074  -0.01067666  0.55107592  1
  S2-  S234  1  0.35580123  0.24363776  0.04664490  1
  S2-  S235  1  0.39604612  0.23655485  0.55073322  1
  S2-  S236  1  0.35540237  0.49223528  0.05022318  1
  S2-  S237  1  0.39447482  0.48986083  0.54987606  1
  S2-  S238  1  0.35707855  0.74423287  0.04600447  1
  S2-  S239  1  0.39968289  0.74500346  0.54819371  1
  S2-  S240  1  0.60100299  -0.00956641  0.03965948  1
  S2-  S241  1  0.64572031  -0.00392133  0.55035652  1
  S2-  S242  1  0.59882940  0.23785701  0.03465507  1
  S2-  S243  1  0.64656046  0.23800257  0.55575783  1
  S2-  S244  1  0.60275158  0.49722340  0.03657244  1
  S2-  S245  1  0.64921638  0.48849575  0.55043987  1
  S2-  S246  1  0.60621057  0.74102388  0.03853185  1
  S2-  S247  1  0.64696489  0.73704337  0.55251172  1
  S2-  S248  1  0.85080920  -0.00786286  0.03741934  1
  S2-  S249  1  0.89554805  -0.00317806  0.55747808  1
  S2-  S250  1  0.84962393  0.24359718  0.03836994  1
  S2-  S251  1  0.89545890  0.23540349  0.54871184  1
  S2-  S252  1  0.85264115  0.49610294  0.03665901  1
  S2-  S253  1  0.89720494  0.49209762  0.53805805  1
  S2-  S254  1  0.85164250  0.73854757  0.04830928  1
  S2-  S255  1  0.89592419  0.74000523  0.54372631  1
