# generated using pymatgen
data_La12Ce14Pr13Nd13Sm12(BiS2)64
_symmetry_space_group_name_H-M   'P 1'
_cell_length_a   16.13349007
_cell_length_b   16.08674279
_cell_length_c   27.28534403
_cell_angle_alpha   90.29869425
_cell_angle_beta   89.98766086
_cell_angle_gamma   89.99410856
_symmetry_Int_Tables_number   1
_chemical_formula_structural   La12Ce14Pr13Nd13Sm12(BiS2)64
_chemical_formula_sum   'La12 Ce14 Pr13 Nd13 Sm12 Bi64 S128'
_cell_volume   7081.41365653
_cell_formula_units_Z   1
loop_
 _symmetry_equiv_pos_site_id
 _symmetry_equiv_pos_as_xyz
  1  'x, y, z'
loop_
 _atom_type_symbol
 _atom_type_oxidation_number
  La3+  3.0
  Ce3+  3.0
  Pr3+  3.0
  Nd3+  3.0
  Sm3+  3.0
  Bi2+  2.0
  S2-  -2.0
loop_
 _atom_site_type_symbol
 _atom_site_label
 _atom_site_symmetry_multiplicity
 _atom_site_fract_x
 _atom_site_fract_y
 _atom_site_fract_z
 _atom_site_occupancy
  La3+  La0  1  0.50034242  0.63721849  0.10160283  1
  La3+  La1  1  0.61625814  0.50898338  0.92732446  1
  La3+  La2  1  0.25107727  0.13423721  0.08138451  1
  La3+  La3  1  0.00141141  0.63652338  0.07486168  1
  La3+  La4  1  0.48574207  0.89775923  0.56972736  1
  La3+  La5  1  -0.00111175  0.13489742  0.07068021  1
  La3+  La6  1  0.12435638  0.24454702  0.92393814  1
  La3+  La7  1  0.35678444  0.76319014  0.41809733  1
  La3+  La8  1  0.36944462  0.76111933  0.91980739  1
  La3+  La9  1  0.73639479  0.88202367  0.57079809  1
  La3+  La10  1  0.75163172  0.62916307  0.06465748  1
  La3+  La11  1  0.36472393  0.01661767  0.41767149  1
  Ce3+  Ce12  1  -0.01276640  0.14229734  0.56300146  1
  Ce3+  Ce13  1  0.12682131  0.50761052  0.94560131  1
  Ce3+  Ce14  1  0.37714030  0.50779381  0.94435286  1
  Ce3+  Ce15  1  0.00059919  0.38324386  0.05308225  1
  Ce3+  Ce16  1  0.25076564  0.37943393  0.05621403  1
  Ce3+  Ce17  1  0.75133812  0.38518380  0.05101374  1
  Ce3+  Ce18  1  0.12675146  0.00848471  0.94886401  1
  Ce3+  Ce19  1  0.73873531  0.63577407  0.56233923  1
  Ce3+  Ce20  1  0.23681207  0.38693869  0.55577640  1
  Ce3+  Ce21  1  0.25637791  0.88192900  0.06504136  1
  Ce3+  Ce22  1  0.87765727  -0.00021702  0.93776993  1
  Ce3+  Ce23  1  0.86303480  0.76248302  0.43059796  1
  Ce3+  Ce24  1  0.87691431  0.26201075  0.92580390  1
  Ce3+  Ce25  1  0.61134605  0.76295199  0.44276296  1
  Pr3+  Pr26  1  0.50211243  0.38325383  0.06481451  1
  Pr3+  Pr27  1  0.62566752  0.00215756  0.93613282  1
  Pr3+  Pr28  1  0.86031024  0.01409189  0.44548031  1
  Pr3+  Pr29  1  0.36226024  0.51262642  0.43909350  1
  Pr3+  Pr30  1  -0.01130026  0.39686375  0.60295985  1
  Pr3+  Pr31  1  0.24320230  0.89050251  0.56067623  1
  Pr3+  Pr32  1  0.73728314  0.14245611  0.55751044  1
  Pr3+  Pr33  1  0.73776493  0.39549627  0.57934975  1
  Pr3+  Pr34  1  0.47698121  0.64336738  0.56780949  1
  Pr3+  Pr35  1  0.61233512  0.26682312  0.43233613  1
  Pr3+  Pr36  1  0.10576727  0.76479781  0.42818829  1
  Pr3+  Pr37  1  0.48605010  0.38622425  0.57285829  1
  Pr3+  Pr38  1  -0.01171529  0.64656703  0.56694668  1
  Nd3+  Nd39  1  0.61161708  0.51347470  0.44308447  1
  Nd3+  Nd40  1  0.62740393  0.25637178  0.93993729  1
  Nd3+  Nd41  1  0.62194843  0.75428384  0.94152873  1
  Nd3+  Nd42  1  0.25555426  0.63937742  0.06858550  1
  Nd3+  Nd43  1  0.36774607  0.26417250  0.43237066  1
  Nd3+  Nd44  1  0.11341259  0.01540170  0.44543410  1
  Nd3+  Nd45  1  0.88187081  0.51063110  0.92645276  1
  Nd3+  Nd46  1  0.10987476  0.26271854  0.44048809  1
  Nd3+  Nd47  1  0.86399201  0.51229443  0.44120747  1
  Nd3+  Nd48  1  0.50293595  0.12924349  0.06060627  1
  Nd3+  Nd49  1  0.75215834  0.12956898  0.04828656  1
  Nd3+  Nd50  1  0.12712783  0.75534059  0.93883775  1
  Nd3+  Nd51  1  0.37594578  0.25382781  0.93790553  1
  Sm3+  Sm52  1  0.10961929  0.51140330  0.44624176  1
  Sm3+  Sm53  1  0.86268208  0.26705513  0.44770301  1
  Sm3+  Sm54  1  0.00083021  0.87877265  0.06133730  1
  Sm3+  Sm55  1  0.37047212  0.01347046  0.93494031  1
  Sm3+  Sm56  1  0.87572707  0.75408769  0.93687480  1
  Sm3+  Sm57  1  0.61159779  0.01077535  0.43441831  1
  Sm3+  Sm58  1  0.48785708  0.13907844  0.55554750  1
  Sm3+  Sm59  1  0.74918444  0.87851574  0.05965111  1
  Sm3+  Sm60  1  0.23603789  0.64352952  0.55418844  1
  Sm3+  Sm61  1  0.49900533  0.87839483  0.05905522  1
  Sm3+  Sm62  1  0.23774330  0.14149693  0.55893423  1
  Sm3+  Sm63  1  -0.01046778  0.88716543  0.56146092  1
  Bi2+  Bi64  1  -0.01391667  0.12404027  0.31435161  1
  Bi2+  Bi65  1  0.01871636  0.06689936  0.74456682  1
  Bi2+  Bi66  1  0.01813871  0.43116650  0.29259644  1
  Bi2+  Bi67  1  0.01222567  0.36498985  0.80186010  1
  Bi2+  Bi68  1  0.00381874  0.63148811  0.30582956  1
  Bi2+  Bi69  1  0.05531371  0.66480408  0.80999550  1
  Bi2+  Bi70  1  -0.10713104  0.94088181  0.23822604  1
  Bi2+  Bi71  1  0.01731475  0.90629704  0.80937679  1
  Bi2+  Bi72  1  0.22360405  0.08927982  0.29461439  1
  Bi2+  Bi73  1  0.24937289  0.14630005  0.79634136  1
  Bi2+  Bi74  1  0.22179504  0.33390586  0.27808955  1
  Bi2+  Bi75  1  0.26980322  0.42464246  0.78300972  1
  Bi2+  Bi76  1  0.26262362  0.61383263  0.29719055  1
  Bi2+  Bi77  1  0.30014947  0.60262776  0.74371933  1
  Bi2+  Bi78  1  0.16985515  0.87560896  0.27866357  1
  Bi2+  Bi79  1  0.19062799  0.82849137  0.77379977  1
  Bi2+  Bi80  1  0.47915277  0.16553392  0.29739553  1
  Bi2+  Bi81  1  0.47415279  0.09986012  0.73954425  1
  Bi2+  Bi82  1  0.40423672  0.37490519  0.23881937  1
  Bi2+  Bi83  1  0.44173475  0.34204944  0.80291457  1
  Bi2+  Bi84  1  0.50872247  0.60332957  0.31212299  1
  Bi2+  Bi85  1  0.53829140  0.59001898  0.78738882  1
  Bi2+  Bi86  1  0.53661362  0.90942391  0.27103560  1
  Bi2+  Bi87  1  0.52654870  0.85826301  0.80824243  1
  Bi2+  Bi88  1  0.69287651  0.13961956  0.30492689  1
  Bi2+  Bi89  1  0.83149120  0.10274592  0.80479203  1
  Bi2+  Bi90  1  0.66538393  0.33763568  0.30718414  1
  Bi2+  Bi91  1  0.73796866  0.28256212  0.80630220  1
  Bi2+  Bi92  1  0.77089623  0.73996971  0.30067054  1
  Bi2+  Bi93  1  0.78586167  0.66356471  0.78240215  1
  Bi2+  Bi94  1  0.72560264  0.93524811  0.30742719  1
  Bi2+  Bi95  1  0.74015094  0.92738320  0.80064071  1
  Bi2+  Bi96  1  0.06791657  -0.00408392  0.20494774  1
  Bi2+  Bi97  1  0.16889003  -0.02639603  0.69328090  1
  Bi2+  Bi98  1  0.06664171  0.26004769  0.22117286  1
  Bi2+  Bi99  1  0.15505331  0.24539505  0.69039976  1
  Bi2+  Bi100  1  0.07165103  0.53707926  0.19206357  1
  Bi2+  Bi101  1  0.11258357  0.55526430  0.71819909  1
  Bi2+  Bi102  1  0.12252522  0.72155910  0.21624063  1
  Bi2+  Bi103  1  0.16717819  0.72537353  0.67373258  1
  Bi2+  Bi104  1  0.37366682  -0.01155299  0.21982508  1
  Bi2+  Bi105  1  0.33026858  -0.02971922  0.76166627  1
  Bi2+  Bi106  1  0.34874596  0.19457972  0.20797940  1
  Bi2+  Bi107  1  0.41236753  0.27065074  0.69352287  1
  Bi2+  Bi108  1  0.25018957  0.46112012  0.19072671  1
  Bi2+  Bi109  1  0.43872684  0.46476378  0.70818038  1
  Bi2+  Bi110  1  0.36407138  0.73862180  0.21114955  1
  Bi2+  Bi111  1  0.41020030  0.75613578  0.69944149  1
  Bi2+  Bi112  1  0.63355704  0.03932310  0.20601738  1
  Bi2+  Bi113  1  0.63561146  0.01531597  0.70138454  1
  Bi2+  Bi114  1  0.64417164  0.23975942  0.20731300  1
  Bi2+  Bi115  1  0.61604706  0.23891505  0.71523441  1
  Bi2+  Bi116  1  0.63598273  0.49074305  0.20888465  1
  Bi2+  Bi117  1  0.65889288  0.45964102  0.73546129  1
  Bi2+  Bi118  1  0.63604423  0.77062700  0.21240907  1
  Bi2+  Bi119  1  0.66596529  0.75484314  0.70907475  1
  Bi2+  Bi120  1  0.90823000  0.12416520  0.19665069  1
  Bi2+  Bi121  1  0.87164924  -0.05069445  0.71145546  1
  Bi2+  Bi122  1  0.83696568  0.28931440  0.25704660  1
  Bi2+  Bi123  1  0.85865381  0.22882177  0.71974597  1
  Bi2+  Bi124  1  0.88376024  0.47005544  0.20459230  1
  Bi2+  Bi125  1  0.84731588  0.51033992  0.71836135  1
  Bi2+  Bi126  1  0.87921725  0.74751901  0.20713032  1
  Bi2+  Bi127  1  0.93806978  0.76983607  0.73664461  1
  S2-  S128  1  0.10986847  0.13879976  0.15091311  1
  S2-  S129  1  0.00716286  0.18027164  0.65704308  1
  S2-  S130  1  -0.00329605  0.35690396  0.15032355  1
  S2-  S131  1  0.06364297  0.37845924  0.69812442  1
  S2-  S132  1  -0.12999138  0.61304388  0.14366510  1
  S2-  S133  1  -0.02689702  0.55346829  0.65230889  1
  S2-  S134  1  0.00745242  0.78145971  0.14230022  1
  S2-  S135  1  0.00789118  0.78134258  0.63830447  1
  S2-  S136  1  0.27396381  -0.00873624  0.14544794  1
  S2-  S137  1  0.25499262  0.10671448  0.65502367  1
  S2-  S138  1  0.26129224  0.29172696  0.13940265  1
  S2-  S139  1  0.26883420  0.35532800  0.64916887  1
  S2-  S140  1  0.34674021  0.60507165  0.15307087  1
  S2-  S141  1  0.33461375  0.64561794  0.63535442  1
  S2-  S142  1  0.24561436  0.77346617  0.14443092  1
  S2-  S143  1  0.35774858  0.87415683  0.63918020  1
  S2-  S144  1  0.48068677  0.09775922  0.15795122  1
  S2-  S145  1  0.49548614  0.05214444  0.63976192  1
  S2-  S146  1  0.52426344  0.37273056  0.16567237  1
  S2-  S147  1  0.60833323  0.36311289  0.64637382  1
  S2-  S148  1  0.50502068  0.58379255  0.21595480  1
  S2-  S149  1  0.54174515  0.66583167  0.66443903  1
  S2-  S150  1  0.49232143  0.80034067  0.14954096  1
  S2-  S151  1  0.61070676  0.88182788  0.64710950  1
  S2-  S152  1  0.74843705  0.13261676  0.14748811  1
  S2-  S153  1  0.73920469  0.14219380  0.65811704  1
  S2-  S154  1  0.75639401  0.40501416  0.14872420  1
  S2-  S155  1  0.84819252  0.36229805  0.65984023  1
  S2-  S156  1  0.65631492  0.62888774  0.15133296  1
  S2-  S157  1  0.73209621  0.53865315  0.64635323  1
  S2-  S158  1  0.75267636  0.84898986  0.15664149  1
  S2-  S159  1  0.77243500  0.74830828  0.63667096  1
  S2-  S160  1  0.09763273  -0.00482254  0.34713853  1
  S2-  S161  1  0.14874729  0.08185048  0.86247264  1
  S2-  S162  1  0.12490092  0.22878527  0.34279374  1
  S2-  S163  1  0.18651956  0.30427117  0.82999344  1
  S2-  S164  1  0.13625469  0.52729535  0.34876938  1
  S2-  S165  1  0.07311141  0.50997592  0.85190262  1
  S2-  S166  1  0.21452113  0.75384312  0.35048938  1
  S2-  S167  1  0.22185468  0.73197824  0.85582026  1
  S2-  S168  1  0.30984535  -0.05074864  0.32212906  1
  S2-  S169  1  0.37935878  -0.08998236  0.85481055  1
  S2-  S170  1  0.33575231  0.15650288  0.35361610  1
  S2-  S171  1  0.36920209  0.13831305  0.86220590  1
  S2-  S172  1  0.37219765  0.50307585  0.33840271  1
  S2-  S173  1  0.46761970  0.49204935  0.86016076  1
  S2-  S174  1  0.40167560  0.73216191  0.31756651  1
  S2-  S175  1  0.45317288  0.71714246  0.82870633  1
  S2-  S176  1  0.51285358  0.01366303  0.35228590  1
  S2-  S177  1  0.60401949  0.01403350  0.83644750  1
  S2-  S178  1  0.49364355  0.29312038  0.35850582  1
  S2-  S179  1  0.57853542  0.26223763  0.84499745  1
  S2-  S180  1  0.64089199  0.49421333  0.34483989  1
  S2-  S181  1  0.68253245  0.52363547  0.83247496  1
  S2-  S182  1  0.62076273  0.72910736  0.34613903  1
  S2-  S183  1  0.66222352  0.77411965  0.84386420  1
  S2-  S184  1  0.87900202  0.00248230  0.34546922  1
  S2-  S185  1  0.87646982  -0.12087280  0.86444080  1
  S2-  S186  1  0.89025387  0.25100032  0.35063188  1
  S2-  S187  1  0.99058696  0.23093793  0.85316314  1
  S2-  S188  1  0.88888767  0.51950049  0.34092907  1
  S2-  S189  1  0.87258306  0.39384765  0.84851904  1
  S2-  S190  1  0.97556556  0.77214607  0.35621296  1
  S2-  S191  1  0.89064993  0.64434237  0.85903549  1
  S2-  S192  1  -0.01445968  0.13993837  0.45745341  1
  S2-  S193  1  -0.00538685  0.12537557  0.96129964  1
  S2-  S194  1  -0.01168276  0.38739188  0.44817198  1
  S2-  S195  1  0.00503186  0.38108806  0.95052935  1
  S2-  S196  1  -0.01094196  0.63461063  0.45764239  1
  S2-  S197  1  0.00467154  0.63418939  0.96301012  1
  S2-  S198  1  -0.01345519  0.89345738  0.45844476  1
  S2-  S199  1  0.00498698  0.87881049  0.95857092  1
  S2-  S200  1  0.23614012  0.14140560  0.45580854  1
  S2-  S201  1  0.25124139  0.13250736  0.96838506  1
  S2-  S202  1  0.23646002  0.38590370  0.44801685  1
  S2-  S203  1  0.25296504  0.38016081  0.94982992  1
  S2-  S204  1  0.23403653  0.63424967  0.45237526  1
  S2-  S205  1  0.25221739  0.62882523  0.96025263  1
  S2-  S206  1  0.23677505  0.89283486  0.45129047  1
  S2-  S207  1  0.24927116  0.88474017  0.95707024  1
  S2-  S208  1  0.49310832  0.13893300  0.45345840  1
  S2-  S209  1  0.50596687  0.12919540  0.95524871  1
  S2-  S210  1  0.48820462  0.39154864  0.46414378  1
  S2-  S211  1  0.49994378  0.37551804  0.95834939  1
  S2-  S212  1  0.48465948  0.63817435  0.45219757  1
  S2-  S213  1  0.49564754  0.63675155  0.94981051  1
  S2-  S214  1  0.48693389  0.88818721  0.45036573  1
  S2-  S215  1  0.50007548  0.88260024  0.95492299  1
  S2-  S216  1  0.73727262  0.14085272  0.45029266  1
  S2-  S217  1  0.75280360  0.12893210  0.94316731  1
  S2-  S218  1  0.73883477  0.38899624  0.45729514  1
  S2-  S219  1  0.74688331  0.38616925  0.94771101  1
  S2-  S220  1  0.73928711  0.63693151  0.45276831  1
  S2-  S221  1  0.74874720  0.63220208  0.95388420  1
  S2-  S222  1  0.73624653  0.88802109  0.45424157  1
  S2-  S223  1  0.74849513  0.87826306  0.95731311  1
  S2-  S224  1  0.12210294  0.00250621  0.05225054  1
  S2-  S225  1  0.11191828  0.01484586  0.55199851  1
  S2-  S226  1  0.12300411  0.25859593  0.03996764  1
  S2-  S227  1  0.10936240  0.26755999  0.54849804  1
  S2-  S228  1  0.12926703  0.50882735  0.05178851  1
  S2-  S229  1  0.11433331  0.51418901  0.55160222  1
  S2-  S230  1  0.12775360  0.75866866  0.04285024  1
  S2-  S231  1  0.11737611  0.76880772  0.53574717  1
  S2-  S232  1  0.38249538  0.00607004  0.04211319  1
  S2-  S233  1  0.36010996  0.02157256  0.53601303  1
  S2-  S234  1  0.38247036  0.25402134  0.04408344  1
  S2-  S235  1  0.36355877  0.26072881  0.54188555  1
  S2-  S236  1  0.37853735  0.50611535  0.04879638  1
  S2-  S237  1  0.35997440  0.50978257  0.54548091  1
  S2-  S238  1  0.38070884  0.75619403  0.04234129  1
  S2-  S239  1  0.35953893  0.76431253  0.53080319  1
  S2-  S240  1  0.62638240  0.00223600  0.04653184  1
  S2-  S241  1  0.61712057  0.01543029  0.53826201  1
  S2-  S242  1  0.62734680  0.25504556  0.04708284  1
  S2-  S243  1  0.61067083  0.26178086  0.54133489  1
  S2-  S244  1  0.61948790  0.50914717  0.04324203  1
  S2-  S245  1  0.60303298  0.51637101  0.54910465  1
  S2-  S246  1  0.62342311  0.75745697  0.04714975  1
  S2-  S247  1  0.60694769  0.76009432  0.54506668  1
  S2-  S248  1  0.87562987  0.00138639  0.04967058  1
  S2-  S249  1  0.86383123  0.01167369  0.55383119  1
  S2-  S250  1  0.87364311  0.25714673  0.04115257  1
  S2-  S251  1  0.86513128  0.26827311  0.55091631  1
  S2-  S252  1  0.87844471  0.50494093  0.03623538  1
  S2-  S253  1  0.86840908  0.50880663  0.54659648  1
  S2-  S254  1  0.87394283  0.76012590  0.04177430  1
  S2-  S255  1  0.86730094  0.76710662  0.53555553  1
