# generated using pymatgen
data_La12Ce14Pr13Nd13Sm12(BiS2)64
_symmetry_space_group_name_H-M   'P 1'
_cell_length_a   16.12734403
_cell_length_b   16.11197235
_cell_length_c   27.51235287
_cell_angle_alpha   89.74635941
_cell_angle_beta   90.11037934
_cell_angle_gamma   90.09247901
_symmetry_Int_Tables_number   1
_chemical_formula_structural   La12Ce14Pr13Nd13Sm12(BiS2)64
_chemical_formula_sum   'La12 Ce14 Pr13 Nd13 Sm12 Bi64 S128'
_cell_volume   7148.80860932
_cell_formula_units_Z   1
loop_
 _symmetry_equiv_pos_site_id
 _symmetry_equiv_pos_as_xyz
  1  'x, y, z'
loop_
 _atom_type_symbol
 _atom_type_oxidation_number
  La3+  3.0
  Ce3+  3.0
  Pr3+  3.0
  Nd3+  3.0
  Sm3+  3.0
  Bi2+  2.0
  S2-  -2.0
loop_
 _atom_site_type_symbol
 _atom_site_label
 _atom_site_symmetry_multiplicity
 _atom_site_fract_x
 _atom_site_fract_y
 _atom_site_fract_z
 _atom_site_occupancy
  La3+  La0  1  0.61635913  0.01299345  0.43195169  1
  La3+  La1  1  -0.01855973  0.62922556  0.60599394  1
  La3+  La2  1  -0.00991845  0.10427099  0.09998053  1
  La3+  La3  1  0.61591935  0.27165973  0.40614562  1
  La3+  La4  1  0.24633991  0.10971750  0.06104561  1
  La3+  La5  1  0.74556965  0.13542023  0.54572014  1
  La3+  La6  1  0.24972979  0.13200749  0.57455721  1
  La3+  La7  1  0.74645761  0.61173371  0.05628969  1
  La3+  La8  1  0.74612276  0.38847575  0.56335436  1
  La3+  La9  1  -0.00958464  0.89311697  0.57503111  1
  La3+  La10  1  0.87411776  -0.00066833  0.39838235  1
  La3+  La11  1  0.35268518  0.24769731  0.88628539  1
  Ce3+  Ce12  1  0.11660197  0.73910768  0.93698245  1
  Ce3+  Ce13  1  0.61768759  0.73476278  0.93518490  1
  Ce3+  Ce14  1  0.12203751  0.25938861  0.43447028  1
  Ce3+  Ce15  1  0.24026643  0.88697432  0.56355051  1
  Ce3+  Ce16  1  0.23666588  0.63535212  0.56554165  1
  Ce3+  Ce17  1  0.49606445  0.61114343  0.05694606  1
  Ce3+  Ce18  1  0.37525920  0.26473341  0.44779485  1
  Ce3+  Ce19  1  0.11379426  -0.01222532  0.93747531  1
  Ce3+  Ce20  1  0.49785344  0.10193291  0.07168281  1
  Ce3+  Ce21  1  -0.00273067  0.38680089  0.55490516  1
  Ce3+  Ce22  1  -0.00594500  0.13280791  0.54873428  1
  Ce3+  Ce23  1  0.87030007  0.50727168  0.43631044  1
  Ce3+  Ce24  1  0.74992837  0.86378289  0.05297800  1
  Ce3+  Ce25  1  0.24325716  0.61284355  0.05635320  1
  Pr3+  Pr26  1  0.49786294  0.35906468  0.06851153  1
  Pr3+  Pr27  1  0.49802455  0.38961862  0.57411542  1
  Pr3+  Pr28  1  0.11877642  0.76310878  0.44610466  1
  Pr3+  Pr29  1  0.12148796  0.01695692  0.43056808  1
  Pr3+  Pr30  1  0.74433727  0.10950386  0.07390413  1
  Pr3+  Pr31  1  0.12342247  0.50719723  0.43365175  1
  Pr3+  Pr32  1  0.49556236  0.63718031  0.57195950  1
  Pr3+  Pr33  1  0.24297059  0.35821852  0.06603592  1
  Pr3+  Pr34  1  0.24018286  0.38161582  0.57028416  1
  Pr3+  Pr35  1  0.62178661  0.76386964  0.43863749  1
  Pr3+  Pr36  1  -0.00557712  0.36283766  0.05807275  1
  Pr3+  Pr37  1  0.87494587  0.76137356  0.43947231  1
  Pr3+  Pr38  1  0.86753447  0.23475128  0.94676570  1
  Nd3+  Nd39  1  0.61374291  0.51616483  0.43661156  1
  Nd3+  Nd40  1  0.61584857  0.48390077  0.93722520  1
  Nd3+  Nd41  1  0.37220562  0.51081185  0.44988107  1
  Nd3+  Nd42  1  -0.00277882  0.61546600  0.06206489  1
  Nd3+  Nd43  1  0.49529007  0.88313198  0.56370727  1
  Nd3+  Nd44  1  0.49750751  0.86194890  0.05638487  1
  Nd3+  Nd45  1  0.37317454  0.01592488  0.44205055  1
  Nd3+  Nd46  1  0.36864110  0.76149275  0.44229486  1
  Nd3+  Nd47  1  0.24247506  0.86403221  0.05533457  1
  Nd3+  Nd48  1  0.61773784  -0.01050075  0.93915934  1
  Nd3+  Nd49  1  0.36985714  -0.00742322  0.93458358  1
  Nd3+  Nd50  1  0.86093682  -0.00945712  0.93278565  1
  Nd3+  Nd51  1  0.12158254  0.48503561  0.94003909  1
  Sm3+  Sm52  1  0.74592703  0.36041148  0.05468166  1
  Sm3+  Sm53  1  0.36892497  0.48206221  0.94841783  1
  Sm3+  Sm54  1  0.87030542  0.73629337  0.93409636  1
  Sm3+  Sm55  1  0.11973727  0.23453129  0.94914325  1
  Sm3+  Sm56  1  0.86894973  0.48525133  0.93843724  1
  Sm3+  Sm57  1  0.49893429  0.13408390  0.56790698  1
  Sm3+  Sm58  1  0.86840206  0.26713987  0.42805331  1
  Sm3+  Sm59  1  0.75002822  0.88666947  0.55615906  1
  Sm3+  Sm60  1  0.74993722  0.63765943  0.54955702  1
  Sm3+  Sm61  1  0.36857909  0.73756088  0.94599095  1
  Sm3+  Sm62  1  0.60962183  0.23534837  0.94215651  1
  Sm3+  Sm63  1  -0.00562798  0.86098011  0.06290926  1
  Bi2+  Bi64  1  0.02959493  0.10871000  0.28828916  1
  Bi2+  Bi65  1  -0.02587244  0.10975080  0.77229392  1
  Bi2+  Bi66  1  -0.01587152  0.38236027  0.29343953  1
  Bi2+  Bi67  1  -0.03767928  0.37764391  0.78503652  1
  Bi2+  Bi68  1  -0.00289502  0.58397515  0.30326157  1
  Bi2+  Bi69  1  0.00503061  0.62141736  0.80863113  1
  Bi2+  Bi70  1  0.00431843  0.78585540  0.28339229  1
  Bi2+  Bi71  1  0.02433253  0.86953124  0.80359050  1
  Bi2+  Bi72  1  0.28106320  0.12497428  0.29414245  1
  Bi2+  Bi73  1  0.22604727  0.11526231  0.79578436  1
  Bi2+  Bi74  1  0.26802390  0.39227021  0.31035004  1
  Bi2+  Bi75  1  0.22065589  0.38846450  0.79703766  1
  Bi2+  Bi76  1  0.19404128  0.58113723  0.31277786  1
  Bi2+  Bi77  1  0.30524142  0.64132734  0.79382416  1
  Bi2+  Bi78  1  0.26301319  0.88297163  0.29978759  1
  Bi2+  Bi79  1  0.30383018  0.87924328  0.74551746  1
  Bi2+  Bi80  1  0.47952358  0.13513945  0.28445998  1
  Bi2+  Bi81  1  0.54954076  0.03130367  0.81707108  1
  Bi2+  Bi82  1  0.48270306  0.40042096  0.29620011  1
  Bi2+  Bi83  1  0.51264364  0.45794219  0.80634888  1
  Bi2+  Bi84  1  0.55178098  0.64286122  0.25087144  1
  Bi2+  Bi85  1  0.50299897  0.65294470  0.81468057  1
  Bi2+  Bi86  1  0.53274903  0.87551331  0.31611338  1
  Bi2+  Bi87  1  0.48697273  0.85271832  0.79066708  1
  Bi2+  Bi88  1  0.81913409  0.20332776  0.26077401  1
  Bi2+  Bi89  1  0.76028517  0.12779154  0.79968383  1
  Bi2+  Bi90  1  0.74563911  0.44148915  0.27939619  1
  Bi2+  Bi91  1  0.73118600  0.32081352  0.79369517  1
  Bi2+  Bi92  1  0.80864057  0.62425612  0.28498571  1
  Bi2+  Bi93  1  0.68246930  0.62793800  0.76504522  1
  Bi2+  Bi94  1  0.72341280  0.80460110  0.30226784  1
  Bi2+  Bi95  1  0.67709461  0.84239775  0.75169029  1
  Bi2+  Bi96  1  0.15333305  -0.00891071  0.19607132  1
  Bi2+  Bi97  1  0.11193359  -0.01404672  0.70486210  1
  Bi2+  Bi98  1  0.13948215  0.29438582  0.22725781  1
  Bi2+  Bi99  1  0.08088101  0.24702046  0.71369610  1
  Bi2+  Bi100  1  0.15213317  0.49598270  0.20527122  1
  Bi2+  Bi101  1  0.11321415  0.44264218  0.71242739  1
  Bi2+  Bi102  1  0.17538388  0.74401365  0.22701366  1
  Bi2+  Bi103  1  0.18031374  0.73552689  0.71762474  1
  Bi2+  Bi104  1  0.37383922  -0.00967511  0.22802671  1
  Bi2+  Bi105  1  0.41543518  0.02763628  0.71723354  1
  Bi2+  Bi106  1  0.35555449  0.26468349  0.22534590  1
  Bi2+  Bi107  1  0.36198142  0.29710456  0.68922960  1
  Bi2+  Bi108  1  0.36292290  0.54398248  0.25610003  1
  Bi2+  Bi109  1  0.39076283  0.54454425  0.71556625  1
  Bi2+  Bi110  1  0.38116524  0.75171846  0.23753973  1
  Bi2+  Bi111  1  0.36246305  0.74381989  0.66506320  1
  Bi2+  Bi112  1  0.59342893  -0.00090570  0.21639650  1
  Bi2+  Bi113  1  0.64623344  0.03278871  0.70777982  1
  Bi2+  Bi114  1  0.61574937  0.25102558  0.21404101  1
  Bi2+  Bi115  1  0.57801361  0.20589297  0.76491350  1
  Bi2+  Bi116  1  0.63546909  0.49497849  0.18767312  1
  Bi2+  Bi117  1  0.61508697  0.42770973  0.71131073  1
  Bi2+  Bi118  1  0.56067718  0.81300318  0.19475857  1
  Bi2+  Bi119  1  0.55200462  0.72011390  0.69340847  1
  Bi2+  Bi120  1  0.86045650  -0.02208753  0.20892825  1
  Bi2+  Bi121  1  0.86437587  0.00727052  0.69931235  1
  Bi2+  Bi122  1  0.87831880  0.39530642  0.19555143  1
  Bi2+  Bi123  1  0.88413608  0.25171834  0.70879246  1
  Bi2+  Bi124  1  0.92901286  0.58593848  0.18535497  1
  Bi2+  Bi125  1  0.85852573  0.49554418  0.71111996  1
  Bi2+  Bi126  1  0.86056272  0.77213963  0.20151621  1
  Bi2+  Bi127  1  0.82602895  0.74158185  0.71324124  1
  S2-  S128  1  0.07130452  0.15523599  0.18763745  1
  S2-  S129  1  -0.00346528  0.05225045  0.63568737  1
  S2-  S130  1  0.04077322  0.38084338  0.15304601  1
  S2-  S131  1  -0.01602984  0.46145733  0.64380496  1
  S2-  S132  1  -0.00833291  0.73109247  0.13652881  1
  S2-  S133  1  -0.03803201  0.65115575  0.71233135  1
  S2-  S134  1  -0.00038163  0.95090217  0.14850537  1
  S2-  S135  1  0.07225101  0.84534515  0.66408773  1
  S2-  S136  1  0.27833866  0.07949194  0.15810626  1
  S2-  S137  1  0.20751841  0.25117144  0.64413948  1
  S2-  S138  1  0.26581699  0.37228082  0.16484945  1
  S2-  S139  1  0.27641738  0.44951888  0.66406317  1
  S2-  S140  1  0.21115353  0.62053228  0.15131874  1
  S2-  S141  1  0.14420221  0.62534851  0.64721654  1
  S2-  S142  1  0.21747117  0.85879093  0.15353863  1
  S2-  S143  1  0.23675408  0.99212279  0.64127770  1
  S2-  S144  1  0.61534565  0.12354916  0.14626947  1
  S2-  S145  1  0.39580751  0.14189363  0.64754207  1
  S2-  S146  1  0.49859063  0.33248420  0.16903666  1
  S2-  S147  1  0.52737242  0.30519194  0.66466626  1
  S2-  S148  1  0.50122283  0.58121771  0.15194049  1
  S2-  S149  1  0.51963678  0.51906797  0.64662885  1
  S2-  S150  1  0.48251780  0.95601306  0.13927427  1
  S2-  S151  1  0.51909205  0.96117749  0.65133225  1
  S2-  S152  1  0.84473435  0.12057057  0.15924296  1
  S2-  S153  1  0.75788759  0.11312646  0.64657548  1
  S2-  S154  1  0.72380549  0.34454495  0.15062117  1
  S2-  S155  1  0.76968876  0.37441234  0.66259805  1
  S2-  S156  1  0.74039829  0.61079553  0.15598188  1
  S2-  S157  1  0.79954246  0.61614873  0.64220620  1
  S2-  S158  1  0.75156420  0.88767189  0.14835830  1
  S2-  S159  1  0.83993275  0.87444234  0.64033928  1
  S2-  S160  1  0.02818837  -0.01438715  0.34679850  1
  S2-  S161  1  0.14924288  -0.02122811  0.84126866  1
  S2-  S162  1  0.15204197  0.15027598  0.35711608  1
  S2-  S163  1  0.17168187  0.24550691  0.85632451  1
  S2-  S164  1  0.12355255  0.37947202  0.36050458  1
  S2-  S165  1  0.13219983  0.50517642  0.84235150  1
  S2-  S166  1  0.13841312  0.78672030  0.34691501  1
  S2-  S167  1  0.12453725  0.73958093  0.84028717  1
  S2-  S168  1  0.47838932  0.01747043  0.36256773  1
  S2-  S169  1  0.35857014  0.07938180  0.84895449  1
  S2-  S170  1  0.45699415  0.26372848  0.36070973  1
  S2-  S171  1  0.33531878  0.25091479  0.77857338  1
  S2-  S172  1  0.42437199  0.52620573  0.35598095  1
  S2-  S173  1  0.35784607  0.42161376  0.85788235  1
  S2-  S174  1  0.38374459  0.78103090  0.34443449  1
  S2-  S175  1  0.35673791  0.77286565  0.85075362  1
  S2-  S176  1  0.68048423  -0.04925064  0.34470339  1
  S2-  S177  1  0.71892871  -0.00287549  0.85811674  1
  S2-  S178  1  0.68313590  0.21819951  0.31195917  1
  S2-  S179  1  0.52558042  0.24950964  0.85671937  1
  S2-  S180  1  0.62055866  0.42622220  0.35289002  1
  S2-  S181  1  0.67253988  0.46330947  0.84461953  1
  S2-  S182  1  0.60527742  0.69001735  0.34850638  1
  S2-  S183  1  0.67544157  0.73801657  0.84386157  1
  S2-  S184  1  0.84770523  0.05449052  0.29948661  1
  S2-  S185  1  0.93309346  -0.01808126  0.84189113  1
  S2-  S186  1  0.93719768  0.22786485  0.33748198  1
  S2-  S187  1  0.86968610  0.25480465  0.84781109  1
  S2-  S188  1  0.85087235  0.40335921  0.35930808  1
  S2-  S189  1  0.89646932  0.50983907  0.84345138  1
  S2-  S190  1  0.87339068  0.83673541  0.34894919  1
  S2-  S191  1  0.90853081  0.75110602  0.83887029  1
  S2-  S192  1  -0.01369247  0.13692321  0.44650697  1
  S2-  S193  1  -0.00581299  0.11466797  0.94591637  1
  S2-  S194  1  -0.00610284  0.38442720  0.45312384  1
  S2-  S195  1  -0.00464829  0.36180861  0.95111214  1
  S2-  S196  1  -0.00257566  0.63245997  0.43900117  1
  S2-  S197  1  -0.00718630  0.61004070  0.95485049  1
  S2-  S198  1  -0.00423555  0.88824060  0.45632806  1
  S2-  S199  1  -0.01050163  0.86185941  0.95449114  1
  S2-  S200  1  0.25346477  0.13844035  0.46134736  1
  S2-  S201  1  0.24288383  0.11371712  0.95495295  1
  S2-  S202  1  0.24965981  0.38531417  0.46255204  1
  S2-  S203  1  0.24447631  0.35877574  0.96041800  1
  S2-  S204  1  0.24608125  0.63565264  0.45609169  1
  S2-  S205  1  0.24771920  0.61157745  0.95009592  1
  S2-  S206  1  0.24876014  0.89032233  0.45463281  1
  S2-  S207  1  0.24574652  0.86401600  0.95094426  1
  S2-  S208  1  0.50141953  0.14363682  0.46311080  1
  S2-  S209  1  0.49481033  0.10934094  0.96157862  1
  S2-  S210  1  0.49863802  0.38992281  0.46444678  1
  S2-  S211  1  0.49289235  0.36355290  0.96169325  1
  S2-  S212  1  0.49463940  0.64012749  0.46408932  1
  S2-  S213  1  0.49029824  0.60991623  0.95144255  1
  S2-  S214  1  0.49417315  0.88239324  0.45902337  1
  S2-  S215  1  0.49371782  0.86153754  0.94996557  1
  S2-  S216  1  0.74497034  0.14149717  0.43752605  1
  S2-  S217  1  0.73916116  0.11661899  0.96063300  1
  S2-  S218  1  0.73719729  0.38266735  0.45710114  1
  S2-  S219  1  0.74234559  0.36105924  0.95186197  1
  S2-  S220  1  0.74685681  0.63511625  0.44634490  1
  S2-  S221  1  0.74646116  0.60902707  0.94863829  1
  S2-  S222  1  0.74837989  0.88609242  0.45455984  1
  S2-  S223  1  0.74580654  0.85712077  0.94928947  1
  S2-  S224  1  0.11504479  -0.01330636  0.04476001  1
  S2-  S225  1  0.12040447  0.01115202  0.53704747  1
  S2-  S226  1  0.11391067  0.23098723  0.05373018  1
  S2-  S227  1  0.11477000  0.25849673  0.53973832  1
  S2-  S228  1  0.11973530  0.48827677  0.04574391  1
  S2-  S229  1  0.11959457  0.50993489  0.54117384  1
  S2-  S230  1  0.12063013  0.73857005  0.04143673  1
  S2-  S231  1  0.11580332  0.76108827  0.54995260  1
  S2-  S232  1  0.36890898  -0.01623823  0.03983021  1
  S2-  S233  1  0.37713911  0.00779558  0.54497500  1
  S2-  S234  1  0.37269638  0.23452561  0.06258542  1
  S2-  S235  1  0.37544230  0.26351583  0.55073830  1
  S2-  S236  1  0.36877478  0.48520280  0.05232406  1
  S2-  S237  1  0.36750695  0.51384405  0.55349593  1
  S2-  S238  1  0.37015998  0.73892437  0.05087958  1
  S2-  S239  1  0.36721363  0.76106407  0.54722584  1
  S2-  S240  1  0.62376758  -0.01582365  0.04303730  1
  S2-  S241  1  0.62146345  0.00613547  0.54220321  1
  S2-  S242  1  0.62180378  0.23806463  0.04496467  1
  S2-  S243  1  0.62120419  0.26002277  0.55662513  1
  S2-  S244  1  0.62183742  0.48456839  0.04387780  1
  S2-  S245  1  0.62567425  0.51673670  0.54377078  1
  S2-  S246  1  0.62027886  0.73750312  0.04301522  1
  S2-  S247  1  0.62577572  0.76101454  0.54907092  1
  S2-  S248  1  0.87307812  -0.00963176  0.04223284  1
  S2-  S249  1  0.86734259  0.00943875  0.53621579  1
  S2-  S250  1  0.87135439  0.23618187  0.05248828  1
  S2-  S251  1  0.87207953  0.26266229  0.54154723  1
  S2-  S252  1  0.87041734  0.48603611  0.04406231  1
  S2-  S253  1  0.87361796  0.51422719  0.54004830  1
  S2-  S254  1  0.86985037  0.73690835  0.03884961  1
  S2-  S255  1  0.87722810  0.75386132  0.54498416  1
