# generated using pymatgen
data_La12Ce14Pr13Nd13Sm12(BiS2)64
_symmetry_space_group_name_H-M   'P 1'
_cell_length_a   16.16977070
_cell_length_b   16.14859316
_cell_length_c   27.31344738
_cell_angle_alpha   90.14146257
_cell_angle_beta   90.20724911
_cell_angle_gamma   89.89347564
_symmetry_Int_Tables_number   1
_chemical_formula_structural   La12Ce14Pr13Nd13Sm12(BiS2)64
_chemical_formula_sum   'La12 Ce14 Pr13 Nd13 Sm12 Bi64 S128'
_cell_volume   7131.98078799
_cell_formula_units_Z   1
loop_
 _symmetry_equiv_pos_site_id
 _symmetry_equiv_pos_as_xyz
  1  'x, y, z'
loop_
 _atom_type_symbol
 _atom_type_oxidation_number
  La3+  3.0
  Ce3+  3.0
  Pr3+  3.0
  Nd3+  3.0
  Sm3+  3.0
  Bi2+  2.0
  S2-  -2.0
loop_
 _atom_site_type_symbol
 _atom_site_label
 _atom_site_symmetry_multiplicity
 _atom_site_fract_x
 _atom_site_fract_y
 _atom_site_fract_z
 _atom_site_occupancy
  La3+  La0  1  0.48352101  0.63626618  0.09196634  1
  La3+  La1  1  0.85539790  0.74535380  0.91874890  1
  La3+  La2  1  0.73579470  0.88026647  0.05946379  1
  La3+  La3  1  0.85190554  0.25676964  0.92673160  1
  La3+  La4  1  0.11894613  0.51053703  0.91664414  1
  La3+  La5  1  0.36902346  0.24566996  0.41411392  1
  La3+  La6  1  0.25034436  0.63440593  0.57442717  1
  La3+  La7  1  0.60728498  0.74244098  0.92979210  1
  La3+  La8  1  0.87945235  0.76422457  0.43337400  1
  La3+  La9  1  0.74248659  0.38002421  0.07546950  1
  La3+  La10  1  0.25877444  0.13933896  0.57761010  1
  La3+  La11  1  0.59955527  0.00396047  0.92746123  1
  Ce3+  Ce12  1  0.25742239  0.88349015  0.56944201  1
  Ce3+  Ce13  1  0.37611958  0.00513837  0.44766469  1
  Ce3+  Ce14  1  0.75966882  0.87758406  0.58076514  1
  Ce3+  Ce15  1  0.48440795  0.13187929  0.05865597  1
  Ce3+  Ce16  1  0.49960809  0.13645428  0.55799746  1
  Ce3+  Ce17  1  0.48471649  0.87706025  0.06132162  1
  Ce3+  Ce18  1  0.23689526  0.38146270  0.06274845  1
  Ce3+  Ce19  1  0.49888561  0.38295202  0.54916644  1
  Ce3+  Ce20  1  0.87715856  0.00550501  0.44356504  1
  Ce3+  Ce21  1  0.00706864  0.37383342  0.56979261  1
  Ce3+  Ce22  1  0.75352921  0.13305666  0.55709308  1
  Ce3+  Ce23  1  0.60839786  0.26108495  0.94269247  1
  Ce3+  Ce24  1  0.35568623  0.00772426  0.94463742  1
  Ce3+  Ce25  1  0.10064834  0.25755914  0.93231822  1
  Pr3+  Pr26  1  0.85696021  0.50717988  0.94456177  1
  Pr3+  Pr27  1  -0.01495896  0.13048631  0.04986711  1
  Pr3+  Pr28  1  0.36385935  0.75102698  0.93581396  1
  Pr3+  Pr29  1  0.75651124  0.63267289  0.56646833  1
  Pr3+  Pr30  1  0.23374932  0.13329283  0.06281868  1
  Pr3+  Pr31  1  0.12697053  0.25826729  0.43488038  1
  Pr3+  Pr32  1  0.37833701  0.51507663  0.42500037  1
  Pr3+  Pr33  1  0.35219704  0.25742022  0.93435369  1
  Pr3+  Pr34  1  0.63177009  0.76032057  0.43888112  1
  Pr3+  Pr35  1  0.13005325  0.50804424  0.43805510  1
  Pr3+  Pr36  1  0.50279053  0.63192817  0.55734752  1
  Pr3+  Pr37  1  0.87578289  0.25769006  0.43487834  1
  Pr3+  Pr38  1  0.00411213  0.62700969  0.56235512  1
  Nd3+  Nd39  1  0.85500376  -0.00027560  0.93543263  1
  Nd3+  Nd40  1  0.62732232  0.00570231  0.44459341  1
  Nd3+  Nd41  1  0.62962561  0.50775383  0.44003257  1
  Nd3+  Nd42  1  0.73312959  0.13295166  0.05661566  1
  Nd3+  Nd43  1  0.11039009  0.00405945  0.93458296  1
  Nd3+  Nd44  1  0.62579292  0.25747205  0.44210088  1
  Nd3+  Nd45  1  0.23650361  0.62726742  0.06664203  1
  Nd3+  Nd46  1  0.25934965  0.38419356  0.56354341  1
  Nd3+  Nd47  1  0.13094873  0.00760448  0.45039616  1
  Nd3+  Nd48  1  0.51279805  0.88434553  0.57067811  1
  Nd3+  Nd49  1  0.87923069  0.50862043  0.44405995  1
  Nd3+  Nd50  1  -0.01172462  0.38333746  0.05683015  1
  Nd3+  Nd51  1  0.00049036  0.88390268  0.57142863  1
  Sm3+  Sm52  1  0.73829777  0.63562303  0.06824452  1
  Sm3+  Sm53  1  0.12985663  0.75830866  0.44819810  1
  Sm3+  Sm54  1  0.36090921  0.50354617  0.95307458  1
  Sm3+  Sm55  1  0.47910241  0.36353766  0.10046247  1
  Sm3+  Sm56  1  0.75425583  0.38167207  0.55791537  1
  Sm3+  Sm57  1  0.37832603  0.75715182  0.44158182  1
  Sm3+  Sm58  1  -0.01097267  0.63195946  0.05673104  1
  Sm3+  Sm59  1  0.60492094  0.50610250  0.96335400  1
  Sm3+  Sm60  1  -0.01384249  0.87811941  0.05038381  1
  Sm3+  Sm61  1  0.11132046  0.75211645  0.94101128  1
  Sm3+  Sm62  1  0.00331522  0.13507228  0.55907000  1
  Sm3+  Sm63  1  0.23561463  0.87816682  0.05295125  1
  Bi2+  Bi64  1  0.05846782  0.09306753  0.26585380  1
  Bi2+  Bi65  1  0.05013232  0.07717783  0.78241402  1
  Bi2+  Bi66  1  -0.00658021  0.34563848  0.22389835  1
  Bi2+  Bi67  1  -0.03383094  0.38505014  0.77149601  1
  Bi2+  Bi68  1  0.04295443  0.57982426  0.27671928  1
  Bi2+  Bi69  1  -0.04019657  0.65754798  0.78851134  1
  Bi2+  Bi70  1  0.03891729  0.81897553  0.26941548  1
  Bi2+  Bi71  1  0.00480120  0.88768694  0.75142142  1
  Bi2+  Bi72  1  0.24809884  0.10262401  0.29575023  1
  Bi2+  Bi73  1  0.30927464  0.12546855  0.81366945  1
  Bi2+  Bi74  1  0.17609870  0.35438943  0.27007918  1
  Bi2+  Bi75  1  0.24394473  0.36565054  0.79802282  1
  Bi2+  Bi76  1  0.22829637  0.64309877  0.28225169  1
  Bi2+  Bi77  1  0.31366014  0.63736112  0.81133187  1
  Bi2+  Bi78  1  0.22372944  0.87531605  0.29653254  1
  Bi2+  Bi79  1  0.27683528  0.89263418  0.78635875  1
  Bi2+  Bi80  1  0.52126142  0.11567555  0.29786090  1
  Bi2+  Bi81  1  0.55449869  0.10408098  0.79875887  1
  Bi2+  Bi82  1  0.53842001  0.37350815  0.29627073  1
  Bi2+  Bi83  1  0.52208375  0.41871485  0.78661136  1
  Bi2+  Bi84  1  0.47615814  0.60033494  0.29334309  1
  Bi2+  Bi85  1  0.50516149  0.62069601  0.80213169  1
  Bi2+  Bi86  1  0.41811851  0.86968644  0.30202177  1
  Bi2+  Bi87  1  0.46614580  0.84414927  0.76384134  1
  Bi2+  Bi88  1  0.80807932  0.13960946  0.28958343  1
  Bi2+  Bi89  1  0.82496482  0.18173544  0.79608131  1
  Bi2+  Bi90  1  0.79712475  0.33467415  0.29545583  1
  Bi2+  Bi91  1  0.71525874  0.37782736  0.78272155  1
  Bi2+  Bi92  1  0.75213402  0.61286423  0.30694532  1
  Bi2+  Bi93  1  0.72273718  0.62397109  0.79307414  1
  Bi2+  Bi94  1  0.75900143  0.84780982  0.31119884  1
  Bi2+  Bi95  1  0.77248414  0.89367568  0.79297354  1
  Bi2+  Bi96  1  0.12771597  -0.05317099  0.19864810  1
  Bi2+  Bi97  1  0.16521282  -0.10456125  0.69043268  1
  Bi2+  Bi98  1  0.13356433  0.22421846  0.18447941  1
  Bi2+  Bi99  1  0.13723048  0.18917056  0.71045246  1
  Bi2+  Bi100  1  0.10913768  0.49103980  0.14983823  1
  Bi2+  Bi101  1  0.12775989  0.53219466  0.70929033  1
  Bi2+  Bi102  1  0.12049923  0.67777980  0.18493335  1
  Bi2+  Bi103  1  0.15491713  0.74012776  0.77329168  1
  Bi2+  Bi104  1  0.41349723  0.01475338  0.22221624  1
  Bi2+  Bi105  1  0.40522856  0.01606556  0.72290811  1
  Bi2+  Bi106  1  0.37191334  0.23956193  0.21380699  1
  Bi2+  Bi107  1  0.37788533  0.26251176  0.70228005  1
  Bi2+  Bi108  1  0.27395983  0.49385248  0.21119414  1
  Bi2+  Bi109  1  0.36883688  0.47456714  0.72110338  1
  Bi2+  Bi110  1  0.35718904  0.76563883  0.21076539  1
  Bi2+  Bi111  1  0.36390851  0.67247284  0.70474199  1
  Bi2+  Bi112  1  0.58808817  -0.05021981  0.25284308  1
  Bi2+  Bi113  1  0.66963909  0.07670433  0.71169799  1
  Bi2+  Bi114  1  0.63993948  0.17846239  0.21222755  1
  Bi2+  Bi115  1  0.58662873  0.25265808  0.72564652  1
  Bi2+  Bi116  1  0.65068987  0.48183593  0.20414868  1
  Bi2+  Bi117  1  0.62535249  0.52594431  0.70853577  1
  Bi2+  Bi118  1  0.63381376  0.74223203  0.20434333  1
  Bi2+  Bi119  1  0.61117542  0.78154659  0.70126795  1
  Bi2+  Bi120  1  0.89864874  -0.02651884  0.26458465  1
  Bi2+  Bi121  1  0.95675249  0.03864595  0.68538030  1
  Bi2+  Bi122  1  0.85265634  0.20181512  0.18115127  1
  Bi2+  Bi123  1  0.88015698  0.25971456  0.70195462  1
  Bi2+  Bi124  1  0.87544524  0.49750728  0.24239227  1
  Bi2+  Bi125  1  0.81618726  0.49175463  0.69369574  1
  Bi2+  Bi126  1  0.88372737  0.78360877  0.20117844  1
  Bi2+  Bi127  1  0.90424402  0.66096659  0.68372545  1
  S2-  S128  1  -0.00588169  0.12928707  0.14967143  1
  S2-  S129  1  0.01803753  0.23823605  0.63710342  1
  S2-  S130  1  -0.10989780  0.36397226  0.13848232  1
  S2-  S131  1  0.02197282  0.44852730  0.65910313  1
  S2-  S132  1  -0.04690416  0.65455421  0.15289861  1
  S2-  S133  1  0.07953972  0.65297264  0.65279530  1
  S2-  S134  1  -0.02328807  0.89193555  0.14737290  1
  S2-  S135  1  -0.10932420  0.89061082  0.64870324  1
  S2-  S136  1  0.27372565  0.12706180  0.16137378  1
  S2-  S137  1  0.20927944  0.05865225  0.66595754  1
  S2-  S138  1  0.32289005  0.35727773  0.14840686  1
  S2-  S139  1  0.24250533  0.27802203  0.64493499  1
  S2-  S140  1  0.33442050  0.62889693  0.14964924  1
  S2-  S141  1  0.25496459  0.50258228  0.64199196  1
  S2-  S142  1  0.25113939  0.86582941  0.15046107  1
  S2-  S143  1  0.26494140  0.76694395  0.64342665  1
  S2-  S144  1  0.49210178  0.20702874  0.14788509  1
  S2-  S145  1  0.41573046  0.13678851  0.64326343  1
  S2-  S146  1  0.50481563  0.41336090  0.19564306  1
  S2-  S147  1  0.45594467  0.38578292  0.64239247  1
  S2-  S148  1  0.53408874  0.60806762  0.19165037  1
  S2-  S149  1  0.52116486  0.64671148  0.65696273  1
  S2-  S150  1  0.49515709  0.79829754  0.14786280  1
  S2-  S151  1  0.43534196  0.88930212  0.66021500  1
  S2-  S152  1  0.73532335  0.08100479  0.15157787  1
  S2-  S153  1  0.79783361  0.11852096  0.65173918  1
  S2-  S154  1  0.68650747  0.32738815  0.16673902  1
  S2-  S155  1  0.74926168  0.34574240  0.65302439  1
  S2-  S156  1  0.73722538  0.62285696  0.16649255  1
  S2-  S157  1  0.74869283  0.73328944  0.64931902  1
  S2-  S158  1  0.73670549  0.84577323  0.15790712  1
  S2-  S159  1  0.64623912  0.92122047  0.65294550  1
  S2-  S160  1  0.12945823  0.01010503  0.35081484  1
  S2-  S161  1  0.18227664  0.00704331  0.84435531  1
  S2-  S162  1  0.22004602  0.24583848  0.35068532  1
  S2-  S163  1  0.19118493  0.23958562  0.85043706  1
  S2-  S164  1  0.10912961  0.46740534  0.34026010  1
  S2-  S165  1  0.09047497  0.45044178  0.81754783  1
  S2-  S166  1  0.13171069  0.74697782  0.35013131  1
  S2-  S167  1  0.10116712  0.66075099  0.85809694  1
  S2-  S168  1  0.37232824  0.07752801  0.35972195  1
  S2-  S169  1  0.43693298  0.01962911  0.86027628  1
  S2-  S170  1  0.42692910  0.26317480  0.31617603  1
  S2-  S171  1  0.38783130  0.26379278  0.83411536  1
  S2-  S172  1  0.39961705  0.46787837  0.32673139  1
  S2-  S173  1  0.28460619  0.49063930  0.86332666  1
  S2-  S174  1  0.37959690  0.66434913  0.35842144  1
  S2-  S175  1  0.48035013  0.76675550  0.86015909  1
  S2-  S176  1  0.66091878  -0.02523795  0.34906686  1
  S2-  S177  1  0.64353762  -0.04103146  0.83135027  1
  S2-  S178  1  0.65792250  0.27541554  0.34566580  1
  S2-  S179  1  0.70877478  0.26651715  0.86156446  1
  S2-  S180  1  0.61314963  0.51604258  0.34072140  1
  S2-  S181  1  0.62028536  0.56921131  0.87213688  1
  S2-  S182  1  0.63788918  0.73543060  0.33847812  1
  S2-  S183  1  0.71919830  0.75962957  0.84872869  1
  S2-  S184  1  0.89409639  -0.09291878  0.36478445  1
  S2-  S185  1  0.84530399  0.03060953  0.83766705  1
  S2-  S186  1  0.92810578  0.24098290  0.34001613  1
  S2-  S187  1  0.96142168  0.27187543  0.84808636  1
  S2-  S188  1  0.85039183  0.47844093  0.34809483  1
  S2-  S189  1  0.86100523  0.58452864  0.85422957  1
  S2-  S190  1  0.87417835  0.69584803  0.34000010  1
  S2-  S191  1  0.91795500  0.81474624  0.83220043  1
  S2-  S192  1  0.00327366  0.13057722  0.45375252  1
  S2-  S193  1  -0.01755979  0.12381912  0.94375006  1
  S2-  S194  1  0.00150343  0.38193941  0.45382789  1
  S2-  S195  1  -0.01453363  0.38885077  0.95096685  1
  S2-  S196  1  0.00516539  0.63364592  0.45315466  1
  S2-  S197  1  -0.01392538  0.63187598  0.95485045  1
  S2-  S198  1  0.00958290  0.88285495  0.46360754  1
  S2-  S199  1  -0.01234132  0.87707140  0.94600628  1
  S2-  S200  1  0.25192916  0.13034567  0.46252271  1
  S2-  S201  1  0.23034965  0.13006172  0.95640731  1
  S2-  S202  1  0.25687389  0.38501059  0.44879318  1
  S2-  S203  1  0.23057851  0.37948510  0.95754827  1
  S2-  S204  1  0.25208615  0.63585257  0.45928345  1
  S2-  S205  1  0.23805489  0.63195699  0.96066788  1
  S2-  S206  1  0.25399964  0.87889815  0.45827565  1
  S2-  S207  1  0.23473012  0.87587063  0.94776942  1
  S2-  S208  1  0.50349993  0.13210290  0.45284458  1
  S2-  S209  1  0.48425596  0.13759947  0.95522054  1
  S2-  S210  1  0.50182181  0.38192005  0.44334146  1
  S2-  S211  1  0.48490147  0.38427708  0.94617725  1
  S2-  S212  1  0.50750777  0.63414529  0.45220748  1
  S2-  S213  1  0.47897009  0.62552259  0.96767718  1
  S2-  S214  1  0.50285707  0.88051651  0.45452895  1
  S2-  S215  1  0.48232425  0.88107409  0.95859008  1
  S2-  S216  1  0.75148060  0.13183797  0.44925029  1
  S2-  S217  1  0.73013155  0.12386801  0.95109249  1
  S2-  S218  1  0.75214035  0.38264498  0.45372917  1
  S2-  S219  1  0.73175417  0.38793027  0.96370195  1
  S2-  S220  1  0.75397196  0.63178367  0.45756038  1
  S2-  S221  1  0.73448755  0.62919684  0.96550825  1
  S2-  S222  1  0.75203978  0.88443359  0.46557273  1
  S2-  S223  1  0.73149088  0.87884520  0.95174351  1
  S2-  S224  1  0.11135066  0.00201196  0.04219283  1
  S2-  S225  1  0.12419577  0.00814155  0.55479482  1
  S2-  S226  1  0.10888196  0.25735891  0.04225509  1
  S2-  S227  1  0.13153040  0.25719671  0.53905932  1
  S2-  S228  1  0.11149470  0.50820406  0.03660593  1
  S2-  S229  1  0.12737643  0.50256395  0.54321293  1
  S2-  S230  1  0.11228355  0.75543203  0.04543192  1
  S2-  S231  1  0.12511310  0.76243868  0.54970957  1
  S2-  S232  1  0.35861118  0.00406006  0.05122339  1
  S2-  S233  1  0.38107540  0.00353750  0.55028382  1
  S2-  S234  1  0.36217564  0.25625920  0.04263851  1
  S2-  S235  1  0.37934660  0.25995524  0.53453526  1
  S2-  S236  1  0.36934289  0.49689024  0.05521724  1
  S2-  S237  1  0.37926267  0.51070806  0.53652903  1
  S2-  S238  1  0.35788338  0.75625653  0.04404763  1
  S2-  S239  1  0.38524608  0.76054193  0.54413455  1
  S2-  S240  1  0.60767291  0.00606161  0.04510646  1
  S2-  S241  1  0.62587621  0.01444870  0.54832892  1
  S2-  S242  1  0.60809294  0.26000766  0.04772166  1
  S2-  S243  1  0.62780748  0.25935820  0.54897840  1
  S2-  S244  1  0.60763832  0.50273084  0.06706619  1
  S2-  S245  1  0.63102797  0.50578605  0.54773775  1
  S2-  S246  1  0.61182090  0.75126578  0.04635728  1
  S2-  S247  1  0.62823546  0.75701075  0.54567953  1
  S2-  S248  1  0.86225772  0.00388704  0.04236567  1
  S2-  S249  1  0.87963249  0.01138106  0.54599850  1
  S2-  S250  1  0.85957509  0.25316965  0.03558059  1
  S2-  S251  1  0.87592648  0.25768050  0.54206938  1
  S2-  S252  1  0.86254988  0.51306306  0.05033693  1
  S2-  S253  1  0.87839461  0.50309008  0.54964949  1
  S2-  S254  1  0.86344378  0.75418432  0.04299451  1
  S2-  S255  1  0.88280927  0.75484369  0.54361048  1
