# generated using pymatgen
data_La12Ce14Pr13Nd13Sm12(BiS2)64
_symmetry_space_group_name_H-M   'P 1'
_cell_length_a   16.07978609
_cell_length_b   16.16920887
_cell_length_c   27.16525410
_cell_angle_alpha   90.10388103
_cell_angle_beta   89.93296045
_cell_angle_gamma   89.99755891
_symmetry_Int_Tables_number   1
_chemical_formula_structural   La12Ce14Pr13Nd13Sm12(BiS2)64
_chemical_formula_sum   'La12 Ce14 Pr13 Nd13 Sm12 Bi64 S128'
_cell_volume   7062.87952314
_cell_formula_units_Z   1
loop_
 _symmetry_equiv_pos_site_id
 _symmetry_equiv_pos_as_xyz
  1  'x, y, z'
loop_
 _atom_type_symbol
 _atom_type_oxidation_number
  La3+  3.0
  Ce3+  3.0
  Pr3+  3.0
  Nd3+  3.0
  Sm3+  3.0
  Bi2+  2.0
  S2-  -2.0
loop_
 _atom_site_type_symbol
 _atom_site_label
 _atom_site_symmetry_multiplicity
 _atom_site_fract_x
 _atom_site_fract_y
 _atom_site_fract_z
 _atom_site_occupancy
  La3+  La0  1  0.11039940  0.74657540  0.92816864  1
  La3+  La1  1  0.27272807  0.63415237  0.58119373  1
  La3+  La2  1  0.23944156  0.62475999  0.06025706  1
  La3+  La3  1  0.36168172  0.75223284  0.92510931  1
  La3+  La4  1  0.10721543  0.25165672  0.92130570  1
  La3+  La5  1  0.25070845  0.38735545  0.62103936  1
  La3+  La6  1  0.48343959  0.12962601  0.09872507  1
  La3+  La7  1  0.48592069  0.38054248  0.08805010  1
  La3+  La8  1  0.38604682  0.00357883  0.39161928  1
  La3+  La9  1  0.11083368  -0.00195825  0.92988532  1
  La3+  La10  1  -0.01807892  0.87135518  0.07278778  1
  La3+  La11  1  0.39618756  0.73853386  0.42531553  1
  Ce3+  Ce12  1  0.36300882  0.00230803  0.95159746  1
  Ce3+  Ce13  1  0.85759968  0.49804464  0.94367173  1
  Ce3+  Ce14  1  0.37207320  0.49618928  0.92086886  1
  Ce3+  Ce15  1  0.76139060  0.37156118  0.56992111  1
  Ce3+  Ce16  1  0.13641718  -0.00530727  0.43965281  1
  Ce3+  Ce17  1  0.23003782  0.12998059  0.05924542  1
  Ce3+  Ce18  1  0.51737189  0.62596787  0.56639720  1
  Ce3+  Ce19  1  0.76707531  0.12180645  0.55041968  1
  Ce3+  Ce20  1  0.60534853  0.24731586  0.94210824  1
  Ce3+  Ce21  1  0.85898004  0.24940324  0.93412201  1
  Ce3+  Ce22  1  0.89643583  -0.00580539  0.43874349  1
  Ce3+  Ce23  1  0.01923832  0.62358115  0.55681434  1
  Ce3+  Ce24  1  0.01728631  0.37353106  0.56020268  1
  Ce3+  Ce25  1  0.14587928  0.49749895  0.44811949  1
  Pr3+  Pr26  1  0.86019428  0.75242808  0.93251103  1
  Pr3+  Pr27  1  0.47630096  0.87477732  0.07421938  1
  Pr3+  Pr28  1  0.61062237  0.75651382  0.92608044  1
  Pr3+  Pr29  1  0.39209803  0.49727218  0.44782351  1
  Pr3+  Pr30  1  0.76419420  0.87272492  0.55770580  1
  Pr3+  Pr31  1  0.11168360  0.50025867  0.93964749  1
  Pr3+  Pr32  1  0.39323174  0.24463662  0.43481807  1
  Pr3+  Pr33  1  0.48535129  0.62952674  0.05886974  1
  Pr3+  Pr34  1  0.64282909  0.74599107  0.42559746  1
  Pr3+  Pr35  1  0.23821624  0.37406730  0.05899927  1
  Pr3+  Pr36  1  0.73296205  0.62633392  0.05784861  1
  Pr3+  Pr37  1  0.01384434  0.86369003  0.57155187  1
  Pr3+  Pr38  1  -0.01700562  0.62488656  0.06154488  1
  Nd3+  Nd39  1  0.89089321  0.49584279  0.44148011  1
  Nd3+  Nd40  1  0.14420946  0.24607745  0.44266364  1
  Nd3+  Nd41  1  0.26748136  0.12715179  0.56263298  1
  Nd3+  Nd42  1  0.51409135  0.87449345  0.54566154  1
  Nd3+  Nd43  1  0.64038185  -0.00286443  0.42805853  1
  Nd3+  Nd44  1  0.85773139  -0.00129739  0.94284218  1
  Nd3+  Nd45  1  0.75986456  0.62027404  0.56428971  1
  Nd3+  Nd46  1  0.36826767  0.25045400  0.93648712  1
  Nd3+  Nd47  1  0.51035561  0.36957471  0.57092431  1
  Nd3+  Nd48  1  0.73419329  0.87630773  0.06780562  1
  Nd3+  Nd49  1  0.51585336  0.12215500  0.55706030  1
  Nd3+  Nd50  1  -0.01323658  0.12861428  0.06081806  1
  Nd3+  Nd51  1  0.22776043  0.87708074  0.06561333  1
  Sm3+  Sm52  1  0.64280545  0.49487018  0.44357441  1
  Sm3+  Sm53  1  0.26684330  0.87320881  0.55235626  1
  Sm3+  Sm54  1  0.60718322  0.00035035  0.95432266  1
  Sm3+  Sm55  1  0.64107518  0.24752524  0.43749657  1
  Sm3+  Sm56  1  0.89264399  0.74564981  0.44184247  1
  Sm3+  Sm57  1  0.01866971  0.12136954  0.56390802  1
  Sm3+  Sm58  1  -0.01051039  0.37207129  0.06282328  1
  Sm3+  Sm59  1  0.73194281  0.37328757  0.05838623  1
  Sm3+  Sm60  1  0.14968103  0.74859416  0.42985662  1
  Sm3+  Sm61  1  0.60817187  0.49863494  0.94261221  1
  Sm3+  Sm62  1  0.89153957  0.24791049  0.44638839  1
  Sm3+  Sm63  1  0.73349285  0.12929704  0.06230632  1
  Bi2+  Bi64  1  -0.03226738  0.10970802  0.29786077  1
  Bi2+  Bi65  1  -0.10794041  0.16178784  0.77528664  1
  Bi2+  Bi66  1  -0.01796320  0.35428343  0.28089032  1
  Bi2+  Bi67  1  -0.03139353  0.39007704  0.78760151  1
  Bi2+  Bi68  1  -0.02120785  0.55608610  0.27556980  1
  Bi2+  Bi69  1  -0.01002551  0.66017861  0.77527689  1
  Bi2+  Bi70  1  -0.08126022  0.90366120  0.28595876  1
  Bi2+  Bi71  1  -0.04944324  0.87580367  0.78015410  1
  Bi2+  Bi72  1  0.22703536  0.14221339  0.28729896  1
  Bi2+  Bi73  1  0.30829595  0.12444199  0.79352055  1
  Bi2+  Bi74  1  0.25034219  0.38468035  0.29304592  1
  Bi2+  Bi75  1  0.20326733  0.40883330  0.81738082  1
  Bi2+  Bi76  1  0.23383663  0.62733639  0.30535998  1
  Bi2+  Bi77  1  0.21552766  0.64340553  0.77748906  1
  Bi2+  Bi78  1  0.17851951  0.86571936  0.29318742  1
  Bi2+  Bi79  1  0.21345032  0.90555103  0.79799147  1
  Bi2+  Bi80  1  0.51027696  0.13525410  0.27671993  1
  Bi2+  Bi81  1  0.56592838  0.09707911  0.79195706  1
  Bi2+  Bi82  1  0.54007027  0.38022386  0.28535337  1
  Bi2+  Bi83  1  0.50304756  0.35426846  0.80219524  1
  Bi2+  Bi84  1  0.50410693  0.61559416  0.29085325  1
  Bi2+  Bi85  1  0.57859533  0.63509754  0.79010953  1
  Bi2+  Bi86  1  0.53352806  0.88159638  0.27503751  1
  Bi2+  Bi87  1  0.46483237  0.88907108  0.78984911  1
  Bi2+  Bi88  1  0.77587526  0.07027719  0.28530877  1
  Bi2+  Bi89  1  0.72578423  0.19053070  0.82992718  1
  Bi2+  Bi90  1  0.78155842  0.36908139  0.29464114  1
  Bi2+  Bi91  1  0.70077095  0.37148330  0.79218030  1
  Bi2+  Bi92  1  0.74583566  0.68732256  0.30502838  1
  Bi2+  Bi93  1  0.77486577  0.60504982  0.78845441  1
  Bi2+  Bi94  1  0.72804016  0.88318683  0.31986767  1
  Bi2+  Bi95  1  0.73653245  0.89278457  0.79943998  1
  Bi2+  Bi96  1  0.08423542  0.00525310  0.21802098  1
  Bi2+  Bi97  1  0.11839151  0.04457846  0.72127863  1
  Bi2+  Bi98  1  0.09345428  0.23867077  0.20827316  1
  Bi2+  Bi99  1  0.12899154  0.24350010  0.72000527  1
  Bi2+  Bi100  1  0.12103032  0.46331984  0.21818945  1
  Bi2+  Bi101  1  0.01378921  0.51367835  0.70202464  1
  Bi2+  Bi102  1  0.12506444  0.74759997  0.20577608  1
  Bi2+  Bi103  1  0.11354272  0.79132295  0.70714957  1
  Bi2+  Bi104  1  0.33080423  0.00243584  0.20898388  1
  Bi2+  Bi105  1  0.32362289  -0.01420291  0.71452725  1
  Bi2+  Bi106  1  0.34376560  0.27154027  0.21033571  1
  Bi2+  Bi107  1  0.39390494  0.23989471  0.71445783  1
  Bi2+  Bi108  1  0.39583747  0.48036548  0.23279560  1
  Bi2+  Bi109  1  0.37640672  0.52464328  0.71954446  1
  Bi2+  Bi110  1  0.37864831  0.71477520  0.19307784  1
  Bi2+  Bi111  1  0.38442895  0.78441724  0.70614675  1
  Bi2+  Bi112  1  0.71676819  -0.03948804  0.19351849  1
  Bi2+  Bi113  1  0.60400981  -0.03511753  0.70760313  1
  Bi2+  Bi114  1  0.71859315  0.24551571  0.21182525  1
  Bi2+  Bi115  1  0.64137310  0.22943339  0.70880565  1
  Bi2+  Bi116  1  0.67604738  0.48405826  0.22363534  1
  Bi2+  Bi117  1  0.63335422  0.50269461  0.70995223  1
  Bi2+  Bi118  1  0.66648646  0.76881565  0.21369740  1
  Bi2+  Bi119  1  0.64107883  0.76720199  0.71097789  1
  Bi2+  Bi120  1  0.89768588  0.04531912  0.18443733  1
  Bi2+  Bi121  1  0.80002412  0.01686773  0.71506959  1
  Bi2+  Bi122  1  0.89727335  0.24648347  0.16438561  1
  Bi2+  Bi123  1  0.84471171  0.31844902  0.70854102  1
  Bi2+  Bi124  1  0.90425534  0.44540692  0.18184695  1
  Bi2+  Bi125  1  0.82529186  0.51102139  0.67542733  1
  Bi2+  Bi126  1  0.84857010  0.63520998  0.20268808  1
  Bi2+  Bi127  1  0.84199053  0.74076402  0.71039226  1
  S2-  S128  1  0.10698434  0.12373199  0.13575706  1
  S2-  S129  1  0.02022513  0.14643631  0.66221137  1
  S2-  S130  1  0.11387624  0.36231287  0.13612308  1
  S2-  S131  1  0.07665961  0.36797179  0.65304264  1
  S2-  S132  1  -0.00553777  0.70340156  0.15197602  1
  S2-  S133  1  0.02232956  0.72040173  0.63721429  1
  S2-  S134  1  0.10711986  0.88611462  0.14436047  1
  S2-  S135  1  0.04504767  0.93094661  0.66517837  1
  S2-  S136  1  0.31588900  0.13957068  0.14617396  1
  S2-  S137  1  0.25828644  0.21206711  0.65102031  1
  S2-  S138  1  0.33515441  0.40213189  0.14370084  1
  S2-  S139  1  0.24983919  0.37105801  0.73066446  1
  S2-  S140  1  0.22558071  0.63504379  0.16225744  1
  S2-  S141  1  0.23809845  0.54823885  0.66971135  1
  S2-  S142  1  0.32312931  0.85918698  0.15104692  1
  S2-  S143  1  0.25937667  0.78969448  0.64069247  1
  S2-  S144  1  0.48492985  0.03211313  0.18949273  1
  S2-  S145  1  0.50383891  0.16405570  0.65527628  1
  S2-  S146  1  0.48825075  0.26093757  0.16649388  1
  S2-  S147  1  0.41816078  0.38596051  0.65844108  1
  S2-  S148  1  0.46344047  0.57898658  0.15568156  1
  S2-  S149  1  0.42023303  0.63711741  0.65154557  1
  S2-  S150  1  0.51172273  0.79451436  0.16277663  1
  S2-  S151  1  0.52204080  0.84991542  0.64529450  1
  S2-  S152  1  0.66589371  0.12560081  0.15331225  1
  S2-  S153  1  0.74797485  0.13445955  0.64699976  1
  S2-  S154  1  0.65179844  0.38509900  0.14681395  1
  S2-  S155  1  0.63994344  0.36512657  0.64236075  1
  S2-  S156  1  0.68838466  0.62156786  0.15537549  1
  S2-  S157  1  0.64269589  0.63865229  0.63861687  1
  S2-  S158  1  0.84738593  0.87616784  0.14562948  1
  S2-  S159  1  0.83025494  0.87709319  0.65065434  1
  S2-  S160  1  0.21819152  0.00810911  0.35229246  1
  S2-  S161  1  0.09823453  0.01522411  0.82866642  1
  S2-  S162  1  0.15450452  0.25478854  0.34198515  1
  S2-  S163  1  0.18071091  0.23450067  0.82661523  1
  S2-  S164  1  0.15063435  0.49803254  0.34954647  1
  S2-  S165  1  0.10961262  0.55568612  0.84293870  1
  S2-  S166  1  0.09822567  0.73054956  0.33150240  1
  S2-  S167  1  0.23172462  0.75970315  0.85235214  1
  S2-  S168  1  0.38267420  -0.07676766  0.29577393  1
  S2-  S169  1  0.35657657  -0.01188545  0.85312178  1
  S2-  S170  1  0.38586840  0.16346915  0.34206233  1
  S2-  S171  1  0.35405434  0.36183899  0.85508797  1
  S2-  S172  1  0.37991699  0.57903081  0.35742597  1
  S2-  S173  1  0.33320152  0.56557254  0.82291965  1
  S2-  S174  1  0.28052976  0.76405785  0.35161694  1
  S2-  S175  1  0.48671437  0.75637716  0.85062107  1
  S2-  S176  1  0.55047598  0.01974640  0.34079675  1
  S2-  S177  1  0.60507861  -0.03633963  0.85723392  1
  S2-  S178  1  0.59642933  0.24746765  0.34083361  1
  S2-  S179  1  0.50040057  0.21584284  0.86289966  1
  S2-  S180  1  0.60708125  0.50549431  0.34655436  1
  S2-  S181  1  0.53054564  0.50096556  0.85422880  1
  S2-  S182  1  0.52483383  0.74705332  0.34752913  1
  S2-  S183  1  0.74316769  0.75240365  0.85579525  1
  S2-  S184  1  1.00788178  -0.01952804  0.36353867  1
  S2-  S185  1  0.87369465  -0.01552566  0.84288476  1
  S2-  S186  1  0.88647722  0.25013307  0.34761858  1
  S2-  S187  1  0.96375135  0.25344750  0.85368994  1
  S2-  S188  1  0.85814372  0.50461611  0.34393215  1
  S2-  S189  1  0.86679003  0.48778880  0.84578885  1
  S2-  S190  1  0.88745014  0.75815361  0.34307526  1
  S2-  S191  1  0.98225897  0.77055117  0.85542255  1
  S2-  S192  1  0.01478200  0.12653182  0.45763142  1
  S2-  S193  1  -0.01720674  0.12269386  0.95184029  1
  S2-  S194  1  0.01571737  0.37082597  0.45149803  1
  S2-  S195  1  -0.01640795  0.37791560  0.95710311  1
  S2-  S196  1  0.01560256  0.62218287  0.44914789  1
  S2-  S197  1  -0.01813297  0.62182481  0.95382023  1
  S2-  S198  1  0.01686742  0.86188313  0.46112785  1
  S2-  S199  1  -0.01626774  0.87802042  0.95921787  1
  S2-  S200  1  0.26806835  0.12141909  0.45637996  1
  S2-  S201  1  0.23588366  0.12751044  0.94881843  1
  S2-  S202  1  0.26918636  0.37052968  0.44699032  1
  S2-  S203  1  0.23477457  0.37479296  0.95134764  1
  S2-  S204  1  0.26357370  0.62327030  0.46114560  1
  S2-  S205  1  0.24066002  0.62086588  0.95150340  1
  S2-  S206  1  0.26903386  0.87777117  0.45059884  1
  S2-  S207  1  0.23559726  0.87757856  0.95696483  1
  S2-  S208  1  0.51928488  0.12126005  0.45126316  1
  S2-  S209  1  0.48672754  0.12063924  0.96741914  1
  S2-  S210  1  0.51876276  0.37104439  0.45421576  1
  S2-  S211  1  0.48976432  0.37470177  0.96047413  1
  S2-  S212  1  0.52411002  0.61893120  0.45796360  1
  S2-  S213  1  0.49020603  0.62791156  0.95268417  1
  S2-  S214  1  0.51114493  0.88089405  0.44145158  1
  S2-  S215  1  0.48633310  0.87688757  0.96261834  1
  S2-  S216  1  0.76689311  0.12266434  0.44314585  1
  S2-  S217  1  0.73332069  0.12296459  0.95697894  1
  S2-  S218  1  0.76558087  0.36975737  0.45667591  1
  S2-  S219  1  0.73197821  0.37409462  0.95226873  1
  S2-  S220  1  0.76574723  0.62104713  0.45442278  1
  S2-  S221  1  0.73144464  0.62194245  0.95129964  1
  S2-  S222  1  0.76808963  0.87190004  0.45003925  1
  S2-  S223  1  0.73401037  0.87827946  0.96122734  1
  S2-  S224  1  0.10622751  0.00129178  0.03814371  1
  S2-  S225  1  0.14223841  -0.00176454  0.54966880  1
  S2-  S226  1  0.10611646  0.25203283  0.03190358  1
  S2-  S227  1  0.13831970  0.24700009  0.54765133  1
  S2-  S228  1  0.10750916  0.50209959  0.04653463  1
  S2-  S229  1  0.14345200  0.49831476  0.55354714  1
  S2-  S230  1  0.10963030  0.74662943  0.03940230  1
  S2-  S231  1  0.14406032  0.74772021  0.53728806  1
  S2-  S232  1  0.35706168  0.00206903  0.05491947  1
  S2-  S233  1  0.38932974  -0.00232172  0.55724297  1
  S2-  S234  1  0.36343404  0.25075045  0.04414147  1
  S2-  S235  1  0.39417269  0.24512495  0.54227205  1
  S2-  S236  1  0.36431183  0.50272807  0.03752866  1
  S2-  S237  1  0.38897729  0.49736576  0.55267166  1
  S2-  S238  1  0.35926140  0.75204380  0.04053057  1
  S2-  S239  1  0.39271274  0.75158922  0.53684550  1
  S2-  S240  1  0.60747091  -0.00110660  0.05819238  1
  S2-  S241  1  0.64140982  -0.00201606  0.53887279  1
  S2-  S242  1  0.60946569  0.25034404  0.04834069  1
  S2-  S243  1  0.64084984  0.24493562  0.54134973  1
  S2-  S244  1  0.60915288  0.50005921  0.04601163  1
  S2-  S245  1  0.63844471  0.49341237  0.54567530  1
  S2-  S246  1  0.61178345  0.75422027  0.04430497  1
  S2-  S247  1  0.64100927  0.75177677  0.53407806  1
  S2-  S248  1  0.85763616  0.00723868  0.04776555  1
  S2-  S249  1  0.89504643  -0.00170653  0.54632576  1
  S2-  S250  1  0.85778916  0.25237210  0.04141867  1
  S2-  S251  1  0.89258808  0.24709580  0.55190548  1
  S2-  S252  1  0.85786378  0.49613907  0.05033931  1
  S2-  S253  1  0.88961916  0.49761897  0.54774285  1
  S2-  S254  1  0.85703732  0.74804488  0.04189484  1
  S2-  S255  1  0.88361437  0.74180249  0.54500279  1
