# generated using pymatgen
data_La12Ce14Pr13Nd13Sm12(BiS2)64
_symmetry_space_group_name_H-M   'P 1'
_cell_length_a   16.09789466
_cell_length_b   16.12702598
_cell_length_c   27.15201666
_cell_angle_alpha   90.01569309
_cell_angle_beta   89.95297011
_cell_angle_gamma   89.94377382
_symmetry_Int_Tables_number   1
_chemical_formula_structural   La12Ce14Pr13Nd13Sm12(BiS2)64
_chemical_formula_sum   'La12 Ce14 Pr13 Nd13 Sm12 Bi64 S128'
_cell_volume   7048.96065541
_cell_formula_units_Z   1
loop_
 _symmetry_equiv_pos_site_id
 _symmetry_equiv_pos_as_xyz
  1  'x, y, z'
loop_
 _atom_type_symbol
 _atom_type_oxidation_number
  La3+  3.0
  Ce3+  3.0
  Pr3+  3.0
  Nd3+  3.0
  Sm3+  3.0
  Bi2+  2.0
  S2-  -2.0
loop_
 _atom_site_type_symbol
 _atom_site_label
 _atom_site_symmetry_multiplicity
 _atom_site_fract_x
 _atom_site_fract_y
 _atom_site_fract_z
 _atom_site_occupancy
  La3+  La0  1  0.48970231  0.87162442  0.59868099  1
  La3+  La1  1  0.24660843  0.13474318  0.08966576  1
  La3+  La2  1  0.75316737  0.86442025  0.59903729  1
  La3+  La3  1  0.74547117  0.63144449  0.07220323  1
  La3+  La4  1  0.24079132  0.86899238  0.08493893  1
  La3+  La5  1  0.23966815  0.86178114  0.56740971  1
  La3+  La6  1  0.23714817  0.35559079  0.56884620  1
  La3+  La7  1  0.75743687  0.37291706  0.11003424  1
  La3+  La8  1  0.61873860  0.25356852  0.92434937  1
  La3+  La9  1  0.48494241  0.61269928  0.57408029  1
  La3+  La10  1  0.49112995  0.11772571  0.55996451  1
  La3+  La11  1  0.61373114  0.00016302  0.88745596  1
  Ce3+  Ce12  1  0.24257177  0.61385122  0.55263529  1
  Ce3+  Ce13  1  -0.00637553  0.37539835  0.06058598  1
  Ce3+  Ce14  1  0.36902329  0.75761606  0.94081684  1
  Ce3+  Ce15  1  0.36574515  0.25146139  0.94152900  1
  Ce3+  Ce16  1  0.86642813  0.00462474  0.93816740  1
  Ce3+  Ce17  1  0.86924922  0.25003248  0.94055119  1
  Ce3+  Ce18  1  0.61669692  -0.01318087  0.44520827  1
  Ce3+  Ce19  1  0.36771491  -0.01464668  0.43674340  1
  Ce3+  Ce20  1  0.36034839  0.48748135  0.43388219  1
  Ce3+  Ce21  1  -0.01060429  0.10778621  0.55664543  1
  Ce3+  Ce22  1  0.49748297  0.12709508  0.05563354  1
  Ce3+  Ce23  1  0.12120990  0.75838208  0.93862189  1
  Ce3+  Ce24  1  0.50348283  0.37705433  0.06363811  1
  Ce3+  Ce25  1  0.11566216  0.23002775  0.42859485  1
  Pr3+  Pr26  1  0.24655625  0.38100826  0.06940695  1
  Pr3+  Pr27  1  -0.00971562  0.61515630  0.56248531  1
  Pr3+  Pr28  1  0.36300986  0.00420129  0.94020091  1
  Pr3+  Pr29  1  0.11046425  0.74122047  0.42239462  1
  Pr3+  Pr30  1  0.86831276  0.49871326  0.94381057  1
  Pr3+  Pr31  1  0.86904190  0.75588945  0.93339951  1
  Pr3+  Pr32  1  0.36841587  0.73850254  0.43757386  1
  Pr3+  Pr33  1  0.62014474  0.75077604  0.93420102  1
  Pr3+  Pr34  1  0.62128957  0.50637152  0.94164196  1
  Pr3+  Pr35  1  -0.00546492  0.87874311  0.06327825  1
  Pr3+  Pr36  1  -0.00440550  0.36192023  0.55934597  1
  Pr3+  Pr37  1  0.35939084  0.24110176  0.42115410  1
  Pr3+  Pr38  1  0.11597057  0.48692812  0.43135378  1
  Nd3+  Nd39  1  0.48432158  0.36000074  0.55565229  1
  Nd3+  Nd40  1  0.11567576  -0.01542864  0.43146335  1
  Nd3+  Nd41  1  0.73782464  0.60879211  0.57004989  1
  Nd3+  Nd42  1  -0.00976845  0.86042158  0.55759902  1
  Nd3+  Nd43  1  0.86226990  0.73269259  0.43600536  1
  Nd3+  Nd44  1  0.73929663  0.11530403  0.56606678  1
  Nd3+  Nd45  1  0.61756954  0.22957304  0.42172377  1
  Nd3+  Nd46  1  0.86180481  -0.01336064  0.43538691  1
  Nd3+  Nd47  1  0.12024376  0.50135055  0.94331463  1
  Nd3+  Nd48  1  0.49563404  0.63377345  0.06567002  1
  Nd3+  Nd49  1  0.60714715  0.50021015  0.42382454  1
  Nd3+  Nd50  1  0.36897454  0.50297594  0.94499965  1
  Nd3+  Nd51  1  0.73265881  0.36173835  0.56362070  1
  Sm3+  Sm52  1  -0.00735730  0.62778173  0.05318967  1
  Sm3+  Sm53  1  0.24100139  0.11032234  0.55154607  1
  Sm3+  Sm54  1  -0.00594190  0.12688378  0.06646997  1
  Sm3+  Sm55  1  0.74461778  0.87809808  0.06048970  1
  Sm3+  Sm56  1  0.74183929  0.12939484  0.05482261  1
  Sm3+  Sm57  1  0.49530669  0.88140800  0.05561388  1
  Sm3+  Sm58  1  0.86285305  0.23863359  0.44512462  1
  Sm3+  Sm59  1  0.61539400  0.73824919  0.45277446  1
  Sm3+  Sm60  1  0.24503247  0.62873078  0.05666363  1
  Sm3+  Sm61  1  0.12420815  0.00488328  0.94926151  1
  Sm3+  Sm62  1  0.86176403  0.48514189  0.44454375  1
  Sm3+  Sm63  1  0.12380148  0.24846398  0.94319281  1
  Bi2+  Bi64  1  -0.00950444  0.12063743  0.29056210  1
  Bi2+  Bi65  1  0.00376943  0.17622851  0.83014567  1
  Bi2+  Bi66  1  -0.00971678  0.41689110  0.25288915  1
  Bi2+  Bi67  1  0.00154902  0.36252509  0.79220790  1
  Bi2+  Bi68  1  0.03985096  0.58382240  0.30799011  1
  Bi2+  Bi69  1  0.01720584  0.56508059  0.76089008  1
  Bi2+  Bi70  1  0.00585421  0.84940457  0.28624906  1
  Bi2+  Bi71  1  0.02339332  0.89280916  0.78849200  1
  Bi2+  Bi72  1  0.26303040  0.13435732  0.29355434  1
  Bi2+  Bi73  1  0.18867162  0.13249431  0.79828914  1
  Bi2+  Bi74  1  0.23722707  0.38588779  0.27608486  1
  Bi2+  Bi75  1  0.23946181  0.39651338  0.80042251  1
  Bi2+  Bi76  1  0.22508565  0.62792613  0.28826704  1
  Bi2+  Bi77  1  0.18490026  0.67008399  0.73879664  1
  Bi2+  Bi78  1  0.26496610  0.88129724  0.28219342  1
  Bi2+  Bi79  1  0.21867612  0.86703415  0.80491618  1
  Bi2+  Bi80  1  0.55118349  0.04376115  0.27264414  1
  Bi2+  Bi81  1  0.46967408  0.15584421  0.78810023  1
  Bi2+  Bi82  1  0.48239314  0.37734958  0.30609391  1
  Bi2+  Bi83  1  0.53073614  0.40323332  0.79644413  1
  Bi2+  Bi84  1  0.48738629  0.67814683  0.30483005  1
  Bi2+  Bi85  1  0.47926830  0.59651453  0.79796721  1
  Bi2+  Bi86  1  0.55078561  0.85966967  0.30975875  1
  Bi2+  Bi87  1  0.47812091  0.88395973  0.78684055  1
  Bi2+  Bi88  1  0.77024132  0.09064339  0.29224059  1
  Bi2+  Bi89  1  0.77728275  0.15746315  0.78743824  1
  Bi2+  Bi90  1  0.76427019  0.36891929  0.31558718  1
  Bi2+  Bi91  1  0.72841042  0.41686186  0.79889399  1
  Bi2+  Bi92  1  0.76060722  0.68101791  0.29863342  1
  Bi2+  Bi93  1  0.74348725  0.61617419  0.78635594  1
  Bi2+  Bi94  1  0.75739001  0.87561507  0.30196956  1
  Bi2+  Bi95  1  0.75553647  0.87127435  0.78560935  1
  Bi2+  Bi96  1  0.07447648  -0.01243018  0.21617765  1
  Bi2+  Bi97  1  0.13882122  -0.02085080  0.70837001  1
  Bi2+  Bi98  1  0.05972120  0.24977426  0.21279012  1
  Bi2+  Bi99  1  0.13170136  0.21785939  0.70174242  1
  Bi2+  Bi100  1  0.14664150  0.49792400  0.19440227  1
  Bi2+  Bi101  1  0.16768672  0.48146330  0.70449061  1
  Bi2+  Bi102  1  0.11089970  0.71212889  0.20592922  1
  Bi2+  Bi103  1  0.09345668  0.79737986  0.66930383  1
  Bi2+  Bi104  1  0.43652858  -0.02226613  0.19151899  1
  Bi2+  Bi105  1  0.32835300  0.02851083  0.70415267  1
  Bi2+  Bi106  1  0.39430663  0.24882522  0.19630813  1
  Bi2+  Bi107  1  0.36922465  0.29481760  0.73595758  1
  Bi2+  Bi108  1  0.34051921  0.51145843  0.21181736  1
  Bi2+  Bi109  1  0.39192044  0.50066913  0.70763237  1
  Bi2+  Bi110  1  0.39685335  0.69845593  0.20175886  1
  Bi2+  Bi111  1  0.36260989  0.73605945  0.71566637  1
  Bi2+  Bi112  1  0.70144832  -0.02104350  0.20250015  1
  Bi2+  Bi113  1  0.63145657  0.05483618  0.68901889  1
  Bi2+  Bi114  1  0.61755129  0.24337174  0.21726651  1
  Bi2+  Bi115  1  0.61113884  0.30024453  0.70124150  1
  Bi2+  Bi116  1  0.62390788  0.50877340  0.21916112  1
  Bi2+  Bi117  1  0.58796779  0.51453930  0.69871432  1
  Bi2+  Bi118  1  0.62891479  0.76913729  0.21766574  1
  Bi2+  Bi119  1  0.63087368  0.72935779  0.72037263  1
  Bi2+  Bi120  1  0.89218468  -0.01435335  0.16470873  1
  Bi2+  Bi121  1  0.93554220  0.05484348  0.74621041  1
  Bi2+  Bi122  1  0.87786627  0.17611666  0.19973164  1
  Bi2+  Bi123  1  0.90216277  0.25545020  0.71614338  1
  Bi2+  Bi124  1  0.87920951  0.58386862  0.22925030  1
  Bi2+  Bi125  1  0.85762152  0.44459968  0.71113247  1
  Bi2+  Bi126  1  0.86966238  0.79839014  0.20816019  1
  Bi2+  Bi127  1  0.91518164  0.72621499  0.70393067  1
  S2-  S128  1  0.09707334  0.12210781  0.14759216  1
  S2-  S129  1  0.02131474  0.10196635  0.65380979  1
  S2-  S130  1  -0.07411484  0.36891073  0.15004342  1
  S2-  S131  1  0.10391876  0.35757903  0.64125763  1
  S2-  S132  1  -0.02454244  0.64536183  0.15095044  1
  S2-  S133  1  -0.03912784  0.56704334  0.65884111  1
  S2-  S134  1  0.09109566  0.85925977  0.14800732  1
  S2-  S135  1  -0.08476800  0.86106246  0.64950906  1
  S2-  S136  1  0.30776152  0.11013268  0.19207203  1
  S2-  S137  1  0.26075829  0.16148452  0.64567983  1
  S2-  S138  1  0.25605290  0.28848777  0.15346789  1
  S2-  S139  1  0.35635032  0.37296547  0.64467602  1
  S2-  S140  1  0.25447794  0.70820450  0.14364696  1
  S2-  S141  1  0.32688361  0.61803133  0.63803930  1
  S2-  S142  1  0.29130896  0.90783733  0.18347361  1
  S2-  S143  1  0.33311153  0.87063038  0.65556147  1
  S2-  S144  1  0.51200849  0.13476647  0.15502002  1
  S2-  S145  1  0.46675987  0.03222221  0.65144725  1
  S2-  S146  1  0.52570831  0.36681697  0.16306926  1
  S2-  S147  1  0.50982552  0.24721259  0.63297064  1
  S2-  S148  1  0.54011578  0.60760057  0.16153489  1
  S2-  S149  1  0.50184585  0.71996979  0.65717044  1
  S2-  S150  1  0.49380040  0.82966210  0.15093526  1
  S2-  S151  1  0.62318888  0.88160161  0.66764829  1
  S2-  S152  1  0.73128314  0.20452652  0.14426065  1
  S2-  S153  1  0.72437280  0.24171152  0.64032667  1
  S2-  S154  1  0.72921564  0.36629629  0.21746193  1
  S2-  S155  1  0.73086373  0.47907574  0.64156542  1
  S2-  S156  1  0.75187970  0.53496996  0.15771447  1
  S2-  S157  1  0.76374724  0.70664098  0.65442185  1
  S2-  S158  1  0.74326437  0.76884274  0.14005905  1
  S2-  S159  1  0.77500257  1.02468594  0.65095039  1
  S2-  S160  1  0.12020415  0.09813376  0.35309902  1
  S2-  S161  1  0.22600520  0.00553971  0.86818396  1
  S2-  S162  1  0.21716069  0.27025540  0.35114091  1
  S2-  S163  1  0.23910422  0.25366147  0.86782758  1
  S2-  S164  1  0.23864797  0.48745024  0.35712577  1
  S2-  S165  1  0.10276475  0.48643360  0.84497100  1
  S2-  S166  1  0.13505198  0.87194684  0.35233500  1
  S2-  S167  1  0.09080564  0.75898693  0.84179388  1
  S2-  S168  1  0.33782972  -0.00556323  0.33727672  1
  S2-  S169  1  0.44432840  0.01184941  0.84699666  1
  S2-  S170  1  0.40537742  0.21553236  0.32064343  1
  S2-  S171  1  0.46328520  0.27370175  0.85980888  1
  S2-  S172  1  0.45187086  0.52146593  0.35263595  1
  S2-  S173  1  0.34412042  0.51460504  0.84601973  1
  S2-  S174  1  0.32595178  0.74794286  0.33860313  1
  S2-  S175  1  0.36110667  0.78286502  0.84306922  1
  S2-  S176  1  0.63467365  0.07616505  0.36036038  1
  S2-  S177  1  0.61062642  -0.01824789  0.77388153  1
  S2-  S178  1  0.61419399  0.27208297  0.32249270  1
  S2-  S179  1  0.62245421  0.15421394  0.83721518  1
  S2-  S180  1  0.62919713  0.46365963  0.32337385  1
  S2-  S181  1  0.61719736  0.61705898  0.86064731  1
  S2-  S182  1  0.63160810  0.65682126  0.36511524  1
  S2-  S183  1  0.61249333  0.83440925  0.84508145  1
  S2-  S184  1  0.90111599  -0.02102495  0.33681795  1
  S2-  S185  1  0.78823533  -0.00247898  0.85038999  1
  S2-  S186  1  0.84712548  0.22347357  0.34743295  1
  S2-  S187  1  0.78381781  0.27640348  0.85553781  1
  S2-  S188  1  0.84338326  0.50486600  0.34762978  1
  S2-  S189  1  0.84415086  0.52629479  0.84460943  1
  S2-  S190  1  0.97053122  0.72707799  0.35571355  1
  S2-  S191  1  0.84164329  0.76184863  0.83217848  1
  S2-  S192  1  -0.01583394  0.11167236  0.45080889  1
  S2-  S193  1  -0.00165639  0.12584402  0.96088475  1
  S2-  S194  1  -0.01039015  0.36170492  0.44864333  1
  S2-  S195  1  -0.00208617  0.37347877  0.95254332  1
  S2-  S196  1  -0.01168801  0.60690744  0.45521142  1
  S2-  S197  1  -0.00497046  0.62792817  0.94764371  1
  S2-  S198  1  -0.01372023  0.86357261  0.45228086  1
  S2-  S199  1  -0.00438535  0.88318965  0.95207907  1
  S2-  S200  1  0.24431261  0.10896258  0.44917814  1
  S2-  S201  1  0.24254934  0.12887669  0.97264234  1
  S2-  S202  1  0.23529291  0.36148069  0.45901019  1
  S2-  S203  1  0.24346384  0.38081978  0.96305130  1
  S2-  S204  1  0.23634003  0.62003590  0.44885991  1
  S2-  S205  1  0.24320661  0.62890729  0.95163678  1
  S2-  S206  1  0.24167255  0.86276857  0.45679461  1
  S2-  S207  1  0.24267210  0.87585377  0.96652372  1
  S2-  S208  1  0.48720145  0.11393897  0.44862424  1
  S2-  S209  1  0.49513691  0.12364540  0.95226059  1
  S2-  S210  1  0.49093204  0.36126234  0.44398021  1
  S2-  S211  1  0.49489338  0.38423720  0.95800882  1
  S2-  S212  1  0.48916029  0.61606050  0.46346889  1
  S2-  S213  1  0.48881523  0.63009312  0.95837212  1
  S2-  S214  1  0.49454420  0.86191694  0.44625509  1
  S2-  S215  1  0.49441639  0.88171519  0.95218184  1
  S2-  S216  1  0.74555523  0.11391605  0.45884445  1
  S2-  S217  1  0.74273518  0.12621860  0.95205800  1
  S2-  S218  1  0.73737140  0.36363040  0.45053125  1
  S2-  S219  1  0.74212329  0.38018879  0.95418861  1
  S2-  S220  1  0.74269129  0.60910474  0.46251371  1
  S2-  S221  1  0.75011411  0.63000299  0.96022358  1
  S2-  S222  1  0.73962662  0.85894184  0.44379159  1
  S2-  S223  1  0.74414214  0.87831975  0.95614849  1
  S2-  S224  1  0.12163518  0.00243494  0.05144784  1
  S2-  S225  1  0.11621641  -0.01368115  0.54319032  1
  S2-  S226  1  0.11822406  0.25492276  0.04842753  1
  S2-  S227  1  0.11319426  0.22942617  0.53733878  1
  S2-  S228  1  0.11908180  0.50582052  0.05038433  1
  S2-  S229  1  0.11610979  0.49174810  0.54078583  1
  S2-  S230  1  0.11671348  0.74738200  0.04332795  1
  S2-  S231  1  0.11573135  0.73610444  0.53754982  1
  S2-  S232  1  0.36772128  0.00168113  0.05521508  1
  S2-  S233  1  0.36541185  -0.01249520  0.54285567  1
  S2-  S234  1  0.37474811  0.25582203  0.04965551  1
  S2-  S235  1  0.36058046  0.23556476  0.53284762  1
  S2-  S236  1  0.37134967  0.50608627  0.05435196  1
  S2-  S237  1  0.36270355  0.48638648  0.53966663  1
  S2-  S238  1  0.37092024  0.75461965  0.04611871  1
  S2-  S239  1  0.36971311  0.74558439  0.54418971  1
  S2-  S240  1  0.62327250  0.00028418  0.05770149  1
  S2-  S241  1  0.61815416  -0.01476568  0.54955133  1
  S2-  S242  1  0.62030236  0.25214100  0.04036676  1
  S2-  S243  1  0.61678732  0.24008143  0.52941348  1
  S2-  S244  1  0.62056054  0.50580871  0.04914020  1
  S2-  S245  1  0.60800784  0.48621061  0.54046213  1
  S2-  S246  1  0.61701050  0.75695639  0.04236449  1
  S2-  S247  1  0.61903969  0.74091247  0.55426023  1
  S2-  S248  1  0.86794501  0.00511570  0.04411762  1
  S2-  S249  1  0.86587775  -0.01584275  0.54140969  1
  S2-  S250  1  0.87051420  0.24962466  0.04676716  1
  S2-  S251  1  0.86951296  0.24009705  0.54954716  1
  S2-  S252  1  0.87096791  0.50099645  0.04987582  1
  S2-  S253  1  0.86841487  0.48337339  0.54776424  1
  S2-  S254  1  0.87392317  0.75530165  0.04140371  1
  S2-  S255  1  0.86495782  0.73721472  0.54224361  1
