# generated using pymatgen
data_La12Ce14Pr13Nd13Sm12(BiS2)64
_symmetry_space_group_name_H-M   'P 1'
_cell_length_a   16.10482042
_cell_length_b   16.08546046
_cell_length_c   27.31235404
_cell_angle_alpha   90.16128657
_cell_angle_beta   89.77180015
_cell_angle_gamma   90.10872252
_symmetry_Int_Tables_number   1
_chemical_formula_structural   La12Ce14Pr13Nd13Sm12(BiS2)64
_chemical_formula_sum   'La12 Ce14 Pr13 Nd13 Sm12 Bi64 S128'
_cell_volume   7075.26285494
_cell_formula_units_Z   1
loop_
 _symmetry_equiv_pos_site_id
 _symmetry_equiv_pos_as_xyz
  1  'x, y, z'
loop_
 _atom_type_symbol
 _atom_type_oxidation_number
  La3+  3.0
  Ce3+  3.0
  Pr3+  3.0
  Nd3+  3.0
  Sm3+  3.0
  Bi2+  2.0
  S2-  -2.0
loop_
 _atom_site_type_symbol
 _atom_site_label
 _atom_site_symmetry_multiplicity
 _atom_site_fract_x
 _atom_site_fract_y
 _atom_site_fract_z
 _atom_site_occupancy
  La3+  La0  1  0.62790255  -0.01997445  0.43969927  1
  La3+  La1  1  -0.01585595  0.13601953  0.06591180  1
  La3+  La2  1  0.76271424  0.61302642  0.59672132  1
  La3+  La3  1  0.52596646  0.63597643  0.11974572  1
  La3+  La4  1  -0.00654150  0.64348234  0.07658464  1
  La3+  La5  1  0.24828765  0.63250724  0.06473440  1
  La3+  La6  1  0.62984603  0.72901668  0.42740739  1
  La3+  La7  1  0.35636245  0.75524076  0.91959385  1
  La3+  La8  1  0.63176682  0.22948230  0.43521833  1
  La3+  La9  1  -0.01661781  0.38167976  0.06306508  1
  La3+  La10  1  0.23324703  0.12949673  0.06250782  1
  La3+  La11  1  0.11307137  0.01349656  0.91250366  1
  Ce3+  Ce12  1  0.00231499  0.85725363  0.55626375  1
  Ce3+  Ce13  1  0.47342567  0.87579109  0.05789057  1
  Ce3+  Ce14  1  0.75353882  0.85896758  0.55710526  1
  Ce3+  Ce15  1  0.38027595  -0.01821254  0.45099421  1
  Ce3+  Ce16  1  0.13155739  0.73213135  0.45029567  1
  Ce3+  Ce17  1  0.60434556  0.75692738  0.93569702  1
  Ce3+  Ce18  1  0.51054672  0.85191446  0.57496561  1
  Ce3+  Ce19  1  0.76140623  0.11077810  0.57507393  1
  Ce3+  Ce20  1  0.48263123  0.13032735  0.06449524  1
  Ce3+  Ce21  1  0.00118443  0.36127431  0.55492970  1
  Ce3+  Ce22  1  0.61006714  0.00929657  0.94539716  1
  Ce3+  Ce23  1  0.11189278  0.75632742  0.93073310  1
  Ce3+  Ce24  1  0.62979712  0.48915308  0.44800216  1
  Ce3+  Ce25  1  -0.01003584  0.88560775  0.04588210  1
  Pr3+  Pr26  1  0.73564549  0.38869394  0.06018778  1
  Pr3+  Pr27  1  0.36175118  0.50740238  0.92525556  1
  Pr3+  Pr28  1  0.25340348  0.10990275  0.57205798  1
  Pr3+  Pr29  1  0.00824681  0.10820817  0.57219820  1
  Pr3+  Pr30  1  0.73254869  0.87836466  0.05423317  1
  Pr3+  Pr31  1  0.13465052  -0.01529566  0.43906089  1
  Pr3+  Pr32  1  0.25084406  0.60116003  0.57938589  1
  Pr3+  Pr33  1  0.50153484  0.61190184  0.57937920  1
  Pr3+  Pr34  1  0.86133875  0.75794215  0.92985210  1
  Pr3+  Pr35  1  0.38029435  0.48838952  0.44038875  1
  Pr3+  Pr36  1  0.87852698  0.73426066  0.43107942  1
  Pr3+  Pr37  1  0.23467139  0.88572444  0.04878641  1
  Pr3+  Pr38  1  0.50819676  0.36359862  0.56769204  1
  Nd3+  Nd39  1  0.50199660  0.10857676  0.57508245  1
  Nd3+  Nd40  1  0.36330743  0.25330016  0.93141785  1
  Nd3+  Nd41  1  0.87500925  0.23664829  0.43790864  1
  Nd3+  Nd42  1  0.85323575  0.25261632  0.92050305  1
  Nd3+  Nd43  1  0.47827900  0.39001258  0.05992287  1
  Nd3+  Nd44  1  0.10900429  0.50833644  0.94150403  1
  Nd3+  Nd45  1  0.86408432  0.51163720  0.93069202  1
  Nd3+  Nd46  1  0.75498803  0.35643935  0.56967560  1
  Nd3+  Nd47  1  0.88517535  -0.00457992  0.43840412  1
  Nd3+  Nd48  1  0.25449556  0.36137595  0.56098526  1
  Nd3+  Nd49  1  0.73166168  0.14186736  0.07633438  1
  Nd3+  Nd50  1  0.36337455  0.00744499  0.91836792  1
  Nd3+  Nd51  1  0.10213382  0.25829989  0.92814760  1
  Sm3+  Sm52  1  0.61376001  0.25612945  0.94314455  1
  Sm3+  Sm53  1  0.00107058  0.60971867  0.55423287  1
  Sm3+  Sm54  1  0.13106282  0.48540872  0.43881791  1
  Sm3+  Sm55  1  0.87706026  0.48441509  0.44313125  1
  Sm3+  Sm56  1  0.13038256  0.23328875  0.44425903  1
  Sm3+  Sm57  1  0.37963752  0.23378373  0.44749173  1
  Sm3+  Sm58  1  0.37914381  0.73248498  0.45350110  1
  Sm3+  Sm59  1  0.25252253  0.85966148  0.57170907  1
  Sm3+  Sm60  1  0.85905164  0.01168137  0.93924104  1
  Sm3+  Sm61  1  0.60899920  0.50800774  0.93966314  1
  Sm3+  Sm62  1  0.73873346  0.63357424  0.04859076  1
  Sm3+  Sm63  1  0.23702976  0.38152680  0.04423252  1
  Bi2+  Bi64  1  0.04214203  0.13038919  0.28406461  1
  Bi2+  Bi65  1  -0.00587936  0.13537655  0.79686097  1
  Bi2+  Bi66  1  -0.04268551  0.38936751  0.27261294  1
  Bi2+  Bi67  1  0.02531025  0.36465069  0.76217227  1
  Bi2+  Bi68  1  -0.02229221  0.71907646  0.30267010  1
  Bi2+  Bi69  1  0.02134642  0.57810980  0.79354611  1
  Bi2+  Bi70  1  -0.02647848  0.88381525  0.24081539  1
  Bi2+  Bi71  1  -0.01197024  0.80157268  0.80820690  1
  Bi2+  Bi72  1  0.25509020  0.12343611  0.31553205  1
  Bi2+  Bi73  1  0.25846117  0.13147733  0.77900525  1
  Bi2+  Bi74  1  0.22374492  0.36037822  0.23952485  1
  Bi2+  Bi75  1  0.21644886  0.35315962  0.79199659  1
  Bi2+  Bi76  1  0.24338749  0.61176864  0.31455018  1
  Bi2+  Bi77  1  0.24893048  0.62098127  0.78264167  1
  Bi2+  Bi78  1  0.19840218  0.87717755  0.29095766  1
  Bi2+  Bi79  1  0.27802300  0.86807293  0.77688948  1
  Bi2+  Bi80  1  0.52583256  0.20605928  0.31038151  1
  Bi2+  Bi81  1  0.51010397  0.21631377  0.79830867  1
  Bi2+  Bi82  1  0.55751042  0.38839129  0.25607783  1
  Bi2+  Bi83  1  0.40258479  0.37442747  0.81680948  1
  Bi2+  Bi84  1  0.47156472  0.60653183  0.31345211  1
  Bi2+  Bi85  1  0.51603661  0.62562412  0.78537230  1
  Bi2+  Bi86  1  0.46808731  0.90772196  0.28704179  1
  Bi2+  Bi87  1  0.54544023  0.92288389  0.79232724  1
  Bi2+  Bi88  1  0.77931753  0.11544016  0.31382906  1
  Bi2+  Bi89  1  0.74056223  0.07436260  0.78173612  1
  Bi2+  Bi90  1  0.74745365  0.39789500  0.29450554  1
  Bi2+  Bi91  1  0.75119336  0.33295262  0.77775619  1
  Bi2+  Bi92  1  0.79359693  0.61102947  0.28018946  1
  Bi2+  Bi93  1  0.73761298  0.59158692  0.81375030  1
  Bi2+  Bi94  1  0.72094481  0.86824455  0.29620584  1
  Bi2+  Bi95  1  0.80418711  0.87689888  0.79571140  1
  Bi2+  Bi96  1  0.21610692  -0.02095506  0.19800546  1
  Bi2+  Bi97  1  0.09235968  -0.03809170  0.70902715  1
  Bi2+  Bi98  1  0.14470955  0.19487003  0.19937233  1
  Bi2+  Bi99  1  0.15450587  0.24377224  0.70250056  1
  Bi2+  Bi100  1  0.09900530  0.51565132  0.23406665  1
  Bi2+  Bi101  1  0.11616726  0.53702857  0.69515484  1
  Bi2+  Bi102  1  0.11982950  0.75794107  0.20971679  1
  Bi2+  Bi103  1  0.11199261  0.72548033  0.72643275  1
  Bi2+  Bi104  1  0.39573005  0.05352371  0.22234981  1
  Bi2+  Bi105  1  0.44319390  0.04597370  0.72723354  1
  Bi2+  Bi106  1  0.40072809  0.27178271  0.23183755  1
  Bi2+  Bi107  1  0.34772966  0.28787123  0.69751929  1
  Bi2+  Bi108  1  0.36226190  0.49034225  0.20388885  1
  Bi2+  Bi109  1  0.40214194  0.49809875  0.72467746  1
  Bi2+  Bi110  1  0.38589911  0.77179751  0.21038165  1
  Bi2+  Bi111  1  0.41295760  0.76372177  0.70942786  1
  Bi2+  Bi112  1  0.59451642  0.02279091  0.22850848  1
  Bi2+  Bi113  1  0.63186132  0.08076734  0.68545062  1
  Bi2+  Bi114  1  0.65253305  0.22137266  0.22030567  1
  Bi2+  Bi115  1  0.54466409  0.26225576  0.68829746  1
  Bi2+  Bi116  1  0.73627556  0.48817032  0.19301814  1
  Bi2+  Bi117  1  0.60652290  0.43667005  0.73043887  1
  Bi2+  Bi118  1  0.65512233  0.78641359  0.20574170  1
  Bi2+  Bi119  1  0.64858047  0.84213585  0.71124877  1
  Bi2+  Bi120  1  0.82666195  0.01021807  0.21893976  1
  Bi2+  Bi121  1  0.80183697  -0.03311624  0.69035913  1
  Bi2+  Bi122  1  0.88832887  0.25513207  0.20452112  1
  Bi2+  Bi123  1  0.87768047  0.23916410  0.70682902  1
  Bi2+  Bi124  1  0.93098375  0.50028696  0.17477809  1
  Bi2+  Bi125  1  0.87172510  0.48698732  0.70801197  1
  Bi2+  Bi126  1  0.90169104  0.70043730  0.19849055  1
  Bi2+  Bi127  1  0.88981443  0.74056392  0.71287023  1
  S2-  S128  1  0.11016821  0.06752511  0.13209576  1
  S2-  S129  1  -0.10049175  0.09833945  0.65158881  1
  S2-  S130  1  0.01455105  0.27367062  0.14177834  1
  S2-  S131  1  -0.03090593  0.36464644  0.65076199  1
  S2-  S132  1  0.12924635  0.63156345  0.14550904  1
  S2-  S133  1  -0.06864393  0.61409251  0.64393779  1
  S2-  S134  1  -0.00724672  0.81784656  0.13626551  1
  S2-  S135  1  -0.00044840  0.86575446  0.65487234  1
  S2-  S136  1  0.36132701  0.13685173  0.13661125  1
  S2-  S137  1  0.13191745  0.09724351  0.64794714  1
  S2-  S138  1  0.27377743  0.39861476  0.13978353  1
  S2-  S139  1  0.23222337  0.45445694  0.64368169  1
  S2-  S140  1  0.35444527  0.63987295  0.14838069  1
  S2-  S141  1  0.35643192  0.63532837  0.65840342  1
  S2-  S142  1  0.31531330  0.86977153  0.13934836  1
  S2-  S143  1  0.22997367  0.89022103  0.66959369  1
  S2-  S144  1  0.59535675  0.12403696  0.14277603  1
  S2-  S145  1  0.37313048  0.12567557  0.64708719  1
  S2-  S146  1  0.50217673  0.46479903  0.14967160  1
  S2-  S147  1  0.51442679  0.47672799  0.64811192  1
  S2-  S148  1  0.52709454  0.66234683  0.22857563  1
  S2-  S149  1  0.55192790  0.72689254  0.65357849  1
  S2-  S150  1  0.51967368  0.81518077  0.14679812  1
  S2-  S151  1  0.45287647  0.91169670  0.66221992  1
  S2-  S152  1  0.86418044  0.11352580  0.14417418  1
  S2-  S153  1  0.74633594  0.23589531  0.64462691  1
  S2-  S154  1  0.74803826  0.29356683  0.14491069  1
  S2-  S155  1  0.74537385  0.45985503  0.65121498  1
  S2-  S156  1  0.69986724  0.64300590  0.14457193  1
  S2-  S157  1  0.76393195  0.62097578  0.72068953  1
  S2-  S158  1  0.74860679  0.89115438  0.15430685  1
  S2-  S159  1  0.76926693  0.77844417  0.64300121  1
  S2-  S160  1  0.10187944  -0.00755721  0.33995926  1
  S2-  S161  1  0.03688052  -0.03252183  0.81310090  1
  S2-  S162  1  0.13906454  0.23506402  0.34585357  1
  S2-  S163  1  0.13302605  0.15546477  0.84777602  1
  S2-  S164  1  0.12793753  0.50449285  0.34106446  1
  S2-  S165  1  0.15290199  0.50998016  0.84400261  1
  S2-  S166  1  0.13799999  0.74298465  0.35257533  1
  S2-  S167  1  0.20539684  0.75663615  0.84691598  1
  S2-  S168  1  0.35498212  -0.01301614  0.35403294  1
  S2-  S169  1  0.24542180  -0.00940326  0.83873379  1
  S2-  S170  1  0.35948279  0.23574075  0.34956693  1
  S2-  S171  1  0.38311323  0.14618001  0.85103985  1
  S2-  S172  1  0.34878218  0.48740219  0.34111387  1
  S2-  S173  1  0.37668004  0.62242098  0.84624634  1
  S2-  S174  1  0.37183646  0.72293541  0.35423572  1
  S2-  S175  1  0.40552728  0.86875547  0.84277188  1
  S2-  S176  1  0.62420772  0.09732242  0.36431528  1
  S2-  S177  1  0.60602589  0.05064782  0.84987095  1
  S2-  S178  1  0.75775652  0.26689734  0.36169879  1
  S2-  S179  1  0.70716378  0.25965352  0.86022504  1
  S2-  S180  1  0.60758877  0.57962538  0.36462723  1
  S2-  S181  1  0.59756374  0.49520023  0.83977618  1
  S2-  S182  1  0.58576464  0.86327224  0.36206164  1
  S2-  S183  1  0.62319370  0.72624988  0.83825250  1
  S2-  S184  1  0.83030867  -0.04326696  0.34657617  1
  S2-  S185  1  0.85667310  0.10341851  0.85537936  1
  S2-  S186  1  0.92715773  0.13682940  0.36026582  1
  S2-  S187  1  0.98088511  0.28334575  0.84990982  1
  S2-  S188  1  0.87869574  0.49522657  0.34414877  1
  S2-  S189  1  0.82817368  0.45049620  0.83688541  1
  S2-  S190  1  0.76727492  0.73027394  0.35265931  1
  S2-  S191  1  0.88628250  0.64361820  0.85465221  1
  S2-  S192  1  0.01376758  0.11044638  0.46480352  1
  S2-  S193  1  -0.01929165  0.13433112  0.95407969  1
  S2-  S194  1  0.00637585  0.36013099  0.44648107  1
  S2-  S195  1  -0.01841414  0.38725366  0.95405621  1
  S2-  S196  1  0.00424909  0.60655819  0.44953219  1
  S2-  S197  1  -0.01040259  0.63406084  0.95891369  1
  S2-  S198  1  0.00535085  0.86027569  0.44877607  1
  S2-  S199  1  -0.01667079  0.88575713  0.94086836  1
  S2-  S200  1  0.25502826  0.11267421  0.46238591  1
  S2-  S201  1  0.23977627  0.13454684  0.95174165  1
  S2-  S202  1  0.25333039  0.35949861  0.45438093  1
  S2-  S203  1  0.23479991  0.37957434  0.94096110  1
  S2-  S204  1  0.25309865  0.60749947  0.46432724  1
  S2-  S205  1  0.23336121  0.62913568  0.95246512  1
  S2-  S206  1  0.25482268  0.85690620  0.46279847  1
  S2-  S207  1  0.23469572  0.88515044  0.94431572  1
  S2-  S208  1  0.49816281  0.10975767  0.46596622  1
  S2-  S209  1  0.48926380  0.13533728  0.95787247  1
  S2-  S210  1  0.50374228  0.35943207  0.45411323  1
  S2-  S211  1  0.49005892  0.38077023  0.95095129  1
  S2-  S212  1  0.49946371  0.61129010  0.46801930  1
  S2-  S213  1  0.48868311  0.62984417  0.94425554  1
  S2-  S214  1  0.49893236  0.85550861  0.46796306  1
  S2-  S215  1  0.48672517  0.88497575  0.95164412  1
  S2-  S216  1  0.75798002  0.10821216  0.46529104  1
  S2-  S217  1  0.73365348  0.13108932  0.96477412  1
  S2-  S218  1  0.75284861  0.36533712  0.46363757  1
  S2-  S219  1  0.73562017  0.38851968  0.95511325  1
  S2-  S220  1  0.75956002  0.60562462  0.45515246  1
  S2-  S221  1  0.73223182  0.63262249  0.94650497  1
  S2-  S222  1  0.75907969  0.86226565  0.45456248  1
  S2-  S223  1  0.73596319  0.88266310  0.94608343  1
  S2-  S224  1  0.10874587  0.00581288  0.02404914  1
  S2-  S225  1  0.13145647  -0.02138940  0.54640040  1
  S2-  S226  1  0.11484576  0.25903459  0.03485311  1
  S2-  S227  1  0.12976728  0.23924275  0.54926563  1
  S2-  S228  1  0.11221409  0.50419077  0.04621114  1
  S2-  S229  1  0.12300576  0.48544112  0.54271289  1
  S2-  S230  1  0.11449139  0.75870066  0.03677099  1
  S2-  S231  1  0.12983088  0.73128793  0.55846830  1
  S2-  S232  1  0.36101545  0.00768778  0.03373190  1
  S2-  S233  1  0.37576796  -0.01939684  0.55448998  1
  S2-  S234  1  0.36152401  0.26154677  0.03681883  1
  S2-  S235  1  0.38091469  0.24059808  0.54963145  1
  S2-  S236  1  0.35820867  0.50327014  0.03171536  1
  S2-  S237  1  0.37931337  0.48424356  0.54754983  1
  S2-  S238  1  0.35649421  0.75999534  0.03024560  1
  S2-  S239  1  0.37277977  0.73724438  0.55648054  1
  S2-  S240  1  0.60648588  -0.00042426  0.04910676  1
  S2-  S241  1  0.62811479  -0.01452548  0.55338035  1
  S2-  S242  1  0.60564512  0.26490061  0.04623497  1
  S2-  S243  1  0.62359811  0.23235102  0.54583650  1
  S2-  S244  1  0.60981286  0.51403724  0.04448297  1
  S2-  S245  1  0.63387333  0.49077326  0.55020474  1
  S2-  S246  1  0.60812074  0.75109420  0.04119126  1
  S2-  S247  1  0.63641540  0.72949596  0.54305764  1
  S2-  S248  1  0.85960892  0.00229469  0.04207508  1
  S2-  S249  1  0.88152622  -0.01785915  0.54560692  1
  S2-  S250  1  0.85723097  0.26078863  0.03823304  1
  S2-  S251  1  0.88295230  0.23513298  0.54348296  1
  S2-  S252  1  0.86300025  0.51386559  0.04221104  1
  S2-  S253  1  0.87745324  0.48696134  0.54619789  1
  S2-  S254  1  0.86188659  0.75680665  0.03798150  1
  S2-  S255  1  0.88044273  0.73266829  0.53852041  1
