# generated using pymatgen
data_La12Ce14Pr13Nd13Sm12(BiS2)64
_symmetry_space_group_name_H-M   'P 1'
_cell_length_a   16.05921417
_cell_length_b   16.05398766
_cell_length_c   27.35455761
_cell_angle_alpha   90.14662628
_cell_angle_beta   90.27225398
_cell_angle_gamma   90.26182220
_symmetry_Int_Tables_number   1
_chemical_formula_structural   La12Ce14Pr13Nd13Sm12(BiS2)64
_chemical_formula_sum   'La12 Ce14 Pr13 Nd13 Sm12 Bi64 S128'
_cell_volume   7052.22283156
_cell_formula_units_Z   1
loop_
 _symmetry_equiv_pos_site_id
 _symmetry_equiv_pos_as_xyz
  1  'x, y, z'
loop_
 _atom_type_symbol
 _atom_type_oxidation_number
  La3+  3.0
  Ce3+  3.0
  Pr3+  3.0
  Nd3+  3.0
  Sm3+  3.0
  Bi2+  2.0
  S2-  -2.0
loop_
 _atom_site_type_symbol
 _atom_site_label
 _atom_site_symmetry_multiplicity
 _atom_site_fract_x
 _atom_site_fract_y
 _atom_site_fract_z
 _atom_site_occupancy
  La3+  La0  1  0.01305956  0.66794551  0.61959610  1
  La3+  La1  1  0.23474409  0.63565217  0.08288557  1
  La3+  La2  1  0.38433464  0.48883995  0.41949361  1
  La3+  La3  1  0.76936600  0.87042343  0.57146295  1
  La3+  La4  1  0.87978148  0.74313961  0.42420916  1
  La3+  La5  1  0.25448231  0.10812395  0.57688680  1
  La3+  La6  1  0.25131339  0.86744702  0.54361443  1
  La3+  La7  1  -0.03037044  0.14967776  0.07815915  1
  La3+  La8  1  0.12849059  0.73500653  0.40577527  1
  La3+  La9  1  0.47403125  0.88996258  0.06706283  1
  La3+  La10  1  0.12630794  0.01154456  0.41139348  1
  La3+  La11  1  0.87882906  0.48281609  0.41930040  1
  Ce3+  Ce12  1  0.85526705  0.26148234  0.93001040  1
  Ce3+  Ce13  1  0.74992199  0.11823697  0.57016611  1
  Ce3+  Ce14  1  0.22108519  0.89661056  0.07289765  1
  Ce3+  Ce15  1  0.09932741  0.26431135  0.93574674  1
  Ce3+  Ce16  1  0.75360085  0.37115388  0.55697696  1
  Ce3+  Ce17  1  0.72619895  0.13971623  0.04928425  1
  Ce3+  Ce18  1  0.85056421  0.51488461  0.94026287  1
  Ce3+  Ce19  1  0.10257372  0.76567500  0.94454243  1
  Ce3+  Ce20  1  0.59485873  0.00661345  0.92727136  1
  Ce3+  Ce21  1  0.00705415  0.11892546  0.56668897  1
  Ce3+  Ce22  1  0.47767908  0.13437898  0.05452857  1
  Ce3+  Ce23  1  0.50636335  0.62509658  0.55585548  1
  Ce3+  Ce24  1  -0.02407717  0.89353464  0.07381950  1
  Ce3+  Ce25  1  0.60201381  0.51424114  0.94645062  1
  Pr3+  Pr26  1  0.87771311  -0.00049096  0.43015043  1
  Pr3+  Pr27  1  0.48114692  0.64820224  0.06538397  1
  Pr3+  Pr28  1  0.62815300  -0.00591772  0.43738257  1
  Pr3+  Pr29  1  0.34529446  0.01670565  0.92259337  1
  Pr3+  Pr30  1  0.35382972  0.51608780  0.93530048  1
  Pr3+  Pr31  1  0.25159157  0.62066434  0.55608076  1
  Pr3+  Pr32  1  0.50373285  0.11225665  0.57553655  1
  Pr3+  Pr33  1  0.34364874  0.76100480  0.93306298  1
  Pr3+  Pr34  1  0.61128295  0.76512049  0.92613666  1
  Pr3+  Pr35  1  0.72855751  0.64177758  0.06354474  1
  Pr3+  Pr36  1  -0.02004665  0.64025299  0.06659991  1
  Pr3+  Pr37  1  0.10352566  0.51627993  0.93775979  1
  Pr3+  Pr38  1  0.22992800  0.13968033  0.05759314  1
  Nd3+  Nd39  1  0.10057350  0.01391808  0.94297395  1
  Nd3+  Nd40  1  0.50579718  0.86312556  0.56046077  1
  Nd3+  Nd41  1  0.85941497  0.76536856  0.93712969  1
  Nd3+  Nd42  1  0.63044046  0.74279082  0.43252848  1
  Nd3+  Nd43  1  0.25787493  0.37128301  0.56263307  1
  Nd3+  Nd44  1  0.47433459  0.38746573  0.06510624  1
  Nd3+  Nd45  1  0.38038024  0.73999944  0.41669724  1
  Nd3+  Nd46  1  0.76576000  0.61677815  0.55584958  1
  Nd3+  Nd47  1  0.23308283  0.38976627  0.06473932  1
  Nd3+  Nd48  1  0.34680767  0.27041039  0.92351619  1
  Nd3+  Nd49  1  0.72756755  0.38695928  0.05737521  1
  Nd3+  Nd50  1  0.13147855  0.24588411  0.45053876  1
  Nd3+  Nd51  1  0.37852849  0.23891071  0.43721241  1
  Sm3+  Sm52  1  0.73191048  0.89084633  0.06109833  1
  Sm3+  Sm53  1  0.50448492  0.37067263  0.56001817  1
  Sm3+  Sm54  1  0.38301765  -0.00317918  0.43226363  1
  Sm3+  Sm55  1  0.62569535  0.24207020  0.44385118  1
  Sm3+  Sm56  1  -0.02108845  0.38859098  0.05600020  1
  Sm3+  Sm57  1  0.88029935  0.24426915  0.44990081  1
  Sm3+  Sm58  1  0.00483789  0.87075816  0.53909446  1
  Sm3+  Sm59  1  0.63246226  0.49271722  0.43258253  1
  Sm3+  Sm60  1  0.85351728  0.01419266  0.94338149  1
  Sm3+  Sm61  1  0.00407236  0.38280617  0.56573866  1
  Sm3+  Sm62  1  0.12933060  0.49555656  0.43800422  1
  Sm3+  Sm63  1  0.59934242  0.26227884  0.94062798  1
  Bi2+  Bi64  1  -0.01216563  0.18350392  0.29953997  1
  Bi2+  Bi65  1  0.10174192  0.15313856  0.81412769  1
  Bi2+  Bi66  1  0.03063941  0.40940265  0.32320539  1
  Bi2+  Bi67  1  -0.03014596  0.35717883  0.77194561  1
  Bi2+  Bi68  1  -0.12725386  0.64187121  0.30186411  1
  Bi2+  Bi69  1  0.04439779  0.64464899  0.81452457  1
  Bi2+  Bi70  1  -0.06653827  0.89231235  0.28135596  1
  Bi2+  Bi71  1  0.06543988  0.91681481  0.80935169  1
  Bi2+  Bi72  1  0.24482809  0.17720836  0.28254217  1
  Bi2+  Bi73  1  0.27016676  0.10296342  0.76031292  1
  Bi2+  Bi74  1  0.22377861  0.38280063  0.29287871  1
  Bi2+  Bi75  1  0.32391878  0.28986888  0.78265569  1
  Bi2+  Bi76  1  0.22815912  0.63150568  0.27733276  1
  Bi2+  Bi77  1  0.28675755  0.52542995  0.79446467  1
  Bi2+  Bi78  1  0.31643971  0.90844608  0.29097659  1
  Bi2+  Bi79  1  0.37919374  0.86584181  0.80422659  1
  Bi2+  Bi80  1  0.48544149  0.11540577  0.29746463  1
  Bi2+  Bi81  1  0.56720624  0.09500133  0.78940877  1
  Bi2+  Bi82  1  0.48100926  0.36365440  0.28457598  1
  Bi2+  Bi83  1  0.60330962  0.37280784  0.77881070  1
  Bi2+  Bi84  1  0.49795128  0.61417237  0.28655417  1
  Bi2+  Bi85  1  0.52873844  0.63090280  0.81343051  1
  Bi2+  Bi86  1  0.51749043  0.87481947  0.27775009  1
  Bi2+  Bi87  1  0.56050806  0.81231437  0.77365111  1
  Bi2+  Bi88  1  0.73466422  0.07240958  0.31546594  1
  Bi2+  Bi89  1  0.76325321  0.11269847  0.78541814  1
  Bi2+  Bi90  1  0.69334193  0.25092904  0.27277942  1
  Bi2+  Bi91  1  0.78360863  0.30930705  0.80528430  1
  Bi2+  Bi92  1  0.68785090  0.53293844  0.25642562  1
  Bi2+  Bi93  1  0.77310618  0.58864302  0.79370831  1
  Bi2+  Bi94  1  0.73654493  0.87838815  0.30417256  1
  Bi2+  Bi95  1  0.78553397  0.86219111  0.79871179  1
  Bi2+  Bi96  1  0.11851868  0.00561659  0.21685570  1
  Bi2+  Bi97  1  0.13319991  -0.03501066  0.70393703  1
  Bi2+  Bi98  1  0.10668238  0.27699554  0.22020824  1
  Bi2+  Bi99  1  0.14053024  0.28411830  0.72171990  1
  Bi2+  Bi100  1  0.06676432  0.47587073  0.21495199  1
  Bi2+  Bi101  1  0.15397627  0.51146713  0.70848819  1
  Bi2+  Bi102  1  0.05771720  0.74954714  0.21341515  1
  Bi2+  Bi103  1  0.20868823  0.79651569  0.76506921  1
  Bi2+  Bi104  1  0.37021741  0.01390037  0.20324636  1
  Bi2+  Bi105  1  0.39229810  -0.01400562  0.70322177  1
  Bi2+  Bi106  1  0.39276068  0.22465972  0.20950487  1
  Bi2+  Bi107  1  0.50598016  0.21494132  0.71059724  1
  Bi2+  Bi108  1  0.33092077  0.47178309  0.20949302  1
  Bi2+  Bi109  1  0.43269831  0.55722491  0.71864214  1
  Bi2+  Bi110  1  0.38992904  0.74365266  0.19904747  1
  Bi2+  Bi111  1  0.37053348  0.74129930  0.70803488  1
  Bi2+  Bi112  1  0.64714941  -0.00842019  0.21686812  1
  Bi2+  Bi113  1  0.67133931  -0.04020189  0.70023744  1
  Bi2+  Bi114  1  0.58399731  0.18001176  0.18289642  1
  Bi2+  Bi115  1  0.75796425  0.24223615  0.69574848  1
  Bi2+  Bi116  1  0.59510749  0.38722851  0.19021894  1
  Bi2+  Bi117  1  0.60475371  0.47764482  0.68138070  1
  Bi2+  Bi118  1  0.63398631  0.71886866  0.21988917  1
  Bi2+  Bi119  1  0.64458162  0.66115911  0.71561490  1
  Bi2+  Bi120  1  0.84276494  0.03310348  0.20926013  1
  Bi2+  Bi121  1  0.95849511  0.06045506  0.75333766  1
  Bi2+  Bi122  1  0.85332996  0.27632298  0.20784428  1
  Bi2+  Bi123  1  0.96020129  0.22539640  0.68601380  1
  Bi2+  Bi124  1  0.87559326  0.46499706  0.25891369  1
  Bi2+  Bi125  1  0.88126517  0.50333059  0.71177818  1
  Bi2+  Bi126  1  0.83322798  0.76136734  0.21106200  1
  Bi2+  Bi127  1  0.86756484  0.78499176  0.71015342  1
  S2-  S128  1  -0.00364039  0.06676647  0.16793448  1
  S2-  S129  1  0.11543367  0.10304776  0.64345542  1
  S2-  S130  1  -0.01744569  0.29976073  0.14098948  1
  S2-  S131  1  0.01294208  0.48864020  0.64598440  1
  S2-  S132  1  -0.00666272  0.61879715  0.16691618  1
  S2-  S133  1  0.00629563  0.69199338  0.72737899  1
  S2-  S134  1  0.09251109  0.88035783  0.14875632  1
  S2-  S135  1  -0.03474527  0.83990271  0.63575280  1
  S2-  S136  1  0.22940225  0.05941646  0.14766737  1
  S2-  S137  1  0.37748525  0.13738332  0.64950913  1
  S2-  S138  1  0.19695107  0.49278194  0.14692638  1
  S2-  S139  1  0.23842458  0.38601918  0.66234230  1
  S2-  S140  1  0.20744993  0.70691598  0.18083634  1
  S2-  S141  1  0.18689071  0.63964002  0.65019689  1
  S2-  S142  1  0.34262744  0.87648962  0.14235007  1
  S2-  S143  1  0.25885149  0.93329243  0.63812461  1
  S2-  S144  1  0.49779797  0.03337795  0.13524209  1
  S2-  S145  1  0.63279089  0.15406650  0.64647973  1
  S2-  S146  1  0.35702429  0.35252419  0.13838749  1
  S2-  S147  1  0.47952085  0.35522681  0.65778823  1
  S2-  S148  1  0.39275318  0.59974351  0.15018783  1
  S2-  S149  1  0.47883450  0.73403611  0.63125122  1
  S2-  S150  1  0.52656573  0.77018483  0.14138989  1
  S2-  S151  1  0.51826298  0.96592793  0.64322282  1
  S2-  S152  1  0.80105032  0.15406657  0.13764850  1
  S2-  S153  1  0.79194360  0.00664428  0.64245466  1
  S2-  S154  1  0.76044119  0.39049250  0.15463184  1
  S2-  S155  1  0.76636489  0.40891356  0.65322611  1
  S2-  S156  1  0.74761697  0.62503207  0.16262989  1
  S2-  S157  1  0.84359717  0.63060252  0.64689171  1
  S2-  S158  1  0.83908303  0.89088997  0.14180915  1
  S2-  S159  1  0.70527423  0.80991776  0.66069443  1
  S2-  S160  1  0.16786038  -0.04313404  0.31556485  1
  S2-  S161  1  0.19619323  -0.00955107  0.85885909  1
  S2-  S162  1  0.12860739  0.17513413  0.35819028  1
  S2-  S163  1  0.19642457  0.28330381  0.85526325  1
  S2-  S164  1  0.13409679  0.57711011  0.34653838  1
  S2-  S165  1  0.13527596  0.49869886  0.83761459  1
  S2-  S166  1  -0.00790316  0.75619343  0.33605613  1
  S2-  S167  1  0.19795208  0.74455198  0.86192096  1
  S2-  S168  1  0.35252167  0.12032258  0.35976279  1
  S2-  S169  1  0.47273458  -0.00188684  0.85190051  1
  S2-  S170  1  0.35855242  0.34676555  0.35503699  1
  S2-  S171  1  0.35305058  0.15608138  0.84545885  1
  S2-  S172  1  0.36061254  0.59965165  0.33959321  1
  S2-  S173  1  0.37520089  0.40441314  0.85327671  1
  S2-  S174  1  0.25968321  0.76678305  0.33785280  1
  S2-  S175  1  0.37438454  0.63607500  0.85894576  1
  S2-  S176  1  0.51215844  -0.01243073  0.35872044  1
  S2-  S177  1  0.64277388  -0.10587908  0.85398087  1
  S2-  S178  1  0.57457031  0.24663197  0.34906841  1
  S2-  S179  1  0.56883136  0.24982563  0.84403421  1
  S2-  S180  1  0.52697799  0.48358646  0.35232979  1
  S2-  S181  1  0.64087902  0.50400255  0.85064769  1
  S2-  S182  1  0.51839711  0.74755611  0.35116688  1
  S2-  S183  1  0.75523832  0.72713768  0.85688964  1
  S2-  S184  1  0.96830271  0.03139393  0.34516421  1
  S2-  S185  1  0.86719743  0.00413307  0.84511781  1
  S2-  S186  1  0.89764948  0.30173260  0.35761326  1
  S2-  S187  1  0.97629461  0.25342994  0.85913188  1
  S2-  S188  1  0.74296216  0.48903510  0.34860844  1
  S2-  S189  1  0.90933917  0.54489914  0.84965712  1
  S2-  S190  1  0.74598087  0.73012878  0.35313898  1
  S2-  S191  1  0.98589732  0.77954927  0.86509557  1
  S2-  S192  1  0.00227230  0.12521170  0.45975496  1
  S2-  S193  1  -0.02485483  0.13694784  0.96084962  1
  S2-  S194  1  0.00692021  0.36856848  0.46096729  1
  S2-  S195  1  -0.02474359  0.39181439  0.95312098  1
  S2-  S196  1  0.00152026  0.61149084  0.43766914  1
  S2-  S197  1  -0.02315166  0.63629387  0.96101012  1
  S2-  S198  1  0.01024797  0.87453000  0.43788444  1
  S2-  S199  1  -0.02410337  0.89463539  0.96524446  1
  S2-  S200  1  0.25243363  0.11821756  0.46404070  1
  S2-  S201  1  0.22404049  0.14141174  0.95339863  1
  S2-  S202  1  0.25401108  0.37171850  0.45675874  1
  S2-  S203  1  0.22705690  0.39212398  0.95915293  1
  S2-  S204  1  0.25528497  0.61686143  0.44969993  1
  S2-  S205  1  0.22657546  0.63440900  0.96587842  1
  S2-  S206  1  0.25289100  0.87648223  0.43864359  1
  S2-  S207  1  0.22566763  0.88954995  0.96374592  1
  S2-  S208  1  0.50582091  0.11997345  0.46192013  1
  S2-  S209  1  0.47788229  0.13915412  0.95149749  1
  S2-  S210  1  0.50621321  0.36724356  0.45719319  1
  S2-  S211  1  0.48162364  0.38734594  0.95865948  1
  S2-  S212  1  0.50781392  0.61571266  0.45222631  1
  S2-  S213  1  0.48598074  0.64298376  0.95891055  1
  S2-  S214  1  0.50296025  0.86634806  0.45468885  1
  S2-  S215  1  0.47560783  0.88013807  0.95374037  1
  S2-  S216  1  0.75378470  0.12336294  0.45684500  1
  S2-  S217  1  0.72507073  0.13697751  0.94239241  1
  S2-  S218  1  0.75061126  0.36227168  0.45214517  1
  S2-  S219  1  0.72650315  0.38558074  0.95097522  1
  S2-  S220  1  0.75609137  0.61364701  0.45228636  1
  S2-  S221  1  0.72911635  0.63615907  0.95875563  1
  S2-  S222  1  0.75655629  0.87347390  0.45175743  1
  S2-  S223  1  0.73570889  0.88987869  0.95860127  1
  S2-  S224  1  0.09623180  0.02208041  0.04711036  1
  S2-  S225  1  0.12428160  -0.00551602  0.53454442  1
  S2-  S226  1  0.10610224  0.26688827  0.04448437  1
  S2-  S227  1  0.12761646  0.25214112  0.55472654  1
  S2-  S228  1  0.09942412  0.51217934  0.04552541  1
  S2-  S229  1  0.13354922  0.49136500  0.54066060  1
  S2-  S230  1  0.10418347  0.76111018  0.05134158  1
  S2-  S231  1  0.12205309  0.74313663  0.54098150  1
  S2-  S232  1  0.35116850  0.01567308  0.03540061  1
  S2-  S233  1  0.38294966  -0.00919376  0.53714533  1
  S2-  S234  1  0.35618533  0.25993795  0.03437980  1
  S2-  S235  1  0.38048360  0.24743723  0.54546628  1
  S2-  S236  1  0.35804180  0.51338733  0.04208540  1
  S2-  S237  1  0.38290304  0.49734023  0.55243522  1
  S2-  S238  1  0.34852656  0.76090058  0.04299993  1
  S2-  S239  1  0.37599231  0.74278004  0.52851926  1
  S2-  S240  1  0.60923401  0.01061801  0.03580410  1
  S2-  S241  1  0.63521969  -0.01043144  0.54247362  1
  S2-  S242  1  0.60078207  0.26375541  0.04600832  1
  S2-  S243  1  0.62698834  0.24911424  0.54620092  1
  S2-  S244  1  0.60184351  0.51337863  0.05459186  1
  S2-  S245  1  0.62929475  0.49613342  0.54102889  1
  S2-  S246  1  0.61351683  0.76903513  0.03717131  1
  S2-  S247  1  0.63907709  0.74295774  0.54000257  1
  S2-  S248  1  0.85201311  0.01798229  0.04527877  1
  S2-  S249  1  0.88523765  -0.00095124  0.53622186  1
  S2-  S250  1  0.85083458  0.26851030  0.03527198  1
  S2-  S251  1  0.88081488  0.24725294  0.55367158  1
  S2-  S252  1  0.85390729  0.51173411  0.04939768  1
  S2-  S253  1  0.87729340  0.48699518  0.53408722  1
  S2-  S254  1  0.85391594  0.76341167  0.04541420  1
  S2-  S255  1  0.88379351  0.74234923  0.53453947  1
