# generated using pymatgen
data_La12Ce14Pr13Nd13Sm12(BiS2)64
_symmetry_space_group_name_H-M   'P 1'
_cell_length_a   16.14769651
_cell_length_b   16.10008458
_cell_length_c   27.29509197
_cell_angle_alpha   89.58539760
_cell_angle_beta   89.82582200
_cell_angle_gamma   89.91518295
_symmetry_Int_Tables_number   1
_chemical_formula_structural   La12Ce14Pr13Nd13Sm12(BiS2)64
_chemical_formula_sum   'La12 Ce14 Pr13 Nd13 Sm12 Bi64 S128'
_cell_volume   7095.93222949
_cell_formula_units_Z   1
loop_
 _symmetry_equiv_pos_site_id
 _symmetry_equiv_pos_as_xyz
  1  'x, y, z'
loop_
 _atom_type_symbol
 _atom_type_oxidation_number
  La3+  3.0
  Ce3+  3.0
  Pr3+  3.0
  Nd3+  3.0
  Sm3+  3.0
  Bi2+  2.0
  S2-  -2.0
loop_
 _atom_site_type_symbol
 _atom_site_label
 _atom_site_symmetry_multiplicity
 _atom_site_fract_x
 _atom_site_fract_y
 _atom_site_fract_z
 _atom_site_occupancy
  La3+  La0  1  0.50258391  0.12624824  0.58119700  1
  La3+  La1  1  0.13492073  0.74884854  0.42638569  1
  La3+  La2  1  0.25885731  0.64034492  0.57814675  1
  La3+  La3  1  0.63849754  0.25993250  0.43247741  1
  La3+  La4  1  0.00465971  0.13023722  0.60718013  1
  La3+  La5  1  0.62157211  0.26550416  0.89754021  1
  La3+  La6  1  0.38404937  0.51031792  0.43247569  1
  La3+  La7  1  0.88572335  0.76518155  0.41496622  1
  La3+  La8  1  0.49329969  0.87619227  0.06782406  1
  La3+  La9  1  0.86558138  0.74493112  0.92316581  1
  La3+  La10  1  0.48499232  0.62850782  0.08256810  1
  La3+  La11  1  0.73609967  0.61424540  0.11457654  1
  Ce3+  Ce12  1  0.88060838  0.25413053  0.44094245  1
  Ce3+  Ce13  1  0.12297634  0.50195443  0.92822984  1
  Ce3+  Ce14  1  0.86730837  0.24942828  0.94797772  1
  Ce3+  Ce15  1  0.37450997  0.50182861  0.93894811  1
  Ce3+  Ce16  1  0.24932362  0.12917589  0.55134504  1
  Ce3+  Ce17  1  0.73985071  0.37667785  0.05813296  1
  Ce3+  Ce18  1  0.38428005  0.75309492  0.44013827  1
  Ce3+  Ce19  1  0.24071994  0.62137125  0.06359424  1
  Ce3+  Ce20  1  0.75537242  0.63076605  0.55664751  1
  Ce3+  Ce21  1  0.50636077  0.37713496  0.56473682  1
  Ce3+  Ce22  1  0.00757410  0.37462516  0.55663481  1
  Ce3+  Ce23  1  0.75793216  0.87992683  0.56014849  1
  Ce3+  Ce24  1  0.74056884  0.12479713  0.06895586  1
  Ce3+  Ce25  1  0.75776926  0.36856944  0.57348297  1
  Pr3+  Pr26  1  0.13232951  0.00560867  0.43165491  1
  Pr3+  Pr27  1  0.75349125  0.12358871  0.57503930  1
  Pr3+  Pr28  1  0.25313271  0.37967324  0.55245539  1
  Pr3+  Pr29  1  0.12943580  0.25559910  0.42600955  1
  Pr3+  Pr30  1  0.23808691  0.87607917  0.05109552  1
  Pr3+  Pr31  1  -0.00985165  0.12272846  0.07089049  1
  Pr3+  Pr32  1  0.12883012  0.50769624  0.43835045  1
  Pr3+  Pr33  1  0.12009197  0.25535163  0.93566400  1
  Pr3+  Pr34  1  0.11854405  0.00994949  0.93253899  1
  Pr3+  Pr35  1  0.23989699  0.12522529  0.07577770  1
  Pr3+  Pr36  1  0.36933270  0.00248445  0.94051898  1
  Pr3+  Pr37  1  0.63207875  0.75469556  0.43890645  1
  Pr3+  Pr38  1  0.39329542  0.00903567  0.42625439  1
  Nd3+  Nd39  1  0.25352847  0.88322464  0.54707815  1
  Nd3+  Nd40  1  0.49878585  0.12436395  0.07314556  1
  Nd3+  Nd41  1  -0.00565464  0.37689673  0.05697506  1
  Nd3+  Nd42  1  0.49292854  0.37312798  0.05820567  1
  Nd3+  Nd43  1  0.62080013  0.75016350  0.94307802  1
  Nd3+  Nd44  1  0.86543700  0.50290468  0.94138212  1
  Nd3+  Nd45  1  0.00675091  0.87564971  0.56364615  1
  Nd3+  Nd46  1  0.00571292  0.63267675  0.56355083  1
  Nd3+  Nd47  1  -0.00948244  0.62476741  0.06188488  1
  Nd3+  Nd48  1  0.62001347  0.00659758  0.94392173  1
  Nd3+  Nd49  1  0.38608550  0.25514552  0.43825103  1
  Nd3+  Nd50  1  0.86838467  0.00918440  0.93936179  1
  Nd3+  Nd51  1  0.88226223  0.00743020  0.44223948  1
  Sm3+  Sm52  1  0.37091891  0.75062811  0.94391385  1
  Sm3+  Sm53  1  0.63280656  0.50562293  0.44839593  1
  Sm3+  Sm54  1  0.37560777  0.24016934  0.93498641  1
  Sm3+  Sm55  1  -0.00830348  0.87143658  0.05381570  1
  Sm3+  Sm56  1  0.24565266  0.37154972  0.04934154  1
  Sm3+  Sm57  1  0.50400841  0.88246461  0.55828186  1
  Sm3+  Sm58  1  0.61816685  0.50311456  0.94756441  1
  Sm3+  Sm59  1  0.11390808  0.74569592  0.92885488  1
  Sm3+  Sm60  1  0.63244999  0.00829284  0.44332284  1
  Sm3+  Sm61  1  0.50436246  0.62870259  0.56575989  1
  Sm3+  Sm62  1  0.74681981  0.86299793  0.05863795  1
  Sm3+  Sm63  1  0.88114846  0.50635489  0.45128058  1
  Bi2+  Bi64  1  -0.01470113  0.23759830  0.31618113  1
  Bi2+  Bi65  1  -0.00715179  0.07358369  0.81011498  1
  Bi2+  Bi66  1  0.05248751  0.42107115  0.31876591  1
  Bi2+  Bi67  1  -0.02215371  0.40796439  0.79185650  1
  Bi2+  Bi68  1  0.00171581  0.61629960  0.31178873  1
  Bi2+  Bi69  1  0.01829317  0.61462478  0.80037139  1
  Bi2+  Bi70  1  -0.03426438  1.00536722  0.27135454  1
  Bi2+  Bi71  1  0.03480551  0.84995019  0.76682320  1
  Bi2+  Bi72  1  0.22177532  0.08903170  0.27122006  1
  Bi2+  Bi73  1  0.23485311  0.07960518  0.78696122  1
  Bi2+  Bi74  1  0.20206561  0.39249080  0.24696128  1
  Bi2+  Bi75  1  0.24881878  0.36346401  0.78642374  1
  Bi2+  Bi76  1  0.22193154  0.61388404  0.25985279  1
  Bi2+  Bi77  1  0.29611152  0.54106149  0.75357600  1
  Bi2+  Bi78  1  0.16516623  0.83237866  0.29285295  1
  Bi2+  Bi79  1  0.31727771  0.87782099  0.78284192  1
  Bi2+  Bi80  1  0.46617844  0.10844836  0.29725484  1
  Bi2+  Bi81  1  0.47746811  0.13382715  0.79132415  1
  Bi2+  Bi82  1  0.49332893  0.35220349  0.30465329  1
  Bi2+  Bi83  1  0.49809500  0.41649947  0.78782045  1
  Bi2+  Bi84  1  0.49541432  0.57947736  0.30468744  1
  Bi2+  Bi85  1  0.53050449  0.68154829  0.79172052  1
  Bi2+  Bi86  1  0.52685212  0.86160784  0.29015600  1
  Bi2+  Bi87  1  0.50634435  0.90980077  0.80278384  1
  Bi2+  Bi88  1  0.81387062  0.13399198  0.31842270  1
  Bi2+  Bi89  1  0.75474824  0.11037526  0.80278483  1
  Bi2+  Bi90  1  0.77731029  0.37954330  0.24880632  1
  Bi2+  Bi91  1  0.79779222  0.45373610  0.74745303  1
  Bi2+  Bi92  1  0.73537532  0.59548515  0.31894702  1
  Bi2+  Bi93  1  0.70828126  0.59120871  0.81617080  1
  Bi2+  Bi94  1  0.77299601  0.95513787  0.26485631  1
  Bi2+  Bi95  1  0.70879923  0.88266278  0.79163225  1
  Bi2+  Bi96  1  0.10529253  -0.05433745  0.19210669  1
  Bi2+  Bi97  1  0.20414044  -0.05221601  0.69934859  1
  Bi2+  Bi98  1  0.06827517  0.23690672  0.21196631  1
  Bi2+  Bi99  1  0.16143184  0.23431916  0.71932870  1
  Bi2+  Bi100  1  0.12072210  0.55341161  0.16878422  1
  Bi2+  Bi101  1  0.08107754  0.44237410  0.68996823  1
  Bi2+  Bi102  1  0.10881147  0.74293781  0.19596592  1
  Bi2+  Bi103  1  0.13646664  0.72795349  0.70429763  1
  Bi2+  Bi104  1  0.38522677  -0.07919449  0.21259330  1
  Bi2+  Bi105  1  0.36467918  0.06889218  0.69763057  1
  Bi2+  Bi106  1  0.36318939  0.25857011  0.20833686  1
  Bi2+  Bi107  1  0.37821778  0.26920076  0.72072839  1
  Bi2+  Bi108  1  0.36200038  0.47146685  0.19815162  1
  Bi2+  Bi109  1  0.43490754  0.48102248  0.68283722  1
  Bi2+  Bi110  1  0.34939445  0.76919096  0.28099710  1
  Bi2+  Bi111  1  0.43568697  0.77905185  0.70912523  1
  Bi2+  Bi112  1  0.61166226  0.01608149  0.21451936  1
  Bi2+  Bi113  1  0.61006405  -0.01364825  0.71081152  1
  Bi2+  Bi114  1  0.67170527  0.20965067  0.24233622  1
  Bi2+  Bi115  1  0.64203222  0.26999738  0.70278072  1
  Bi2+  Bi116  1  0.60735810  0.44361664  0.21563525  1
  Bi2+  Bi117  1  0.60586213  0.55939463  0.71048044  1
  Bi2+  Bi118  1  0.60331604  0.74591821  0.21312049  1
  Bi2+  Bi119  1  0.63238929  0.77690863  0.69777384  1
  Bi2+  Bi120  1  0.86102813  0.04389721  0.17303571  1
  Bi2+  Bi121  1  0.87968525  -0.07520196  0.71057063  1
  Bi2+  Bi122  1  0.86855234  0.22852986  0.20160105  1
  Bi2+  Bi123  1  0.89443132  0.27233595  0.72692240  1
  Bi2+  Bi124  1  0.95971564  0.49576991  0.22300775  1
  Bi2+  Bi125  1  0.93195476  0.56878166  0.69896311  1
  Bi2+  Bi126  1  0.86425570  0.74379375  0.21773597  1
  Bi2+  Bi127  1  0.83052542  0.73908740  0.73148727  1
  S2-  S128  1  0.10594825  0.11155786  0.14593988  1
  S2-  S129  1  -0.03056567  0.12998465  0.71602578  1
  S2-  S130  1  -0.00753245  0.36334205  0.15645324  1
  S2-  S131  1  -0.00013049  0.30185764  0.64480207  1
  S2-  S132  1  -0.09741982  0.62265944  0.14939744  1
  S2-  S133  1  0.01034465  0.74614128  0.63876991  1
  S2-  S134  1  -0.02391739  0.83973336  0.15261629  1
  S2-  S135  1  0.00746351  0.96670885  0.64903822  1
  S2-  S136  1  0.31247098  0.12231671  0.17297404  1
  S2-  S137  1  0.17200426  0.13635247  0.63955635  1
  S2-  S138  1  0.25161398  0.35172950  0.14711023  1
  S2-  S139  1  0.21697219  0.35725041  0.65074389  1
  S2-  S140  1  0.33925932  0.60810631  0.14624494  1
  S2-  S141  1  0.19102134  0.57975291  0.66688155  1
  S2-  S142  1  0.25327114  0.89066835  0.15187729  1
  S2-  S143  1  0.24321976  0.81036721  0.63809736  1
  S2-  S144  1  0.48491110  -0.00415117  0.14496007  1
  S2-  S145  1  0.62892951  0.12616362  0.65371014  1
  S2-  S146  1  0.49087111  0.35785303  0.15925445  1
  S2-  S147  1  0.49550229  0.27463439  0.64518118  1
  S2-  S148  1  0.57902166  0.59007867  0.16494874  1
  S2-  S149  1  0.40327917  0.64689800  0.64476998  1
  S2-  S150  1  0.48299733  0.77570506  0.15185764  1
  S2-  S151  1  0.47820569  0.97114996  0.64137028  1
  S2-  S152  1  0.62971883  0.14841436  0.14706253  1
  S2-  S153  1  0.78687240  0.24472528  0.64805794  1
  S2-  S154  1  0.74510906  0.43816336  0.14981195  1
  S2-  S155  1  0.69209544  0.42615398  0.66167915  1
  S2-  S156  1  0.74552321  0.62868583  0.22479672  1
  S2-  S157  1  0.75553930  0.67359252  0.65040664  1
  S2-  S158  1  0.74065134  0.79249276  0.14930424  1
  S2-  S159  1  0.76130788  0.96943758  0.64425848  1
  S2-  S160  1  0.11782315  -0.00881940  0.33084482  1
  S2-  S161  1  0.10829649  -0.05488375  0.83628906  1
  S2-  S162  1  0.16250148  0.20074996  0.32937548  1
  S2-  S163  1  0.12025340  0.14469829  0.85825756  1
  S2-  S164  1  0.16008428  0.60898245  0.35696017  1
  S2-  S165  1  0.11767789  0.37890306  0.85479149  1
  S2-  S166  1  0.02549533  0.77230255  0.34796503  1
  S2-  S167  1  0.15223435  0.62423078  0.85738722  1
  S2-  S168  1  0.33701040  0.01545584  0.32895517  1
  S2-  S169  1  0.35444386  0.11098762  0.86148059  1
  S2-  S170  1  0.37914297  0.23710734  0.33803432  1
  S2-  S171  1  0.46760991  0.27426016  0.84951096  1
  S2-  S172  1  0.38055544  0.45681038  0.33393902  1
  S2-  S173  1  0.38129724  0.51661978  0.84048608  1
  S2-  S174  1  0.38646889  0.65270111  0.36237546  1
  S2-  S175  1  0.40243556  0.76320486  0.84752162  1
  S2-  S176  1  0.55329385  -0.00460327  0.35646796  1
  S2-  S177  1  0.61801809  0.09714735  0.85713633  1
  S2-  S178  1  0.58609312  0.21654461  0.33791603  1
  S2-  S179  1  0.69829786  0.26186557  0.79941370  1
  S2-  S180  1  0.61458365  0.46979486  0.35199816  1
  S2-  S181  1  0.62090155  0.44223354  0.85413038  1
  S2-  S182  1  0.60321951  0.70959298  0.34235970  1
  S2-  S183  1  0.72025147  0.75469243  0.85834164  1
  S2-  S184  1  0.87474099  -0.06724355  0.35207476  1
  S2-  S185  1  0.85585264  -0.02621180  0.84150069  1
  S2-  S186  1  0.78076748  0.28261433  0.36399646  1
  S2-  S187  1  0.88354151  0.18852778  0.85709452  1
  S2-  S188  1  0.87368457  0.50917045  0.35322545  1
  S2-  S189  1  0.86718830  0.59171571  0.85492043  1
  S2-  S190  1  0.82383673  0.72985396  0.32086348  1
  S2-  S191  1  0.99421886  0.76374915  0.85346563  1
  S2-  S192  1  0.00571735  0.12925257  0.43683326  1
  S2-  S193  1  -0.00721838  0.12879752  0.96399504  1
  S2-  S194  1  0.00369817  0.38112184  0.45180453  1
  S2-  S195  1  -0.01123487  0.37759388  0.95232000  1
  S2-  S196  1  0.00104344  0.63080555  0.45683177  1
  S2-  S197  1  -0.00355326  0.62121645  0.95655542  1
  S2-  S198  1  0.00871082  0.88230310  0.45508193  1
  S2-  S199  1  -0.00645830  0.88055409  0.95151749  1
  S2-  S200  1  0.25924720  0.13067520  0.44512219  1
  S2-  S201  1  0.24412801  0.12916931  0.96462588  1
  S2-  S202  1  0.25573760  0.38041551  0.44440108  1
  S2-  S203  1  0.25706788  0.37204184  0.94698136  1
  S2-  S204  1  0.26013521  0.63008057  0.46496426  1
  S2-  S205  1  0.25089995  0.62755265  0.95782426  1
  S2-  S206  1  0.26158564  0.88044084  0.44055592  1
  S2-  S207  1  0.24276386  0.87255212  0.94407235  1
  S2-  S208  1  0.51021013  0.13300725  0.45706446  1
  S2-  S209  1  0.49509764  0.12433844  0.96455352  1
  S2-  S210  1  0.50775157  0.38145400  0.45691608  1
  S2-  S211  1  0.49591142  0.37329806  0.95428106  1
  S2-  S212  1  0.51137422  0.62932233  0.46221444  1
  S2-  S213  1  0.49573574  0.62791643  0.95344262  1
  S2-  S214  1  0.50806380  0.87854565  0.45454997  1
  S2-  S215  1  0.49508601  0.87697453  0.95619501  1
  S2-  S216  1  0.75461191  0.12635469  0.45969652  1
  S2-  S217  1  0.74179561  0.12997095  0.96049182  1
  S2-  S218  1  0.75762455  0.38721241  0.46664132  1
  S2-  S219  1  0.74193717  0.37475529  0.95116087  1
  S2-  S220  1  0.75776118  0.63064592  0.45120786  1
  S2-  S221  1  0.73872514  0.62192421  0.95648427  1
  S2-  S222  1  0.75241820  0.88165702  0.45239625  1
  S2-  S223  1  0.74485637  0.88090252  0.95493227  1
  S2-  S224  1  0.11267567  -0.00174583  0.04155261  1
  S2-  S225  1  0.12778977  0.00497303  0.53892850  1
  S2-  S226  1  0.11820784  0.25274666  0.04453429  1
  S2-  S227  1  0.12861573  0.25354938  0.53393712  1
  S2-  S228  1  0.12104433  0.49597701  0.03855033  1
  S2-  S229  1  0.12826358  0.50733149  0.54535733  1
  S2-  S230  1  0.11595860  0.74833198  0.04020624  1
  S2-  S231  1  0.13255682  0.75431357  0.53559235  1
  S2-  S232  1  0.36363194  0.00261094  0.04592869  1
  S2-  S233  1  0.37867135  0.00592119  0.53547543  1
  S2-  S234  1  0.36993340  0.24643932  0.04689640  1
  S2-  S235  1  0.37623045  0.25211856  0.54437483  1
  S2-  S236  1  0.36793694  0.49653166  0.04402874  1
  S2-  S237  1  0.38121598  0.50428077  0.54521139  1
  S2-  S238  1  0.36317030  0.75198715  0.04624038  1
  S2-  S239  1  0.38522558  0.76105325  0.54314245  1
  S2-  S240  1  0.62733035  -0.00576461  0.04911687  1
  S2-  S241  1  0.62781766  0.00142291  0.54487235  1
  S2-  S242  1  0.61864160  0.25372730  0.04816472  1
  S2-  S243  1  0.63106906  0.25425640  0.54456257  1
  S2-  S244  1  0.61465518  0.50161287  0.05052641  1
  S2-  S245  1  0.62853490  0.50732424  0.55219037  1
  S2-  S246  1  0.61901841  0.74526482  0.04767693  1
  S2-  S247  1  0.62596288  0.75624212  0.54759954  1
  S2-  S248  1  0.86626341  -0.00494368  0.04691352  1
  S2-  S249  1  0.88554657  0.00793022  0.54668467  1
  S2-  S250  1  0.86711259  0.25131583  0.05401663  1
  S2-  S251  1  0.88878985  0.24491269  0.54415585  1
  S2-  S252  1  0.86761904  0.49955597  0.04650827  1
  S2-  S253  1  0.88100473  0.50382064  0.55709880  1
  S2-  S254  1  0.87255884  0.75034349  0.03731436  1
  S2-  S255  1  0.87710245  0.75535949  0.53906854  1
