# generated using pymatgen
data_La12Ce14Pr13Nd13Sm12(BiS2)64
_symmetry_space_group_name_H-M   'P 1'
_cell_length_a   16.13531891
_cell_length_b   16.10719216
_cell_length_c   27.23019995
_cell_angle_alpha   89.89521851
_cell_angle_beta   89.77250165
_cell_angle_gamma   89.97476489
_symmetry_Int_Tables_number   1
_chemical_formula_structural   La12Ce14Pr13Nd13Sm12(BiS2)64
_chemical_formula_sum   'La12 Ce14 Pr13 Nd13 Sm12 Bi64 S128'
_cell_volume   7076.91587668
_cell_formula_units_Z   1
loop_
 _symmetry_equiv_pos_site_id
 _symmetry_equiv_pos_as_xyz
  1  'x, y, z'
loop_
 _atom_type_symbol
 _atom_type_oxidation_number
  La3+  3.0
  Ce3+  3.0
  Pr3+  3.0
  Nd3+  3.0
  Sm3+  3.0
  Bi2+  2.0
  S2-  -2.0
loop_
 _atom_site_type_symbol
 _atom_site_label
 _atom_site_symmetry_multiplicity
 _atom_site_fract_x
 _atom_site_fract_y
 _atom_site_fract_z
 _atom_site_occupancy
  La3+  La0  1  -0.01738717  0.10931237  0.07106119  1
  La3+  La1  1  0.26954171  0.12664255  0.58033117  1
  La3+  La2  1  0.11243411  0.73493287  0.90630077  1
  La3+  La3  1  0.86108913  0.48145769  0.92297296  1
  La3+  La4  1  0.00265474  0.61471487  0.58542337  1
  La3+  La5  1  0.88087298  -0.02213412  0.92891351  1
  La3+  La6  1  0.61733223  -0.02241757  0.92508610  1
  La3+  La7  1  0.23943106  0.35640138  0.06878159  1
  La3+  La8  1  0.24270057  0.10924736  0.06717111  1
  La3+  La9  1  0.51067272  0.87111657  0.11129987  1
  La3+  La10  1  0.52093104  0.86673459  0.59370483  1
  La3+  La11  1  0.37957139  0.75187188  0.42098010  1
  Ce3+  Ce12  1  0.36196280  -0.02875137  0.93166152  1
  Ce3+  Ce13  1  0.61561302  0.23286790  0.94050470  1
  Ce3+  Ce14  1  0.11942769  0.23507133  0.93135730  1
  Ce3+  Ce15  1  0.49402329  0.10084558  0.04909428  1
  Ce3+  Ce16  1  0.01355287  0.36146362  0.56192289  1
  Ce3+  Ce17  1  0.26196904  0.36827948  0.55350042  1
  Ce3+  Ce18  1  0.90038981  0.24451741  0.42856120  1
  Ce3+  Ce19  1  0.86932474  0.73052127  0.94344698  1
  Ce3+  Ce20  1  0.89175381  0.49695233  0.43654532  1
  Ce3+  Ce21  1  0.11887688  -0.01708107  0.95103110  1
  Ce3+  Ce22  1  0.36460726  0.48920074  0.93924662  1
  Ce3+  Ce23  1  0.74297184  0.36046622  0.05435842  1
  Ce3+  Ce24  1  0.26297146  0.62487347  0.55557053  1
  Ce3+  Ce25  1  -0.00714768  0.85327366  0.06642427  1
  Pr3+  Pr26  1  0.86756745  0.22888097  0.93237715  1
  Pr3+  Pr27  1  0.76619222  0.36821854  0.55116000  1
  Pr3+  Pr28  1  0.51299397  0.62706514  0.55285983  1
  Pr3+  Pr29  1  0.74243514  0.60074025  0.07236009  1
  Pr3+  Pr30  1  0.63549250  -0.00357639  0.44038551  1
  Pr3+  Pr31  1  0.36766140  0.72827397  0.93737145  1
  Pr3+  Pr32  1  0.23838175  0.59877868  0.06836922  1
  Pr3+  Pr33  1  0.38982049  0.24281447  0.43225704  1
  Pr3+  Pr34  1  0.24906298  0.85179585  0.06459897  1
  Pr3+  Pr35  1  0.63906557  0.49813766  0.44077398  1
  Pr3+  Pr36  1  0.11486248  0.48363953  0.92407450  1
  Pr3+  Pr37  1  0.88943289  0.00471494  0.43532830  1
  Pr3+  Pr38  1  0.48666363  0.61019068  0.07532925  1
  Nd3+  Nd39  1  0.75979021  0.12002652  0.56606612  1
  Nd3+  Nd40  1  0.26277388  0.86343796  0.57073181  1
  Nd3+  Nd41  1  0.63553895  0.24357909  0.43400189  1
  Nd3+  Nd42  1  0.64613132  0.74780965  0.42487086  1
  Nd3+  Nd43  1  0.01105545  0.87137328  0.56202139  1
  Nd3+  Nd44  1  0.61527306  0.73260511  0.94843848  1
  Nd3+  Nd45  1  0.51320548  0.37137099  0.56186096  1
  Nd3+  Nd46  1  0.73998689  0.10167906  0.05479536  1
  Nd3+  Nd47  1  0.49396605  0.36055018  0.06329536  1
  Nd3+  Nd48  1  0.89380706  0.75121400  0.43144713  1
  Nd3+  Nd49  1  0.36726878  0.23453433  0.93688955  1
  Nd3+  Nd50  1  0.13562620  0.74627561  0.44113603  1
  Nd3+  Nd51  1  0.51690490  0.12835557  0.58109091  1
  Sm3+  Sm52  1  0.76268390  0.62410479  0.55605038  1
  Sm3+  Sm53  1  -0.00614073  0.60408880  0.05367441  1
  Sm3+  Sm54  1  0.01809902  0.12246663  0.56525376  1
  Sm3+  Sm55  1  0.14547811  0.24160104  0.42950019  1
  Sm3+  Sm56  1  -0.00890034  0.35747179  0.05048656  1
  Sm3+  Sm57  1  0.38959086  0.49720251  0.44318176  1
  Sm3+  Sm58  1  0.61710379  0.48554179  0.93509122  1
  Sm3+  Sm59  1  0.13673900  0.49694745  0.44320535  1
  Sm3+  Sm60  1  0.14208669  -0.00165007  0.44924017  1
  Sm3+  Sm61  1  0.39062397  -0.00642840  0.45627918  1
  Sm3+  Sm62  1  0.76397282  0.87223648  0.55536093  1
  Sm3+  Sm63  1  0.74966008  0.85486146  0.06106435  1
  Bi2+  Bi64  1  -0.00307534  0.13203039  0.29966978  1
  Bi2+  Bi65  1  -0.01401874  0.18192814  0.82053705  1
  Bi2+  Bi66  1  -0.07726211  0.36469037  0.25204673  1
  Bi2+  Bi67  1  0.01786466  0.37578958  0.78080570  1
  Bi2+  Bi68  1  0.01554410  0.69951391  0.32149602  1
  Bi2+  Bi69  1  0.00685481  0.62770519  0.78539369  1
  Bi2+  Bi70  1  0.06628194  0.89115707  0.30452528  1
  Bi2+  Bi71  1  -0.05935895  0.89411881  0.79203839  1
  Bi2+  Bi72  1  0.20723207  0.15701797  0.28325190  1
  Bi2+  Bi73  1  0.18220473  0.15077646  0.80451541  1
  Bi2+  Bi74  1  0.21480540  0.40877154  0.26180235  1
  Bi2+  Bi75  1  0.30862310  0.39322272  0.81578115  1
  Bi2+  Bi76  1  0.18754566  0.63013587  0.29032627  1
  Bi2+  Bi77  1  0.27318298  0.57583816  0.77610613  1
  Bi2+  Bi78  1  0.26905642  0.90082850  0.29410842  1
  Bi2+  Bi79  1  0.18624039  0.95652772  0.81090590  1
  Bi2+  Bi80  1  0.45049896  0.12225296  0.23382513  1
  Bi2+  Bi81  1  0.50664118  0.12895328  0.80099429  1
  Bi2+  Bi82  1  0.45984379  0.33104547  0.28811549  1
  Bi2+  Bi83  1  0.51385642  0.42868645  0.81197331  1
  Bi2+  Bi84  1  0.50988125  0.58444480  0.30343359  1
  Bi2+  Bi85  1  0.51891900  0.62481843  0.79727734  1
  Bi2+  Bi86  1  0.50936902  0.88719022  0.32130471  1
  Bi2+  Bi87  1  0.47939282  0.87817392  0.80419609  1
  Bi2+  Bi88  1  0.66416182  0.14234327  0.29619910  1
  Bi2+  Bi89  1  0.79453953  0.15894843  0.79384046  1
  Bi2+  Bi90  1  0.73906251  0.34909690  0.29504038  1
  Bi2+  Bi91  1  0.71156793  0.42775442  0.77552300  1
  Bi2+  Bi92  1  0.77037651  0.60913085  0.30239371  1
  Bi2+  Bi93  1  0.79104396  0.63333867  0.74582725  1
  Bi2+  Bi94  1  0.81273665  0.86338605  0.27530736  1
  Bi2+  Bi95  1  0.76303582  0.82259834  0.77587565  1
  Bi2+  Bi96  1  0.09129333  -0.03170441  0.19573000  1
  Bi2+  Bi97  1  0.03493026  0.08339318  0.72291392  1
  Bi2+  Bi98  1  0.10089899  0.27866458  0.19765647  1
  Bi2+  Bi99  1  0.18212919  0.30913052  0.73081891  1
  Bi2+  Bi100  1  0.07953055  0.51737747  0.21599849  1
  Bi2+  Bi101  1  0.13191311  0.49638725  0.71023948  1
  Bi2+  Bi102  1  0.14576176  0.77896605  0.21368474  1
  Bi2+  Bi103  1  0.15433924  0.77614989  0.70660547  1
  Bi2+  Bi104  1  0.27968897  0.03222916  0.20634418  1
  Bi2+  Bi105  1  0.29285081  0.03996847  0.72650394  1
  Bi2+  Bi106  1  0.39723709  0.29157309  0.18111606  1
  Bi2+  Bi107  1  0.39220198  0.26179067  0.70558230  1
  Bi2+  Bi108  1  0.37992220  0.48193029  0.21294919  1
  Bi2+  Bi109  1  0.40732248  0.47529320  0.71275687  1
  Bi2+  Bi110  1  0.38160922  0.73611532  0.21476013  1
  Bi2+  Bi111  1  0.38350412  0.77070762  0.70721501  1
  Bi2+  Bi112  1  0.63725465  0.01032764  0.21205730  1
  Bi2+  Bi113  1  0.64859391  -0.01698664  0.71395214  1
  Bi2+  Bi114  1  0.60192462  0.25359176  0.20037656  1
  Bi2+  Bi115  1  0.59548199  0.27876856  0.74466587  1
  Bi2+  Bi116  1  0.63032384  0.44680883  0.21557936  1
  Bi2+  Bi117  1  0.59457665  0.52939952  0.69895280  1
  Bi2+  Bi118  1  0.64394077  0.75459868  0.22250074  1
  Bi2+  Bi119  1  0.63059274  0.72611209  0.71063519  1
  Bi2+  Bi120  1  0.89279808  0.00155026  0.21334408  1
  Bi2+  Bi121  1  0.84781647  0.05751588  0.68393217  1
  Bi2+  Bi122  1  0.80462292  0.21494650  0.21964788  1
  Bi2+  Bi123  1  0.88544619  0.24905458  0.70283462  1
  Bi2+  Bi124  1  0.83763063  0.53364242  0.20955050  1
  Bi2+  Bi125  1  0.84783611  0.47017051  0.69055028  1
  Bi2+  Bi126  1  0.94635642  0.75184822  0.21680202  1
  Bi2+  Bi127  1  0.88065201  0.86408681  0.68350960  1
  S2-  S128  1  0.05754438  0.12896492  0.16247576  1
  S2-  S129  1  0.01450172  0.24420078  0.63513482  1
  S2-  S130  1  -0.03249573  0.34031506  0.14875726  1
  S2-  S131  1  0.00175811  0.46158344  0.64348546  1
  S2-  S132  1  -0.02758247  0.59973254  0.15248273  1
  S2-  S133  1  0.05091381  0.65754231  0.68288222  1
  S2-  S134  1  -0.11081494  0.86615645  0.14464593  1
  S2-  S135  1  0.05082332  0.87869518  0.65938974  1
  S2-  S136  1  0.24453439  0.23077246  0.14184773  1
  S2-  S137  1  0.16816165  0.08546748  0.66395935  1
  S2-  S138  1  0.19043056  0.47317331  0.14344751  1
  S2-  S139  1  0.26023397  0.28564334  0.63883740  1
  S2-  S140  1  0.34185098  0.61709080  0.15223050  1
  S2-  S141  1  0.27249874  0.68404243  0.64692830  1
  S2-  S142  1  0.34492698  0.85444075  0.14992718  1
  S2-  S143  1  0.28245004  0.89057499  0.66985288  1
  S2-  S144  1  0.50880686  0.04821550  0.14207242  1
  S2-  S145  1  0.39543227  0.11317549  0.65590714  1
  S2-  S146  1  0.51175506  0.47268544  0.14297112  1
  S2-  S147  1  0.52687741  0.28069119  0.64622914  1
  S2-  S148  1  0.52315816  0.71005785  0.15947715  1
  S2-  S149  1  0.49715137  0.70952667  0.64100078  1
  S2-  S150  1  0.51489028  0.88720698  0.22575985  1
  S2-  S151  1  0.49233548  0.91157661  0.69694828  1
  S2-  S152  1  0.83656936  0.10401354  0.13861724  1
  S2-  S153  1  0.65050901  0.10079921  0.64793769  1
  S2-  S154  1  0.74692423  0.45298267  0.13665648  1
  S2-  S155  1  0.76382055  0.33197741  0.64984013  1
  S2-  S156  1  0.74397435  0.66915217  0.16901156  1
  S2-  S157  1  0.84303153  0.62775558  0.64228982  1
  S2-  S158  1  0.67680001  0.89134046  0.14840010  1
  S2-  S159  1  0.68117162  0.85642140  0.64228671  1
  S2-  S160  1  0.13003210  0.04427013  0.35281327  1
  S2-  S161  1  0.03402682  -0.02938683  0.86581101  1
  S2-  S162  1  0.02816068  0.26222887  0.35533583  1
  S2-  S163  1  0.13908052  0.35137033  0.85643347  1
  S2-  S164  1  0.14924760  0.48763907  0.34409085  1
  S2-  S165  1  0.14292891  0.59615149  0.84480462  1
  S2-  S166  1  0.23174125  0.78207136  0.35995798  1
  S2-  S167  1  0.15138816  0.79782942  0.80776098  1
  S2-  S168  1  0.38426403  -0.01767615  0.35552151  1
  S2-  S169  1  0.39549732  0.02590430  0.83554891  1
  S2-  S170  1  0.26925763  0.24025536  0.35628954  1
  S2-  S171  1  0.38684515  0.24641036  0.83717264  1
  S2-  S172  1  0.40534662  0.47494959  0.34643893  1
  S2-  S173  1  0.37396913  0.60313860  0.86110656  1
  S2-  S174  1  0.40308926  0.70048271  0.31993056  1
  S2-  S175  1  0.35337262  0.83819894  0.85667723  1
  S2-  S176  1  0.65227115  -0.01844282  0.33890726  1
  S2-  S177  1  0.60826455  -0.00624065  0.82286943  1
  S2-  S178  1  0.51826966  0.22971091  0.35945896  1
  S2-  S179  1  0.64163217  0.22167487  0.84360630  1
  S2-  S180  1  0.64971437  0.49265942  0.34071707  1
  S2-  S181  1  0.72459696  0.51706934  0.85833347  1
  S2-  S182  1  0.59601505  0.73052178  0.32641704  1
  S2-  S183  1  0.58254813  0.75445884  0.84860963  1
  S2-  S184  1  0.91160521  -0.09211776  0.35031567  1
  S2-  S185  1  0.82218668  0.00421195  0.83464128  1
  S2-  S186  1  0.86783279  0.12530450  0.35885005  1
  S2-  S187  1  0.86067364  0.30738395  0.84198027  1
  S2-  S188  1  0.91092098  0.55397226  0.34459400  1
  S2-  S189  1  0.96636776  0.50241224  0.84217881  1
  S2-  S190  1  0.78237529  0.74901103  0.35435514  1
  S2-  S191  1  0.94735865  0.74411613  0.85498634  1
  S2-  S192  1  0.01958138  0.12071842  0.46054276  1
  S2-  S193  1  -0.00453020  0.11083955  0.95965320  1
  S2-  S194  1  0.01744691  0.37493185  0.45515006  1
  S2-  S195  1  -0.00977763  0.35579347  0.94791577  1
  S2-  S196  1  0.01398656  0.62110410  0.45764964  1
  S2-  S197  1  -0.00600295  0.60986630  0.95145668  1
  S2-  S198  1  0.01737163  0.87427055  0.45576901  1
  S2-  S199  1  -0.00062433  0.84785714  0.96258799  1
  S2-  S200  1  0.26745902  0.11559469  0.46225002  1
  S2-  S201  1  0.24428706  0.10850164  0.95381370  1
  S2-  S202  1  0.26376090  0.37644753  0.44990490  1
  S2-  S203  1  0.24722807  0.35831666  0.95889970  1
  S2-  S204  1  0.26258249  0.61796279  0.44914212  1
  S2-  S205  1  0.23446742  0.60951648  0.95909014  1
  S2-  S206  1  0.26111011  0.87538726  0.46360299  1
  S2-  S207  1  0.23098995  0.84956588  0.95748942  1
  S2-  S208  1  0.51137562  0.11725024  0.46381554  1
  S2-  S209  1  0.49150279  0.10586458  0.94503939  1
  S2-  S210  1  0.51351257  0.37478130  0.45584201  1
  S2-  S211  1  0.49327087  0.36081673  0.95317545  1
  S2-  S212  1  0.51253151  0.62427177  0.44630620  1
  S2-  S213  1  0.49759702  0.60514597  0.96111220  1
  S2-  S214  1  0.51367248  0.86659097  0.44355166  1
  S2-  S215  1  0.49304963  0.85818788  0.95082959  1
  S2-  S216  1  0.75682657  0.12275119  0.45916921  1
  S2-  S217  1  0.74193667  0.10455322  0.94913225  1
  S2-  S218  1  0.76440847  0.36749348  0.44372493  1
  S2-  S219  1  0.73753250  0.35638234  0.94991204  1
  S2-  S220  1  0.76671236  0.62075867  0.45264784  1
  S2-  S221  1  0.74216706  0.61145144  0.96211900  1
  S2-  S222  1  0.76564035  0.87525913  0.45286157  1
  S2-  S223  1  0.74581787  0.85555895  0.94937168  1
  S2-  S224  1  0.11802929  -0.01873263  0.05619166  1
  S2-  S225  1  0.13867119  -0.00554554  0.55253888  1
  S2-  S226  1  0.11287036  0.23229106  0.04092303  1
  S2-  S227  1  0.14178654  0.24251864  0.53603598  1
  S2-  S228  1  0.10997324  0.47911617  0.03542144  1
  S2-  S229  1  0.13981867  0.49724064  0.54844666  1
  S2-  S230  1  0.11627218  0.72843188  0.06538666  1
  S2-  S231  1  0.13216388  0.74342683  0.54828367  1
  S2-  S232  1  0.36489800  -0.01631464  0.04224630  1
  S2-  S233  1  0.39413731  -0.01449587  0.55875006  1
  S2-  S234  1  0.37508966  0.23106570  0.04276956  1
  S2-  S235  1  0.39235673  0.24899372  0.54060974  1
  S2-  S236  1  0.36727194  0.47801044  0.04540571  1
  S2-  S237  1  0.38895678  0.49751479  0.54959468  1
  S2-  S238  1  0.36429685  0.72553432  0.04359850  1
  S2-  S239  1  0.38762638  0.75011185  0.53626741  1
  S2-  S240  1  0.62068260  -0.02288301  0.03698018  1
  S2-  S241  1  0.63444578  -0.00962935  0.54609309  1
  S2-  S242  1  0.61799425  0.23126986  0.04831467  1
  S2-  S243  1  0.63818722  0.24657441  0.53986231  1
  S2-  S244  1  0.61779682  0.48273095  0.03846638  1
  S2-  S245  1  0.63950058  0.49787059  0.54834233  1
  S2-  S246  1  0.62123510  0.73643006  0.05230255  1
  S2-  S247  1  0.64133025  0.74727249  0.53595709  1
  S2-  S248  1  0.86686023  -0.02090186  0.03735595  1
  S2-  S249  1  0.88831332  -0.00182622  0.54572029  1
  S2-  S250  1  0.86323600  0.23542967  0.04002257  1
  S2-  S251  1  0.88525276  0.23886393  0.53844919  1
  S2-  S252  1  0.87079957  0.48207292  0.03637095  1
  S2-  S253  1  0.88506319  0.49651496  0.54046800  1
  S2-  S254  1  0.86803581  0.72685709  0.04855213  1
  S2-  S255  1  0.88660391  0.74794228  0.54080403  1
