# generated using pymatgen
data_La12Ce14Pr13Nd13Sm12(BiS2)64
_symmetry_space_group_name_H-M   'P 1'
_cell_length_a   16.10369567
_cell_length_b   16.09772769
_cell_length_c   27.29236743
_cell_angle_alpha   90.02861996
_cell_angle_beta   90.01495378
_cell_angle_gamma   89.97377528
_symmetry_Int_Tables_number   1
_chemical_formula_structural   La12Ce14Pr13Nd13Sm12(BiS2)64
_chemical_formula_sum   'La12 Ce14 Pr13 Nd13 Sm12 Bi64 S128'
_cell_volume   7075.07790275
_cell_formula_units_Z   1
loop_
 _symmetry_equiv_pos_site_id
 _symmetry_equiv_pos_as_xyz
  1  'x, y, z'
loop_
 _atom_type_symbol
 _atom_type_oxidation_number
  La3+  3.0
  Ce3+  3.0
  Pr3+  3.0
  Nd3+  3.0
  Sm3+  3.0
  Bi2+  2.0
  S2-  -2.0
loop_
 _atom_site_type_symbol
 _atom_site_label
 _atom_site_symmetry_multiplicity
 _atom_site_fract_x
 _atom_site_fract_y
 _atom_site_fract_z
 _atom_site_occupancy
  La3+  La0  1  0.10658152  0.27183261  0.91535118  1
  La3+  La1  1  0.61710990  0.24437827  0.43619285  1
  La3+  La2  1  0.74823170  0.12176003  0.57462807  1
  La3+  La3  1  -0.01781680  0.64626448  0.06883042  1
  La3+  La4  1  0.85053288  0.27921431  0.91857631  1
  La3+  La5  1  0.35948693  0.01855369  0.92848722  1
  La3+  La6  1  0.47046659  0.64868545  0.07692574  1
  La3+  La7  1  0.89304460  0.50581341  0.40331305  1
  La3+  La8  1  0.85529691  0.02001244  0.91353540  1
  La3+  La9  1  0.75365342  0.61727912  0.56330095  1
  La3+  La10  1  0.10749769  0.01403699  0.90060665  1
  La3+  La11  1  0.60577627  0.27660805  0.93226356  1
  Ce3+  Ce12  1  0.23218585  0.64763497  0.04683863  1
  Ce3+  Ce13  1  0.73008816  0.63449322  0.06743804  1
  Ce3+  Ce14  1  0.85082205  0.76087662  0.93271213  1
  Ce3+  Ce15  1  0.37756607  0.24570417  0.44992805  1
  Ce3+  Ce16  1  0.73024114  0.89423495  0.05519796  1
  Ce3+  Ce17  1  0.87268605  0.00095979  0.44273989  1
  Ce3+  Ce18  1  0.22697941  0.14547103  0.04647037  1
  Ce3+  Ce19  1  0.10475971  0.77175050  0.93813343  1
  Ce3+  Ce20  1  0.74424109  0.36973371  0.56169840  1
  Ce3+  Ce21  1  0.24842352  0.62288107  0.56765176  1
  Ce3+  Ce22  1  0.49685378  0.62410570  0.56389615  1
  Ce3+  Ce23  1  0.00068903  0.86935718  0.56975261  1
  Ce3+  Ce24  1  0.23006915  0.89964310  0.05523737  1
  Ce3+  Ce25  1  0.50194635  0.37087034  0.57210545  1
  Pr3+  Pr26  1  0.49875903  0.11322313  0.57907116  1
  Pr3+  Pr27  1  0.36887757  0.73708786  0.43077941  1
  Pr3+  Pr28  1  0.37608384  0.49478362  0.44346684  1
  Pr3+  Pr29  1  0.47491212  0.89834258  0.06963888  1
  Pr3+  Pr30  1  0.11994160  0.24675247  0.44446056  1
  Pr3+  Pr31  1  0.72830029  0.36259340  0.11686698  1
  Pr3+  Pr32  1  0.00539891  0.61793525  0.57941253  1
  Pr3+  Pr33  1  0.10314701  0.51968574  0.93009446  1
  Pr3+  Pr34  1  -0.01800609  0.39149863  0.06310357  1
  Pr3+  Pr35  1  0.36274136  0.77030420  0.92910182  1
  Pr3+  Pr36  1  -0.01158942  0.36627495  0.58012886  1
  Pr3+  Pr37  1  0.49592187  0.86337606  0.56813335  1
  Pr3+  Pr38  1  0.11971257  -0.00496767  0.43947281  1
  Nd3+  Nd39  1  0.24908999  0.12021020  0.56278464  1
  Nd3+  Nd40  1  0.60714944  0.01791102  0.93059698  1
  Nd3+  Nd41  1  0.75189719  0.87054791  0.56127235  1
  Nd3+  Nd42  1  0.62691146  0.49634362  0.44089149  1
  Nd3+  Nd43  1  0.48445716  0.14992037  0.05531454  1
  Nd3+  Nd44  1  0.00007866  0.11646795  0.57988217  1
  Nd3+  Nd45  1  0.60631596  0.76764482  0.93882930  1
  Nd3+  Nd46  1  -0.02073086  0.14687432  0.04452033  1
  Nd3+  Nd47  1  0.48205636  0.39908843  0.07208645  1
  Nd3+  Nd48  1  0.87391710  0.24367990  0.43663344  1
  Nd3+  Nd49  1  0.60489232  0.52169250  0.94725843  1
  Nd3+  Nd50  1  0.35543574  0.27280431  0.94073102  1
  Nd3+  Nd51  1  0.37478974  -0.00706446  0.44001634  1
  Sm3+  Sm52  1  -0.02085269  0.89681432  0.04917902  1
  Sm3+  Sm53  1  0.11606204  0.73931649  0.44187958  1
  Sm3+  Sm54  1  0.62219609  -0.00635156  0.44965328  1
  Sm3+  Sm55  1  0.62564356  0.74465072  0.44355770  1
  Sm3+  Sm56  1  0.85573536  0.51935077  0.94150177  1
  Sm3+  Sm57  1  0.22561021  0.39364216  0.05730917  1
  Sm3+  Sm58  1  0.87557719  0.74522012  0.44583106  1
  Sm3+  Sm59  1  0.24834015  0.86908219  0.55077900  1
  Sm3+  Sm60  1  0.12088611  0.49331621  0.45090552  1
  Sm3+  Sm61  1  0.24887957  0.37051202  0.56376343  1
  Sm3+  Sm62  1  0.35658153  0.52004263  0.94148871  1
  Sm3+  Sm63  1  0.73259265  0.14629824  0.04667950  1
  Bi2+  Bi64  1  0.02046141  0.09929680  0.29688298  1
  Bi2+  Bi65  1  0.06520715  0.06103433  0.75993421  1
  Bi2+  Bi66  1  0.01625483  0.36714059  0.29083330  1
  Bi2+  Bi67  1  -0.01745443  0.34666659  0.79414011  1
  Bi2+  Bi68  1  0.04454243  0.64242304  0.29682446  1
  Bi2+  Bi69  1  0.02580642  0.61347921  0.80580876  1
  Bi2+  Bi70  1  0.03198407  0.90279108  0.31393553  1
  Bi2+  Bi71  1  -0.00609800  0.80935019  0.78711016  1
  Bi2+  Bi72  1  0.27829878  0.16991729  0.27117954  1
  Bi2+  Bi73  1  0.34821170  0.12955516  0.79725598  1
  Bi2+  Bi74  1  0.23316304  0.36015532  0.28958526  1
  Bi2+  Bi75  1  0.27082660  0.44547565  0.79324826  1
  Bi2+  Bi76  1  0.28059725  0.60316009  0.23038432  1
  Bi2+  Bi77  1  0.22109815  0.64246114  0.78508078  1
  Bi2+  Bi78  1  0.21515583  0.84508982  0.28052063  1
  Bi2+  Bi79  1  0.28915846  0.82269374  0.80549814  1
  Bi2+  Bi80  1  0.54157759  0.11834106  0.31771893  1
  Bi2+  Bi81  1  0.54783950  0.15259724  0.80933915  1
  Bi2+  Bi82  1  0.42460535  0.39854487  0.30911415  1
  Bi2+  Bi83  1  0.47725748  0.33572425  0.80356909  1
  Bi2+  Bi84  1  0.48573037  0.63003110  0.30031159  1
  Bi2+  Bi85  1  0.49134553  0.63489272  0.78264410  1
  Bi2+  Bi86  1  0.52922649  0.86829454  0.31788761  1
  Bi2+  Bi87  1  0.47116508  0.87827571  0.78131529  1
  Bi2+  Bi88  1  0.78091073  0.05353030  0.28688528  1
  Bi2+  Bi89  1  0.79933777  0.08076269  0.77165739  1
  Bi2+  Bi90  1  0.72131410  0.38219043  0.31721666  1
  Bi2+  Bi91  1  0.73415159  0.40291346  0.79028568  1
  Bi2+  Bi92  1  0.77545922  0.68377189  0.25792281  1
  Bi2+  Bi93  1  0.73148400  0.63657528  0.80411774  1
  Bi2+  Bi94  1  0.84101650  0.86017647  0.30162846  1
  Bi2+  Bi95  1  0.76436149  0.84205648  0.76582961  1
  Bi2+  Bi96  1  0.23585583  0.00292772  0.21145754  1
  Bi2+  Bi97  1  0.23165195  -0.05326579  0.72329795  1
  Bi2+  Bi98  1  0.12634764  0.23457918  0.19978945  1
  Bi2+  Bi99  1  0.14816053  0.24220600  0.72214912  1
  Bi2+  Bi100  1  0.12842811  0.48686104  0.21275474  1
  Bi2+  Bi101  1  0.10806143  0.50309755  0.71721695  1
  Bi2+  Bi102  1  0.09015386  0.76445761  0.20702661  1
  Bi2+  Bi103  1  0.12797884  0.78277977  0.70124987  1
  Bi2+  Bi104  1  0.43180448  0.01115114  0.23661767  1
  Bi2+  Bi105  1  0.36760394  0.09573923  0.68912955  1
  Bi2+  Bi106  1  0.41682083  0.24723208  0.20516064  1
  Bi2+  Bi107  1  0.43366726  0.28538142  0.69076394  1
  Bi2+  Bi108  1  0.33421720  0.42278553  0.19037102  1
  Bi2+  Bi109  1  0.35528156  0.47105209  0.68344638  1
  Bi2+  Bi110  1  0.36070837  0.78105525  0.20691534  1
  Bi2+  Bi111  1  0.36207632  0.66725481  0.69949091  1
  Bi2+  Bi112  1  0.63092968  -0.00945940  0.21883836  1
  Bi2+  Bi113  1  0.57106539  0.01833046  0.72586078  1
  Bi2+  Bi114  1  0.61787770  0.21181006  0.21119863  1
  Bi2+  Bi115  1  0.62741978  0.25813709  0.71826964  1
  Bi2+  Bi116  1  0.59168383  0.59461110  0.20972686  1
  Bi2+  Bi117  1  0.54405258  0.46969746  0.72141815  1
  Bi2+  Bi118  1  0.62878688  0.78957175  0.21392145  1
  Bi2+  Bi119  1  0.62620162  0.73714178  0.71056973  1
  Bi2+  Bi120  1  0.91926038  -0.02140047  0.21584304  1
  Bi2+  Bi121  1  0.88237983  -0.05936522  0.69657575  1
  Bi2+  Bi122  1  0.87760046  0.23471760  0.20581196  1
  Bi2+  Bi123  1  0.88889213  0.24438792  0.71919116  1
  Bi2+  Bi124  1  0.87113609  0.51219440  0.21503718  1
  Bi2+  Bi125  1  0.82729187  0.49255088  0.70507518  1
  Bi2+  Bi126  1  0.90149520  0.77870153  0.19012900  1
  Bi2+  Bi127  1  0.89193960  0.67691376  0.72429700  1
  S2-  S128  1  -0.01159655  0.16495296  0.14666636  1
  S2-  S129  1  0.01839760  -0.01741548  0.64790008  1
  S2-  S130  1  -0.10432054  0.37273354  0.15295434  1
  S2-  S131  1  0.01637591  0.24015204  0.65351317  1
  S2-  S132  1  -0.00823345  0.56860763  0.16071955  1
  S2-  S133  1  -0.01582274  0.49500549  0.65457214  1
  S2-  S134  1  0.02545475  0.89854481  0.14556582  1
  S2-  S135  1  -0.02001862  0.75227678  0.64683941  1
  S2-  S136  1  0.22886790  0.13989908  0.14456268  1
  S2-  S137  1  0.19500021  0.13093553  0.65804681  1
  S2-  S138  1  0.11914254  0.37105636  0.13426261  1
  S2-  S139  1  0.20344797  0.37242763  0.65957133  1
  S2-  S140  1  0.29623205  0.66273124  0.13698914  1
  S2-  S141  1  0.15310901  0.62592376  0.64933132  1
  S2-  S142  1  0.32507500  0.90855462  0.13761784  1
  S2-  S143  1  0.27141771  0.84018909  0.64678885  1
  S2-  S144  1  0.48307226  0.11059193  0.15224943  1
  S2-  S145  1  0.62631380  0.13094122  0.65144816  1
  S2-  S146  1  0.56446165  0.33364911  0.15406449  1
  S2-  S147  1  0.62353483  0.38175194  0.64234765  1
  S2-  S148  1  0.47481657  0.52518865  0.15115438  1
  S2-  S149  1  0.49334961  0.73429650  0.64125246  1
  S2-  S150  1  0.49314300  0.78088163  0.14638205  1
  S2-  S151  1  0.47942406  0.97074581  0.64771985  1
  S2-  S152  1  0.74640184  0.18335480  0.14312947  1
  S2-  S153  1  0.84000655  0.09939529  0.66312778  1
  S2-  S154  1  0.73330076  0.34092193  0.22538027  1
  S2-  S155  1  0.83330587  0.35130770  0.64599048  1
  S2-  S156  1  0.73579266  0.53441142  0.15060850  1
  S2-  S157  1  0.71295532  0.61187695  0.66221280  1
  S2-  S158  1  0.72508969  0.90325150  0.15298814  1
  S2-  S159  1  0.72393668  0.86470994  0.65990393  1
  S2-  S160  1  0.15307379  0.02802905  0.34265979  1
  S2-  S161  1  0.25634247  0.02004974  0.84405837  1
  S2-  S162  1  0.07199571  0.24373065  0.34678700  1
  S2-  S163  1  0.11259672  0.17641118  0.82254108  1
  S2-  S164  1  0.05783115  0.49707372  0.35789932  1
  S2-  S165  1  0.11447802  0.40943340  0.84908031  1
  S2-  S166  1  0.17088710  0.71643991  0.34951916  1
  S2-  S167  1  0.11932616  0.84734812  0.85066351  1
  S2-  S168  1  0.40984809  -0.00123516  0.34331362  1
  S2-  S169  1  0.48911405  -0.00253012  0.85555053  1
  S2-  S170  1  0.46233266  0.25024599  0.36497960  1
  S2-  S171  1  0.31925540  0.29192919  0.84352557  1
  S2-  S172  1  0.35877525  0.55415725  0.34920326  1
  S2-  S173  1  0.38226223  0.53606649  0.84471083  1
  S2-  S174  1  0.40216781  0.77045706  0.33367434  1
  S2-  S175  1  0.49402112  0.75887131  0.85806813  1
  S2-  S176  1  0.65170224  -0.01374200  0.35246121  1
  S2-  S177  1  0.72114151  0.01763202  0.84619081  1
  S2-  S178  1  0.67172016  0.21456655  0.34092547  1
  S2-  S179  1  0.69774101  0.27661093  0.84642898  1
  S2-  S180  1  0.57129236  0.46319714  0.34727483  1
  S2-  S181  1  0.63449621  0.51992122  0.84742653  1
  S2-  S182  1  0.61514065  0.72444278  0.34652037  1
  S2-  S183  1  0.72176125  0.77991769  0.86016725  1
  S2-  S184  1  0.88100698  0.10875906  0.36513718  1
  S2-  S185  1  0.97234313  0.00338191  0.83263860  1
  S2-  S186  1  0.87890784  0.34678092  0.35312783  1
  S2-  S187  1  0.88792206  0.20078258  0.82500991  1
  S2-  S188  1  0.79673223  0.52911431  0.31488904  1
  S2-  S189  1  0.87145080  0.42236086  0.85391035  1
  S2-  S190  1  0.93152485  0.67511861  0.36285661  1
  S2-  S191  1  0.87260337  0.63424565  0.86366059  1
  S2-  S192  1  0.00124255  0.11963007  0.46577040  1
  S2-  S193  1  -0.01782658  0.14227281  0.93959297  1
  S2-  S194  1  -0.00226829  0.37180518  0.46138938  1
  S2-  S195  1  -0.01673062  0.39568372  0.95461264  1
  S2-  S196  1  0.00075998  0.61751269  0.46857352  1
  S2-  S197  1  -0.01350887  0.64579869  0.96029321  1
  S2-  S198  1  -0.00304457  0.86861264  0.45729626  1
  S2-  S199  1  -0.02496525  0.89157705  0.94612028  1
  S2-  S200  1  0.25073081  0.12084509  0.45415102  1
  S2-  S201  1  0.23007758  0.14718735  0.94264750  1
  S2-  S202  1  0.24926211  0.37069399  0.45545491  1
  S2-  S203  1  0.23275998  0.39809187  0.95339170  1
  S2-  S204  1  0.24353606  0.61751996  0.45943499  1
  S2-  S205  1  0.23237110  0.64526183  0.94089270  1
  S2-  S206  1  0.24629487  0.86735751  0.44559203  1
  S2-  S207  1  0.23295912  0.89285287  0.95147785  1
  S2-  S208  1  0.49720194  0.11327269  0.46512445  1
  S2-  S209  1  0.48190457  0.14941254  0.94958821  1
  S2-  S210  1  0.49844440  0.37422861  0.46536434  1
  S2-  S211  1  0.47793390  0.39791184  0.95687626  1
  S2-  S212  1  0.50090260  0.62239929  0.45611130  1
  S2-  S213  1  0.47709830  0.64223671  0.96244924  1
  S2-  S214  1  0.49882675  0.86596854  0.45666341  1
  S2-  S215  1  0.48532150  0.89344586  0.96181548  1
  S2-  S216  1  0.74341819  0.11708021  0.46305429  1
  S2-  S217  1  0.73117851  0.14456394  0.94552913  1
  S2-  S218  1  0.74638717  0.37042219  0.45396605  1
  S2-  S219  1  0.72901613  0.40129389  0.95143738  1
  S2-  S220  1  0.75261109  0.62070215  0.45096101  1
  S2-  S221  1  0.72997592  0.64145757  0.96249502  1
  S2-  S222  1  0.74970276  0.86873827  0.45434944  1
  S2-  S223  1  0.73266672  0.89729352  0.95327672  1
  S2-  S224  1  0.10282889  0.01909286  0.03718105  1
  S2-  S225  1  0.12915718  -0.00585571  0.54560474  1
  S2-  S226  1  0.10663630  0.26810999  0.02852413  1
  S2-  S227  1  0.12763040  0.24684550  0.54909887  1
  S2-  S228  1  0.10923181  0.52239067  0.03990270  1
  S2-  S229  1  0.12731074  0.48973771  0.55208613  1
  S2-  S230  1  0.10657797  0.77284752  0.04505024  1
  S2-  S231  1  0.12635364  0.74735115  0.54498795  1
  S2-  S232  1  0.35797134  0.02692916  0.03704584  1
  S2-  S233  1  0.36972686  -0.00715445  0.54534625  1
  S2-  S234  1  0.35505562  0.27325816  0.04832266  1
  S2-  S235  1  0.37415795  0.24577619  0.55503194  1
  S2-  S236  1  0.34960801  0.51509259  0.04492234  1
  S2-  S237  1  0.37334148  0.49664522  0.55097727  1
  S2-  S238  1  0.35288704  0.77506338  0.03568713  1
  S2-  S239  1  0.36982620  0.74390790  0.53845145  1
  S2-  S240  1  0.60587282  0.02208748  0.04326610  1
  S2-  S241  1  0.62446927  -0.01080057  0.55205151  1
  S2-  S242  1  0.61016670  0.27145649  0.04153125  1
  S2-  S243  1  0.61753152  0.24340298  0.54557049  1
  S2-  S244  1  0.60075642  0.52118280  0.05100299  1
  S2-  S245  1  0.62057429  0.50208343  0.54554175  1
  S2-  S246  1  0.60969172  0.76700765  0.04647951  1
  S2-  S247  1  0.62850810  0.74525458  0.54667960  1
  S2-  S248  1  0.85616293  0.02006099  0.04137736  1
  S2-  S249  1  0.87502055  -0.00616947  0.54796020  1
  S2-  S250  1  0.85381957  0.26900390  0.03689356  1
  S2-  S251  1  0.87353872  0.23949635  0.54474954  1
  S2-  S252  1  0.86202285  0.52211726  0.04551154  1
  S2-  S253  1  0.87142282  0.49367304  0.54979550  1
  S2-  S254  1  0.85567370  0.76889579  0.04569081  1
  S2-  S255  1  0.87304473  0.74439451  0.54804780  1
