# generated using pymatgen
data_La12Ce14Pr13Nd13Sm12(BiS2)64
_symmetry_space_group_name_H-M   'P 1'
_cell_length_a   16.07937815
_cell_length_b   16.10780158
_cell_length_c   27.45723192
_cell_angle_alpha   89.91025097
_cell_angle_beta   90.41151162
_cell_angle_gamma   89.99417787
_symmetry_Int_Tables_number   1
_chemical_formula_structural   La12Ce14Pr13Nd13Sm12(BiS2)64
_chemical_formula_sum   'La12 Ce14 Pr13 Nd13 Sm12 Bi64 S128'
_cell_volume   7111.32512896
_cell_formula_units_Z   1
loop_
 _symmetry_equiv_pos_site_id
 _symmetry_equiv_pos_as_xyz
  1  'x, y, z'
loop_
 _atom_type_symbol
 _atom_type_oxidation_number
  La3+  3.0
  Ce3+  3.0
  Pr3+  3.0
  Nd3+  3.0
  Sm3+  3.0
  Bi2+  2.0
  S2-  -2.0
loop_
 _atom_site_type_symbol
 _atom_site_label
 _atom_site_symmetry_multiplicity
 _atom_site_fract_x
 _atom_site_fract_y
 _atom_site_fract_z
 _atom_site_occupancy
  La3+  La0  1  0.36991955  0.24910533  0.42470625  1
  La3+  La1  1  -0.00775211  0.87152052  0.57003627  1
  La3+  La2  1  0.63157006  0.24444225  0.91989168  1
  La3+  La3  1  0.49575709  0.36594952  0.59564299  1
  La3+  La4  1  0.62417933  0.75437259  0.93654194  1
  La3+  La5  1  0.50256254  0.87032066  0.56719609  1
  La3+  La6  1  0.36954368  0.49648645  0.44789694  1
  La3+  La7  1  0.86622048  0.25207935  0.39871576  1
  La3+  La8  1  0.23998094  0.86758716  0.57077168  1
  La3+  La9  1  0.24633552  0.85468540  0.11713587  1
  La3+  La10  1  0.75704299  0.14033672  0.08258178  1
  La3+  La11  1  0.11926783  0.73845216  0.42104104  1
  Ce3+  Ce12  1  0.75442913  0.62393661  0.06008816  1
  Ce3+  Ce13  1  0.11799327  -0.00623323  0.43807667  1
  Ce3+  Ce14  1  0.62349324  -0.00612794  0.43730643  1
  Ce3+  Ce15  1  -0.00543150  0.12454537  0.54689834  1
  Ce3+  Ce16  1  0.24756838  0.12655658  0.54802831  1
  Ce3+  Ce17  1  0.87041153  -0.00474345  0.44031497  1
  Ce3+  Ce18  1  0.00943681  0.87843715  0.05885187  1
  Ce3+  Ce19  1  -0.00471960  0.62169935  0.55536308  1
  Ce3+  Ce20  1  0.50270153  0.13053865  0.06408054  1
  Ce3+  Ce21  1  0.74339869  0.61990096  0.56283287  1
  Ce3+  Ce22  1  -0.00109196  0.36993382  0.55924495  1
  Ce3+  Ce23  1  0.88070212  0.24507205  0.92886521  1
  Ce3+  Ce24  1  0.25863222  0.36833342  0.06163502  1
  Ce3+  Ce25  1  0.38168087  0.49955072  0.94121764  1
  Pr3+  Pr26  1  0.61819064  0.49638970  0.44755671  1
  Pr3+  Pr27  1  0.75559365  0.87846711  0.07241931  1
  Pr3+  Pr28  1  0.63338759  0.49784783  0.92586535  1
  Pr3+  Pr29  1  0.50309059  0.88268172  0.08023651  1
  Pr3+  Pr30  1  0.51301988  0.62409838  0.06592424  1
  Pr3+  Pr31  1  0.87271557  0.75798180  0.93100858  1
  Pr3+  Pr32  1  0.36940722  -0.00954843  0.44473268  1
  Pr3+  Pr33  1  0.12597193  0.74909028  0.93557924  1
  Pr3+  Pr34  1  0.01077216  0.62966215  0.06343157  1
  Pr3+  Pr35  1  0.24254135  0.36653954  0.57271896  1
  Pr3+  Pr36  1  0.62258371  0.73934771  0.42810118  1
  Pr3+  Pr37  1  0.00921188  0.13981230  0.08228533  1
  Pr3+  Pr38  1  0.49482111  0.62783883  0.57013114  1
  Nd3+  Nd39  1  0.74573324  0.36971416  0.55566486  1
  Nd3+  Nd40  1  0.13150305  0.50200614  0.94483855  1
  Nd3+  Nd41  1  0.74952899  0.87222611  0.56661639  1
  Nd3+  Nd42  1  0.26772075  0.61250372  0.07230635  1
  Nd3+  Nd43  1  0.62724790  0.00239446  0.94975276  1
  Nd3+  Nd44  1  0.24319549  0.62413467  0.56214714  1
  Nd3+  Nd45  1  0.37902960  0.75361909  0.94708711  1
  Nd3+  Nd46  1  0.37837488  0.25649620  0.92313337  1
  Nd3+  Nd47  1  0.61736401  0.24649045  0.42930550  1
  Nd3+  Nd48  1  0.49545425  0.12468624  0.55345870  1
  Nd3+  Nd49  1  0.87841023  0.00310283  0.94823629  1
  Nd3+  Nd50  1  0.13426218  0.24811449  0.93052866  1
  Nd3+  Nd51  1  0.86920610  0.49362526  0.43978088  1
  Sm3+  Sm52  1  0.13198044  -0.00040590  0.94302958  1
  Sm3+  Sm53  1  0.75859624  0.37274512  0.04892932  1
  Sm3+  Sm54  1  0.51047926  0.36740346  0.05362985  1
  Sm3+  Sm55  1  0.25475580  0.12076294  0.06137091  1
  Sm3+  Sm56  1  0.00703123  0.37270720  0.04823085  1
  Sm3+  Sm57  1  0.88109373  0.50152177  0.94232709  1
  Sm3+  Sm58  1  0.87039588  0.74906569  0.43570940  1
  Sm3+  Sm59  1  0.11857406  0.48825791  0.43728651  1
  Sm3+  Sm60  1  0.11916783  0.24624415  0.43412537  1
  Sm3+  Sm61  1  0.37824376  0.00031126  0.94992944  1
  Sm3+  Sm62  1  0.37124027  0.74571991  0.43338372  1
  Sm3+  Sm63  1  0.74466771  0.12731319  0.55383091  1
  Bi2+  Bi64  1  0.09027733  0.17413764  0.29068817  1
  Bi2+  Bi65  1  -0.00568298  0.19834560  0.79750301  1
  Bi2+  Bi66  1  -0.02451565  0.43042667  0.26388802  1
  Bi2+  Bi67  1  0.06535187  0.37785244  0.79931926  1
  Bi2+  Bi68  1  -0.02264005  0.62397975  0.29012467  1
  Bi2+  Bi69  1  0.05459487  0.60614120  0.75014260  1
  Bi2+  Bi70  1  -0.02586018  0.88764981  0.28888765  1
  Bi2+  Bi71  1  0.01522070  0.85627478  0.80349136  1
  Bi2+  Bi72  1  0.28760821  0.17166317  0.29847912  1
  Bi2+  Bi73  1  0.26376411  0.12382534  0.78353973  1
  Bi2+  Bi74  1  0.26877259  0.36302166  0.31664652  1
  Bi2+  Bi75  1  0.25994901  0.37594775  0.78094204  1
  Bi2+  Bi76  1  0.24806174  0.57359460  0.29377131  1
  Bi2+  Bi77  1  0.24437793  0.64072758  0.80846949  1
  Bi2+  Bi78  1  0.22883794  0.89885822  0.31615502  1
  Bi2+  Bi79  1  0.27956032  0.91817303  0.80329654  1
  Bi2+  Bi80  1  0.47743008  0.18075273  0.26303149  1
  Bi2+  Bi81  1  0.54420637  0.14021484  0.77421216  1
  Bi2+  Bi82  1  0.54638079  0.38528783  0.28465317  1
  Bi2+  Bi83  1  0.51464816  0.39868395  0.79737713  1
  Bi2+  Bi84  1  0.51865153  0.61021166  0.29336476  1
  Bi2+  Bi85  1  0.42450395  0.70192412  0.78466963  1
  Bi2+  Bi86  1  0.48971233  0.87919090  0.29291762  1
  Bi2+  Bi87  1  0.52763046  0.90655517  0.80162829  1
  Bi2+  Bi88  1  0.76590340  0.11630856  0.28900616  1
  Bi2+  Bi89  1  0.82559722  0.12572204  0.75011655  1
  Bi2+  Bi90  1  0.76164055  0.42610554  0.26988950  1
  Bi2+  Bi91  1  0.79224313  0.35399281  0.79832803  1
  Bi2+  Bi92  1  0.77721527  0.62394815  0.28232657  1
  Bi2+  Bi93  1  0.72059476  0.60904234  0.79673674  1
  Bi2+  Bi94  1  0.72483406  0.87249902  0.29735835  1
  Bi2+  Bi95  1  0.76530020  0.88312525  0.79407499  1
  Bi2+  Bi96  1  0.07302364  0.02830975  0.20719418  1
  Bi2+  Bi97  1  0.13001985  -0.00136178  0.73879593  1
  Bi2+  Bi98  1  0.14679561  0.20775125  0.18367824  1
  Bi2+  Bi99  1  0.10856430  0.20420488  0.69916603  1
  Bi2+  Bi100  1  0.16262870  0.44135082  0.22643977  1
  Bi2+  Bi101  1  0.17584187  0.48407904  0.69389739  1
  Bi2+  Bi102  1  0.09002411  0.73106515  0.21497946  1
  Bi2+  Bi103  1  0.11445041  0.77035504  0.70086160  1
  Bi2+  Bi104  1  0.35632336  0.04515590  0.21683090  1
  Bi2+  Bi105  1  0.41914567  0.01417329  0.71225085  1
  Bi2+  Bi106  1  0.33697763  0.24268786  0.16954803  1
  Bi2+  Bi107  1  0.37146622  0.23438156  0.70791935  1
  Bi2+  Bi108  1  0.37373414  0.41588639  0.22035991  1
  Bi2+  Bi109  1  0.34620500  0.54770110  0.72996672  1
  Bi2+  Bi110  1  0.35768060  0.71509716  0.21570302  1
  Bi2+  Bi111  1  0.34814665  0.83177561  0.70656271  1
  Bi2+  Bi112  1  0.59754753  -0.01118533  0.21684885  1
  Bi2+  Bi113  1  0.62027901  0.00619071  0.70702520  1
  Bi2+  Bi114  1  0.63273119  0.27049717  0.20652050  1
  Bi2+  Bi115  1  0.64718813  0.24803634  0.69706263  1
  Bi2+  Bi116  1  0.54430142  0.50650569  0.19303925  1
  Bi2+  Bi117  1  0.68885325  0.50732638  0.69897803  1
  Bi2+  Bi118  1  0.64174241  0.73111273  0.21695783  1
  Bi2+  Bi119  1  0.60463166  0.73264323  0.69679418  1
  Bi2+  Bi120  1  0.87827983  -0.01816648  0.20767599  1
  Bi2+  Bi121  1  0.93271386  -0.01756484  0.70480378  1
  Bi2+  Bi122  1  0.89137329  0.27367534  0.20747941  1
  Bi2+  Bi123  1  0.90807192  0.29090098  0.70429754  1
  Bi2+  Bi124  1  0.85584409  0.53115355  0.19064836  1
  Bi2+  Bi125  1  0.90750637  0.47945585  0.74355538  1
  Bi2+  Bi126  1  0.83131542  0.79408391  0.20571465  1
  Bi2+  Bi127  1  0.87417652  0.73235898  0.76890480  1
  S2-  S128  1  -0.11188129  0.13214072  0.15483935  1
  S2-  S129  1  -0.00754746  0.11899412  0.64437381  1
  S2-  S130  1  0.01329857  0.30348546  0.13738543  1
  S2-  S131  1  0.10242577  0.36250502  0.63890990  1
  S2-  S132  1  0.00658402  0.60584860  0.16233106  1
  S2-  S133  1  0.00922933  0.65429883  0.64932085  1
  S2-  S134  1  0.07054113  0.87209014  0.14972303  1
  S2-  S135  1  -0.12961801  0.87456912  0.64367996  1
  S2-  S136  1  0.24202103  0.02691154  0.14809228  1
  S2-  S137  1  0.24721567  0.16714917  0.64184280  1
  S2-  S138  1  0.25149381  0.46631376  0.14247019  1
  S2-  S139  1  0.35070169  0.36884028  0.65375157  1
  S2-  S140  1  0.21302776  0.68943034  0.15453634  1
  S2-  S141  1  0.24588293  0.73051336  0.64183202  1
  S2-  S142  1  0.23068771  0.83935299  0.22968140  1
  S2-  S143  1  0.11502415  0.90238317  0.64371688  1
  S2-  S144  1  0.48729543  0.03187362  0.14644415  1
  S2-  S145  1  0.50416522  0.20430686  0.64119063  1
  S2-  S146  1  0.50665580  0.26215627  0.13252966  1
  S2-  S147  1  0.56019821  0.38688814  0.69525867  1
  S2-  S148  1  0.41226247  0.61399636  0.14886623  1
  S2-  S149  1  0.54838659  0.58077199  0.66576487  1
  S2-  S150  1  0.40581383  0.83848711  0.16249841  1
  S2-  S151  1  0.46739685  0.75800170  0.64293455  1
  S2-  S152  1  0.68090800  0.11103795  0.17754701  1
  S2-  S153  1  0.73924154  0.10951932  0.65284869  1
  S2-  S154  1  0.75933790  0.30772092  0.13948981  1
  S2-  S155  1  0.76597231  0.36236194  0.65445220  1
  S2-  S156  1  0.64959560  0.61381623  0.13812350  1
  S2-  S157  1  0.74888358  0.65690560  0.65828190  1
  S2-  S158  1  0.63993734  0.86470055  0.14829616  1
  S2-  S159  1  0.63461341  0.87834634  0.64269682  1
  S2-  S160  1  0.08813230  -0.00220579  0.34132333  1
  S2-  S161  1  0.14829697  0.02530659  0.84507327  1
  S2-  S162  1  0.10756784  0.32772524  0.34909643  1
  S2-  S163  1  0.24668195  0.24530073  0.85364763  1
  S2-  S164  1  0.11444505  0.57853859  0.35384864  1
  S2-  S165  1  0.12813666  0.51680110  0.84697123  1
  S2-  S166  1  -0.01906847  0.76340816  0.35452487  1
  S2-  S167  1  0.17992039  0.78608921  0.84108303  1
  S2-  S168  1  0.37790543  -0.02609265  0.34466277  1
  S2-  S169  1  0.40863739  -0.00369674  0.85207105  1
  S2-  S170  1  0.49564720  0.25414234  0.35227305  1
  S2-  S171  1  0.49456652  0.23780145  0.84765898  1
  S2-  S172  1  0.38391157  0.53876138  0.34976817  1
  S2-  S173  1  0.37584522  0.42394274  0.85333067  1
  S2-  S174  1  0.25841998  0.75264034  0.35631403  1
  S2-  S175  1  0.48889416  0.77060244  0.86776460  1
  S2-  S176  1  0.60481129  -0.00765262  0.33880285  1
  S2-  S177  1  0.65142086  -0.01768338  0.85065793  1
  S2-  S178  1  0.71508218  0.23243517  0.34455258  1
  S2-  S179  1  0.64906290  0.37336117  0.84976485  1
  S2-  S180  1  0.63227200  0.56341609  0.35553065  1
  S2-  S181  1  0.57385238  0.55370809  0.83318921  1
  S2-  S182  1  0.49088116  0.75682412  0.35718011  1
  S2-  S183  1  0.73856356  0.75454349  0.85974649  1
  S2-  S184  1  0.84372575  -0.01420736  0.34355189  1
  S2-  S185  1  0.88720710  -0.06235804  0.85499341  1
  S2-  S186  1  0.90973710  0.18961295  0.30468521  1
  S2-  S187  1  0.78579779  0.20601818  0.84827335  1
  S2-  S188  1  0.87314873  0.41183198  0.35131664  1
  S2-  S189  1  0.84838303  0.51018181  0.84618982  1
  S2-  S190  1  0.75383776  0.75119925  0.35951330  1
  S2-  S191  1  0.98053896  0.72004185  0.85540566  1
  S2-  S192  1  -0.00884028  0.12791998  0.44010422  1
  S2-  S193  1  0.00760932  0.12438577  0.94257334  1
  S2-  S194  1  -0.00658375  0.36740128  0.45424168  1
  S2-  S195  1  0.00617571  0.37518065  0.94466481  1
  S2-  S196  1  -0.00891173  0.61618915  0.45154323  1
  S2-  S197  1  0.00237747  0.62313473  0.95812856  1
  S2-  S198  1  -0.00610472  0.87338966  0.45792189  1
  S2-  S199  1  0.00629988  0.87730783  0.95526648  1
  S2-  S200  1  0.24439809  0.12207739  0.44209128  1
  S2-  S201  1  0.25465338  0.12274983  0.95622567  1
  S2-  S202  1  0.24243769  0.36929989  0.45753449  1
  S2-  S203  1  0.25284027  0.37738578  0.95576918  1
  S2-  S204  1  0.24238676  0.61809036  0.45795849  1
  S2-  S205  1  0.25677388  0.62546849  0.95770024  1
  S2-  S206  1  0.24198961  0.87058481  0.45839796  1
  S2-  S207  1  0.25467617  0.87742785  0.94935090  1
  S2-  S208  1  0.49389198  0.11766759  0.44923804  1
  S2-  S209  1  0.50182079  0.12536134  0.95572750  1
  S2-  S210  1  0.49538738  0.37341899  0.45223937  1
  S2-  S211  1  0.50741051  0.37445052  0.95186946  1
  S2-  S212  1  0.49420629  0.62314973  0.46200930  1
  S2-  S213  1  0.50505438  0.62178310  0.95855940  1
  S2-  S214  1  0.49863168  0.87165376  0.45873407  1
  S2-  S215  1  0.50310156  0.88176379  0.96947814  1
  S2-  S216  1  0.74770267  0.12429678  0.44942762  1
  S2-  S217  1  0.75533539  0.12384490  0.95763752  1
  S2-  S218  1  0.74402686  0.36931847  0.45068410  1
  S2-  S219  1  0.76300080  0.37414978  0.94868098  1
  S2-  S220  1  0.75026068  0.61839241  0.45795360  1
  S2-  S221  1  0.75696871  0.62220437  0.95594157  1
  S2-  S222  1  0.74655295  0.87307414  0.45948969  1
  S2-  S223  1  0.75430911  0.88059651  0.96532959  1
  S2-  S224  1  0.11973029  0.01320811  0.04539498  1
  S2-  S225  1  0.12084306  0.00274740  0.54099168  1
  S2-  S226  1  0.13198759  0.24868738  0.03639946  1
  S2-  S227  1  0.12026003  0.24587678  0.53703823  1
  S2-  S228  1  0.12788269  0.49749628  0.04866567  1
  S2-  S229  1  0.12165399  0.49856855  0.54176511  1
  S2-  S230  1  0.13447819  0.75288450  0.04450285  1
  S2-  S231  1  0.11541953  0.74505707  0.53750394  1
  S2-  S232  1  0.37381593  0.00003977  0.04992320  1
  S2-  S233  1  0.37015611  -0.00442641  0.55274147  1
  S2-  S234  1  0.37682019  0.24820673  0.03348179  1
  S2-  S235  1  0.37299322  0.25128577  0.53708140  1
  S2-  S236  1  0.38860200  0.48997132  0.04498374  1
  S2-  S237  1  0.37038008  0.49869621  0.55558044  1
  S2-  S238  1  0.37710002  0.74930113  0.05018027  1
  S2-  S239  1  0.36664927  0.74827052  0.53771550  1
  S2-  S240  1  0.63708482  0.01039770  0.05314667  1
  S2-  S241  1  0.62355150  0.00339361  0.54298400  1
  S2-  S242  1  0.63571874  0.25066244  0.03401885  1
  S2-  S243  1  0.61919606  0.24977847  0.53934115  1
  S2-  S244  1  0.63331124  0.49070424  0.03788457  1
  S2-  S245  1  0.61626241  0.49086925  0.55352077  1
  S2-  S246  1  0.63376348  0.75200616  0.04369205  1
  S2-  S247  1  0.62558097  0.74363290  0.54075313  1
  S2-  S248  1  0.88341220  0.00537498  0.05324546  1
  S2-  S249  1  0.86751474  0.00349941  0.54403251  1
  S2-  S250  1  0.88517181  0.24924586  0.03589395  1
  S2-  S251  1  0.87081221  0.24814224  0.54783059  1
  S2-  S252  1  0.88383564  0.49746352  0.04707570  1
  S2-  S253  1  0.87150703  0.49402521  0.54761780  1
  S2-  S254  1  0.88016942  0.75188236  0.05025368  1
  S2-  S255  1  0.86833200  0.74234650  0.54072255  1
