# generated using pymatgen
data_La12Ce14Pr13Nd13Sm12(BiS2)64
_symmetry_space_group_name_H-M   'P 1'
_cell_length_a   16.14969409
_cell_length_b   16.14612115
_cell_length_c   27.17276200
_cell_angle_alpha   89.90461823
_cell_angle_beta   89.76218115
_cell_angle_gamma   90.06224556
_symmetry_Int_Tables_number   1
_chemical_formula_structural   La12Ce14Pr13Nd13Sm12(BiS2)64
_chemical_formula_sum   'La12 Ce14 Pr13 Nd13 Sm12 Bi64 S128'
_cell_volume   7085.35622144
_cell_formula_units_Z   1
loop_
 _symmetry_equiv_pos_site_id
 _symmetry_equiv_pos_as_xyz
  1  'x, y, z'
loop_
 _atom_type_symbol
 _atom_type_oxidation_number
  La3+  3.0
  Ce3+  3.0
  Pr3+  3.0
  Nd3+  3.0
  Sm3+  3.0
  Bi2+  2.0
  S2-  -2.0
loop_
 _atom_site_type_symbol
 _atom_site_label
 _atom_site_symmetry_multiplicity
 _atom_site_fract_x
 _atom_site_fract_y
 _atom_site_fract_z
 _atom_site_occupancy
  La3+  La0  1  0.37214851  0.00371096  0.92564176  1
  La3+  La1  1  0.62532887  0.24938762  0.43431749  1
  La3+  La2  1  0.24620097  0.61162100  0.58399320  1
  La3+  La3  1  0.38595325  0.50301446  0.92828633  1
  La3+  La4  1  0.37020203  0.48791216  0.41121584  1
  La3+  La5  1  0.12531488  0.24561185  0.44886862  1
  La3+  La6  1  0.74634698  0.86780472  0.55554638  1
  La3+  La7  1  0.63511199  0.75884380  0.92235182  1
  La3+  La8  1  0.74302221  0.12762146  0.09427086  1
  La3+  La9  1  0.62186913  0.00207547  0.41086862  1
  La3+  La10  1  0.49610301  0.62675010  0.06839295  1
  La3+  La11  1  0.13484812  0.74892866  0.92567211  1
  Ce3+  Ce12  1  0.24880658  0.87466780  0.05845478  1
  Ce3+  Ce13  1  -0.00358497  0.11482183  0.57186370  1
  Ce3+  Ce14  1  0.37774765  0.25153801  0.94333427  1
  Ce3+  Ce15  1  0.37607678  -0.00534395  0.43791546  1
  Ce3+  Ce16  1  0.87635818  0.49792376  0.44141627  1
  Ce3+  Ce17  1  0.63178066  0.50455168  0.93812357  1
  Ce3+  Ce18  1  0.50023029  0.86856808  0.55325119  1
  Ce3+  Ce19  1  0.87122434  0.74495965  0.43037028  1
  Ce3+  Ce20  1  0.49694150  0.61875011  0.55233179  1
  Ce3+  Ce21  1  0.00256384  0.87779138  0.05658274  1
  Ce3+  Ce22  1  0.75180101  0.87325221  0.06685786  1
  Ce3+  Ce23  1  0.25538692  0.61795164  0.07307063  1
  Ce3+  Ce24  1  0.37425034  0.74368525  0.43616291  1
  Ce3+  Ce25  1  0.62618361  0.49790589  0.44116581  1
  Pr3+  Pr26  1  0.74923683  0.62356911  0.56459001  1
  Pr3+  Pr27  1  0.25879043  0.36633687  0.57384350  1
  Pr3+  Pr28  1  0.00829515  0.62874825  0.06608624  1
  Pr3+  Pr29  1  0.88478794  -0.00111040  0.42670139  1
  Pr3+  Pr30  1  0.61804967  0.74452305  0.42317288  1
  Pr3+  Pr31  1  0.63711866  0.01243006  0.92974749  1
  Pr3+  Pr32  1  0.25174327  0.86957602  0.56443947  1
  Pr3+  Pr33  1  -0.00152821  0.37046459  0.56437383  1
  Pr3+  Pr34  1  0.37520739  0.24579135  0.44305908  1
  Pr3+  Pr35  1  0.38328405  0.75152373  0.93722309  1
  Pr3+  Pr36  1  0.74257797  0.62469897  0.07397817  1
  Pr3+  Pr37  1  0.00150138  0.13067183  0.06175470  1
  Pr3+  Pr38  1  0.50757112  0.11744299  0.56627610  1
  Nd3+  Nd39  1  0.50345223  0.12232092  0.06093898  1
  Nd3+  Nd40  1  -0.00210869  0.87335693  0.56090625  1
  Nd3+  Nd41  1  0.25405650  0.11742215  0.56201993  1
  Nd3+  Nd42  1  0.12727333  0.74353988  0.44224279  1
  Nd3+  Nd43  1  0.87587538  0.00604697  0.94792745  1
  Nd3+  Nd44  1  0.87597410  0.24318320  0.44942956  1
  Nd3+  Nd45  1  0.50212079  0.87991835  0.05787096  1
  Nd3+  Nd46  1  0.50404007  0.37475473  0.57146383  1
  Nd3+  Nd47  1  0.25200552  0.37067553  0.06224376  1
  Nd3+  Nd48  1  -0.00165384  0.62788036  0.56695908  1
  Nd3+  Nd49  1  0.74984715  0.37590236  0.06586853  1
  Nd3+  Nd50  1  0.12874019  0.25381475  0.93074822  1
  Nd3+  Nd51  1  0.12521087  0.00389872  0.93788818  1
  Sm3+  Sm52  1  0.87777303  0.75151003  0.94498008  1
  Sm3+  Sm53  1  0.63250893  0.25052748  0.94126667  1
  Sm3+  Sm54  1  0.74558675  0.11020918  0.56205430  1
  Sm3+  Sm55  1  0.87608668  0.25451874  0.94434105  1
  Sm3+  Sm56  1  0.87547617  0.50545416  0.94837271  1
  Sm3+  Sm57  1  0.12915915  0.50301194  0.94109004  1
  Sm3+  Sm58  1  0.00137116  0.37638113  0.05481604  1
  Sm3+  Sm59  1  0.25143626  0.12895777  0.06238426  1
  Sm3+  Sm60  1  0.12794204  0.49718438  0.44325175  1
  Sm3+  Sm61  1  0.12696324  -0.00744823  0.44231718  1
  Sm3+  Sm62  1  0.74695490  0.37164634  0.56294322  1
  Sm3+  Sm63  1  0.50271377  0.37529693  0.05622606  1
  Bi2+  Bi64  1  0.00510711  0.17217428  0.30248475  1
  Bi2+  Bi65  1  0.00205552  0.05667476  0.81514968  1
  Bi2+  Bi66  1  0.02562669  0.36486307  0.29658633  1
  Bi2+  Bi67  1  -0.14387520  0.38378359  0.77270272  1
  Bi2+  Bi68  1  0.01753402  0.56304481  0.30281357  1
  Bi2+  Bi69  1  -0.08172339  0.58660707  0.75355133  1
  Bi2+  Bi70  1  0.07111489  0.87832326  0.30568208  1
  Bi2+  Bi71  1  -0.03213987  0.87225453  0.78450804  1
  Bi2+  Bi72  1  0.27994296  0.11404158  0.30491156  1
  Bi2+  Bi73  1  0.17623103  0.14685570  0.80615489  1
  Bi2+  Bi74  1  0.23696438  0.37160875  0.28684595  1
  Bi2+  Bi75  1  0.20597864  0.39245652  0.79677432  1
  Bi2+  Bi76  1  0.19932827  0.63031764  0.27630954  1
  Bi2+  Bi77  1  0.22813007  0.62296260  0.79213942  1
  Bi2+  Bi78  1  0.26079178  0.91905573  0.32464645  1
  Bi2+  Bi79  1  0.18644520  0.86127982  0.79552491  1
  Bi2+  Bi80  1  0.47478321  0.13231010  0.28153723  1
  Bi2+  Bi81  1  0.48851883  0.16130926  0.78748637  1
  Bi2+  Bi82  1  0.49359194  0.38523352  0.28590219  1
  Bi2+  Bi83  1  0.50658518  0.34634653  0.75861545  1
  Bi2+  Bi84  1  0.55686996  0.62496437  0.29810385  1
  Bi2+  Bi85  1  0.49930335  0.61919452  0.78404119  1
  Bi2+  Bi86  1  0.43676849  0.87788502  0.28247833  1
  Bi2+  Bi87  1  0.48406698  0.87466772  0.78892461  1
  Bi2+  Bi88  1  0.75058167  0.12441237  0.29293148  1
  Bi2+  Bi89  1  0.75267417  0.14037745  0.79681911  1
  Bi2+  Bi90  1  0.75565393  0.39980253  0.29048249  1
  Bi2+  Bi91  1  0.66975538  0.40725902  0.81393660  1
  Bi2+  Bi92  1  0.79586746  0.61494563  0.25874618  1
  Bi2+  Bi93  1  0.73432742  0.59680926  0.81623344  1
  Bi2+  Bi94  1  0.78041567  0.85242398  0.29285974  1
  Bi2+  Bi95  1  0.75042052  0.88293542  0.79509581  1
  Bi2+  Bi96  1  0.17040864  0.01598760  0.22524702  1
  Bi2+  Bi97  1  0.09766523  0.01489898  0.71500826  1
  Bi2+  Bi98  1  0.11276912  0.20880299  0.20397652  1
  Bi2+  Bi99  1  0.05963129  0.21094126  0.71774218  1
  Bi2+  Bi100  1  0.13497292  0.48094501  0.21023948  1
  Bi2+  Bi101  1  0.09199908  0.48157755  0.71962230  1
  Bi2+  Bi102  1  0.14149144  0.80440582  0.18741583  1
  Bi2+  Bi103  1  0.11080048  0.75156534  0.70267280  1
  Bi2+  Bi104  1  0.36053088  0.05109092  0.19887821  1
  Bi2+  Bi105  1  0.33609341  -0.00653673  0.70277676  1
  Bi2+  Bi106  1  0.35261743  0.24797212  0.22140823  1
  Bi2+  Bi107  1  0.32641672  0.27005553  0.74151741  1
  Bi2+  Bi108  1  0.39173507  0.50864591  0.20515833  1
  Bi2+  Bi109  1  0.37469027  0.49490667  0.69774891  1
  Bi2+  Bi110  1  0.32598698  0.75618943  0.22723300  1
  Bi2+  Bi111  1  0.42303237  0.75528810  0.71304416  1
  Bi2+  Bi112  1  0.61449018  -0.00923755  0.20781475  1
  Bi2+  Bi113  1  0.60151176  0.00838640  0.69093689  1
  Bi2+  Bi114  1  0.62529587  0.31726654  0.21459658  1
  Bi2+  Bi115  1  0.67733602  0.26265286  0.71477987  1
  Bi2+  Bi116  1  0.71609440  0.48586027  0.18649145  1
  Bi2+  Bi117  1  0.64668434  0.52366640  0.70625435  1
  Bi2+  Bi118  1  0.63728164  0.75453216  0.19102271  1
  Bi2+  Bi119  1  0.65753673  0.72054711  0.73169781  1
  Bi2+  Bi120  1  0.91664908  -0.00519288  0.21649365  1
  Bi2+  Bi121  1  0.85867565  0.01578851  0.71282621  1
  Bi2+  Bi122  1  0.89058349  0.36465732  0.20758494  1
  Bi2+  Bi123  1  0.86918461  0.21026493  0.70034637  1
  Bi2+  Bi124  1  0.95164410  0.55729145  0.18917075  1
  Bi2+  Bi125  1  0.82796900  0.49123811  0.66989667  1
  Bi2+  Bi126  1  0.97038626  0.74496514  0.23703667  1
  Bi2+  Bi127  1  0.85089298  0.75463866  0.71132174  1
  S2-  S128  1  -0.01225927  0.10834360  0.16239160  1
  S2-  S129  1  -0.01538662  -0.01151018  0.63897230  1
  S2-  S130  1  0.02904833  0.33049288  0.14783490  1
  S2-  S131  1  0.03213824  0.35786390  0.66389867  1
  S2-  S132  1  0.12966813  0.65110001  0.13888278  1
  S2-  S133  1  0.09848504  0.61298651  0.65038196  1
  S2-  S134  1  -0.02457354  0.86364145  0.15397493  1
  S2-  S135  1  -0.01937585  0.76576646  0.64038018  1
  S2-  S136  1  0.24118707  0.24180746  0.13759786  1
  S2-  S137  1  0.23322041  0.09987532  0.66118767  1
  S2-  S138  1  0.26777229  0.47419793  0.14301807  1
  S2-  S139  1  0.22999045  0.46705899  0.65544123  1
  S2-  S140  1  0.37755130  0.64456176  0.14837415  1
  S2-  S141  1  0.30702191  0.65776410  0.68041947  1
  S2-  S142  1  0.29005474  0.88249170  0.15403550  1
  S2-  S143  1  0.22987816  0.86875792  0.66488459  1
  S2-  S144  1  0.58711406  0.11810888  0.14833963  1
  S2-  S145  1  0.44845000  0.08678671  0.66591729  1
  S2-  S146  1  0.49047961  0.38734245  0.15475155  1
  S2-  S147  1  0.38998650  0.34366389  0.64868928  1
  S2-  S148  1  0.59928929  0.61160875  0.14987959  1
  S2-  S149  1  0.50641110  0.56968908  0.64689919  1
  S2-  S150  1  0.51930958  0.87417979  0.15861026  1
  S2-  S151  1  0.51283586  0.87515296  0.65173700  1
  S2-  S152  1  0.78744994  0.08515734  0.19545168  1
  S2-  S153  1  0.63616557  0.14066743  0.63924115  1
  S2-  S154  1  0.75894064  0.27924581  0.14858807  1
  S2-  S155  1  0.63652977  0.37115138  0.63995184  1
  S2-  S156  1  0.78384340  0.70300741  0.16211078  1
  S2-  S157  1  0.73139520  0.74950386  0.63477172  1
  S2-  S158  1  0.73446595  0.89636405  0.16539044  1
  S2-  S159  1  0.74585606  0.97711665  0.63817150  1
  S2-  S160  1  0.03734119  0.02496070  0.36102823  1
  S2-  S161  1  0.22657319  -0.00329569  0.85569607  1
  S2-  S162  1  0.14464359  0.25621009  0.34864604  1
  S2-  S163  1  0.08737558  0.29224528  0.83598683  1
  S2-  S164  1  0.21694730  0.48879573  0.35759014  1
  S2-  S165  1  0.11855771  0.53575044  0.84347928  1
  S2-  S166  1  0.18223075  0.75037664  0.34658644  1
  S2-  S167  1  0.05747812  0.75623557  0.83274340  1
  S2-  S168  1  0.46741093  0.00177280  0.35356584  1
  S2-  S169  1  0.43019990  0.01513958  0.82616171  1
  S2-  S170  1  0.39003074  0.33322342  0.35583390  1
  S2-  S171  1  0.36909536  0.24975619  0.84579837  1
  S2-  S172  1  0.41755974  0.54831775  0.31156402  1
  S2-  S173  1  0.32591335  0.51229307  0.83031513  1
  S2-  S174  1  0.47669639  0.74923916  0.35270209  1
  S2-  S175  1  0.27327865  0.75471323  0.85466052  1
  S2-  S176  1  0.65230168  -0.06212160  0.31157882  1
  S2-  S177  1  0.61940581  -0.10336764  0.85268230  1
  S2-  S178  1  0.62080507  0.15873395  0.34822007  1
  S2-  S179  1  0.61649173  0.15217826  0.85953561  1
  S2-  S180  1  0.61659143  0.47696373  0.34351440  1
  S2-  S181  1  0.52938699  0.50301096  0.85884407  1
  S2-  S182  1  0.70403308  0.70668979  0.33588566  1
  S2-  S183  1  0.49401073  0.73477332  0.85461054  1
  S2-  S184  1  0.84477125  -0.00817660  0.32535531  1
  S2-  S185  1  0.78733286  0.01038783  0.86224075  1
  S2-  S186  1  0.86255412  0.21886883  0.35057289  1
  S2-  S187  1  0.84293158  0.25899353  0.84733212  1
  S2-  S188  1  0.85420790  0.51837170  0.34445358  1
  S2-  S189  1  0.88094595  0.50888775  0.84961073  1
  S2-  S190  1  0.92832772  0.78007298  0.33939592  1
  S2-  S191  1  0.78867131  0.74687362  0.86039468  1
  S2-  S192  1  0.00179198  0.12205897  0.46503718  1
  S2-  S193  1  0.00180391  0.13168575  0.95303647  1
  S2-  S194  1  0.00009884  0.37241535  0.45510093  1
  S2-  S195  1  -0.00002499  0.38072999  0.94962904  1
  S2-  S196  1  0.00286252  0.62070689  0.45400513  1
  S2-  S197  1  0.00137166  0.62591565  0.95508026  1
  S2-  S198  1  0.00343902  0.86840974  0.45407424  1
  S2-  S199  1  -0.00034967  0.87887782  0.94861625  1
  S2-  S200  1  0.25009248  0.11781976  0.45446869  1
  S2-  S201  1  0.24951409  0.13068334  0.95705915  1
  S2-  S202  1  0.25042680  0.37053821  0.46369968  1
  S2-  S203  1  0.25119289  0.37764742  0.95042549  1
  S2-  S204  1  0.25172985  0.61887014  0.45563563  1
  S2-  S205  1  0.25449513  0.62039079  0.95690112  1
  S2-  S206  1  0.25059126  0.86991784  0.45715918  1
  S2-  S207  1  0.25234617  0.87944869  0.95513792  1
  S2-  S208  1  0.49885601  0.12319462  0.45590031  1
  S2-  S209  1  0.49982001  0.12751908  0.95577548  1
  S2-  S210  1  0.50132328  0.37383707  0.45925614  1
  S2-  S211  1  0.50695804  0.36958026  0.95149730  1
  S2-  S212  1  0.49313296  0.61243593  0.44704068  1
  S2-  S213  1  0.51092217  0.62894093  0.96015864  1
  S2-  S214  1  0.49867163  0.87082062  0.44996450  1
  S2-  S215  1  0.50162321  0.88575808  0.95296321  1
  S2-  S216  1  0.75222666  0.11836622  0.45345234  1
  S2-  S217  1  0.75670288  0.13517593  0.96511733  1
  S2-  S218  1  0.75387328  0.37150082  0.45520706  1
  S2-  S219  1  0.75373136  0.37766223  0.95744859  1
  S2-  S220  1  0.74989779  0.62058107  0.45442048  1
  S2-  S221  1  0.75408926  0.62791964  0.96407396  1
  S2-  S222  1  0.74871869  0.87209719  0.44128418  1
  S2-  S223  1  0.75786633  0.87650118  0.96123094  1
  S2-  S224  1  0.12767919  0.00613393  0.04818457  1
  S2-  S225  1  0.12831110  -0.00428803  0.54666708  1
  S2-  S226  1  0.12468327  0.25253541  0.03747627  1
  S2-  S227  1  0.12635907  0.24266182  0.55739850  1
  S2-  S228  1  0.12447188  0.49564518  0.04528251  1
  S2-  S229  1  0.12127941  0.49350619  0.54600455  1
  S2-  S230  1  0.12515993  0.75629972  0.03537307  1
  S2-  S231  1  0.12887179  0.74492557  0.54712869  1
  S2-  S232  1  0.37305368  0.00605254  0.04398212  1
  S2-  S233  1  0.37631376  -0.00585947  0.54635793  1
  S2-  S234  1  0.38161914  0.24884158  0.04843618  1
  S2-  S235  1  0.37987075  0.23910223  0.54791995  1
  S2-  S236  1  0.38025330  0.49394316  0.03812164  1
  S2-  S237  1  0.37474258  0.49523734  0.54899422  1
  S2-  S238  1  0.37551149  0.75647424  0.04352828  1
  S2-  S239  1  0.37275016  0.74285831  0.54729368  1
  S2-  S240  1  0.63054667  0.00105411  0.04453918  1
  S2-  S241  1  0.62226236  -0.00721973  0.53267200  1
  S2-  S242  1  0.62487300  0.25224216  0.04569728  1
  S2-  S243  1  0.62859598  0.24768044  0.53945602  1
  S2-  S244  1  0.62546546  0.49598030  0.04474286  1
  S2-  S245  1  0.62871787  0.49921862  0.54437428  1
  S2-  S246  1  0.62558753  0.75554210  0.04691438  1
  S2-  S247  1  0.61894307  0.74214310  0.53236354  1
  S2-  S248  1  0.87467443  0.00532973  0.05454715  1
  S2-  S249  1  0.87282528  -0.00449051  0.53503304  1
  S2-  S250  1  0.87782682  0.25324739  0.04878110  1
  S2-  S251  1  0.86916271  0.24373454  0.55581612  1
  S2-  S252  1  0.87787168  0.50141260  0.05361198  1
  S2-  S253  1  0.87565475  0.49726487  0.54718249  1
  S2-  S254  1  0.87994120  0.74954928  0.04876939  1
  S2-  S255  1  0.87486855  0.74423447  0.53566576  1
