# generated using pymatgen
data_La12Ce14Pr13Nd13Sm12(BiS2)64
_symmetry_space_group_name_H-M   'P 1'
_cell_length_a   16.09965680
_cell_length_b   16.10253058
_cell_length_c   27.27347443
_cell_angle_alpha   89.57968213
_cell_angle_beta   90.05259072
_cell_angle_gamma   90.07658701
_symmetry_Int_Tables_number   1
_chemical_formula_structural   La12Ce14Pr13Nd13Sm12(BiS2)64
_chemical_formula_sum   'La12 Ce14 Pr13 Nd13 Sm12 Bi64 S128'
_cell_volume   7070.31828324
_cell_formula_units_Z   1
loop_
 _symmetry_equiv_pos_site_id
 _symmetry_equiv_pos_as_xyz
  1  'x, y, z'
loop_
 _atom_type_symbol
 _atom_type_oxidation_number
  La3+  3.0
  Ce3+  3.0
  Pr3+  3.0
  Nd3+  3.0
  Sm3+  3.0
  Bi2+  2.0
  S2-  -2.0
loop_
 _atom_site_type_symbol
 _atom_site_label
 _atom_site_symmetry_multiplicity
 _atom_site_fract_x
 _atom_site_fract_y
 _atom_site_fract_z
 _atom_site_occupancy
  La3+  La0  1  0.25791027  0.11366160  0.58986456  1
  La3+  La1  1  0.75583109  0.61198006  0.57453219  1
  La3+  La2  1  0.01724567  0.37298582  0.58071509  1
  La3+  La3  1  0.13356773  0.49994532  0.41211741  1
  La3+  La4  1  0.87156281  -0.00290403  0.42642793  1
  La3+  La5  1  0.14323153  0.23038845  0.40228430  1
  La3+  La6  1  0.11973342  0.25040636  0.92038624  1
  La3+  La7  1  0.87541737  0.48766366  0.43085814  1
  La3+  La8  1  0.24047802  0.36294564  0.07732891  1
  La3+  La9  1  0.24778433  0.61263943  0.57026386  1
  La3+  La10  1  0.37631752  0.00631522  0.90692800  1
  La3+  La11  1  0.74637172  0.62335731  0.10235256  1
  Ce3+  Ce12  1  0.37949430  0.23933441  0.44322354  1
  Ce3+  Ce13  1  0.62647590  -0.00584578  0.44255287  1
  Ce3+  Ce14  1  0.37744205  0.74368450  0.44743209  1
  Ce3+  Ce15  1  0.24961225  0.36365192  0.55121320  1
  Ce3+  Ce16  1  0.86722410  0.74896883  0.94594947  1
  Ce3+  Ce17  1  -0.00645961  0.62495768  0.06539282  1
  Ce3+  Ce18  1  0.24235155  0.62512207  0.06755343  1
  Ce3+  Ce19  1  0.50711835  0.86474962  0.56406714  1
  Ce3+  Ce20  1  0.62670741  0.73670132  0.43660130  1
  Ce3+  Ce21  1  0.88501678  0.24675190  0.44475729  1
  Ce3+  Ce22  1  0.24288238  0.12486281  0.04730889  1
  Ce3+  Ce23  1  0.75543883  0.12030828  0.56527549  1
  Ce3+  Ce24  1  0.37420222  0.49306906  0.44263818  1
  Ce3+  Ce25  1  0.50761627  0.61251729  0.56494552  1
  Pr3+  Pr26  1  0.11705346  -0.00958393  0.90939163  1
  Pr3+  Pr27  1  0.63139876  0.24465846  0.44114693  1
  Pr3+  Pr28  1  0.13561190  0.74646434  0.43351224  1
  Pr3+  Pr29  1  0.36414710  0.25963148  0.92945493  1
  Pr3+  Pr30  1  0.87111006  0.25411457  0.93096150  1
  Pr3+  Pr31  1  0.74708090  0.12802851  0.06369006  1
  Pr3+  Pr32  1  0.25415415  0.86169319  0.57381243  1
  Pr3+  Pr33  1  0.62867708  0.49700913  0.43266120  1
  Pr3+  Pr34  1  0.49324541  0.62049096  0.07803403  1
  Pr3+  Pr35  1  0.61690930  0.25552017  0.94135081  1
  Pr3+  Pr36  1  0.49614946  0.87714017  0.06616817  1
  Pr3+  Pr37  1  0.88117070  0.74040734  0.43258944  1
  Pr3+  Pr38  1  0.00315253  0.86796027  0.55490319  1
  Nd3+  Nd39  1  -0.00215380  0.61578781  0.55853528  1
  Nd3+  Nd40  1  0.62103370  0.51004011  0.93686804  1
  Nd3+  Nd41  1  0.00773569  0.11670484  0.55539649  1
  Nd3+  Nd42  1  0.74527642  0.87676209  0.06555743  1
  Nd3+  Nd43  1  0.62147178  0.75118328  0.94615279  1
  Nd3+  Nd44  1  0.11980422  0.50208249  0.94752059  1
  Nd3+  Nd45  1  0.49534691  0.37410311  0.06605511  1
  Nd3+  Nd46  1  0.75659440  0.36082034  0.57342650  1
  Nd3+  Nd47  1  -0.00830990  0.37675124  0.05640951  1
  Nd3+  Nd48  1  0.86763433  0.51122925  0.90372445  1
  Nd3+  Nd49  1  0.49327940  0.13031024  0.06695527  1
  Nd3+  Nd50  1  0.62005544  0.00417803  0.93810326  1
  Nd3+  Nd51  1  0.24501810  0.87929520  0.05597013  1
  Sm3+  Sm52  1  0.13361647  -0.00572679  0.44448968  1
  Sm3+  Sm53  1  0.12098841  0.75183828  0.94407936  1
  Sm3+  Sm54  1  0.37090500  0.75283985  0.94857933  1
  Sm3+  Sm55  1  0.75251015  0.86722806  0.55275397  1
  Sm3+  Sm56  1  -0.00467773  0.87644057  0.05779937  1
  Sm3+  Sm57  1  0.37870782  -0.00666924  0.44919080  1
  Sm3+  Sm58  1  0.86992435  0.00052049  0.93771843  1
  Sm3+  Sm59  1  -0.00294440  0.12562694  0.05111921  1
  Sm3+  Sm60  1  0.50326605  0.11701939  0.56617565  1
  Sm3+  Sm61  1  0.36763777  0.50439737  0.95065406  1
  Sm3+  Sm62  1  0.50491367  0.36700171  0.55425384  1
  Sm3+  Sm63  1  0.74621756  0.37550615  0.06114392  1
  Bi2+  Bi64  1  -0.02912775  0.05583955  0.22905131  1
  Bi2+  Bi65  1  -0.00557475  0.14279079  0.78807450  1
  Bi2+  Bi66  1  -0.02735986  0.35624592  0.30119414  1
  Bi2+  Bi67  1  0.07510837  0.40331130  0.80344510  1
  Bi2+  Bi68  1  -0.02670931  0.65769767  0.28461351  1
  Bi2+  Bi69  1  -0.02274203  0.66321878  0.77344919  1
  Bi2+  Bi70  1  -0.01625259  0.85446744  0.30424965  1
  Bi2+  Bi71  1  -0.01704598  0.88351322  0.78429468  1
  Bi2+  Bi72  1  0.25318920  0.05689743  0.26923376  1
  Bi2+  Bi73  1  0.25419989  0.19897679  0.78603815  1
  Bi2+  Bi74  1  0.25694556  0.37979393  0.29153396  1
  Bi2+  Bi75  1  0.28717575  0.40737825  0.71282094  1
  Bi2+  Bi76  1  0.24943700  0.65419528  0.29516911  1
  Bi2+  Bi77  1  0.26989274  0.59689090  0.80528674  1
  Bi2+  Bi78  1  0.17714166  0.89980302  0.32045136  1
  Bi2+  Bi79  1  0.23810621  0.83156483  0.78608177  1
  Bi2+  Bi80  1  0.52778445  0.09974793  0.28691390  1
  Bi2+  Bi81  1  0.52584657  0.13290374  0.79304007  1
  Bi2+  Bi82  1  0.47609207  0.41058660  0.29453154  1
  Bi2+  Bi83  1  0.51639419  0.35064048  0.80812906  1
  Bi2+  Bi84  1  0.46949819  0.67396792  0.30278954  1
  Bi2+  Bi85  1  0.48880332  0.54210710  0.77589250  1
  Bi2+  Bi86  1  0.48043749  0.87249829  0.30841624  1
  Bi2+  Bi87  1  0.60444900  0.84511264  0.80775510  1
  Bi2+  Bi88  1  0.79928037  0.10616967  0.28808468  1
  Bi2+  Bi89  1  0.75316098  0.03141799  0.81957536  1
  Bi2+  Bi90  1  0.67207363  0.33806717  0.28366255  1
  Bi2+  Bi91  1  0.69322408  0.33215953  0.76203607  1
  Bi2+  Bi92  1  0.75569143  0.58443804  0.30066839  1
  Bi2+  Bi93  1  0.72539579  0.62921656  0.79906481  1
  Bi2+  Bi94  1  0.67117808  0.90208931  0.28001668  1
  Bi2+  Bi95  1  0.79683389  0.83683027  0.82581333  1
  Bi2+  Bi96  1  0.13785382  -0.00554255  0.18455933  1
  Bi2+  Bi97  1  0.10898688  0.02021426  0.70353684  1
  Bi2+  Bi98  1  0.12877137  0.25365943  0.19755564  1
  Bi2+  Bi99  1  0.06359736  0.26673971  0.70355305  1
  Bi2+  Bi100  1  0.12319100  0.51194632  0.20321423  1
  Bi2+  Bi101  1  0.18283018  0.57619630  0.70099464  1
  Bi2+  Bi102  1  0.12414064  0.80824301  0.22126460  1
  Bi2+  Bi103  1  0.09780382  0.75928846  0.70652443  1
  Bi2+  Bi104  1  0.40256640  0.07024019  0.19705244  1
  Bi2+  Bi105  1  0.38011954  -0.00452115  0.71669339  1
  Bi2+  Bi106  1  0.38997474  0.24451893  0.25947628  1
  Bi2+  Bi107  1  0.44477840  0.29303097  0.70726183  1
  Bi2+  Bi108  1  0.38575680  0.55664476  0.22418081  1
  Bi2+  Bi109  1  0.38584701  0.56651438  0.67605421  1
  Bi2+  Bi110  1  0.36393258  0.79910711  0.22818890  1
  Bi2+  Bi111  1  0.39953928  0.72377424  0.74690099  1
  Bi2+  Bi112  1  0.57622729  -0.00889036  0.17509098  1
  Bi2+  Bi113  1  0.64834631  -0.02783858  0.71421353  1
  Bi2+  Bi114  1  0.62438458  0.18454170  0.18969586  1
  Bi2+  Bi115  1  0.61266294  0.15977724  0.69079463  1
  Bi2+  Bi116  1  0.59921472  0.47958863  0.21562301  1
  Bi2+  Bi117  1  0.64077938  0.49777857  0.70963001  1
  Bi2+  Bi118  1  0.61055861  0.75320263  0.22034481  1
  Bi2+  Bi119  1  0.58263695  0.76637257  0.70216317  1
  Bi2+  Bi120  1  0.77418887  0.02105593  0.17824556  1
  Bi2+  Bi121  1  0.84558523  -0.01387954  0.72035157  1
  Bi2+  Bi122  1  0.83665596  0.27564346  0.22949018  1
  Bi2+  Bi123  1  0.81437226  0.17872806  0.74446854  1
  Bi2+  Bi124  1  0.88298885  0.47388006  0.19356753  1
  Bi2+  Bi125  1  0.91191928  0.50980177  0.70385813  1
  Bi2+  Bi126  1  0.84996882  0.85548934  0.21880742  1
  Bi2+  Bi127  1  0.82121327  0.74365985  0.71829229  1
  S2-  S128  1  0.00807945  0.15229470  0.14943356  1
  S2-  S129  1  -0.00135212  0.12144923  0.65567552  1
  S2-  S130  1  0.02295037  0.37681491  0.15592482  1
  S2-  S131  1  -0.06555591  0.35006372  0.67107476  1
  S2-  S132  1  0.01256081  0.61198480  0.16399388  1
  S2-  S133  1  0.04877398  0.52760523  0.64143741  1
  S2-  S134  1  -0.00487610  0.86524482  0.15610986  1
  S2-  S135  1  0.02150680  0.88764032  0.65419307  1
  S2-  S136  1  0.23613983  0.20342731  0.13402023  1
  S2-  S137  1  0.20511834  0.15580217  0.68691605  1
  S2-  S138  1  0.24008532  0.38961492  0.18004678  1
  S2-  S139  1  0.17539556  0.36187106  0.64051763  1
  S2-  S140  1  0.24525303  0.61615175  0.16576439  1
  S2-  S141  1  0.23895151  0.73336759  0.64547801  1
  S2-  S142  1  0.25501575  0.87429676  0.15575115  1
  S2-  S143  1  0.25138895  0.96571229  0.65605923  1
  S2-  S144  1  0.49221731  0.25018172  0.14167003  1
  S2-  S145  1  0.41211624  0.11239699  0.65199174  1
  S2-  S146  1  0.46773755  0.47554185  0.14789310  1
  S2-  S147  1  0.54910381  0.38019871  0.64891398  1
  S2-  S148  1  0.60053150  0.62429759  0.15844894  1
  S2-  S149  1  0.61531322  0.62946390  0.64198860  1
  S2-  S150  1  0.48081907  0.79251664  0.15553546  1
  S2-  S151  1  0.46023305  0.87646164  0.65850906  1
  S2-  S152  1  0.76610272  0.24925250  0.13791894  1
  S2-  S153  1  0.75795119  0.22261395  0.64414240  1
  S2-  S154  1  0.73380296  0.45595169  0.14872849  1
  S2-  S155  1  0.77054360  0.47706604  0.64676619  1
  S2-  S156  1  0.81389319  0.61657309  0.20649404  1
  S2-  S157  1  0.88743501  0.65277998  0.64218006  1
  S2-  S158  1  0.74215846  0.78805500  0.15135450  1
  S2-  S159  1  0.72561053  0.84512074  0.64944162  1
  S2-  S160  1  0.15730705  0.06615204  0.35582176  1
  S2-  S161  1  0.14137503  0.12190485  0.84166737  1
  S2-  S162  1  0.09182190  0.24855467  0.30291122  1
  S2-  S163  1  0.23933263  0.31306144  0.85120005  1
  S2-  S164  1  0.11115635  0.45581771  0.30605786  1
  S2-  S165  1  0.11739575  0.54557857  0.85038260  1
  S2-  S166  1  0.10175414  0.65006059  0.34969616  1
  S2-  S167  1  0.11412813  0.83389305  0.85642427  1
  S2-  S168  1  0.41831874  0.01095739  0.35354975  1
  S2-  S169  1  0.30125900  -0.02827011  0.81372363  1
  S2-  S170  1  0.30836268  0.23834638  0.35345475  1
  S2-  S171  1  0.38910367  0.15847180  0.84720672  1
  S2-  S172  1  0.29235228  0.51085141  0.35606616  1
  S2-  S173  1  0.38026167  0.49693760  0.85201055  1
  S2-  S174  1  0.27912684  0.76524342  0.36633465  1
  S2-  S175  1  0.35215749  0.74291976  0.85065205  1
  S2-  S176  1  0.72044052  0.00401196  0.35947092  1
  S2-  S177  1  0.52755156  -0.01340996  0.85334306  1
  S2-  S178  1  0.58826662  0.22697619  0.34378401  1
  S2-  S179  1  0.64999772  0.23729259  0.84338353  1
  S2-  S180  1  0.73696802  0.44584804  0.35868839  1
  S2-  S181  1  0.71662216  0.49168171  0.85193796  1
  S2-  S182  1  0.62013196  0.63203387  0.35759058  1
  S2-  S183  1  0.59680568  0.67789559  0.85661877  1
  S2-  S184  1  0.93345202  0.01360151  0.33201394  1
  S2-  S185  1  0.96514621  0.00607845  0.85404585  1
  S2-  S186  1  0.86000180  0.23979177  0.34747016  1
  S2-  S187  1  0.98170604  0.27297241  0.85236707  1
  S2-  S188  1  0.91613258  0.52713856  0.33098139  1
  S2-  S189  1  0.92661654  0.46345097  0.80819194  1
  S2-  S190  1  0.83395165  0.72996960  0.33530197  1
  S2-  S191  1  0.88629450  0.66907405  0.85803640  1
  S2-  S192  1  0.00774981  0.11728474  0.44866149  1
  S2-  S193  1  -0.00669532  0.12382631  0.94952460  1
  S2-  S194  1  0.01357340  0.36414674  0.43153907  1
  S2-  S195  1  -0.01698491  0.39377121  0.95058938  1
  S2-  S196  1  0.00236915  0.61672752  0.45196071  1
  S2-  S197  1  -0.00204533  0.62824426  0.95889501  1
  S2-  S198  1  0.00444838  0.87192101  0.44733437  1
  S2-  S199  1  -0.00824615  0.87364782  0.95469499  1
  S2-  S200  1  0.25861998  0.11491126  0.46228823  1
  S2-  S201  1  0.24624999  0.11921425  0.94500519  1
  S2-  S202  1  0.25175283  0.36303706  0.44808374  1
  S2-  S203  1  0.24402171  0.38205014  0.96344303  1
  S2-  S204  1  0.25534654  0.61969114  0.46157418  1
  S2-  S205  1  0.24502673  0.63005767  0.95958251  1
  S2-  S206  1  0.25639159  0.87318157  0.46646314  1
  S2-  S207  1  0.24926741  0.87961685  0.95051793  1
  S2-  S208  1  0.50471259  0.11733558  0.46065777  1
  S2-  S209  1  0.49520625  0.12718631  0.95738446  1
  S2-  S210  1  0.50240102  0.36866364  0.44880345  1
  S2-  S211  1  0.49379670  0.38206517  0.95528312  1
  S2-  S212  1  0.49773557  0.61623775  0.45835648  1
  S2-  S213  1  0.49029819  0.62700950  0.96431565  1
  S2-  S214  1  0.50432021  0.86729949  0.45602999  1
  S2-  S215  1  0.49282280  0.87600449  0.95794183  1
  S2-  S216  1  0.75442357  0.12205726  0.45977354  1
  S2-  S217  1  0.74765926  0.12731447  0.95451575  1
  S2-  S218  1  0.75450254  0.36226496  0.46489104  1
  S2-  S219  1  0.74791498  0.37818028  0.95359299  1
  S2-  S220  1  0.75553818  0.61868550  0.45791725  1
  S2-  S221  1  0.74739631  0.62554960  0.95564542  1
  S2-  S222  1  0.75116265  0.86332083  0.44918767  1
  S2-  S223  1  0.74398729  0.87902390  0.95839493  1
  S2-  S224  1  0.11684619  -0.00062853  0.04169336  1
  S2-  S225  1  0.13148937  -0.00771499  0.54843099  1
  S2-  S226  1  0.11302498  0.25157045  0.03262973  1
  S2-  S227  1  0.13186912  0.23524152  0.54773439  1
  S2-  S228  1  0.12050828  0.49908593  0.05369569  1
  S2-  S229  1  0.13071654  0.49056568  0.53103203  1
  S2-  S230  1  0.11989037  0.75370708  0.04953488  1
  S2-  S231  1  0.12341748  0.74139936  0.54209882  1
  S2-  S232  1  0.37032843  0.00345034  0.05386866  1
  S2-  S233  1  0.38259461  -0.00982835  0.55119458  1
  S2-  S234  1  0.36969654  0.25060419  0.03718593  1
  S2-  S235  1  0.38070145  0.24286025  0.55038680  1
  S2-  S236  1  0.36179418  0.49813516  0.05209064  1
  S2-  S237  1  0.37812758  0.48742778  0.54814516  1
  S2-  S238  1  0.36748031  0.74968015  0.05250818  1
  S2-  S239  1  0.38372619  0.73846767  0.55183755  1
  S2-  S240  1  0.62041005  0.00418696  0.04461921  1
  S2-  S241  1  0.62886103  -0.00567468  0.55133239  1
  S2-  S242  1  0.62179569  0.25228385  0.04429833  1
  S2-  S243  1  0.62444075  0.24082016  0.54725415  1
  S2-  S244  1  0.61972692  0.49769136  0.04435696  1
  S2-  S245  1  0.62848179  0.48818493  0.54039314  1
  S2-  S246  1  0.62039471  0.74950605  0.05020232  1
  S2-  S247  1  0.63002425  0.74297133  0.54086069  1
  S2-  S248  1  0.87260037  0.00082022  0.04448408  1
  S2-  S249  1  0.87586017  -0.00745754  0.54367988  1
  S2-  S250  1  0.87456967  0.24995938  0.03688259  1
  S2-  S251  1  0.88832647  0.24462373  0.54852329  1
  S2-  S252  1  0.86872075  0.50301414  0.05728985  1
  S2-  S253  1  0.88478280  0.48274877  0.54053544  1
  S2-  S254  1  0.87040387  0.75132959  0.05225778  1
  S2-  S255  1  0.87515354  0.74821004  0.53904866  1
