# generated using pymatgen
data_La12Ce14Pr13Nd13Sm12(BiS2)64
_symmetry_space_group_name_H-M   'P 1'
_cell_length_a   16.04620658
_cell_length_b   16.13145868
_cell_length_c   27.27039067
_cell_angle_alpha   90.02548380
_cell_angle_beta   89.60521994
_cell_angle_gamma   90.08811380
_symmetry_Int_Tables_number   1
_chemical_formula_structural   La12Ce14Pr13Nd13Sm12(BiS2)64
_chemical_formula_sum   'La12 Ce14 Pr13 Nd13 Sm12 Bi64 S128'
_cell_volume   7058.72909975
_cell_formula_units_Z   1
loop_
 _symmetry_equiv_pos_site_id
 _symmetry_equiv_pos_as_xyz
  1  'x, y, z'
loop_
 _atom_type_symbol
 _atom_type_oxidation_number
  La3+  3.0
  Ce3+  3.0
  Pr3+  3.0
  Nd3+  3.0
  Sm3+  3.0
  Bi2+  2.0
  S2-  -2.0
loop_
 _atom_site_type_symbol
 _atom_site_label
 _atom_site_symmetry_multiplicity
 _atom_site_fract_x
 _atom_site_fract_y
 _atom_site_fract_z
 _atom_site_occupancy
  La3+  La0  1  0.38448586  -0.01396659  0.91531520  1
  La3+  La1  1  0.12864285  0.75494115  0.43615759  1
  La3+  La2  1  0.24909805  0.37629872  0.57562161  1
  La3+  La3  1  0.63055467  0.49163752  0.94499946  1
  La3+  La4  1  0.37850018  0.72750026  0.89821340  1
  La3+  La5  1  0.38829044  0.24373248  0.92385456  1
  La3+  La6  1  0.50446838  0.87282427  0.59553802  1
  La3+  La7  1  0.13005581  0.48481190  0.93058477  1
  La3+  La8  1  0.75169910  0.86887259  0.10426392  1
  La3+  La9  1  0.63465622  0.25461906  0.38848633  1
  La3+  La10  1  0.23782237  0.88748023  0.58301576  1
  La3+  La11  1  0.87804502  0.74129166  0.39575457  1
  Ce3+  Ce12  1  0.00484520  0.11446399  0.05372444  1
  Ce3+  Ce13  1  0.50063381  0.11080796  0.05843353  1
  Ce3+  Ce14  1  0.61355775  0.50378845  0.42983099  1
  Ce3+  Ce15  1  0.75402655  0.11543905  0.06025476  1
  Ce3+  Ce16  1  0.50028652  0.13312873  0.56028371  1
  Ce3+  Ce17  1  0.48837122  0.62712995  0.56646268  1
  Ce3+  Ce18  1  0.87141265  0.50520215  0.44382772  1
  Ce3+  Ce19  1  0.38268236  0.49096407  0.94239800  1
  Ce3+  Ce20  1  0.00475781  0.36320733  0.06384261  1
  Ce3+  Ce21  1  -0.00227347  0.63265381  0.56310133  1
  Ce3+  Ce22  1  0.50425690  0.86516853  0.05256510  1
  Ce3+  Ce23  1  0.13151101  0.24234983  0.93974362  1
  Ce3+  Ce24  1  0.74920156  0.87912703  0.55905820  1
  Ce3+  Ce25  1  0.75235332  0.62287730  0.06697501  1
  Pr3+  Pr26  1  0.63122947  -0.01274344  0.93606275  1
  Pr3+  Pr27  1  -0.00161704  0.38153054  0.56824325  1
  Pr3+  Pr28  1  0.75174856  0.36146328  0.07230973  1
  Pr3+  Pr29  1  0.88008249  0.49222868  0.94960764  1
  Pr3+  Pr30  1  0.13538136  0.00738214  0.43186723  1
  Pr3+  Pr31  1  0.63157714  0.24164278  0.93713847  1
  Pr3+  Pr32  1  0.13735801  -0.01048695  0.92515817  1
  Pr3+  Pr33  1  0.49664101  0.35563429  0.08033262  1
  Pr3+  Pr34  1  0.12056042  0.73810516  0.91028713  1
  Pr3+  Pr35  1  0.88288241  -0.01330958  0.94420088  1
  Pr3+  Pr36  1  0.87834713  0.24051983  0.93291873  1
  Pr3+  Pr37  1  0.88243004  0.25727533  0.43279527  1
  Pr3+  Pr38  1  0.74719910  0.13244446  0.55404965  1
  Nd3+  Nd39  1  0.62161360  0.75686775  0.43702220  1
  Nd3+  Nd40  1  0.50645993  0.38072938  0.56531968  1
  Nd3+  Nd41  1  0.01257538  0.86432619  0.06648861  1
  Nd3+  Nd42  1  0.25437246  0.61729444  0.05258505  1
  Nd3+  Nd43  1  0.87478986  0.00210690  0.43135432  1
  Nd3+  Nd44  1  0.50459877  0.61982156  0.06164267  1
  Nd3+  Nd45  1  0.24278590  0.63672983  0.58060087  1
  Nd3+  Nd46  1  0.24804227  0.12924984  0.57178062  1
  Nd3+  Nd47  1  0.36974604  0.75807282  0.44968513  1
  Nd3+  Nd48  1  -0.00487239  0.88163130  0.55353612  1
  Nd3+  Nd49  1  0.00791971  0.61612940  0.06317043  1
  Nd3+  Nd50  1  0.36776667  0.50473710  0.43999634  1
  Nd3+  Nd51  1  0.63122181  0.74048534  0.93335582  1
  Sm3+  Sm52  1  0.25569877  0.11427033  0.04871893  1
  Sm3+  Sm53  1  0.74556481  0.38133165  0.55548103  1
  Sm3+  Sm54  1  -0.00353889  0.13152187  0.55384734  1
  Sm3+  Sm55  1  0.62340545  0.00475060  0.44389455  1
  Sm3+  Sm56  1  0.88256871  0.74110602  0.94427981  1
  Sm3+  Sm57  1  0.37888155  0.25712137  0.44071986  1
  Sm3+  Sm58  1  0.12652241  0.50694580  0.44420195  1
  Sm3+  Sm59  1  0.37403240  0.00521860  0.45488414  1
  Sm3+  Sm60  1  0.74413522  0.63335467  0.55247736  1
  Sm3+  Sm61  1  0.25213934  0.86478842  0.04889121  1
  Sm3+  Sm62  1  0.25767269  0.36366535  0.05793287  1
  Sm3+  Sm63  1  0.12525629  0.25624677  0.44291199  1
  Bi2+  Bi64  1  0.07996076  0.08585775  0.26100894  1
  Bi2+  Bi65  1  -0.05919546  0.12940487  0.81276855  1
  Bi2+  Bi66  1  0.00186198  0.38226898  0.29104644  1
  Bi2+  Bi67  1  -0.02304728  0.32317245  0.78903053  1
  Bi2+  Bi68  1  0.08874560  0.56041770  0.30727886  1
  Bi2+  Bi69  1  -0.08079663  0.60173088  0.78422021  1
  Bi2+  Bi70  1  0.06461590  0.84388936  0.28171992  1
  Bi2+  Bi71  1  -0.04630765  0.85383128  0.78644125  1
  Bi2+  Bi72  1  0.19455167  0.21168499  0.32291590  1
  Bi2+  Bi73  1  0.13662551  0.12007263  0.79320044  1
  Bi2+  Bi74  1  0.29380009  0.37721661  0.29857343  1
  Bi2+  Bi75  1  0.22472023  0.41243679  0.79675748  1
  Bi2+  Bi76  1  0.27193888  0.64686247  0.29052562  1
  Bi2+  Bi77  1  0.19335344  0.61739164  0.76103453  1
  Bi2+  Bi78  1  0.27327056  0.88824436  0.29371939  1
  Bi2+  Bi79  1  0.22846091  0.88358112  0.78821887  1
  Bi2+  Bi80  1  0.35167624  0.09641455  0.28746284  1
  Bi2+  Bi81  1  0.54828245  0.13098439  0.77239952  1
  Bi2+  Bi82  1  0.49891548  0.38866271  0.29246385  1
  Bi2+  Bi83  1  0.47311632  0.38687832  0.81097539  1
  Bi2+  Bi84  1  0.47405784  0.63871053  0.28678323  1
  Bi2+  Bi85  1  0.57573502  0.60119693  0.78252321  1
  Bi2+  Bi86  1  0.48439814  0.83246504  0.30669478  1
  Bi2+  Bi87  1  0.52771308  0.88175271  0.78571576  1
  Bi2+  Bi88  1  0.80332182  0.15792248  0.26370945  1
  Bi2+  Bi89  1  0.74020301  0.11226816  0.80503766  1
  Bi2+  Bi90  1  0.78817837  0.39896080  0.28038160  1
  Bi2+  Bi91  1  0.77868096  0.36735856  0.78365335  1
  Bi2+  Bi92  1  0.68136972  0.62714355  0.29197268  1
  Bi2+  Bi93  1  0.74720613  0.67139603  0.82281331  1
  Bi2+  Bi94  1  0.73648349  0.91650590  0.29841767  1
  Bi2+  Bi95  1  0.72460687  0.86221200  0.80334944  1
  Bi2+  Bi96  1  0.23173337  -0.01136765  0.19530009  1
  Bi2+  Bi97  1  0.03879666  0.00832554  0.71699170  1
  Bi2+  Bi98  1  0.17121335  0.25629755  0.20736345  1
  Bi2+  Bi99  1  0.11865470  0.25374954  0.71037255  1
  Bi2+  Bi100  1  0.14570204  0.45723690  0.21366619  1
  Bi2+  Bi101  1  0.03626883  0.49372776  0.71482705  1
  Bi2+  Bi102  1  0.14335650  0.72891972  0.19946196  1
  Bi2+  Bi103  1  0.09073652  0.75712568  0.70477055  1
  Bi2+  Bi104  1  0.42183920  -0.04356591  0.16433168  1
  Bi2+  Bi105  1  0.36324735  0.04744429  0.71737141  1
  Bi2+  Bi106  1  0.37977598  0.23574373  0.20785706  1
  Bi2+  Bi107  1  0.36741433  0.26223577  0.72409088  1
  Bi2+  Bi108  1  0.34078570  0.50255636  0.21320058  1
  Bi2+  Bi109  1  0.37040945  0.51715658  0.74635132  1
  Bi2+  Bi110  1  0.37267391  0.78375929  0.21293565  1
  Bi2+  Bi111  1  0.38927311  0.72626474  0.70695330  1
  Bi2+  Bi112  1  0.51696803  0.01035761  0.25732540  1
  Bi2+  Bi113  1  0.70342726  0.00852983  0.71427437  1
  Bi2+  Bi114  1  0.64449173  0.26361902  0.19753433  1
  Bi2+  Bi115  1  0.59797772  0.26644521  0.69362810  1
  Bi2+  Bi116  1  0.66055122  0.52381830  0.19728238  1
  Bi2+  Bi117  1  0.71124969  0.50825832  0.71720951  1
  Bi2+  Bi118  1  0.61331930  0.75995662  0.21543522  1
  Bi2+  Bi119  1  0.66003136  0.75043655  0.71426308  1
  Bi2+  Bi120  1  0.89922251  0.00505645  0.21024849  1
  Bi2+  Bi121  1  0.87337365  -0.08040289  0.67936976  1
  Bi2+  Bi122  1  0.97470123  0.25662372  0.19955918  1
  Bi2+  Bi123  1  0.86849304  0.21075481  0.70797230  1
  Bi2+  Bi124  1  0.88788488  0.55824361  0.25464117  1
  Bi2+  Bi125  1  0.87552848  0.40213069  0.67797071  1
  Bi2+  Bi126  1  0.88343200  0.74381430  0.21902927  1
  Bi2+  Bi127  1  0.89692992  0.72478828  0.69136144  1
  S2-  S128  1  0.01425710  0.10037947  0.15110430  1
  S2-  S129  1  0.01219893  0.14631978  0.65165794  1
  S2-  S130  1  0.00618236  0.41433082  0.15695994  1
  S2-  S131  1  0.11427738  0.38671777  0.64707298  1
  S2-  S132  1  0.00772871  0.66198946  0.15982386  1
  S2-  S133  1  0.09770172  0.61518364  0.64440104  1
  S2-  S134  1  -0.08213054  0.87180194  0.15285628  1
  S2-  S135  1  0.07958310  0.89287447  0.64150481  1
  S2-  S136  1  0.26786471  0.13906327  0.14650276  1
  S2-  S137  1  0.24818003  0.02227170  0.65393460  1
  S2-  S138  1  0.34721051  0.36635503  0.14176004  1
  S2-  S139  1  0.26037599  0.24453131  0.64974970  1
  S2-  S140  1  0.25044968  0.61249057  0.15276296  1
  S2-  S141  1  0.36592492  0.58695586  0.64845079  1
  S2-  S142  1  0.15214709  0.86714615  0.13328658  1
  S2-  S143  1  0.25483732  0.76571566  0.65779460  1
  S2-  S144  1  0.50940783  0.20064424  0.14269088  1
  S2-  S145  1  0.48778753  0.12840841  0.65895443  1
  S2-  S146  1  0.55192429  0.40789111  0.17621495  1
  S2-  S147  1  0.45381014  0.35522073  0.66261280  1
  S2-  S148  1  0.53898717  0.62806011  0.15914094  1
  S2-  S149  1  0.52640320  0.71518338  0.64886872  1
  S2-  S150  1  0.57936676  0.86286522  0.14199067  1
  S2-  S151  1  0.43981148  0.90555520  0.69166510  1
  S2-  S152  1  0.76465840  0.16794981  0.15307858  1
  S2-  S153  1  0.73084426  0.15901323  0.65430498  1
  S2-  S154  1  0.76829300  0.38769320  0.17269635  1
  S2-  S155  1  0.65500651  0.39334797  0.64181853  1
  S2-  S156  1  0.75868676  0.71155042  0.15177968  1
  S2-  S157  1  0.75317828  0.63840443  0.65250458  1
  S2-  S158  1  0.74449450  0.95801384  0.19839073  1
  S2-  S159  1  0.66198946  0.88420849  0.64565019  1
  S2-  S160  1  0.05810426  -0.01314181  0.34053707  1
  S2-  S161  1  0.09790582  -0.11657096  0.84702877  1
  S2-  S162  1  0.02293862  0.26398223  0.36162029  1
  S2-  S163  1  0.11211653  0.34022804  0.85907571  1
  S2-  S164  1  0.23615240  0.50641884  0.36558894  1
  S2-  S165  1  0.11782180  0.55681250  0.83902781  1
  S2-  S166  1  0.04499605  0.71814358  0.34860661  1
  S2-  S167  1  0.23894845  0.72989824  0.83344810  1
  S2-  S168  1  0.28562953  0.00661648  0.36989694  1
  S2-  S169  1  0.25578392  0.03062683  0.84273584  1
  S2-  S170  1  0.46814576  0.26391856  0.35326159  1
  S2-  S171  1  0.32229815  0.28216649  0.82726090  1
  S2-  S172  1  0.47597781  0.51857053  0.35993656  1
  S2-  S173  1  0.38305959  0.54923077  0.85074041  1
  S2-  S174  1  0.26698969  0.75938029  0.36698911  1
  S2-  S175  1  0.37995139  0.86891058  0.83487809  1
  S2-  S176  1  0.60137369  -0.01300132  0.34657282  1
  S2-  S177  1  0.53459477  0.00756164  0.84993659  1
  S2-  S178  1  0.64238627  0.18969237  0.28578204  1
  S2-  S179  1  0.52575949  0.23992880  0.85432299  1
  S2-  S180  1  0.64764940  0.41446277  0.34185975  1
  S2-  S181  1  0.60877086  0.45770115  0.84647326  1
  S2-  S182  1  0.71314111  0.76186823  0.34993620  1
  S2-  S183  1  0.53608495  0.72829477  0.84681439  1
  S2-  S184  1  0.83289032  0.03802163  0.33607987  1
  S2-  S185  1  0.86146041  -0.02600143  0.84389292  1
  S2-  S186  1  0.80055021  0.26694449  0.34390443  1
  S2-  S187  1  0.75358767  0.25588305  0.86127408  1
  S2-  S188  1  0.87155243  0.57394719  0.35376886  1
  S2-  S189  1  0.87278570  0.47373122  0.84966508  1
  S2-  S190  1  0.89378147  0.83424370  0.30656166  1
  S2-  S191  1  0.96414510  0.72612931  0.85642468  1
  S2-  S192  1  0.00093347  0.12517036  0.45067889  1
  S2-  S193  1  0.00742162  0.11641110  0.94695600  1
  S2-  S194  1  0.00139611  0.38639381  0.46029874  1
  S2-  S195  1  0.00008046  0.36373566  0.95904950  1
  S2-  S196  1  -0.00206826  0.62665931  0.45771001  1
  S2-  S197  1  0.00678720  0.61371056  0.95694865  1
  S2-  S198  1  -0.00766860  0.87471410  0.44730770  1
  S2-  S199  1  0.00630471  0.86376089  0.95826980  1
  S2-  S200  1  0.25316162  0.13775825  0.46399213  1
  S2-  S201  1  0.25852518  0.12180598  0.94621679  1
  S2-  S202  1  0.24790160  0.37391485  0.46131701  1
  S2-  S203  1  0.25958732  0.36502923  0.95408744  1
  S2-  S204  1  0.24890993  0.62970274  0.46944729  1
  S2-  S205  1  0.25416687  0.61484350  0.94820937  1
  S2-  S206  1  0.24861416  0.88410850  0.47080083  1
  S2-  S207  1  0.25678544  0.85815229  0.94607691  1
  S2-  S208  1  0.49884238  0.12750454  0.45256763  1
  S2-  S209  1  0.50593885  0.11251979  0.95459678  1
  S2-  S210  1  0.49719052  0.38023623  0.45800748  1
  S2-  S211  1  0.50596817  0.36758721  0.96221384  1
  S2-  S212  1  0.49484190  0.63602244  0.45875707  1
  S2-  S213  1  0.50399264  0.61818150  0.95541206  1
  S2-  S214  1  0.49609901  0.88268254  0.45392106  1
  S2-  S215  1  0.50437409  0.86050060  0.94884261  1
  S2-  S216  1  0.74488118  0.13257354  0.44687478  1
  S2-  S217  1  0.75621412  0.11158849  0.95433968  1
  S2-  S218  1  0.74708179  0.37948302  0.45194842  1
  S2-  S219  1  0.75607596  0.36739255  0.96409651  1
  S2-  S220  1  0.74458845  0.62986902  0.44990924  1
  S2-  S221  1  0.75670568  0.61868926  0.95943132  1
  S2-  S222  1  0.74873247  0.88197154  0.45233777  1
  S2-  S223  1  0.75732533  0.86196285  0.94728581  1
  S2-  S224  1  0.13175500  -0.00578015  0.03437405  1
  S2-  S225  1  0.11836472  0.01294567  0.54025597  1
  S2-  S226  1  0.13247073  0.24089246  0.04745582  1
  S2-  S227  1  0.11989733  0.25321513  0.54542324  1
  S2-  S228  1  0.13225789  0.48747746  0.04525218  1
  S2-  S229  1  0.12562325  0.50433093  0.54560703  1
  S2-  S230  1  0.13014721  0.73736387  0.03798798  1
  S2-  S231  1  0.11844332  0.75631057  0.54461988  1
  S2-  S232  1  0.37483668  -0.01079722  0.03315642  1
  S2-  S233  1  0.38062028  0.00240621  0.55701731  1
  S2-  S234  1  0.37781312  0.23745451  0.03697877  1
  S2-  S235  1  0.37753630  0.25579759  0.54489992  1
  S2-  S236  1  0.38137362  0.49280390  0.04781348  1
  S2-  S237  1  0.37211633  0.49645311  0.54535007  1
  S2-  S238  1  0.37682301  0.74322296  0.05399215  1
  S2-  S239  1  0.37425040  0.76171880  0.55367240  1
  S2-  S240  1  0.63264772  -0.00997680  0.04503198  1
  S2-  S241  1  0.62152900  0.00533037  0.54810537  1
  S2-  S242  1  0.62917421  0.23990946  0.04463999  1
  S2-  S243  1  0.62411291  0.25555563  0.54593476  1
  S2-  S244  1  0.62890571  0.49131334  0.05357881  1
  S2-  S245  1  0.62293511  0.51025667  0.54060756  1
  S2-  S246  1  0.63128333  0.74251662  0.04116336  1
  S2-  S247  1  0.62246746  0.75591700  0.54162639  1
  S2-  S248  1  0.87661308  -0.01104875  0.05047155  1
  S2-  S249  1  0.87279358  0.00826391  0.54092453  1
  S2-  S250  1  0.87995923  0.24032091  0.04449205  1
  S2-  S251  1  0.87322635  0.25833391  0.54367564  1
  S2-  S252  1  0.87720070  0.49283987  0.05672469  1
  S2-  S253  1  0.86905371  0.50740717  0.54991235  1
  S2-  S254  1  0.88283395  0.74156996  0.04771730  1
  S2-  S255  1  0.87138389  0.75482503  0.54991862  1
