# generated using pymatgen
data_La12Ce14Pr13Nd13Sm12(BiS2)64
_symmetry_space_group_name_H-M   'P 1'
_cell_length_a   16.17473802
_cell_length_b   16.15793910
_cell_length_c   27.19629192
_cell_angle_alpha   89.95955184
_cell_angle_beta   90.11223673
_cell_angle_gamma   89.92843872
_symmetry_Int_Tables_number   1
_chemical_formula_structural   La12Ce14Pr13Nd13Sm12(BiS2)64
_chemical_formula_sum   'La12 Ce14 Pr13 Nd13 Sm12 Bi64 S128'
_cell_volume   7107.74167093
_cell_formula_units_Z   1
loop_
 _symmetry_equiv_pos_site_id
 _symmetry_equiv_pos_as_xyz
  1  'x, y, z'
loop_
 _atom_type_symbol
 _atom_type_oxidation_number
  La3+  3.0
  Ce3+  3.0
  Pr3+  3.0
  Nd3+  3.0
  Sm3+  3.0
  Bi2+  2.0
  S2-  -2.0
loop_
 _atom_site_type_symbol
 _atom_site_label
 _atom_site_symmetry_multiplicity
 _atom_site_fract_x
 _atom_site_fract_y
 _atom_site_fract_z
 _atom_site_occupancy
  La3+  La0  1  0.01318678  0.12485117  0.10633535  1
  La3+  La1  1  0.24467698  0.35889857  0.55893664  1
  La3+  La2  1  0.50832668  0.63048505  0.08704470  1
  La3+  La3  1  0.74458505  0.35621892  0.56721321  1
  La3+  La4  1  0.39327931  0.74083191  0.90792385  1
  La3+  La5  1  0.86313649  0.23382351  0.41286065  1
  La3+  La6  1  0.75271205  0.37573261  0.08334636  1
  La3+  La7  1  0.25699588  0.39282380  0.07696849  1
  La3+  La8  1  0.12087034  0.75408153  0.93081480  1
  La3+  La9  1  0.25709937  0.87497023  0.05682425  1
  La3+  La10  1  0.50468287  0.62001487  0.59061993  1
  La3+  La11  1  0.60929406  0.74269458  0.41575805  1
  Ce3+  Ce12  1  0.50660085  0.37882552  0.05606867  1
  Ce3+  Ce13  1  0.00027244  0.87062273  0.57063967  1
  Ce3+  Ce14  1  0.23677561  0.61166260  0.56900444  1
  Ce3+  Ce15  1  0.37544051  0.25933451  0.94033980  1
  Ce3+  Ce16  1  -0.00089206  0.11225222  0.55539630  1
  Ce3+  Ce17  1  0.25438187  0.12994559  0.06350307  1
  Ce3+  Ce18  1  0.49597038  0.11169089  0.55682319  1
  Ce3+  Ce19  1  0.37944310  0.00124242  0.93881977  1
  Ce3+  Ce20  1  0.74677244  0.11179430  0.56201540  1
  Ce3+  Ce21  1  0.00907915  0.87552218  0.07212373  1
  Ce3+  Ce22  1  0.63271709  0.50454455  0.94455691  1
  Ce3+  Ce23  1  -0.00073872  0.61296310  0.55282515  1
  Ce3+  Ce24  1  0.48960432  0.86126140  0.56422795  1
  Ce3+  Ce25  1  0.49731235  0.36350237  0.55626343  1
  Pr3+  Pr26  1  0.87217171  0.74014040  0.44196547  1
  Pr3+  Pr27  1  0.74727040  0.60681570  0.55947068  1
  Pr3+  Pr28  1  0.51108014  0.87844712  0.06669201  1
  Pr3+  Pr29  1  0.12199935  0.74066985  0.43106122  1
  Pr3+  Pr30  1  0.00712286  0.37762740  0.07268722  1
  Pr3+  Pr31  1  -0.00658576  0.35496636  0.54130761  1
  Pr3+  Pr32  1  0.50358482  0.12984211  0.05388117  1
  Pr3+  Pr33  1  0.88280855  0.25554252  0.94778074  1
  Pr3+  Pr34  1  0.12206655  0.48485018  0.43251772  1
  Pr3+  Pr35  1  0.63157448  0.00401142  0.94512057  1
  Pr3+  Pr36  1  0.37205626  0.49088641  0.44604740  1
  Pr3+  Pr37  1  0.12238548  -0.01324721  0.43286281  1
  Pr3+  Pr38  1  0.24534147  0.85920226  0.56681640  1
  Nd3+  Nd39  1  0.13244803  0.00416206  0.94143006  1
  Nd3+  Nd40  1  0.00905135  0.62394831  0.07183610  1
  Nd3+  Nd41  1  0.86835937  0.48714950  0.43159146  1
  Nd3+  Nd42  1  0.76135151  0.12843483  0.07843244  1
  Nd3+  Nd43  1  0.88333877  0.00577210  0.95112976  1
  Nd3+  Nd44  1  0.37186612  -0.01507300  0.43676636  1
  Nd3+  Nd45  1  0.62010540  0.23605401  0.43630406  1
  Nd3+  Nd46  1  0.37459360  0.23773758  0.43109105  1
  Nd3+  Nd47  1  0.24945349  0.11308620  0.55609673  1
  Nd3+  Nd48  1  0.75562775  0.62983766  0.06511509  1
  Nd3+  Nd49  1  0.38159109  0.49832994  0.93601587  1
  Nd3+  Nd50  1  0.62061048  0.49106267  0.43629051  1
  Nd3+  Nd51  1  0.12940460  0.23207420  0.41343202  1
  Sm3+  Sm52  1  0.87266512  -0.00985900  0.43682310  1
  Sm3+  Sm53  1  0.74286208  0.85878140  0.55076269  1
  Sm3+  Sm54  1  0.12985538  0.50225806  0.93907158  1
  Sm3+  Sm55  1  0.75897075  0.87692457  0.06170645  1
  Sm3+  Sm56  1  0.63024500  0.75169100  0.94120795  1
  Sm3+  Sm57  1  0.36523392  0.73426030  0.43929837  1
  Sm3+  Sm58  1  0.61940165  -0.01442338  0.44134079  1
  Sm3+  Sm59  1  0.63512034  0.25321368  0.94435170  1
  Sm3+  Sm60  1  0.87949739  0.50201268  0.95296173  1
  Sm3+  Sm61  1  0.88067968  0.75399490  0.94830278  1
  Sm3+  Sm62  1  0.26004412  0.63016343  0.05056071  1
  Sm3+  Sm63  1  0.12932638  0.25578670  0.95127499  1
  Bi2+  Bi64  1  -0.00560933  0.07487318  0.28211337  1
  Bi2+  Bi65  1  0.00419707  0.14674023  0.74506487  1
  Bi2+  Bi66  1  0.00280879  0.42405698  0.29044419  1
  Bi2+  Bi67  1  -0.01964503  0.35272742  0.80295173  1
  Bi2+  Bi68  1  0.02918270  0.69989675  0.29572927  1
  Bi2+  Bi69  1  -0.04698197  0.62561362  0.80444677  1
  Bi2+  Bi70  1  -0.01150971  0.88534357  0.33845504  1
  Bi2+  Bi71  1  -0.04524489  0.90312397  0.79985424  1
  Bi2+  Bi72  1  0.25452715  0.09482640  0.28733784  1
  Bi2+  Bi73  1  0.28988435  0.15513402  0.78970578  1
  Bi2+  Bi74  1  0.27049558  0.40065527  0.30655054  1
  Bi2+  Bi75  1  0.23560440  0.35489333  0.80685581  1
  Bi2+  Bi76  1  0.21920813  0.68744747  0.25728477  1
  Bi2+  Bi77  1  0.25746373  0.64356532  0.79075706  1
  Bi2+  Bi78  1  0.17359313  0.86311987  0.30752055  1
  Bi2+  Bi79  1  0.21745509  0.89951552  0.79326900  1
  Bi2+  Bi80  1  0.51145536  0.12892035  0.32501193  1
  Bi2+  Bi81  1  0.48801944  0.16803436  0.79061374  1
  Bi2+  Bi82  1  0.46596243  0.32007373  0.30290159  1
  Bi2+  Bi83  1  0.50711274  0.34809121  0.74662092  1
  Bi2+  Bi84  1  0.49824257  0.60723003  0.30119607  1
  Bi2+  Bi85  1  0.52715680  0.62096420  0.79291081  1
  Bi2+  Bi86  1  0.46842063  0.92908542  0.28908721  1
  Bi2+  Bi87  1  0.52189681  0.96649979  0.77519302  1
  Bi2+  Bi88  1  0.69793772  0.12695902  0.28699618  1
  Bi2+  Bi89  1  0.74910650  0.09539513  0.79259988  1
  Bi2+  Bi90  1  0.74927359  0.39717375  0.29699227  1
  Bi2+  Bi91  1  0.74408156  0.38278747  0.81742236  1
  Bi2+  Bi92  1  0.78820089  0.64607800  0.27474499  1
  Bi2+  Bi93  1  0.77123898  0.65017304  0.75748863  1
  Bi2+  Bi94  1  0.73295576  0.93646695  0.29463776  1
  Bi2+  Bi95  1  0.76824534  0.82404338  0.80570914  1
  Bi2+  Bi96  1  0.18189213  -0.02829669  0.20740728  1
  Bi2+  Bi97  1  0.11321922  -0.00407251  0.70422839  1
  Bi2+  Bi98  1  0.14030882  0.25177516  0.22069942  1
  Bi2+  Bi99  1  0.12758597  0.26608927  0.69512669  1
  Bi2+  Bi100  1  0.16346444  0.51209123  0.21468904  1
  Bi2+  Bi101  1  0.08415956  0.52449877  0.74238849  1
  Bi2+  Bi102  1  0.04522196  0.74342034  0.18310100  1
  Bi2+  Bi103  1  0.05906202  0.72481076  0.70755704  1
  Bi2+  Bi104  1  0.41452377  -0.00835484  0.18371250  1
  Bi2+  Bi105  1  0.37308396  0.02916013  0.71375349  1
  Bi2+  Bi106  1  0.39643828  0.17831884  0.22850319  1
  Bi2+  Bi107  1  0.35270198  0.26779791  0.69975387  1
  Bi2+  Bi108  1  0.38958828  0.43879636  0.21310461  1
  Bi2+  Bi109  1  0.32177738  0.52253143  0.71370313  1
  Bi2+  Bi110  1  0.37413461  0.79817775  0.22488388  1
  Bi2+  Bi111  1  0.38549956  0.77576725  0.70736880  1
  Bi2+  Bi112  1  0.61228716  0.00203328  0.21014585  1
  Bi2+  Bi113  1  0.65832609  0.01361319  0.68941226  1
  Bi2+  Bi114  1  0.59597661  0.26238162  0.22210105  1
  Bi2+  Bi115  1  0.63835421  0.20722764  0.71617843  1
  Bi2+  Bi116  1  0.62950697  0.50113707  0.20452988  1
  Bi2+  Bi117  1  0.65196487  0.49331506  0.69935427  1
  Bi2+  Bi118  1  0.61764656  0.76550110  0.21333033  1
  Bi2+  Bi119  1  0.62660406  0.81959380  0.72755489  1
  Bi2+  Bi120  1  0.89624151  -0.06408169  0.23355412  1
  Bi2+  Bi121  1  0.85486068  0.03049481  0.70631636  1
  Bi2+  Bi122  1  0.85974127  0.24236136  0.21309194  1
  Bi2+  Bi123  1  0.87947249  0.28737011  0.71005741  1
  Bi2+  Bi124  1  0.92086500  0.59419326  0.19882653  1
  Bi2+  Bi125  1  0.89488257  0.50777325  0.71591286  1
  Bi2+  Bi126  1  0.84945170  0.77406547  0.17604935  1
  Bi2+  Bi127  1  0.88268739  0.80228797  0.70590751  1
  S2-  S128  1  -0.13584239  0.10509946  0.16311852  1
  S2-  S129  1  -0.01852478  0.01062689  0.63567332  1
  S2-  S130  1  0.00325935  0.27796348  0.16076962  1
  S2-  S131  1  -0.00214636  0.33001024  0.64172095  1
  S2-  S132  1  0.03545003  0.50047419  0.14534608  1
  S2-  S133  1  0.08235351  0.60305721  0.63897414  1
  S2-  S134  1  0.03417822  0.96282699  0.15611053  1
  S2-  S135  1  0.12406740  0.85134880  0.64353395  1
  S2-  S136  1  0.17858789  0.12313816  0.15266373  1
  S2-  S137  1  0.18284109  0.12225033  0.64864308  1
  S2-  S138  1  0.25856562  0.32888830  0.17290815  1
  S2-  S139  1  0.24081132  0.39245078  0.65807632  1
  S2-  S140  1  0.25755180  0.54944604  0.13916283  1
  S2-  S141  1  0.28471414  0.66731842  0.65902365  1
  S2-  S142  1  0.25317310  0.83378273  0.15512402  1
  S2-  S143  1  0.35836146  0.89471061  0.64371363  1
  S2-  S144  1  0.51663585  0.13696143  0.15399903  1
  S2-  S145  1  0.43390111  0.13826016  0.64684559  1
  S2-  S146  1  0.52280189  0.37825961  0.15410591  1
  S2-  S147  1  0.56671716  0.36654426  0.64571959  1
  S2-  S148  1  0.46494394  0.57674343  0.18943973  1
  S2-  S149  1  0.47096230  0.56840467  0.69309062  1
  S2-  S150  1  0.49522121  0.77501733  0.14865534  1
  S2-  S151  1  0.51624105  0.77205170  0.64728407  1
  S2-  S152  1  0.72640527  0.24464499  0.15260519  1
  S2-  S153  1  0.76075155  0.22492987  0.63965482  1
  S2-  S154  1  0.77335099  0.44443214  0.18012655  1
  S2-  S155  1  0.78251208  0.47198559  0.63937914  1
  S2-  S156  1  0.66046360  0.63522324  0.14924184  1
  S2-  S157  1  0.65901626  0.62691228  0.64535131  1
  S2-  S158  1  0.67209471  0.88092985  0.14656112  1
  S2-  S159  1  0.74004084  0.86012760  0.64963509  1
  S2-  S160  1  0.11062917  0.09122207  0.34999914  1
  S2-  S161  1  0.10077280  -0.02711067  0.84410502  1
  S2-  S162  1  0.09422255  0.30118454  0.31788670  1
  S2-  S163  1  0.11327752  0.26781277  0.85238650  1
  S2-  S164  1  0.13257184  0.51129847  0.33300673  1
  S2-  S165  1  0.16090243  0.50238937  0.84113180  1
  S2-  S166  1  0.24618665  0.72914103  0.36081507  1
  S2-  S167  1  0.15970558  0.75087620  0.83129669  1
  S2-  S168  1  0.31690529  -0.03710774  0.34300255  1
  S2-  S169  1  0.32247592  0.00945069  0.84654247  1
  S2-  S170  1  0.27628208  0.23810893  0.34946930  1
  S2-  S171  1  0.36922531  0.36675271  0.86300173  1
  S2-  S172  1  0.36907782  0.51788180  0.34536465  1
  S2-  S173  1  0.39758822  0.58652854  0.84863571  1
  S2-  S174  1  0.45983043  0.73175023  0.35497164  1
  S2-  S175  1  0.35177104  0.78922219  0.81099187  1
  S2-  S176  1  0.60427439  -0.10103605  0.35678278  1
  S2-  S177  1  0.64284655  -0.00169396  0.84532402  1
  S2-  S178  1  0.71124455  0.26549066  0.35390108  1
  S2-  S179  1  0.63712737  0.27564508  0.84670166  1
  S2-  S180  1  0.61794432  0.48630502  0.33474581  1
  S2-  S181  1  0.63587869  0.51141419  0.84526684  1
  S2-  S182  1  0.64840682  0.69881631  0.31322802  1
  S2-  S183  1  0.55120949  0.74426571  0.85324574  1
  S2-  S184  1  0.87379289  0.08714879  0.35354748  1
  S2-  S185  1  0.87631174  0.02037241  0.85127899  1
  S2-  S186  1  0.89200570  0.30201489  0.31289649  1
  S2-  S187  1  0.86109380  0.26212969  0.84708595  1
  S2-  S188  1  0.86594044  0.51234058  0.33287122  1
  S2-  S189  1  0.88276632  0.47796617  0.85515981  1
  S2-  S190  1  0.86970690  0.74545462  0.34077601  1
  S2-  S191  1  0.96921027  0.76118939  0.86599519  1
  S2-  S192  1  -0.00265755  0.11399567  0.45152651  1
  S2-  S193  1  0.00911779  0.12975920  0.95145763  1
  S2-  S194  1  -0.00522382  0.35841270  0.43575104  1
  S2-  S195  1  0.00695051  0.38172185  0.96199754  1
  S2-  S196  1  -0.00305837  0.61204949  0.44475244  1
  S2-  S197  1  0.00262310  0.62249685  0.96138962  1
  S2-  S198  1  -0.00372651  0.86597158  0.45991533  1
  S2-  S199  1  0.00508696  0.88234104  0.96446411  1
  S2-  S200  1  0.25041913  0.11123391  0.45049904  1
  S2-  S201  1  0.25383136  0.13159865  0.95550506  1
  S2-  S202  1  0.24763008  0.36222136  0.45052045  1
  S2-  S203  1  0.24998412  0.38115671  0.96447839  1
  S2-  S204  1  0.24231611  0.60874665  0.46016021  1
  S2-  S205  1  0.25458581  0.62713371  0.94713428  1
  S2-  S206  1  0.24766963  0.86418857  0.45835637  1
  S2-  S207  1  0.25739365  0.87240137  0.94798078  1
  S2-  S208  1  0.49641676  0.11010955  0.45126179  1
  S2-  S209  1  0.50505054  0.13186625  0.94665162  1
  S2-  S210  1  0.49765691  0.36251226  0.44862650  1
  S2-  S211  1  0.51175653  0.37546302  0.95252804  1
  S2-  S212  1  0.49670506  0.61245277  0.45404622  1
  S2-  S213  1  0.51032495  0.62688875  0.95903439  1
  S2-  S214  1  0.49052298  0.86362693  0.45788479  1
  S2-  S215  1  0.50651050  0.87748855  0.95422041  1
  S2-  S216  1  0.73986091  0.10732663  0.45286334  1
  S2-  S217  1  0.75669696  0.12968764  0.96124274  1
  S2-  S218  1  0.74575482  0.36620164  0.45580319  1
  S2-  S219  1  0.75572669  0.37785946  0.96542998  1
  S2-  S220  1  0.74596406  0.61450450  0.44725966  1
  S2-  S221  1  0.75872907  0.63085770  0.95535433  1
  S2-  S222  1  0.74839387  0.86559464  0.44692149  1
  S2-  S223  1  0.75725586  0.87715552  0.95627086  1
  S2-  S224  1  0.13266050  0.00484053  0.04717771  1
  S2-  S225  1  0.12568342  -0.00952190  0.53967055  1
  S2-  S226  1  0.13284436  0.25623147  0.05493167  1
  S2-  S227  1  0.12349768  0.23492699  0.53286058  1
  S2-  S228  1  0.13160388  0.50739275  0.04143845  1
  S2-  S229  1  0.11841788  0.48057065  0.53957711  1
  S2-  S230  1  0.13046527  0.74698635  0.04372510  1
  S2-  S231  1  0.11879896  0.73733871  0.53844099  1
  S2-  S232  1  0.38066015  0.00266252  0.04556568  1
  S2-  S233  1  0.37084512  -0.00846735  0.54157407  1
  S2-  S234  1  0.37784361  0.25693728  0.05026835  1
  S2-  S235  1  0.37327463  0.23840587  0.53831574  1
  S2-  S236  1  0.38764885  0.50745594  0.04395255  1
  S2-  S237  1  0.37308046  0.48951518  0.55455589  1
  S2-  S238  1  0.38261753  0.74982230  0.04582204  1
  S2-  S239  1  0.37049612  0.73175727  0.54587097  1
  S2-  S240  1  0.63446440  0.00691893  0.05080165  1
  S2-  S241  1  0.62023116  -0.01537363  0.54611334  1
  S2-  S242  1  0.63002312  0.25087597  0.04780436  1
  S2-  S243  1  0.61764085  0.23332941  0.54181162  1
  S2-  S244  1  0.63266794  0.50268214  0.05141158  1
  S2-  S245  1  0.61818806  0.48824655  0.54222337  1
  S2-  S246  1  0.63438682  0.75470787  0.04390373  1
  S2-  S247  1  0.62339394  0.73837296  0.53630449  1
  S2-  S248  1  0.88190628  -0.00114686  0.05651435  1
  S2-  S249  1  0.86443186  -0.01392955  0.54034220  1
  S2-  S250  1  0.88251055  0.25108256  0.05485368  1
  S2-  S251  1  0.87030247  0.23060779  0.53235761  1
  S2-  S252  1  0.87736263  0.50340379  0.05665559  1
  S2-  S253  1  0.87776944  0.48741623  0.53638957  1
  S2-  S254  1  0.88264486  0.75143843  0.05090154  1
  S2-  S255  1  0.87229032  0.73842912  0.54947344  1
