# generated using pymatgen
data_La12Ce14Pr13Nd13Sm12(BiS2)64
_symmetry_space_group_name_H-M   'P 1'
_cell_length_a   16.13579982
_cell_length_b   16.13136747
_cell_length_c   27.25260841
_cell_angle_alpha   90.35269696
_cell_angle_beta   90.07416669
_cell_angle_gamma   90.17884187
_symmetry_Int_Tables_number   1
_chemical_formula_structural   La12Ce14Pr13Nd13Sm12(BiS2)64
_chemical_formula_sum   'La12 Ce14 Pr13 Nd13 Sm12 Bi64 S128'
_cell_volume   7093.47494467
_cell_formula_units_Z   1
loop_
 _symmetry_equiv_pos_site_id
 _symmetry_equiv_pos_as_xyz
  1  'x, y, z'
loop_
 _atom_type_symbol
 _atom_type_oxidation_number
  La3+  3.0
  Ce3+  3.0
  Pr3+  3.0
  Nd3+  3.0
  Sm3+  3.0
  Bi2+  2.0
  S2-  -2.0
loop_
 _atom_site_type_symbol
 _atom_site_label
 _atom_site_symmetry_multiplicity
 _atom_site_fract_x
 _atom_site_fract_y
 _atom_site_fract_z
 _atom_site_occupancy
  La3+  La0  1  0.75075587  0.37952606  0.11493237  1
  La3+  La1  1  0.12772274  0.72870974  0.43033930  1
  La3+  La2  1  0.12883954  0.48168420  0.43514439  1
  La3+  La3  1  0.13625034  0.23110933  0.42343110  1
  La3+  La4  1  0.63327450  0.47710819  0.42343361  1
  La3+  La5  1  0.63162311  0.49729006  0.93919864  1
  La3+  La6  1  0.88622258  0.49794329  0.93819104  1
  La3+  La7  1  0.12273356  0.25824671  0.92355735  1
  La3+  La8  1  0.38271261  0.25687068  0.91115318  1
  La3+  La9  1  0.37813839  0.72850700  0.43107036  1
  La3+  La10  1  0.63618244  0.74240284  0.91705229  1
  La3+  La11  1  0.35257474  -0.00171813  0.87640050  1
  Ce3+  Ce12  1  0.87148843  -0.00318678  0.93331254  1
  Ce3+  Ce13  1  0.75817910  0.11326172  0.56063242  1
  Ce3+  Ce14  1  0.51189002  0.60634416  0.55724099  1
  Ce3+  Ce15  1  0.26220194  0.85174099  0.57349796  1
  Ce3+  Ce16  1  0.51191445  0.85452644  0.57211631  1
  Ce3+  Ce17  1  0.75461030  0.13152221  0.05871342  1
  Ce3+  Ce18  1  0.38094642  0.48582845  0.44052069  1
  Ce3+  Ce19  1  0.00314303  0.85583774  0.56263349  1
  Ce3+  Ce20  1  0.00304750  0.87837978  0.05393966  1
  Ce3+  Ce21  1  0.62443679  0.00196594  0.93157924  1
  Ce3+  Ce22  1  0.25599255  0.35565057  0.55874691  1
  Ce3+  Ce23  1  0.24005826  0.10431763  0.57748234  1
  Ce3+  Ce24  1  0.12982354  0.00277969  0.94081412  1
  Ce3+  Ce25  1  0.62898476  -0.01908183  0.45023994  1
  Pr3+  Pr26  1  0.87784895  0.47814087  0.43728862  1
  Pr3+  Pr27  1  0.76087770  0.59845838  0.59539289  1
  Pr3+  Pr28  1  0.50741668  0.62867109  0.06164741  1
  Pr3+  Pr29  1  0.25655995  0.62943853  0.06066664  1
  Pr3+  Pr30  1  0.50599575  0.12958058  0.05468527  1
  Pr3+  Pr31  1  0.50702529  0.87754281  0.05094819  1
  Pr3+  Pr32  1  0.13725621  -0.01831911  0.43394621  1
  Pr3+  Pr33  1  0.00639701  0.37602417  0.07452527  1
  Pr3+  Pr34  1  0.00526251  0.12892861  0.05851557  1
  Pr3+  Pr35  1  0.75626255  0.85955941  0.57398462  1
  Pr3+  Pr36  1  0.87696233  -0.02140647  0.43177242  1
  Pr3+  Pr37  1  0.25834684  0.12926715  0.05181289  1
  Pr3+  Pr38  1  0.38263925  0.75221615  0.93105108  1
  Nd3+  Nd39  1  0.00463385  0.60553209  0.56357975  1
  Nd3+  Nd40  1  0.75570037  0.62949632  0.06578813  1
  Nd3+  Nd41  1  0.50546876  0.12105515  0.57176352  1
  Nd3+  Nd42  1  0.37965735  0.22562188  0.44029568  1
  Nd3+  Nd43  1  0.75535421  0.87494309  0.06171358  1
  Nd3+  Nd44  1  0.87562598  0.73019602  0.44745787  1
  Nd3+  Nd45  1  0.37893339  -0.02182385  0.44959168  1
  Nd3+  Nd46  1  0.62931252  0.73497092  0.44018328  1
  Nd3+  Nd47  1  0.25666747  0.60881623  0.56568425  1
  Nd3+  Nd48  1  0.62844100  0.22725833  0.43041412  1
  Nd3+  Nd49  1  0.88282904  0.22390841  0.42904475  1
  Nd3+  Nd50  1  0.88271092  0.74394170  0.93108604  1
  Nd3+  Nd51  1  0.00708740  0.35504771  0.55702634  1
  Sm3+  Sm52  1  0.50833823  0.36045662  0.55093862  1
  Sm3+  Sm53  1  0.25248165  0.37405845  0.06511340  1
  Sm3+  Sm54  1  0.62877494  0.25005713  0.93835592  1
  Sm3+  Sm55  1  0.00292333  0.62653444  0.06172618  1
  Sm3+  Sm56  1  0.13376642  0.49913812  0.95011966  1
  Sm3+  Sm57  1  0.13371384  0.75200587  0.94487424  1
  Sm3+  Sm58  1  0.25864505  0.87867005  0.05439192  1
  Sm3+  Sm59  1  0.75584523  0.35479502  0.56289907  1
  Sm3+  Sm60  1  0.50777825  0.37816005  0.05960103  1
  Sm3+  Sm61  1  0.88154110  0.25061274  0.94366179  1
  Sm3+  Sm62  1  0.00474292  0.10592093  0.55725957  1
  Sm3+  Sm63  1  0.37788780  0.49896261  0.94566127  1
  Bi2+  Bi64  1  -0.01142172  0.09143265  0.28343990  1
  Bi2+  Bi65  1  -0.03113809  0.11585643  0.78564945  1
  Bi2+  Bi66  1  0.00930953  0.42329227  0.29991475  1
  Bi2+  Bi67  1  -0.05535770  0.39474474  0.80877722  1
  Bi2+  Bi68  1  0.01930923  0.68934861  0.27129470  1
  Bi2+  Bi69  1  0.02101564  0.63517505  0.78700440  1
  Bi2+  Bi70  1  0.01160702  0.86911000  0.32250529  1
  Bi2+  Bi71  1  -0.04829703  0.92927180  0.81330963  1
  Bi2+  Bi72  1  0.24349660  0.09256468  0.29413262  1
  Bi2+  Bi73  1  0.25032903  0.14580742  0.76286518  1
  Bi2+  Bi74  1  0.27423868  0.35572379  0.28828505  1
  Bi2+  Bi75  1  0.22017881  0.40425831  0.79318082  1
  Bi2+  Bi76  1  0.24798177  0.61670132  0.29737936  1
  Bi2+  Bi77  1  0.21918611  0.61115972  0.78780622  1
  Bi2+  Bi78  1  0.25073365  0.87237013  0.28154557  1
  Bi2+  Bi79  1  0.13486592  0.88046098  0.78176803  1
  Bi2+  Bi80  1  0.49720217  0.14302815  0.33250275  1
  Bi2+  Bi81  1  0.52537632  0.14710916  0.78354491  1
  Bi2+  Bi82  1  0.48631384  0.32763272  0.29110447  1
  Bi2+  Bi83  1  0.48416482  0.40389199  0.78365586  1
  Bi2+  Bi84  1  0.51084714  0.67083082  0.30409874  1
  Bi2+  Bi85  1  0.40678449  0.58160494  0.80555638  1
  Bi2+  Bi86  1  0.51509907  0.94757571  0.30534529  1
  Bi2+  Bi87  1  0.47936471  0.87889211  0.78122429  1
  Bi2+  Bi88  1  0.68772594  0.13642811  0.29173477  1
  Bi2+  Bi89  1  0.76437363  0.14013430  0.79010696  1
  Bi2+  Bi90  1  0.78345701  0.31367477  0.30598302  1
  Bi2+  Bi91  1  0.75728848  0.33942437  0.79529622  1
  Bi2+  Bi92  1  0.76572732  0.63267603  0.30785189  1
  Bi2+  Bi93  1  0.77604328  0.63407326  0.79003576  1
  Bi2+  Bi94  1  0.82239379  0.91795674  0.29723356  1
  Bi2+  Bi95  1  0.76219270  0.88827775  0.78059437  1
  Bi2+  Bi96  1  0.09068063  -0.04766033  0.22997620  1
  Bi2+  Bi97  1  0.07198972  0.00372309  0.69236908  1
  Bi2+  Bi98  1  0.13349364  0.23869654  0.20763027  1
  Bi2+  Bi99  1  0.07186538  0.38600594  0.71985892  1
  Bi2+  Bi100  1  0.20749476  0.49466791  0.21191074  1
  Bi2+  Bi101  1  0.09244568  0.57581999  0.68521158  1
  Bi2+  Bi102  1  0.16788620  0.74830040  0.20303047  1
  Bi2+  Bi103  1  0.09609916  0.78442003  0.68334832  1
  Bi2+  Bi104  1  0.40954453  0.07189229  0.23458586  1
  Bi2+  Bi105  1  0.38832454  0.00283279  0.67809657  1
  Bi2+  Bi106  1  0.34787623  0.25472728  0.19554852  1
  Bi2+  Bi107  1  0.37963244  0.32283087  0.69722014  1
  Bi2+  Bi108  1  0.39763381  0.44520161  0.21268622  1
  Bi2+  Bi109  1  0.29690106  0.50237831  0.68695956  1
  Bi2+  Bi110  1  0.37290364  0.78222217  0.20468526  1
  Bi2+  Bi111  1  0.38770032  0.67573847  0.70304311  1
  Bi2+  Bi112  1  0.65508591  -0.03071646  0.22597401  1
  Bi2+  Bi113  1  0.67680551  0.00090603  0.70672569  1
  Bi2+  Bi114  1  0.59360960  0.23506950  0.20890257  1
  Bi2+  Bi115  1  0.63997026  0.24851236  0.71411044  1
  Bi2+  Bi116  1  0.62360990  0.50698644  0.21939561  1
  Bi2+  Bi117  1  0.64913608  0.49232515  0.75839344  1
  Bi2+  Bi118  1  0.61795030  0.76370827  0.20486945  1
  Bi2+  Bi119  1  0.59851870  0.73035880  0.71401646  1
  Bi2+  Bi120  1  0.83076123  -0.02752503  0.17938293  1
  Bi2+  Bi121  1  0.86019701  0.02835764  0.66991851  1
  Bi2+  Bi122  1  0.85517750  0.15899571  0.21481745  1
  Bi2+  Bi123  1  0.88625832  0.21208924  0.70067484  1
  Bi2+  Bi124  1  0.89459690  0.51993006  0.20921428  1
  Bi2+  Bi125  1  0.84927476  0.46986275  0.70982682  1
  Bi2+  Bi126  1  0.87517528  0.78706564  0.21390702  1
  Bi2+  Bi127  1  0.92207486  0.78525372  0.73407277  1
  S2-  S128  1  0.00675045  0.16985132  0.15701385  1
  S2-  S129  1  0.09496564  0.13824717  0.64050168  1
  S2-  S130  1  -0.08809775  0.38405271  0.15920845  1
  S2-  S131  1  -0.05526120  0.35176717  0.65002830  1
  S2-  S132  1  0.00438886  0.60641441  0.15940641  1
  S2-  S133  1  -0.08223811  0.58841374  0.64996789  1
  S2-  S134  1  -0.01070913  0.88110232  0.15145924  1
  S2-  S135  1  -0.10825748  0.86090381  0.64178692  1
  S2-  S136  1  0.23670381  0.13922512  0.15362303  1
  S2-  S137  1  0.32076380  0.16255994  0.66420611  1
  S2-  S138  1  0.14418488  0.37209034  0.14387898  1
  S2-  S139  1  0.20861735  0.35392507  0.65352865  1
  S2-  S140  1  0.29075889  0.64036221  0.15902560  1
  S2-  S141  1  0.24383537  0.72246606  0.64301944  1
  S2-  S142  1  0.26425285  0.87780931  0.15269908  1
  S2-  S143  1  0.22788477  0.96684598  0.64553144  1
  S2-  S144  1  0.51392554  0.11658817  0.15649949  1
  S2-  S145  1  0.54328376  0.08583131  0.66939354  1
  S2-  S146  1  0.57791060  0.38421989  0.14925456  1
  S2-  S147  1  0.51762135  0.30174977  0.64301996  1
  S2-  S148  1  0.53921017  0.63289971  0.16206052  1
  S2-  S149  1  0.52373808  0.60261024  0.65587120  1
  S2-  S150  1  0.50423410  0.85322689  0.15243980  1
  S2-  S151  1  0.41127239  0.84047039  0.65200179  1
  S2-  S152  1  0.73807336  0.20773201  0.14690099  1
  S2-  S153  1  0.74647637  0.22881038  0.63517320  1
  S2-  S154  1  0.73819846  0.38967217  0.22661946  1
  S2-  S155  1  0.72446040  0.45124449  0.64549399  1
  S2-  S156  1  0.75293486  0.54588721  0.15454888  1
  S2-  S157  1  0.74193362  0.68233495  0.68740425  1
  S2-  S158  1  0.75277938  0.76096253  0.13938312  1
  S2-  S159  1  0.63051089  0.85554021  0.64848857  1
  S2-  S160  1  0.10917242  0.09883322  0.35541824  1
  S2-  S161  1  0.17607373  0.00638025  0.84667412  1
  S2-  S162  1  0.13302460  0.37129415  0.35323770  1
  S2-  S163  1  0.20164917  0.24628267  0.83181480  1
  S2-  S164  1  0.11134931  0.59460826  0.35439528  1
  S2-  S165  1  0.09676947  0.43831639  0.86134866  1
  S2-  S166  1  0.24984762  0.75203006  0.35735501  1
  S2-  S167  1  0.13180107  0.73667941  0.84711914  1
  S2-  S168  1  0.27996272  -0.02465256  0.36521006  1
  S2-  S169  1  0.33618430  -0.00972100  0.76730134  1
  S2-  S170  1  0.28289135  0.22060458  0.35647415  1
  S2-  S171  1  0.37377030  0.15705483  0.82753641  1
  S2-  S172  1  0.38699510  0.57545209  0.35517891  1
  S2-  S173  1  0.36327459  0.41305671  0.85963556  1
  S2-  S174  1  0.46305966  0.80327696  0.35161181  1
  S2-  S175  1  0.36141597  0.82977484  0.84221135  1
  S2-  S176  1  0.67438153  -0.04385476  0.35719358  1
  S2-  S177  1  0.52830663  0.00870661  0.84537645  1
  S2-  S178  1  0.63739902  0.34067359  0.35319437  1
  S2-  S179  1  0.54623549  0.27211960  0.85135863  1
  S2-  S180  1  0.62029364  0.54201781  0.32510856  1
  S2-  S181  1  0.64960170  0.57787374  0.85101203  1
  S2-  S182  1  0.66219296  0.73995006  0.33966906  1
  S2-  S183  1  0.56663191  0.76614574  0.81882639  1
  S2-  S184  1  0.87106024  0.09099647  0.35450625  1
  S2-  S185  1  0.75053936  0.00323299  0.85994221  1
  S2-  S186  1  0.94895557  0.28506911  0.33680528  1
  S2-  S187  1  0.97541073  0.24704175  0.85928191  1
  S2-  S188  1  0.85755052  0.48802545  0.33560191  1
  S2-  S189  1  0.89994802  0.60811098  0.85866812  1
  S2-  S190  1  0.90219086  0.71103570  0.34854886  1
  S2-  S191  1  0.77414893  0.76854051  0.85253217  1
  S2-  S192  1  0.00484551  0.10339778  0.45519411  1
  S2-  S193  1  0.00107050  0.11966648  0.95237898  1
  S2-  S194  1  0.00286333  0.35419408  0.45289062  1
  S2-  S195  1  0.00501535  0.37650278  0.96608278  1
  S2-  S196  1  -0.00117437  0.60538715  0.45842077  1
  S2-  S197  1  0.01558133  0.62607002  0.95758359  1
  S2-  S198  1  0.00305690  0.85565909  0.45508026  1
  S2-  S199  1  0.00639811  0.87284547  0.94774392  1
  S2-  S200  1  0.25784356  0.10476721  0.46668111  1
  S2-  S201  1  0.25745786  0.12850748  0.94543556  1
  S2-  S202  1  0.26197488  0.35980138  0.45442982  1
  S2-  S203  1  0.25472117  0.37488228  0.96114855  1
  S2-  S204  1  0.25390606  0.60410894  0.46042195  1
  S2-  S205  1  0.25602480  0.62501218  0.95212004  1
  S2-  S206  1  0.25574074  0.85427073  0.46592384  1
  S2-  S207  1  0.25576194  0.87770937  0.95002369  1
  S2-  S208  1  0.50463705  0.10484958  0.46175451  1
  S2-  S209  1  0.50388443  0.13223724  0.95018298  1
  S2-  S210  1  0.50036881  0.35576057  0.44731111  1
  S2-  S211  1  0.50256921  0.37745569  0.95671332  1
  S2-  S212  1  0.51198874  0.60571698  0.45206601  1
  S2-  S213  1  0.50129428  0.62270597  0.95229630  1
  S2-  S214  1  0.50721816  0.85767239  0.46551787  1
  S2-  S215  1  0.51247586  0.86846301  0.94577123  1
  S2-  S216  1  0.75148007  0.10756591  0.45502188  1
  S2-  S217  1  0.75418102  0.13240300  0.95340917  1
  S2-  S218  1  0.75846870  0.34887978  0.45408703  1
  S2-  S219  1  0.75774853  0.37149823  0.93880975  1
  S2-  S220  1  0.75334631  0.60617962  0.44424966  1
  S2-  S221  1  0.75917578  0.62329060  0.95855217  1
  S2-  S222  1  0.75544105  0.85652920  0.46258303  1
  S2-  S223  1  0.75544976  0.87236945  0.95745757  1
  S2-  S224  1  0.13235254  0.00116135  0.04852739  1
  S2-  S225  1  0.12196286  -0.02248103  0.54164550  1
  S2-  S226  1  0.13111763  0.25099080  0.03881191  1
  S2-  S227  1  0.12959245  0.23533090  0.53647395  1
  S2-  S228  1  0.13152552  0.50651003  0.05233971  1
  S2-  S229  1  0.13042890  0.48264157  0.54679656  1
  S2-  S230  1  0.13063360  0.75371620  0.05004766  1
  S2-  S231  1  0.12453426  0.72968636  0.54151647  1
  S2-  S232  1  0.38064169  0.00123029  0.05282277  1
  S2-  S233  1  0.38619360  -0.01142636  0.55422332  1
  S2-  S234  1  0.38133301  0.25816953  0.05179390  1
  S2-  S235  1  0.38179454  0.23672182  0.54523665  1
  S2-  S236  1  0.37934269  0.49921578  0.05142701  1
  S2-  S237  1  0.38299193  0.48275446  0.54803362  1
  S2-  S238  1  0.38016721  0.75286931  0.04094689  1
  S2-  S239  1  0.38634005  0.72523359  0.54283430  1
  S2-  S240  1  0.63341264  0.00257698  0.04532866  1
  S2-  S241  1  0.63150072  -0.00842923  0.55414479  1
  S2-  S242  1  0.63041857  0.25758197  0.04190476  1
  S2-  S243  1  0.62775645  0.23559337  0.53584067  1
  S2-  S244  1  0.63070682  0.50187866  0.04609630  1
  S2-  S245  1  0.63275607  0.47922974  0.53690343  1
  S2-  S246  1  0.62939908  0.74986883  0.03728319  1
  S2-  S247  1  0.64130230  0.72346039  0.54853035  1
  S2-  S248  1  0.87798740  0.00258823  0.04184838  1
  S2-  S249  1  0.88005302  -0.01483864  0.53926117  1
  S2-  S250  1  0.87952806  0.25379536  0.04697994  1
  S2-  S251  1  0.88485664  0.23075837  0.53830814  1
  S2-  S252  1  0.88191193  0.50470283  0.04681928  1
  S2-  S253  1  0.87707860  0.47886739  0.54362859  1
  S2-  S254  1  0.88520227  0.75079750  0.04049557  1
  S2-  S255  1  0.87464107  0.72463971  0.55128601  1
