# generated using pymatgen
data_La12Ce14Pr13Nd13Sm12(BiS2)64
_symmetry_space_group_name_H-M   'P 1'
_cell_length_a   16.16614512
_cell_length_b   16.17575003
_cell_length_c   27.21621559
_cell_angle_alpha   90.28263563
_cell_angle_beta   90.07220203
_cell_angle_gamma   89.99912316
_symmetry_Int_Tables_number   1
_chemical_formula_structural   La12Ce14Pr13Nd13Sm12(BiS2)64
_chemical_formula_sum   'La12 Ce14 Pr13 Nd13 Sm12 Bi64 S128'
_cell_volume   7116.93513576
_cell_formula_units_Z   1
loop_
 _symmetry_equiv_pos_site_id
 _symmetry_equiv_pos_as_xyz
  1  'x, y, z'
loop_
 _atom_type_symbol
 _atom_type_oxidation_number
  La3+  3.0
  Ce3+  3.0
  Pr3+  3.0
  Nd3+  3.0
  Sm3+  3.0
  Bi2+  2.0
  S2-  -2.0
loop_
 _atom_site_type_symbol
 _atom_site_label
 _atom_site_symmetry_multiplicity
 _atom_site_fract_x
 _atom_site_fract_y
 _atom_site_fract_z
 _atom_site_occupancy
  La3+  La0  1  0.64222732  0.49697094  0.92379535  1
  La3+  La1  1  0.89166698  0.74978325  0.89897908  1
  La3+  La2  1  0.63269385  0.24191102  0.92736150  1
  La3+  La3  1  0.61611086  -0.00803170  0.41433279  1
  La3+  La4  1  0.52108260  0.61488375  0.07788519  1
  La3+  La5  1  0.13266274  0.48978186  0.92763551  1
  La3+  La6  1  0.39653632  -0.01093889  0.93409045  1
  La3+  La7  1  0.39236088  0.49580477  0.93950795  1
  La3+  La8  1  0.61707602  0.24363189  0.42101505  1
  La3+  La9  1  0.01752172  0.37408499  0.07567644  1
  La3+  La10  1  0.13820668  -0.00676906  0.94126573  1
  La3+  La11  1  0.87592132  -0.01072505  0.40211977  1
  Ce3+  Ce12  1  0.13580523  0.74438247  0.94197822  1
  Ce3+  Ce13  1  0.38662577  0.50940130  0.42163725  1
  Ce3+  Ce14  1  0.26835138  0.11906151  0.05560633  1
  Ce3+  Ce15  1  0.12058544  -0.00395409  0.43567001  1
  Ce3+  Ce16  1  0.74697352  0.12347483  0.54565801  1
  Ce3+  Ce17  1  0.13931657  0.24363010  0.94249309  1
  Ce3+  Ce18  1  0.12086223  0.74671724  0.44707381  1
  Ce3+  Ce19  1  0.51714485  0.11605623  0.06607481  1
  Ce3+  Ce20  1  0.62357888  0.75242786  0.44433261  1
  Ce3+  Ce21  1  0.76437914  0.36853011  0.05530704  1
  Ce3+  Ce22  1  0.49682062  0.12245936  0.55318327  1
  Ce3+  Ce23  1  0.89249567  0.24420713  0.93767231  1
  Ce3+  Ce24  1  -0.00467663  0.87392072  0.56180076  1
  Ce3+  Ce25  1  0.24791644  0.37544272  0.55094417  1
  Pr3+  Pr26  1  0.73961056  0.63404966  0.60059278  1
  Pr3+  Pr27  1  0.36806192  -0.00234079  0.43165384  1
  Pr3+  Pr28  1  0.89249240  -0.00649171  0.93700433  1
  Pr3+  Pr29  1  0.01614055  0.87377973  0.07563872  1
  Pr3+  Pr30  1  0.64686515  -0.01429747  0.94313416  1
  Pr3+  Pr31  1  0.01493760  0.12493511  0.06987449  1
  Pr3+  Pr32  1  0.26601978  0.62201714  0.05882479  1
  Pr3+  Pr33  1  0.11825560  0.24618682  0.43943147  1
  Pr3+  Pr34  1  0.12246989  0.49782873  0.43726975  1
  Pr3+  Pr35  1  0.87024040  0.74982022  0.44350191  1
  Pr3+  Pr36  1  0.62416322  0.49826562  0.44752852  1
  Pr3+  Pr37  1  0.86549973  0.25463038  0.42696691  1
  Pr3+  Pr38  1  0.49178227  0.62004199  0.56978971  1
  Nd3+  Nd39  1  0.39287835  0.74095593  0.94732826  1
  Nd3+  Nd40  1  0.49442166  0.37236287  0.55888639  1
  Nd3+  Nd41  1  0.37044830  0.25217116  0.43123866  1
  Nd3+  Nd42  1  0.49744100  0.87535354  0.56188376  1
  Nd3+  Nd43  1  0.64427620  0.73922059  0.94047394  1
  Nd3+  Nd44  1  0.86854492  0.49949178  0.45084097  1
  Nd3+  Nd45  1  0.76667612  0.61812316  0.05966860  1
  Nd3+  Nd46  1  0.74764243  0.87756297  0.56530836  1
  Nd3+  Nd47  1  0.77246823  0.86944965  0.06871778  1
  Nd3+  Nd48  1  0.26637573  0.37248505  0.05999646  1
  Nd3+  Nd49  1  -0.00488321  0.37503639  0.55935855  1
  Nd3+  Nd50  1  0.52178449  0.36882361  0.06678557  1
  Nd3+  Nd51  1  0.88755999  0.48679591  0.92515056  1
  Sm3+  Sm52  1  0.26666668  0.87074481  0.05952270  1
  Sm3+  Sm53  1  -0.00536759  0.62307748  0.56091710  1
  Sm3+  Sm54  1  0.24559941  0.87571710  0.55605900  1
  Sm3+  Sm55  1  0.39455533  0.24304624  0.94557698  1
  Sm3+  Sm56  1  0.37437101  0.74766276  0.44528059  1
  Sm3+  Sm57  1  0.24688485  0.12361374  0.55639528  1
  Sm3+  Sm58  1  0.74407897  0.36127638  0.56905604  1
  Sm3+  Sm59  1  -0.00370442  0.12332089  0.55272408  1
  Sm3+  Sm60  1  0.01431661  0.61719450  0.05442040  1
  Sm3+  Sm61  1  0.25132602  0.62148382  0.55660889  1
  Sm3+  Sm62  1  0.52087848  0.86861608  0.06417945  1
  Sm3+  Sm63  1  0.76520639  0.11925160  0.05591788  1
  Bi2+  Bi64  1  0.09797694  0.12021138  0.28962020  1
  Bi2+  Bi65  1  -0.05196812  0.11286825  0.82294338  1
  Bi2+  Bi66  1  -0.01369432  0.36828018  0.30403012  1
  Bi2+  Bi67  1  -0.01987865  0.29579904  0.77753437  1
  Bi2+  Bi68  1  0.00830543  0.62748183  0.29459905  1
  Bi2+  Bi69  1  0.03401426  0.60616941  0.78499799  1
  Bi2+  Bi70  1  0.01498109  0.84552899  0.29053972  1
  Bi2+  Bi71  1  -0.02068666  0.94122493  0.76351415  1
  Bi2+  Bi72  1  0.28725499  0.15391506  0.32107958  1
  Bi2+  Bi73  1  0.15293935  0.12751584  0.80216438  1
  Bi2+  Bi74  1  0.24632273  0.37181594  0.26158073  1
  Bi2+  Bi75  1  0.22759333  0.41356014  0.81089223  1
  Bi2+  Bi76  1  0.21994238  0.65963047  0.26634997  1
  Bi2+  Bi77  1  0.25387485  0.60940323  0.79590902  1
  Bi2+  Bi78  1  0.24751667  0.95964224  0.31914330  1
  Bi2+  Bi79  1  0.27439932  0.88135768  0.79529986  1
  Bi2+  Bi80  1  0.47939264  0.11243956  0.28924709  1
  Bi2+  Bi81  1  0.48512675  0.15355801  0.75759564  1
  Bi2+  Bi82  1  0.47827370  0.38261709  0.28861586  1
  Bi2+  Bi83  1  0.50165831  0.34095070  0.78990441  1
  Bi2+  Bi84  1  0.53601841  0.63535239  0.29648788  1
  Bi2+  Bi85  1  0.45534566  0.61562310  0.79586628  1
  Bi2+  Bi86  1  0.48755126  0.82385053  0.29843087  1
  Bi2+  Bi87  1  0.48466733  0.88757098  0.79854513  1
  Bi2+  Bi88  1  0.75058218  0.18786549  0.28627232  1
  Bi2+  Bi89  1  0.75553616  0.12093447  0.80001892  1
  Bi2+  Bi90  1  0.74388869  0.45585402  0.28692144  1
  Bi2+  Bi91  1  0.75850358  0.39211226  0.78586472  1
  Bi2+  Bi92  1  0.73052358  0.65964233  0.28012330  1
  Bi2+  Bi93  1  0.71297985  0.65583196  0.79420793  1
  Bi2+  Bi94  1  0.74997929  0.86183694  0.28430984  1
  Bi2+  Bi95  1  0.72600880  0.92624971  0.79000694  1
  Bi2+  Bi96  1  0.13083978  -0.05165744  0.21795900  1
  Bi2+  Bi97  1  0.12242656  0.02769612  0.70412506  1
  Bi2+  Bi98  1  0.12510042  0.24466013  0.20444036  1
  Bi2+  Bi99  1  0.14095220  0.29907155  0.71018636  1
  Bi2+  Bi100  1  0.11820445  0.49520661  0.21031600  1
  Bi2+  Bi101  1  0.17087788  0.49465463  0.71215796  1
  Bi2+  Bi102  1  0.07587670  0.73254003  0.19957871  1
  Bi2+  Bi103  1  0.12920240  0.77125316  0.75654102  1
  Bi2+  Bi104  1  0.32958147  0.02296840  0.21605931  1
  Bi2+  Bi105  1  0.36930574  0.00744332  0.68448891  1
  Bi2+  Bi106  1  0.35347279  0.22621172  0.21889248  1
  Bi2+  Bi107  1  0.30406737  0.24591442  0.77267912  1
  Bi2+  Bi108  1  0.37286226  0.55570130  0.21691482  1
  Bi2+  Bi109  1  0.37197757  0.46310313  0.70015277  1
  Bi2+  Bi110  1  0.31638034  0.82378910  0.24239357  1
  Bi2+  Bi111  1  0.30297688  0.73222710  0.70372472  1
  Bi2+  Bi112  1  0.62672898  0.01290751  0.19289122  1
  Bi2+  Bi113  1  0.61053688  0.02972768  0.70100805  1
  Bi2+  Bi114  1  0.61440317  0.28648816  0.22056920  1
  Bi2+  Bi115  1  0.66334611  0.22308598  0.71918279  1
  Bi2+  Bi116  1  0.60518296  0.47872499  0.19490456  1
  Bi2+  Bi117  1  0.62752470  0.48740973  0.70467467  1
  Bi2+  Bi118  1  0.57680390  0.76653432  0.19578277  1
  Bi2+  Bi119  1  0.50223333  0.74900005  0.71949342  1
  Bi2+  Bi120  1  0.88644550  0.00481363  0.20722315  1
  Bi2+  Bi121  1  0.79753139  -0.01686182  0.69036536  1
  Bi2+  Bi122  1  0.88148850  0.34753463  0.20689778  1
  Bi2+  Bi123  1  0.88041694  0.16447177  0.70774635  1
  Bi2+  Bi124  1  0.86643661  0.53596279  0.20590543  1
  Bi2+  Bi125  1  0.90242254  0.49359861  0.70012105  1
  Bi2+  Bi126  1  0.87729815  0.73222862  0.21463676  1
  Bi2+  Bi127  1  0.88830572  0.75668120  0.70255877  1
  S2-  S128  1  0.02278169  0.01604438  0.14954697  1
  S2-  S129  1  0.01856865  0.12303596  0.65183485  1
  S2-  S130  1  -0.01396299  0.24533184  0.14658350  1
  S2-  S131  1  0.00525691  0.36869172  0.65772145  1
  S2-  S132  1  0.00483293  0.52201443  0.13885092  1
  S2-  S133  1  -0.01395006  0.63020776  0.65876133  1
  S2-  S134  1  -0.11053192  0.87502164  0.14866196  1
  S2-  S135  1  -0.00386160  0.87012399  0.65983669  1
  S2-  S136  1  0.24247645  0.13442357  0.15214796  1
  S2-  S137  1  0.25240338  0.10965381  0.65507902  1
  S2-  S138  1  0.16694710  0.37354667  0.14131713  1
  S2-  S139  1  0.28474181  0.35715901  0.64653526  1
  S2-  S140  1  0.24113533  0.58239114  0.15547649  1
  S2-  S141  1  0.35297493  0.60265473  0.63573715  1
  S2-  S142  1  0.21705371  0.83725715  0.15095937  1
  S2-  S143  1  0.26618187  0.88475793  0.65346264  1
  S2-  S144  1  0.54588856  0.15491686  0.16024155  1
  S2-  S145  1  0.47080047  0.13826009  0.64960249  1
  S2-  S146  1  0.45855792  0.42946200  0.15412483  1
  S2-  S147  1  0.51511125  0.38845430  0.65909418  1
  S2-  S148  1  0.43739734  0.67090490  0.16281671  1
  S2-  S149  1  0.58564354  0.62558840  0.65545036  1
  S2-  S150  1  0.49757612  0.91297183  0.15924609  1
  S2-  S151  1  0.50878301  0.89729317  0.66146424  1
  S2-  S152  1  0.77114446  0.08876948  0.15453114  1
  S2-  S153  1  0.74077355  0.21264123  0.63007738  1
  S2-  S154  1  0.72449992  0.34646956  0.15154220  1
  S2-  S155  1  0.77151906  0.41052708  0.66316715  1
  S2-  S156  1  0.66076079  0.61691111  0.14370168  1
  S2-  S157  1  0.77620596  0.59796318  0.70009220  1
  S2-  S158  1  0.68845322  0.86947576  0.15997588  1
  S2-  S159  1  0.75206128  0.78984025  0.65244167  1
  S2-  S160  1  0.02897142  0.00158203  0.35115169  1
  S2-  S161  1  0.14574164  -0.03351021  0.84176371  1
  S2-  S162  1  0.11595371  0.27710016  0.34032895  1
  S2-  S163  1  0.10999713  0.29966990  0.85248032  1
  S2-  S164  1  0.09392318  0.50151488  0.33757226  1
  S2-  S165  1  0.01382679  0.49837743  0.85334326  1
  S2-  S166  1  0.11903956  0.74088357  0.34895700  1
  S2-  S167  1  0.06485526  0.74352562  0.85286601  1
  S2-  S168  1  0.46921188  -0.02362633  0.34965444  1
  S2-  S169  1  0.37028453  0.00270832  0.83454305  1
  S2-  S170  1  0.47787145  0.25814711  0.35108922  1
  S2-  S171  1  0.48419422  0.21843729  0.86229741  1
  S2-  S172  1  0.33422744  0.43516808  0.33748052  1
  S2-  S173  1  0.44620623  0.46645240  0.84475641  1
  S2-  S174  1  0.39667173  0.68942182  0.35421007  1
  S2-  S175  1  0.38714683  0.76356465  0.84879975  1
  S2-  S176  1  0.62805852  0.11212723  0.33978413  1
  S2-  S177  1  0.59048243  -0.01199810  0.84724939  1
  S2-  S178  1  0.71538891  0.31166549  0.34756929  1
  S2-  S179  1  0.63872085  0.36212342  0.85151844  1
  S2-  S180  1  0.53625358  0.50048517  0.35996691  1
  S2-  S181  1  0.59114155  0.63185132  0.86082310  1
  S2-  S182  1  0.63512807  0.84058899  0.35798680  1
  S2-  S183  1  0.72433719  0.78807754  0.85445117  1
  S2-  S184  1  0.81142336  0.01919748  0.30535632  1
  S2-  S185  1  0.90485162  -0.09406644  0.84908495  1
  S2-  S186  1  0.90316642  0.22408826  0.32966304  1
  S2-  S187  1  0.87233999  0.33418311  0.85455600  1
  S2-  S188  1  0.87318320  0.47163743  0.35278073  1
  S2-  S189  1  0.77267595  0.52215035  0.84807993  1
  S2-  S190  1  0.87336100  0.82953912  0.35366389  1
  S2-  S191  1  0.87923339  0.69148933  0.80027488  1
  S2-  S192  1  -0.00888872  0.12288266  0.44891028  1
  S2-  S193  1  0.01622948  0.12047752  0.95724574  1
  S2-  S194  1  -0.00425149  0.37509794  0.45297362  1
  S2-  S195  1  0.01442981  0.36646018  0.96194194  1
  S2-  S196  1  -0.00444543  0.62249363  0.45515206  1
  S2-  S197  1  0.00815669  0.62366816  0.95257070  1
  S2-  S198  1  -0.00237486  0.87289569  0.45677403  1
  S2-  S199  1  0.01435788  0.86813471  0.96199143  1
  S2-  S200  1  0.24451169  0.12292456  0.45145986  1
  S2-  S201  1  0.27047492  0.11915644  0.94811747  1
  S2-  S202  1  0.24496918  0.37246808  0.44631690  1
  S2-  S203  1  0.26906268  0.36620996  0.95293403  1
  S2-  S204  1  0.24937726  0.62283869  0.45190503  1
  S2-  S205  1  0.26210390  0.61969299  0.94926511  1
  S2-  S206  1  0.24705057  0.86804223  0.45139770  1
  S2-  S207  1  0.26647230  0.86647183  0.95411156  1
  S2-  S208  1  0.49232374  0.12057836  0.44948764  1
  S2-  S209  1  0.51747876  0.11130111  0.96089148  1
  S2-  S210  1  0.49565266  0.37334206  0.45433563  1
  S2-  S211  1  0.51329392  0.36857624  0.96043941  1
  S2-  S212  1  0.50231805  0.62991598  0.46325542  1
  S2-  S213  1  0.51272127  0.61917095  0.96763550  1
  S2-  S214  1  0.49345485  0.87153462  0.45722355  1
  S2-  S215  1  0.51800223  0.86433691  0.95707900  1
  S2-  S216  1  0.75296543  0.11691846  0.44144842  1
  S2-  S217  1  0.76398994  0.11914855  0.94947699  1
  S2-  S218  1  0.74712787  0.37442879  0.46216127  1
  S2-  S219  1  0.76168055  0.36623916  0.95345535  1
  S2-  S220  1  0.74631534  0.62465630  0.44466321  1
  S2-  S221  1  0.77387095  0.62427470  0.95468839  1
  S2-  S222  1  0.75046520  0.87943960  0.45887915  1
  S2-  S223  1  0.77399374  0.86655655  0.96142671  1
  S2-  S224  1  0.14463467  -0.00580950  0.04828958  1
  S2-  S225  1  0.12251572  -0.00025634  0.54456322  1
  S2-  S226  1  0.14427419  0.24293956  0.04541760  1
  S2-  S227  1  0.12149636  0.24771998  0.54740693  1
  S2-  S228  1  0.14346486  0.49777654  0.03643517  1
  S2-  S229  1  0.12188982  0.50212375  0.54750666  1
  S2-  S230  1  0.13738627  0.74307722  0.04778160  1
  S2-  S231  1  0.12511017  0.74496376  0.55472376  1
  S2-  S232  1  0.39204179  -0.00930752  0.04653021  1
  S2-  S233  1  0.36862397  -0.00213342  0.54156454  1
  S2-  S234  1  0.39269364  0.24678365  0.05138762  1
  S2-  S235  1  0.36989285  0.24708127  0.53964127  1
  S2-  S236  1  0.38922612  0.49549452  0.04689121  1
  S2-  S237  1  0.37286324  0.49543381  0.53324802  1
  S2-  S238  1  0.39115614  0.74987047  0.05245483  1
  S2-  S239  1  0.36951240  0.75297822  0.54939300  1
  S2-  S240  1  0.64258091  -0.00706086  0.04940252  1
  S2-  S241  1  0.62237383  -0.00129416  0.54613029  1
  S2-  S242  1  0.63965044  0.24074353  0.04310085  1
  S2-  S243  1  0.61655539  0.24935547  0.53507407  1
  S2-  S244  1  0.64181154  0.49089981  0.04037707  1
  S2-  S245  1  0.62710884  0.49492776  0.55348196  1
  S2-  S246  1  0.64233645  0.74848669  0.04737165  1
  S2-  S247  1  0.62211167  0.74988948  0.55042087  1
  S2-  S248  1  0.89054301  0.00067627  0.04419878  1
  S2-  S249  1  0.87407947  0.00114555  0.55245172  1
  S2-  S250  1  0.88525513  0.24330116  0.04306104  1
  S2-  S251  1  0.87719426  0.24949462  0.53895901  1
  S2-  S252  1  0.88690218  0.49359828  0.04097763  1
  S2-  S253  1  0.86759102  0.50256304  0.55628000  1
  S2-  S254  1  0.89415570  0.73726694  0.05790598  1
  S2-  S255  1  0.87061246  0.74442151  0.54997905  1
