# generated using pymatgen
data_La12Ce14Pr13Nd13Sm12(BiS2)64
_symmetry_space_group_name_H-M   'P 1'
_cell_length_a   16.06089154
_cell_length_b   16.12278807
_cell_length_c   27.26529448
_cell_angle_alpha   89.62265964
_cell_angle_beta   89.83061362
_cell_angle_gamma   89.95203480
_symmetry_Int_Tables_number   1
_chemical_formula_structural   La12Ce14Pr13Nd13Sm12(BiS2)64
_chemical_formula_sum   'La12 Ce14 Pr13 Nd13 Sm12 Bi64 S128'
_cell_volume   7060.06217346
_cell_formula_units_Z   1
loop_
 _symmetry_equiv_pos_site_id
 _symmetry_equiv_pos_as_xyz
  1  'x, y, z'
loop_
 _atom_type_symbol
 _atom_type_oxidation_number
  La3+  3.0
  Ce3+  3.0
  Pr3+  3.0
  Nd3+  3.0
  Sm3+  3.0
  Bi2+  2.0
  S2-  -2.0
loop_
 _atom_site_type_symbol
 _atom_site_label
 _atom_site_symmetry_multiplicity
 _atom_site_fract_x
 _atom_site_fract_y
 _atom_site_fract_z
 _atom_site_occupancy
  La3+  La0  1  0.38108086  0.76030083  0.42797313  1
  La3+  La1  1  0.25462444  0.64273735  0.08658320  1
  La3+  La2  1  -0.01994632  0.36535284  0.11726087  1
  La3+  La3  1  0.38038569  0.50934605  0.42932044  1
  La3+  La4  1  0.74501031  0.39045888  0.06453297  1
  La3+  La5  1  0.01111536  0.61405877  0.60822836  1
  La3+  La6  1  0.87977317  0.51305627  0.91618405  1
  La3+  La7  1  0.37677786  0.01309651  0.43434037  1
  La3+  La8  1  0.24686985  0.37891692  0.09143673  1
  La3+  La9  1  0.74733225  0.13336321  0.59392097  1
  La3+  La10  1  0.49985396  0.13033696  0.06837798  1
  La3+  La11  1  -0.00814196  0.62971475  0.07390590  1
  Ce3+  Ce12  1  0.13112786  0.51285851  0.42919133  1
  Ce3+  Ce13  1  0.62180643  0.01033236  0.93888312  1
  Ce3+  Ce14  1  0.25662174  0.13884971  0.57293661  1
  Ce3+  Ce15  1  0.74419978  0.88060251  0.05695804  1
  Ce3+  Ce16  1  0.51070474  0.63478743  0.55776937  1
  Ce3+  Ce17  1  0.25430004  0.87428193  0.56378360  1
  Ce3+  Ce18  1  0.87229769  0.26025006  0.94531184  1
  Ce3+  Ce19  1  0.75238192  0.88054218  0.55721117  1
  Ce3+  Ce20  1  0.49894649  0.13440314  0.56291912  1
  Ce3+  Ce21  1  0.12725055  0.00981761  0.44873511  1
  Ce3+  Ce22  1  0.00432166  0.87575971  0.56347505  1
  Ce3+  Ce23  1  0.00395396  0.13181792  0.56501123  1
  Ce3+  Ce24  1  0.62297720  0.25840641  0.94147031  1
  Ce3+  Ce25  1  -0.00616381  0.87622309  0.06584268  1
  Pr3+  Pr26  1  0.61958706  0.50568909  0.92601532  1
  Pr3+  Pr27  1  0.86787390  0.75673862  0.93101011  1
  Pr3+  Pr28  1  0.74457328  0.62982875  0.05533205  1
  Pr3+  Pr29  1  -0.00049294  0.37264090  0.56149448  1
  Pr3+  Pr30  1  0.63044176  0.51004137  0.42124532  1
  Pr3+  Pr31  1  0.24930283  0.39167071  0.56394692  1
  Pr3+  Pr32  1  0.61716188  0.75844741  0.92654610  1
  Pr3+  Pr33  1  0.49038106  0.38380745  0.05882288  1
  Pr3+  Pr34  1  0.62920158  0.75954116  0.42706587  1
  Pr3+  Pr35  1  0.25232142  0.63639183  0.56075216  1
  Pr3+  Pr36  1  0.37863026  0.26008411  0.43795593  1
  Pr3+  Pr37  1  0.63544809  0.25715302  0.43720724  1
  Pr3+  Pr38  1  0.87557260  0.00941311  0.93803320  1
  Nd3+  Nd39  1  0.12118017  0.00913298  0.94268514  1
  Nd3+  Nd40  1  0.36899293  0.00845330  0.94139521  1
  Nd3+  Nd41  1  0.24598571  0.88275509  0.05541418  1
  Nd3+  Nd42  1  0.24711512  0.13108587  0.07626537  1
  Nd3+  Nd43  1  0.63494244  0.01245836  0.43725891  1
  Nd3+  Nd44  1  0.35849520  0.50385178  0.93743671  1
  Nd3+  Nd45  1  -0.00535267  0.13032292  0.06659567  1
  Nd3+  Nd46  1  0.75329785  0.38497079  0.55178841  1
  Nd3+  Nd47  1  0.12111664  0.50454455  0.96485143  1
  Nd3+  Nd48  1  0.12934133  0.26131372  0.43676311  1
  Nd3+  Nd49  1  0.36748037  0.25580457  0.94308458  1
  Nd3+  Nd50  1  0.49311487  0.87842128  0.05679037  1
  Nd3+  Nd51  1  0.36390164  0.75373179  0.92334889  1
  Sm3+  Sm52  1  0.74517253  0.13200642  0.06489148  1
  Sm3+  Sm53  1  0.11942909  0.75272397  0.94573187  1
  Sm3+  Sm54  1  0.88371668  0.51257809  0.43948233  1
  Sm3+  Sm55  1  0.88066504  0.00913589  0.44902341  1
  Sm3+  Sm56  1  0.75515189  0.62932084  0.56213304  1
  Sm3+  Sm57  1  0.11963869  0.26116682  0.95347566  1
  Sm3+  Sm58  1  0.50686631  0.38501482  0.55185842  1
  Sm3+  Sm59  1  0.88149735  0.75652195  0.44564187  1
  Sm3+  Sm60  1  0.13277079  0.76109193  0.42805640  1
  Sm3+  Sm61  1  0.87877570  0.25751209  0.44148101  1
  Sm3+  Sm62  1  0.50685212  0.88669578  0.54901846  1
  Sm3+  Sm63  1  0.49052815  0.63185479  0.05000989  1
  Bi2+  Bi64  1  -0.00482731  0.06836630  0.29167335  1
  Bi2+  Bi65  1  -0.01072002  0.09068231  0.78896956  1
  Bi2+  Bi66  1  -0.04010233  0.35795666  0.32054662  1
  Bi2+  Bi67  1  -0.00391232  0.29430478  0.79816123  1
  Bi2+  Bi68  1  -0.06370537  0.64042031  0.29712951  1
  Bi2+  Bi69  1  0.07396109  0.61848232  0.81293728  1
  Bi2+  Bi70  1  -0.09744075  0.89601230  0.26991587  1
  Bi2+  Bi71  1  0.00881005  0.83128331  0.74052175  1
  Bi2+  Bi72  1  0.30266551  0.13478024  0.29919858  1
  Bi2+  Bi73  1  0.21302363  0.00219017  0.80909557  1
  Bi2+  Bi74  1  0.21500730  0.37842672  0.30218538  1
  Bi2+  Bi75  1  0.22009153  0.38350869  0.80543138  1
  Bi2+  Bi76  1  0.22830132  0.65895714  0.28934461  1
  Bi2+  Bi77  1  0.30871363  0.63366113  0.76827920  1
  Bi2+  Bi78  1  0.21822951  0.91153867  0.28817919  1
  Bi2+  Bi79  1  0.38314121  0.87405688  0.80560777  1
  Bi2+  Bi80  1  0.54881670  0.15643458  0.26572117  1
  Bi2+  Bi81  1  0.47130814  0.12089276  0.77060583  1
  Bi2+  Bi82  1  0.52728543  0.38975701  0.27109678  1
  Bi2+  Bi83  1  0.45429728  0.39128649  0.79804613  1
  Bi2+  Bi84  1  0.47286943  0.63837658  0.28521733  1
  Bi2+  Bi85  1  0.56893792  0.55231045  0.79280023  1
  Bi2+  Bi86  1  0.55657440  0.88259614  0.27465726  1
  Bi2+  Bi87  1  0.61403868  0.85767170  0.79381660  1
  Bi2+  Bi88  1  0.72864159  0.07878239  0.28690517  1
  Bi2+  Bi89  1  0.73447039  0.12618716  0.80472901  1
  Bi2+  Bi90  1  0.71264085  0.33094910  0.28973087  1
  Bi2+  Bi91  1  0.67617145  0.37133939  0.79109461  1
  Bi2+  Bi92  1  0.67556331  0.60708131  0.29924539  1
  Bi2+  Bi93  1  0.74658532  0.64845595  0.78706937  1
  Bi2+  Bi94  1  0.72006843  0.79983832  0.30856811  1
  Bi2+  Bi95  1  0.84292018  0.93557582  0.74142820  1
  Bi2+  Bi96  1  0.21185956  -0.03020756  0.17724135  1
  Bi2+  Bi97  1  0.20835041  -0.00996170  0.68046113  1
  Bi2+  Bi98  1  0.14441316  0.13412945  0.22610854  1
  Bi2+  Bi99  1  0.15998390  0.15196539  0.73864476  1
  Bi2+  Bi100  1  0.07027252  0.52539469  0.22948976  1
  Bi2+  Bi101  1  0.15223167  0.43123166  0.70574714  1
  Bi2+  Bi102  1  0.07262948  0.82533222  0.22241160  1
  Bi2+  Bi103  1  0.21164078  0.81237469  0.76055465  1
  Bi2+  Bi104  1  0.41426653  0.00846739  0.22176041  1
  Bi2+  Bi105  1  0.39852450  -0.02832768  0.70649863  1
  Bi2+  Bi106  1  0.36831241  0.25061155  0.21230799  1
  Bi2+  Bi107  1  0.33890507  0.23505553  0.71583708  1
  Bi2+  Bi108  1  0.32879837  0.51737505  0.20427128  1
  Bi2+  Bi109  1  0.40340177  0.50142285  0.70529219  1
  Bi2+  Bi110  1  0.40748263  0.77556768  0.20116885  1
  Bi2+  Bi111  1  0.41144675  0.69373573  0.67827984  1
  Bi2+  Bi112  1  0.71996529  -0.01354851  0.18654962  1
  Bi2+  Bi113  1  0.61514672  -0.00633889  0.70492055  1
  Bi2+  Bi114  1  0.63063122  0.28443712  0.18984575  1
  Bi2+  Bi115  1  0.56722496  0.26627511  0.71751159  1
  Bi2+  Bi116  1  0.58780690  0.53307292  0.19959713  1
  Bi2+  Bi117  1  0.65979302  0.47344664  0.69380587  1
  Bi2+  Bi118  1  0.60655113  0.73209326  0.20011274  1
  Bi2+  Bi119  1  0.59578128  0.71396730  0.71766771  1
  Bi2+  Bi120  1  0.99733791  -0.00973067  0.17587092  1
  Bi2+  Bi121  1  1.01109826  0.00770301  0.68243860  1
  Bi2+  Bi122  1  0.85242696  0.12434471  0.19637496  1
  Bi2+  Bi123  1  0.87408924  0.26770728  0.70985511  1
  Bi2+  Bi124  1  0.82414721  0.46330518  0.21604232  1
  Bi2+  Bi125  1  0.91445466  0.51066335  0.73095727  1
  Bi2+  Bi126  1  0.80519881  0.70034118  0.22026140  1
  Bi2+  Bi127  1  0.83390979  0.75270288  0.70417161  1
  S2-  S128  1  -0.00213165  0.19991591  0.15852361  1
  S2-  S129  1  -0.00886368  0.23435987  0.64118093  1
  S2-  S130  1  -0.02264936  0.37364243  0.22600956  1
  S2-  S131  1  0.00378524  0.44756946  0.65178528  1
  S2-  S132  1  -0.04607019  0.52938891  0.15547332  1
  S2-  S133  1  0.05940752  0.59959734  0.71526672  1
  S2-  S134  1  -0.00671630  0.76521182  0.14332096  1
  S2-  S135  1  0.02147930  0.78002634  0.64413881  1
  S2-  S136  1  0.22486363  0.23444169  0.15694125  1
  S2-  S137  1  0.38351605  0.13008232  0.63920981  1
  S2-  S138  1  0.19487027  0.42344812  0.19327749  1
  S2-  S139  1  0.22832492  0.28828792  0.64704616  1
  S2-  S140  1  0.19103023  0.62495943  0.18535593  1
  S2-  S141  1  0.23110500  0.51787754  0.63842888  1
  S2-  S142  1  0.27903659  0.80391915  0.14267479  1
  S2-  S143  1  0.26443929  0.75824630  0.63744431  1
  S2-  S144  1  0.38993903  0.12702525  0.14811583  1
  S2-  S145  1  0.59744664  0.13798641  0.64625924  1
  S2-  S146  1  0.40299295  0.38738514  0.14799373  1
  S2-  S147  1  0.51169525  0.39188003  0.65121175  1
  S2-  S148  1  0.41260285  0.63379568  0.14026875  1
  S2-  S149  1  0.62746129  0.61620143  0.63158163  1
  S2-  S150  1  0.50072350  0.91930250  0.15347812  1
  S2-  S151  1  0.51654776  0.89142697  0.64813131  1
  S2-  S152  1  0.63139593  0.13040278  0.14173210  1
  S2-  S153  1  0.79405358  0.13220739  0.69431313  1
  S2-  S154  1  0.80755926  0.33769344  0.15532556  1
  S2-  S155  1  0.75705520  0.35654901  0.64995888  1
  S2-  S156  1  0.72258406  0.52801433  0.13841954  1
  S2-  S157  1  0.84732671  0.61182683  0.64943615  1
  S2-  S158  1  0.76074802  0.83091664  0.15054200  1
  S2-  S159  1  0.74611329  0.90943422  0.65410032  1
  S2-  S160  1  0.11325010  -0.01074290  0.35190195  1
  S2-  S161  1  0.05324417  -0.02185390  0.85305732  1
  S2-  S162  1  0.10616874  0.25962035  0.33745799  1
  S2-  S163  1  0.13140133  0.25166735  0.85405486  1
  S2-  S164  1  0.08073345  0.47880834  0.33460705  1
  S2-  S165  1  0.16442419  0.49838365  0.86577087  1
  S2-  S166  1  0.08988250  0.70040079  0.33334298  1
  S2-  S167  1  0.18488416  0.73910496  0.85360201  1
  S2-  S168  1  0.36069617  -0.01515357  0.33513776  1
  S2-  S169  1  0.37521734  0.05610410  0.84537112  1
  S2-  S170  1  0.34065175  0.29608958  0.34118132  1
  S2-  S171  1  0.35215745  0.28277771  0.84435353  1
  S2-  S172  1  0.26798534  0.52155144  0.35079379  1
  S2-  S173  1  0.37822208  0.54809384  0.84206498  1
  S2-  S174  1  0.26481239  0.77893891  0.35266661  1
  S2-  S175  1  0.49014979  0.76287178  0.85155012  1
  S2-  S176  1  0.59257976  0.01715792  0.33994408  1
  S2-  S177  1  0.61843375  0.01000822  0.84063587  1
  S2-  S178  1  0.57057032  0.26164768  0.34424677  1
  S2-  S179  1  0.61114109  0.23187424  0.84573049  1
  S2-  S180  1  0.49957945  0.50122576  0.35110181  1
  S2-  S181  1  0.73945778  0.50147228  0.85067188  1
  S2-  S182  1  0.50371957  0.76516343  0.34997683  1
  S2-  S183  1  0.74218859  0.77676062  0.85323890  1
  S2-  S184  1  0.86078319  0.01054136  0.35084651  1
  S2-  S185  1  0.83346611  0.00833549  0.83953504  1
  S2-  S186  1  0.83687887  0.24920388  0.34524546  1
  S2-  S187  1  0.84687835  0.23404286  0.84884903  1
  S2-  S188  1  0.85990964  0.50170580  0.34082154  1
  S2-  S189  1  0.94604306  0.45586950  0.81892792  1
  S2-  S190  1  0.88934798  0.77924171  0.34770748  1
  S2-  S191  1  0.93331009  0.65833256  0.85498025  1
  S2-  S192  1  0.00171842  0.13547984  0.45523096  1
  S2-  S193  1  -0.00248011  0.13407061  0.95774849  1
  S2-  S194  1  0.00046165  0.38263807  0.45299352  1
  S2-  S195  1  -0.00243515  0.38296520  0.94871931  1
  S2-  S196  1  0.00322774  0.63610593  0.44301426  1
  S2-  S197  1  0.00121673  0.63165637  0.96389307  1
  S2-  S198  1  0.00234897  0.88285688  0.45536872  1
  S2-  S199  1  -0.00432023  0.87767207  0.95779624  1
  S2-  S200  1  0.25170111  0.13663200  0.45641074  1
  S2-  S201  1  0.24303292  0.13321591  0.96181339  1
  S2-  S202  1  0.25210120  0.38456937  0.45577455  1
  S2-  S203  1  0.24545274  0.37763105  0.96709347  1
  S2-  S204  1  0.25294799  0.63755120  0.45308873  1
  S2-  S205  1  0.24637130  0.63339623  0.96161196  1
  S2-  S206  1  0.25207455  0.88668983  0.45666457  1
  S2-  S207  1  0.24449222  0.88156329  0.94921171  1
  S2-  S208  1  0.50527940  0.13473574  0.45290267  1
  S2-  S209  1  0.49426374  0.13336811  0.95607206  1
  S2-  S210  1  0.50801272  0.38090699  0.44915740  1
  S2-  S211  1  0.49210688  0.38246137  0.95012090  1
  S2-  S212  1  0.50985888  0.63375359  0.45137259  1
  S2-  S213  1  0.49132916  0.62785324  0.94757964  1
  S2-  S214  1  0.50767850  0.89070838  0.44616470  1
  S2-  S215  1  0.49406968  0.88619214  0.95074147  1
  S2-  S216  1  0.75838877  0.13253849  0.45261711  1
  S2-  S217  1  0.74673967  0.13197651  0.95973947  1
  S2-  S218  1  0.75710266  0.38681819  0.44615539  1
  S2-  S219  1  0.74660356  0.38267732  0.95362463  1
  S2-  S220  1  0.75580777  0.63354742  0.44975274  1
  S2-  S221  1  0.74255809  0.63147232  0.95028248  1
  S2-  S222  1  0.75637100  0.88408319  0.45090428  1
  S2-  S223  1  0.74530461  0.88688325  0.95303128  1
  S2-  S224  1  0.11988563  0.00672612  0.04838034  1
  S2-  S225  1  0.13041185  0.00678608  0.55281096  1
  S2-  S226  1  0.11161834  0.26366999  0.05633623  1
  S2-  S227  1  0.12861572  0.25501416  0.54178782  1
  S2-  S228  1  0.12590995  0.50742087  0.06830038  1
  S2-  S229  1  0.11713522  0.51168467  0.53950477  1
  S2-  S230  1  0.12504705  0.75599605  0.04832863  1
  S2-  S231  1  0.12803702  0.75719722  0.53566856  1
  S2-  S232  1  0.36979873  0.00603270  0.04674092  1
  S2-  S233  1  0.37691500  0.00323780  0.54274129  1
  S2-  S234  1  0.36866758  0.25486522  0.04786719  1
  S2-  S235  1  0.38011016  0.26672740  0.54381867  1
  S2-  S236  1  0.36638877  0.50871991  0.04464434  1
  S2-  S237  1  0.38503642  0.51052672  0.54156265  1
  S2-  S238  1  0.37240830  0.75826852  0.03185995  1
  S2-  S239  1  0.38804812  0.75938570  0.53625303  1
  S2-  S240  1  0.62099036  0.00326671  0.04373460  1
  S2-  S241  1  0.63172176  0.01168686  0.54381764  1
  S2-  S242  1  0.62080680  0.26191980  0.04560342  1
  S2-  S243  1  0.63061320  0.25898537  0.54443829  1
  S2-  S244  1  0.61133500  0.50900447  0.03448602  1
  S2-  S245  1  0.63060785  0.50557919  0.53013998  1
  S2-  S246  1  0.61614746  0.75347248  0.04095471  1
  S2-  S247  1  0.63016529  0.76115030  0.53630623  1
  S2-  S248  1  0.86800076  0.00690560  0.04852295  1
  S2-  S249  1  0.87547592  0.00940718  0.55441781  1
  S2-  S250  1  0.87013045  0.25398926  0.05078033  1
  S2-  S251  1  0.86708455  0.25017542  0.54495222  1
  S2-  S252  1  0.87132795  0.50653408  0.03983858  1
  S2-  S253  1  0.87992269  0.50830162  0.54340552  1
  S2-  S254  1  0.86623067  0.75612406  0.03968061  1
  S2-  S255  1  0.87552797  0.75393800  0.54790262  1
