# generated using pymatgen
data_La12Ce14Pr13Nd13Sm12(BiS2)64
_symmetry_space_group_name_H-M   'P 1'
_cell_length_a   16.16292066
_cell_length_b   16.15156397
_cell_length_c   27.22834164
_cell_angle_alpha   89.93293059
_cell_angle_beta   90.13278988
_cell_angle_gamma   90.00008387
_symmetry_Int_Tables_number   1
_chemical_formula_structural   La12Ce14Pr13Nd13Sm12(BiS2)64
_chemical_formula_sum   'La12 Ce14 Pr13 Nd13 Sm12 Bi64 S128'
_cell_volume   7108.11016679
_cell_formula_units_Z   1
loop_
 _symmetry_equiv_pos_site_id
 _symmetry_equiv_pos_as_xyz
  1  'x, y, z'
loop_
 _atom_type_symbol
 _atom_type_oxidation_number
  La3+  3.0
  Ce3+  3.0
  Pr3+  3.0
  Nd3+  3.0
  Sm3+  3.0
  Bi2+  2.0
  S2-  -2.0
loop_
 _atom_site_type_symbol
 _atom_site_label
 _atom_site_symmetry_multiplicity
 _atom_site_fract_x
 _atom_site_fract_y
 _atom_site_fract_z
 _atom_site_occupancy
  La3+  La0  1  0.00818253  0.13034978  0.07589969  1
  La3+  La1  1  0.36789673  0.00315942  0.89039119  1
  La3+  La2  1  0.01447126  0.88234751  0.07408914  1
  La3+  La3  1  0.75101272  0.88020939  0.57572907  1
  La3+  La4  1  0.74563264  0.13363323  0.61131582  1
  La3+  La5  1  0.11160560  0.00632269  0.41809377  1
  La3+  La6  1  0.00057333  0.13981453  0.57537537  1
  La3+  La7  1  0.62223961  0.01071737  0.44407062  1
  La3+  La8  1  0.00396580  0.63297885  0.06788349  1
  La3+  La9  1  0.24764855  0.39103020  0.06929593  1
  La3+  La10  1  0.62359734  0.76617281  0.42947233  1
  La3+  La11  1  0.50676971  0.63185795  0.08682564  1
  Ce3+  Ce12  1  0.75168627  0.64915154  0.07182593  1
  Ce3+  Ce13  1  0.87450226  0.75944694  0.44633360  1
  Ce3+  Ce14  1  0.88078196  0.25890734  0.94607803  1
  Ce3+  Ce15  1  0.87923122  0.01191230  0.93643016  1
  Ce3+  Ce16  1  0.25640088  0.63163160  0.04977941  1
  Ce3+  Ce17  1  0.75002787  0.38605287  0.05520983  1
  Ce3+  Ce18  1  0.24977415  0.13391437  0.05594674  1
  Ce3+  Ce19  1  0.50251221  0.13150075  0.56955754  1
  Ce3+  Ce20  1  -0.00182744  0.37909895  0.56186220  1
  Ce3+  Ce21  1  0.74729861  0.38003657  0.56025912  1
  Ce3+  Ce22  1  0.37423523  0.50824985  0.44003444  1
  Ce3+  Ce23  1  0.00013319  0.88532663  0.56723772  1
  Ce3+  Ce24  1  0.62859535  0.01098127  0.92536049  1
  Ce3+  Ce25  1  0.87224303  0.50808855  0.44583087  1
  Pr3+  Pr26  1  0.62568563  0.25852619  0.93642172  1
  Pr3+  Pr27  1  0.24579880  0.88499554  0.56330069  1
  Pr3+  Pr28  1  0.75243380  0.13479613  0.06049078  1
  Pr3+  Pr29  1  0.37918136  0.75746640  0.93522277  1
  Pr3+  Pr30  1  0.24681130  0.63049305  0.55690295  1
  Pr3+  Pr31  1  0.49921184  0.87867461  0.57237186  1
  Pr3+  Pr32  1  0.49925130  0.63409670  0.56445286  1
  Pr3+  Pr33  1  0.37905989  0.50399785  0.93475040  1
  Pr3+  Pr34  1  0.12733995  0.76065422  0.93775701  1
  Pr3+  Pr35  1  0.25009112  0.38152782  0.55787329  1
  Pr3+  Pr36  1  0.36967069  0.00827876  0.44828309  1
  Pr3+  Pr37  1  0.74827512  0.63414414  0.56730511  1
  Pr3+  Pr38  1  0.37370993  0.25898933  0.93389364  1
  Nd3+  Nd39  1  0.12036131  0.75553613  0.43210920  1
  Nd3+  Nd40  1  0.24671377  0.13431344  0.55782032  1
  Nd3+  Nd41  1  0.49514910  0.38024449  0.07295216  1
  Nd3+  Nd42  1  0.37175507  0.25700701  0.43866405  1
  Nd3+  Nd43  1  0.12125860  0.50609559  0.42996734  1
  Nd3+  Nd44  1  0.62682504  0.51120642  0.94516411  1
  Nd3+  Nd45  1  0.12443042  0.01644271  0.92776991  1
  Nd3+  Nd46  1  0.00060224  0.63096353  0.56131827  1
  Nd3+  Nd47  1  0.50163761  0.88823662  0.04934531  1
  Nd3+  Nd48  1  0.62451705  0.25801157  0.43843684  1
  Nd3+  Nd49  1  0.87455297  0.51324369  0.94334294  1
  Nd3+  Nd50  1  0.12137432  0.50525554  0.92940919  1
  Nd3+  Nd51  1  0.62868113  0.76124766  0.93935720  1
  Sm3+  Sm52  1  0.37263272  0.75986227  0.44412170  1
  Sm3+  Sm53  1  0.00369468  0.39130319  0.06969208  1
  Sm3+  Sm54  1  0.62267221  0.50963301  0.44733952  1
  Sm3+  Sm55  1  0.11128054  0.25722379  0.41805252  1
  Sm3+  Sm56  1  0.87601845  0.01125733  0.45450016  1
  Sm3+  Sm57  1  0.87419051  0.25641792  0.44479858  1
  Sm3+  Sm58  1  0.50069828  0.37934082  0.55460400  1
  Sm3+  Sm59  1  0.75081021  0.89394420  0.06004539  1
  Sm3+  Sm60  1  0.25554566  0.88489931  0.05136142  1
  Sm3+  Sm61  1  0.12541137  0.26085240  0.94008042  1
  Sm3+  Sm62  1  0.49877445  0.13240871  0.04499925  1
  Sm3+  Sm63  1  0.87820198  0.76208885  0.94474735  1
  Bi2+  Bi64  1  -0.00003136  0.12534413  0.29608031  1
  Bi2+  Bi65  1  0.00210082  0.15310353  0.78677012  1
  Bi2+  Bi66  1  -0.01260145  0.39078967  0.29207664  1
  Bi2+  Bi67  1  0.00716580  0.38869688  0.78800572  1
  Bi2+  Bi68  1  -0.03364822  0.63326024  0.29624851  1
  Bi2+  Bi69  1  0.03680400  0.63817522  0.79984939  1
  Bi2+  Bi70  1  -0.00596019  0.87124100  0.30076774  1
  Bi2+  Bi71  1  0.03564208  0.85822126  0.74776843  1
  Bi2+  Bi72  1  0.25281153  0.16001020  0.23165290  1
  Bi2+  Bi73  1  0.22052032  0.12036465  0.78073072  1
  Bi2+  Bi74  1  0.26271562  0.37798595  0.28942673  1
  Bi2+  Bi75  1  0.26229710  0.36662104  0.79137708  1
  Bi2+  Bi76  1  0.21284344  0.62124681  0.27417856  1
  Bi2+  Bi77  1  0.21460154  0.55955095  0.80945256  1
  Bi2+  Bi78  1  0.26136822  0.95100016  0.28250214  1
  Bi2+  Bi79  1  0.23373297  0.83646261  0.78095311  1
  Bi2+  Bi80  1  0.51745274  0.06861682  0.29499725  1
  Bi2+  Bi81  1  0.47747623  0.19177055  0.78346418  1
  Bi2+  Bi82  1  0.47184921  0.33145927  0.30594875  1
  Bi2+  Bi83  1  0.51593127  0.44933844  0.79899888  1
  Bi2+  Bi84  1  0.49309346  0.60043924  0.31152569  1
  Bi2+  Bi85  1  0.40364326  0.61189788  0.81979227  1
  Bi2+  Bi86  1  0.50714689  0.85085724  0.31050668  1
  Bi2+  Bi87  1  0.49783802  0.84684589  0.77912230  1
  Bi2+  Bi88  1  0.77805995  0.16899820  0.27823176  1
  Bi2+  Bi89  1  0.77936241  0.13709752  0.81216771  1
  Bi2+  Bi90  1  0.73215855  0.35502614  0.29504363  1
  Bi2+  Bi91  1  0.72641062  0.40617566  0.78161389  1
  Bi2+  Bi92  1  0.76852038  0.58668567  0.22620256  1
  Bi2+  Bi93  1  0.79986701  0.59230673  0.79813889  1
  Bi2+  Bi94  1  0.73382856  0.86306242  0.23831586  1
  Bi2+  Bi95  1  0.74807122  0.83720674  0.79345345  1
  Bi2+  Bi96  1  0.12090401  0.00255994  0.20905805  1
  Bi2+  Bi97  1  0.14820140  -0.01839347  0.68853099  1
  Bi2+  Bi98  1  0.08181340  0.26461078  0.22147529  1
  Bi2+  Bi99  1  0.12570327  0.27443753  0.72026146  1
  Bi2+  Bi100  1  0.10803131  0.50376173  0.20577794  1
  Bi2+  Bi101  1  0.08704178  0.51773524  0.71288541  1
  Bi2+  Bi102  1  0.13861427  0.77072967  0.21451642  1
  Bi2+  Bi103  1  0.14517952  0.71118696  0.70280690  1
  Bi2+  Bi104  1  0.39339444  0.03202938  0.20872588  1
  Bi2+  Bi105  1  0.36811663  0.00878570  0.70751053  1
  Bi2+  Bi106  1  0.43456169  0.24764228  0.20601058  1
  Bi2+  Bi107  1  0.37508073  0.29038964  0.70736995  1
  Bi2+  Bi108  1  0.36500446  0.51707887  0.19716069  1
  Bi2+  Bi109  1  0.37441599  0.50843666  0.71685796  1
  Bi2+  Bi110  1  0.32876197  0.77410486  0.24534216  1
  Bi2+  Bi111  1  0.39484102  0.70751039  0.71893904  1
  Bi2+  Bi112  1  0.60889879  0.00574933  0.20156086  1
  Bi2+  Bi113  1  0.61978178  0.01890776  0.72781815  1
  Bi2+  Bi114  1  0.63891445  0.25255029  0.21134845  1
  Bi2+  Bi115  1  0.61602004  0.28028684  0.71987967  1
  Bi2+  Bi116  1  0.58948901  0.46145271  0.24547538  1
  Bi2+  Bi117  1  0.58285127  0.52572653  0.69769747  1
  Bi2+  Bi118  1  0.57417661  0.75728269  0.20614743  1
  Bi2+  Bi119  1  0.61537061  0.71367390  0.72277159  1
  Bi2+  Bi120  1  0.85485301  0.01642931  0.21802541  1
  Bi2+  Bi121  1  0.88018541  -0.00896132  0.71892687  1
  Bi2+  Bi122  1  0.90240062  0.20638467  0.18913050  1
  Bi2+  Bi123  1  0.87624288  0.35897107  0.70544427  1
  Bi2+  Bi124  1  0.85412224  0.41771141  0.20503109  1
  Bi2+  Bi125  1  0.77975409  0.52377117  0.68332680  1
  Bi2+  Bi126  1  0.88229018  0.74376585  0.21351851  1
  Bi2+  Bi127  1  0.85499238  0.71071658  0.71241975  1
  S2-  S128  1  -0.01531338  -0.00204778  0.14793246  1
  S2-  S129  1  0.01375853  0.06877560  0.67005125  1
  S2-  S130  1  0.12412289  0.36747537  0.14328412  1
  S2-  S131  1  -0.00121665  0.28381569  0.64381644  1
  S2-  S132  1  -0.01815503  0.51334100  0.14503483  1
  S2-  S133  1  -0.01209515  0.62913954  0.66075596  1
  S2-  S134  1  0.01333705  0.74883595  0.14519844  1
  S2-  S135  1  -0.06282234  0.86014293  0.65745171  1
  S2-  S136  1  0.16028224  0.13038978  0.14020930  1
  S2-  S137  1  0.25789112  0.11584416  0.65727749  1
  S2-  S138  1  0.35697529  0.36530917  0.14699253  1
  S2-  S139  1  0.23568107  0.35877127  0.65729685  1
  S2-  S140  1  0.23095447  0.56984907  0.13901019  1
  S2-  S141  1  0.27301167  0.62121987  0.65583207  1
  S2-  S142  1  0.18791720  0.88345342  0.14149184  1
  S2-  S143  1  0.29431734  0.88190250  0.66115157  1
  S2-  S144  1  0.51247221  0.12689406  0.14336113  1
  S2-  S145  1  0.58712936  0.14246809  0.65742112  1
  S2-  S146  1  0.50602409  0.48754324  0.15232196  1
  S2-  S147  1  0.50478592  0.36230912  0.65210233  1
  S2-  S148  1  0.42564333  0.68100085  0.17442064  1
  S2-  S149  1  0.50567849  0.74446165  0.64206339  1
  S2-  S150  1  0.52074858  0.88004724  0.14924825  1
  S2-  S151  1  0.50568702  0.95817035  0.66507248  1
  S2-  S152  1  0.74075452  0.01779338  0.13481620  1
  S2-  S153  1  0.81327095  0.13752407  0.71276491  1
  S2-  S154  1  0.71318548  0.36208474  0.14910355  1
  S2-  S155  1  0.73812754  0.30161137  0.64709110  1
  S2-  S156  1  0.65363511  0.62618465  0.15312064  1
  S2-  S157  1  0.73333539  0.74728368  0.64617168  1
  S2-  S158  1  0.76348695  0.79438668  0.14051424  1
  S2-  S159  1  0.73323322  0.97305875  0.66374540  1
  S2-  S160  1  0.13152662  -0.13422242  0.35196086  1
  S2-  S161  1  0.21307727  -0.01800803  0.83947648  1
  S2-  S162  1  0.13651254  0.13198648  0.34920619  1
  S2-  S163  1  0.10904700  0.15453037  0.85892290  1
  S2-  S164  1  0.13425594  0.39110756  0.35267126  1
  S2-  S165  1  0.12866784  0.37439117  0.86239403  1
  S2-  S166  1  0.11274922  0.63151017  0.35656544  1
  S2-  S167  1  0.09305647  0.78474732  0.84049261  1
  S2-  S168  1  0.39048282  -0.01703850  0.34965184  1
  S2-  S169  1  0.47223626  0.01169439  0.80468295  1
  S2-  S170  1  0.33447133  0.24968058  0.34081275  1
  S2-  S171  1  0.34584397  0.16411294  0.84652638  1
  S2-  S172  1  0.35986841  0.49155768  0.34201708  1
  S2-  S173  1  0.39117327  0.38158742  0.85995438  1
  S2-  S174  1  0.38120888  0.73634610  0.34664525  1
  S2-  S175  1  0.36704338  0.83559433  0.84470809  1
  S2-  S176  1  0.63348313  -0.08689815  0.36151452  1
  S2-  S177  1  0.68475596  -0.00870091  0.83175637  1
  S2-  S178  1  0.56629698  0.20417761  0.34959119  1
  S2-  S179  1  0.62854987  0.20961961  0.83950131  1
  S2-  S180  1  0.61426654  0.49662992  0.35027987  1
  S2-  S181  1  0.65715760  0.52967114  0.84699474  1
  S2-  S182  1  0.60674700  0.71106442  0.33189069  1
  S2-  S183  1  0.61455374  0.76169734  0.83957366  1
  S2-  S184  1  0.94587146  -0.00290123  0.36300474  1
  S2-  S185  1  0.91279811  0.02522594  0.83798446  1
  S2-  S186  1  0.96111353  0.25719485  0.35951905  1
  S2-  S187  1  0.89318114  0.25195932  0.84772701  1
  S2-  S188  1  0.89469252  0.50929622  0.34841240  1
  S2-  S189  1  0.93531302  0.51391931  0.85020065  1
  S2-  S190  1  0.88093385  0.76077295  0.34802356  1
  S2-  S191  1  0.85226711  0.75388430  0.84644672  1
  S2-  S192  1  -0.00214710  0.13517800  0.46307066  1
  S2-  S193  1  -0.00014450  0.13514406  0.96241112  1
  S2-  S194  1  -0.00287065  0.38342127  0.45760169  1
  S2-  S195  1  -0.00300288  0.38714844  0.96195601  1
  S2-  S196  1  -0.00296285  0.63150163  0.45676523  1
  S2-  S197  1  0.00084090  0.63674114  0.95507593  1
  S2-  S198  1  -0.00152801  0.88118209  0.46227055  1
  S2-  S199  1  0.00268593  0.88523634  0.95124970  1
  S2-  S200  1  0.24545364  0.13426380  0.45271976  1
  S2-  S201  1  0.25012955  0.13313621  0.95289852  1
  S2-  S202  1  0.24938309  0.38234913  0.45232714  1
  S2-  S203  1  0.25035577  0.38545473  0.95965203  1
  S2-  S204  1  0.24973849  0.63320673  0.45097105  1
  S2-  S205  1  0.25090251  0.63159664  0.94460214  1
  S2-  S206  1  0.24677158  0.88092877  0.45591116  1
  S2-  S207  1  0.25368171  0.88565951  0.94882910  1
  S2-  S208  1  0.49507990  0.13340564  0.46068680  1
  S2-  S209  1  0.49840626  0.12964700  0.94111325  1
  S2-  S210  1  0.49969413  0.38199918  0.45022372  1
  S2-  S211  1  0.50737380  0.38367428  0.96171581  1
  S2-  S212  1  0.49793675  0.63386840  0.45630415  1
  S2-  S213  1  0.50453801  0.63477700  0.95011443  1
  S2-  S214  1  0.49318231  0.88238957  0.46312242  1
  S2-  S215  1  0.50126320  0.88879707  0.94288114  1
  S2-  S216  1  0.75304672  0.13299780  0.44053379  1
  S2-  S217  1  0.75342699  0.13470052  0.95303736  1
  S2-  S218  1  0.74718252  0.38269704  0.45221976  1
  S2-  S219  1  0.75214152  0.38423924  0.94783120  1
  S2-  S220  1  0.74605257  0.63267067  0.45572022  1
  S2-  S221  1  0.75267300  0.63934875  0.95885779  1
  S2-  S222  1  0.75528245  0.88689897  0.46338076  1
  S2-  S223  1  0.75368749  0.88591442  0.95237818  1
  S2-  S224  1  0.13083607  0.00602588  0.03604924  1
  S2-  S225  1  0.12302375  0.00995081  0.54837539  1
  S2-  S226  1  0.12362968  0.25988844  0.04225823  1
  S2-  S227  1  0.12606494  0.25914364  0.54221671  1
  S2-  S228  1  0.12363784  0.51123755  0.03564676  1
  S2-  S229  1  0.12234558  0.50464131  0.54620024  1
  S2-  S230  1  0.13495922  0.75606050  0.04198685  1
  S2-  S231  1  0.12278890  0.75701082  0.54762506  1
  S2-  S232  1  0.37526995  0.00952101  0.05051938  1
  S2-  S233  1  0.37354713  0.00884231  0.55383240  1
  S2-  S234  1  0.37638749  0.25519069  0.04191818  1
  S2-  S235  1  0.37623255  0.25668412  0.54705480  1
  S2-  S236  1  0.38332862  0.51175578  0.04183114  1
  S2-  S237  1  0.37769558  0.50584151  0.54864242  1
  S2-  S238  1  0.37951193  0.75992246  0.04390406  1
  S2-  S239  1  0.36900217  0.75685340  0.54787327  1
  S2-  S240  1  0.62386911  0.01248265  0.03347396  1
  S2-  S241  1  0.62619301  0.00933064  0.55175167  1
  S2-  S242  1  0.62287783  0.25671456  0.04444334  1
  S2-  S243  1  0.62282853  0.25539788  0.54348316  1
  S2-  S244  1  0.62795700  0.51022074  0.04858250  1
  S2-  S245  1  0.62219014  0.50634736  0.55177639  1
  S2-  S246  1  0.62284822  0.76339181  0.04425862  1
  S2-  S247  1  0.62423421  0.75721625  0.53917851  1
  S2-  S248  1  0.87974779  0.00958695  0.04187387  1
  S2-  S249  1  0.87111838  0.01557396  0.55812244  1
  S2-  S250  1  0.87916663  0.26233179  0.05319917  1
  S2-  S251  1  0.86560634  0.25282777  0.54751078  1
  S2-  S252  1  0.86830173  0.51368861  0.04806871  1
  S2-  S253  1  0.87370888  0.50629959  0.55229519  1
  S2-  S254  1  0.88142543  0.76658995  0.04566823  1
  S2-  S255  1  0.87778101  0.75457162  0.55038187  1
