# generated using pymatgen
data_La12Ce14Pr13Nd13Sm12(BiS2)64
_symmetry_space_group_name_H-M   'P 1'
_cell_length_a   16.23056854
_cell_length_b   16.21650973
_cell_length_c   27.09341023
_cell_angle_alpha   90.07055824
_cell_angle_beta   90.05042802
_cell_angle_gamma   89.92327377
_symmetry_Int_Tables_number   1
_chemical_formula_structural   La12Ce14Pr13Nd13Sm12(BiS2)64
_chemical_formula_sum   'La12 Ce14 Pr13 Nd13 Sm12 Bi64 S128'
_cell_volume   7131.05698118
_cell_formula_units_Z   1
loop_
 _symmetry_equiv_pos_site_id
 _symmetry_equiv_pos_as_xyz
  1  'x, y, z'
loop_
 _atom_type_symbol
 _atom_type_oxidation_number
  La3+  3.0
  Ce3+  3.0
  Pr3+  3.0
  Nd3+  3.0
  Sm3+  3.0
  Bi2+  2.0
  S2-  -2.0
loop_
 _atom_site_type_symbol
 _atom_site_label
 _atom_site_symmetry_multiplicity
 _atom_site_fract_x
 _atom_site_fract_y
 _atom_site_fract_z
 _atom_site_occupancy
  La3+  La0  1  0.64176186  0.25883946  0.41337205  1
  La3+  La1  1  0.86368029  0.49657317  0.91518484  1
  La3+  La2  1  0.12875309  0.51373623  0.91517373  1
  La3+  La3  1  0.00416872  0.36674310  0.58993937  1
  La3+  La4  1  0.50851228  0.87596083  0.08766774  1
  La3+  La5  1  0.50150969  0.37093540  0.55377606  1
  La3+  La6  1  0.49825922  0.13817027  0.08197663  1
  La3+  La7  1  0.23514375  0.61353346  0.08296543  1
  La3+  La8  1  0.24352730  0.87640691  0.08511947  1
  La3+  La9  1  0.73608751  0.64117489  0.60210711  1
  La3+  La10  1  0.75734649  0.38768377  0.07908265  1
  La3+  La11  1  0.36619292  -0.00531621  0.40892674  1
  Ce3+  Ce12  1  0.12532412  0.25312307  0.93540053  1
  Ce3+  Ce13  1  0.24502873  0.38183768  0.04784627  1
  Ce3+  Ce14  1  0.87252775  0.00145271  0.94434800  1
  Ce3+  Ce15  1  0.74679478  0.87641138  0.55661314  1
  Ce3+  Ce16  1  0.87285752  0.75477394  0.93515677  1
  Ce3+  Ce17  1  0.24947278  0.87529627  0.54635881  1
  Ce3+  Ce18  1  0.63008832  0.49731968  0.44532905  1
  Ce3+  Ce19  1  0.49997098  0.37815464  0.06223382  1
  Ce3+  Ce20  1  0.37383462  0.75437436  0.96156223  1
  Ce3+  Ce21  1  0.87158773  0.74548138  0.44570747  1
  Ce3+  Ce22  1  0.37468142  0.50843827  0.94652943  1
  Ce3+  Ce23  1  0.25038774  0.37289104  0.55378483  1
  Ce3+  Ce24  1  0.87574400  0.25353704  0.45349462  1
  Ce3+  Ce25  1  0.62098115  0.00325179  0.95457020  1
  Pr3+  Pr26  1  0.75516275  0.87805440  0.06891806  1
  Pr3+  Pr27  1  0.37102854  0.49892242  0.43110990  1
  Pr3+  Pr28  1  0.24951393  0.62367599  0.55895639  1
  Pr3+  Pr29  1  0.11739156  0.00185600  0.42902215  1
  Pr3+  Pr30  1  -0.00178101  0.13197686  0.05386132  1
  Pr3+  Pr31  1  0.50160494  0.62520690  0.55369978  1
  Pr3+  Pr32  1  0.11923375  0.24869770  0.44617149  1
  Pr3+  Pr33  1  0.37534442  0.00230524  0.95574107  1
  Pr3+  Pr34  1  0.74301304  0.36528419  0.58020683  1
  Pr3+  Pr35  1  0.11025176  0.49373409  0.44055694  1
  Pr3+  Pr36  1  0.37119691  0.74031981  0.42220157  1
  Pr3+  Pr37  1  0.49770878  0.87446084  0.54414331  1
  Pr3+  Pr38  1  0.00125890  0.62582669  0.57294532  1
  Nd3+  Nd39  1  0.86989891  0.25484193  0.93405479  1
  Nd3+  Nd40  1  0.11904893  0.74588181  0.43664953  1
  Nd3+  Nd41  1  0.62201601  0.50110832  0.93633804  1
  Nd3+  Nd42  1  0.25652174  0.11906986  0.55238512  1
  Nd3+  Nd43  1  0.00267819  0.11933281  0.56900135  1
  Nd3+  Nd44  1  -0.00141912  0.87705491  0.06583973  1
  Nd3+  Nd45  1  0.12324261  0.00130052  0.94526196  1
  Nd3+  Nd46  1  0.50253528  0.62687179  0.06635459  1
  Nd3+  Nd47  1  0.62869688  0.74727903  0.42821682  1
  Nd3+  Nd48  1  0.63397552  0.00062351  0.42428823  1
  Nd3+  Nd49  1  -0.00300068  0.38385768  0.04825510  1
  Nd3+  Nd50  1  0.37293921  0.24784369  0.42609889  1
  Nd3+  Nd51  1  0.24524926  0.13099684  0.06546400  1
  Sm3+  Sm52  1  0.62256505  0.75625956  0.94871624  1
  Sm3+  Sm53  1  0.12760600  0.75314494  0.94460854  1
  Sm3+  Sm54  1  -0.00311592  0.62620161  0.04976582  1
  Sm3+  Sm55  1  -0.00127446  0.87400074  0.55250418  1
  Sm3+  Sm56  1  0.74319781  0.12369011  0.56092768  1
  Sm3+  Sm57  1  0.75026296  0.13187085  0.05801665  1
  Sm3+  Sm58  1  0.49889707  0.12189103  0.53403715  1
  Sm3+  Sm59  1  0.62253217  0.25288855  0.94643163  1
  Sm3+  Sm60  1  0.75443410  0.62898604  0.05510620  1
  Sm3+  Sm61  1  0.87299831  0.00217470  0.44226006  1
  Sm3+  Sm62  1  0.37423415  0.25102224  0.94530746  1
  Sm3+  Sm63  1  0.87122244  0.49932059  0.46619441  1
  Bi2+  Bi64  1  -0.00914868  0.07496172  0.31785014  1
  Bi2+  Bi65  1  -0.02532399  0.08051466  0.77685363  1
  Bi2+  Bi66  1  -0.00737464  0.38853993  0.28879390  1
  Bi2+  Bi67  1  0.01777846  0.37089584  0.79443001  1
  Bi2+  Bi68  1  -0.07328191  0.62902971  0.28025584  1
  Bi2+  Bi69  1  0.04914251  0.63310006  0.77759669  1
  Bi2+  Bi70  1  -0.00625857  0.88935999  0.28331800  1
  Bi2+  Bi71  1  0.05356737  0.89027570  0.80984385  1
  Bi2+  Bi72  1  0.16242557  0.14949636  0.29443450  1
  Bi2+  Bi73  1  0.24557147  0.14659291  0.80078377  1
  Bi2+  Bi74  1  0.24741398  0.40034154  0.28069054  1
  Bi2+  Bi75  1  0.28713304  0.36211058  0.74379823  1
  Bi2+  Bi76  1  0.21816130  0.61685418  0.28375431  1
  Bi2+  Bi77  1  0.29335754  0.63298688  0.79712085  1
  Bi2+  Bi78  1  0.22487443  0.86418543  0.28771389  1
  Bi2+  Bi79  1  0.25623032  0.90741989  0.77281730  1
  Bi2+  Bi80  1  0.51244998  0.11441984  0.28674446  1
  Bi2+  Bi81  1  0.47809123  0.10146024  0.80151181  1
  Bi2+  Bi82  1  0.50878237  0.38811507  0.29106900  1
  Bi2+  Bi83  1  0.48608901  0.38076490  0.76540575  1
  Bi2+  Bi84  1  0.48189681  0.57518980  0.28593105  1
  Bi2+  Bi85  1  0.49012116  0.57512483  0.79042625  1
  Bi2+  Bi86  1  0.52145746  0.86118752  0.29086019  1
  Bi2+  Bi87  1  0.49257278  0.86686593  0.82995171  1
  Bi2+  Bi88  1  0.80216882  0.12884818  0.28775006  1
  Bi2+  Bi89  1  0.72192876  0.11031620  0.79136448  1
  Bi2+  Bi90  1  0.79825262  0.39890010  0.30669343  1
  Bi2+  Bi91  1  0.72648517  0.36037002  0.79127766  1
  Bi2+  Bi92  1  0.73562791  0.57946612  0.27826470  1
  Bi2+  Bi93  1  0.73220894  0.65673628  0.80326897  1
  Bi2+  Bi94  1  0.79380340  0.85389184  0.27877583  1
  Bi2+  Bi95  1  0.73245166  0.91388439  0.78431580  1
  Bi2+  Bi96  1  0.07783445  0.01393532  0.20626082  1
  Bi2+  Bi97  1  0.11182526  -0.00914275  0.70226417  1
  Bi2+  Bi98  1  0.13434626  0.27989086  0.21038464  1
  Bi2+  Bi99  1  0.12223881  0.18771827  0.71824717  1
  Bi2+  Bi100  1  0.08890366  0.46528529  0.19235270  1
  Bi2+  Bi101  1  0.14084858  0.52389465  0.69600218  1
  Bi2+  Bi102  1  0.03845766  0.73828990  0.20945741  1
  Bi2+  Bi103  1  0.15196004  0.78915667  0.71159973  1
  Bi2+  Bi104  1  0.36071233  0.01628651  0.20678864  1
  Bi2+  Bi105  1  0.37314621  -0.00292750  0.68338911  1
  Bi2+  Bi106  1  0.37864222  0.27502341  0.23379062  1
  Bi2+  Bi107  1  0.39527877  0.21357168  0.70739420  1
  Bi2+  Bi108  1  0.37776938  0.47272771  0.20806731  1
  Bi2+  Bi109  1  0.38960082  0.50609220  0.69514215  1
  Bi2+  Bi110  1  0.39435248  0.73822517  0.21237047  1
  Bi2+  Bi111  1  0.41274571  0.76185128  0.74750905  1
  Bi2+  Bi112  1  0.71535823  -0.00846393  0.21042939  1
  Bi2+  Bi113  1  0.60737341  0.00114695  0.71067670  1
  Bi2+  Bi114  1  0.62646729  0.22113842  0.20210468  1
  Bi2+  Bi115  1  0.59538012  0.19652696  0.71697605  1
  Bi2+  Bi116  1  0.61299955  0.47666031  0.20671953  1
  Bi2+  Bi117  1  0.61751714  0.51389160  0.70572378  1
  Bi2+  Bi118  1  0.67750478  0.72761752  0.21153153  1
  Bi2+  Bi119  1  0.59916942  0.78920999  0.70716087  1
  Bi2+  Bi120  1  0.89035673  -0.06551375  0.17983134  1
  Bi2+  Bi121  1  0.83651940  0.00022218  0.69323149  1
  Bi2+  Bi122  1  0.94252860  0.22537953  0.23317121  1
  Bi2+  Bi123  1  0.84914003  0.18742485  0.71348377  1
  Bi2+  Bi124  1  0.87881973  0.52494304  0.18840913  1
  Bi2+  Bi125  1  0.87811119  0.51158806  0.72324835  1
  Bi2+  Bi126  1  0.85881187  0.73521224  0.16084170  1
  Bi2+  Bi127  1  0.89754651  0.83705749  0.74836452  1
  S2-  S128  1  0.01950953  0.14967459  0.15343538  1
  S2-  S129  1  -0.00451030  0.21825849  0.65079392  1
  S2-  S130  1  -0.08695875  0.38737990  0.13558528  1
  S2-  S131  1  0.00377503  0.40948576  0.68987149  1
  S2-  S132  1  0.07423359  0.60914934  0.13885615  1
  S2-  S133  1  -0.00815547  0.61823078  0.67445580  1
  S2-  S134  1  0.09828466  0.86799266  0.14734996  1
  S2-  S135  1  0.03017380  0.86446514  0.64949355  1
  S2-  S136  1  0.26763565  0.12916025  0.16408829  1
  S2-  S137  1  0.23004320  0.10260414  0.65049643  1
  S2-  S138  1  0.23660546  0.44956154  0.13704116  1
  S2-  S139  1  0.21995411  0.37717584  0.65041179  1
  S2-  S140  1  0.26952244  0.65237153  0.18214030  1
  S2-  S141  1  0.21868579  0.64867020  0.65767063  1
  S2-  S142  1  0.28239994  0.87157085  0.18738575  1
  S2-  S143  1  0.29679285  0.87731820  0.63968116  1
  S2-  S144  1  0.51820540  0.08378924  0.17823659  1
  S2-  S145  1  0.46519180  0.12659905  0.63058135  1
  S2-  S146  1  0.49212500  0.28763242  0.14684683  1
  S2-  S147  1  0.51132035  0.40013453  0.65362469  1
  S2-  S148  1  0.52444890  0.66447990  0.16318585  1
  S2-  S149  1  0.57341124  0.64677720  0.64508889  1
  S2-  S150  1  0.47216869  0.88423025  0.18727063  1
  S2-  S151  1  0.50801968  0.89962793  0.64458742  1
  S2-  S152  1  0.75551120  0.13834355  0.15648890  1
  S2-  S153  1  0.71620016  0.21875486  0.64199912  1
  S2-  S154  1  0.71416374  0.34625418  0.17971059  1
  S2-  S155  1  0.75198199  0.41959611  0.67958382  1
  S2-  S156  1  0.72931544  0.53903788  0.13696924  1
  S2-  S157  1  0.77701265  0.63201940  0.70312023  1
  S2-  S158  1  0.65614784  0.86368235  0.15169338  1
  S2-  S159  1  0.72779154  0.80730713  0.64499903  1
  S2-  S160  1  0.21514385  -0.00011142  0.34554842  1
  S2-  S161  1  0.16265378  0.00770877  0.84825670  1
  S2-  S162  1  0.08619686  0.27721679  0.34920491  1
  S2-  S163  1  0.11040584  0.24484378  0.83733753  1
  S2-  S164  1  0.14988127  0.51385685  0.34204554  1
  S2-  S165  1  0.14345287  0.45618766  0.81661328  1
  S2-  S166  1  0.13528903  0.74063847  0.33713704  1
  S2-  S167  1  0.14331394  0.66598088  0.85727788  1
  S2-  S168  1  0.40651175  -0.00513161  0.30975587  1
  S2-  S169  1  0.38367075  -0.00953901  0.85459414  1
  S2-  S170  1  0.36651107  0.21028830  0.32826668  1
  S2-  S171  1  0.37451658  0.22024519  0.84783552  1
  S2-  S172  1  0.35429754  0.60421599  0.35154328  1
  S2-  S173  1  0.35034976  0.50801436  0.84977520  1
  S2-  S174  1  0.36216339  0.80640148  0.32817271  1
  S2-  S175  1  0.37362521  0.75345982  0.86305232  1
  S2-  S176  1  0.60619823  -0.01519246  0.32539533  1
  S2-  S177  1  0.60447335  0.01146595  0.85704726  1
  S2-  S178  1  0.63952600  0.20307591  0.31442890  1
  S2-  S179  1  0.62965184  0.27887672  0.84873987  1
  S2-  S180  1  0.64870787  0.41357425  0.36038397  1
  S2-  S181  1  0.71633079  0.50173340  0.85098016  1
  S2-  S182  1  0.59675219  0.72979426  0.33022957  1
  S2-  S183  1  0.62336671  0.74767485  0.84901774  1
  S2-  S184  1  0.80364413  0.00153890  0.35245980  1
  S2-  S185  1  0.90298273  -0.01742360  0.84932542  1
  S2-  S186  1  0.81564820  0.25913541  0.36286623  1
  S2-  S187  1  0.86294259  0.32876244  0.84318162  1
  S2-  S188  1  0.91587425  0.47265995  0.37232102  1
  S2-  S189  1  0.94379248  0.52881952  0.82515667  1
  S2-  S190  1  0.84864714  0.73517977  0.34770740  1
  S2-  S191  1  0.86483320  0.74023838  0.83669291  1
  S2-  S192  1  -0.00451244  0.12340501  0.46093305  1
  S2-  S193  1  -0.00271078  0.12876859  0.94612535  1
  S2-  S194  1  -0.00327838  0.37296653  0.47672413  1
  S2-  S195  1  0.00003857  0.37913061  0.94138555  1
  S2-  S196  1  -0.00415514  0.62342221  0.46247453  1
  S2-  S197  1  -0.00267549  0.63238941  0.94613436  1
  S2-  S198  1  -0.00544942  0.87490478  0.44637339  1
  S2-  S199  1  0.00211499  0.87514427  0.95728702  1
  S2-  S200  1  0.24655999  0.12659969  0.44490400  1
  S2-  S201  1  0.24920684  0.12792156  0.95773586  1
  S2-  S202  1  0.24665211  0.37321448  0.44544401  1
  S2-  S203  1  0.25222834  0.37712531  0.94240908  1
  S2-  S204  1  0.23939830  0.61962882  0.45280920  1
  S2-  S205  1  0.25230090  0.63070227  0.96545667  1
  S2-  S206  1  0.24480436  0.86754045  0.44205498  1
  S2-  S207  1  0.24669586  0.87817128  0.96635965  1
  S2-  S208  1  0.50362665  0.12613398  0.43052703  1
  S2-  S209  1  0.49800348  0.13179970  0.96638726  1
  S2-  S210  1  0.49577293  0.37312533  0.44565982  1
  S2-  S211  1  0.49723224  0.37631491  0.95287278  1
  S2-  S212  1  0.50338191  0.62125605  0.44651050  1
  S2-  S213  1  0.50246284  0.63022725  0.95728446  1
  S2-  S214  1  0.50194820  0.87258657  0.43651174  1
  S2-  S215  1  0.50085484  0.87752687  0.97424742  1
  S2-  S216  1  0.75021752  0.12486255  0.45600059  1
  S2-  S217  1  0.74778431  0.12958111  0.95155683  1
  S2-  S218  1  0.75266186  0.37640014  0.47113674  1
  S2-  S219  1  0.74446733  0.37513985  0.95814708  1
  S2-  S220  1  0.75103585  0.61952549  0.44775675  1
  S2-  S221  1  0.74552937  0.63201341  0.95134418  1
  S2-  S222  1  0.75040444  0.87375748  0.44984324  1
  S2-  S223  1  0.74704291  0.87849992  0.95747765  1
  S2-  S224  1  0.12266066  0.00621565  0.05142528  1
  S2-  S225  1  0.12265076  -0.00252889  0.53911109  1
  S2-  S226  1  0.12274969  0.25704366  0.04414794  1
  S2-  S227  1  0.12994549  0.24349220  0.55214810  1
  S2-  S228  1  0.11916188  0.50262911  0.02880819  1
  S2-  S229  1  0.12289551  0.49826494  0.55065862  1
  S2-  S230  1  0.12289900  0.74947563  0.04699514  1
  S2-  S231  1  0.12242542  0.75040883  0.54439312  1
  S2-  S232  1  0.37323141  0.00397213  0.06358023  1
  S2-  S233  1  0.37571403  -0.00181215  0.52301574  1
  S2-  S234  1  0.36747379  0.25649768  0.04957139  1
  S2-  S235  1  0.37409251  0.24750207  0.53479300  1
  S2-  S236  1  0.37832681  0.50367288  0.05187254  1
  S2-  S237  1  0.37535709  0.49998289  0.54052933  1
  S2-  S238  1  0.37302687  0.75036725  0.06710423  1
  S2-  S239  1  0.37470654  0.74623664  0.53482636  1
  S2-  S240  1  0.62706555  0.00978317  0.05916677  1
  S2-  S241  1  0.62325498  0.00114897  0.53578993  1
  S2-  S242  1  0.63028445  0.25689953  0.05136454  1
  S2-  S243  1  0.61980420  0.24344974  0.53383907  1
  S2-  S244  1  0.62109420  0.50227012  0.04173990  1
  S2-  S245  1  0.63028032  0.50168186  0.55152843  1
  S2-  S246  1  0.63021489  0.74754773  0.05201409  1
  S2-  S247  1  0.62564037  0.75003658  0.53611150  1
  S2-  S248  1  0.87443689  0.00634886  0.04981707  1
  S2-  S249  1  0.87416037  0.00008623  0.54861447  1
  S2-  S250  1  0.87212668  0.25350493  0.04122072  1
  S2-  S251  1  0.87184605  0.24363380  0.55660200  1
  S2-  S252  1  0.87497133  0.50849936  0.02985236  1
  S2-  S253  1  0.87161551  0.50145058  0.57098756  1
  S2-  S254  1  0.87700669  0.75348103  0.04128269  1
  S2-  S255  1  0.87485411  0.74869991  0.55368302  1
