# generated using pymatgen
data_La12Ce14Pr13Nd13Sm12(BiS2)64
_symmetry_space_group_name_H-M   'P 1'
_cell_length_a   16.16947682
_cell_length_b   16.08998187
_cell_length_c   27.12457098
_cell_angle_alpha   90.00668441
_cell_angle_beta   89.90657004
_cell_angle_gamma   90.05298337
_symmetry_Int_Tables_number   1
_chemical_formula_structural   La12Ce14Pr13Nd13Sm12(BiS2)64
_chemical_formula_sum   'La12 Ce14 Pr13 Nd13 Sm12 Bi64 S128'
_cell_volume   7056.89465871
_cell_formula_units_Z   1
loop_
 _symmetry_equiv_pos_site_id
 _symmetry_equiv_pos_as_xyz
  1  'x, y, z'
loop_
 _atom_type_symbol
 _atom_type_oxidation_number
  La3+  3.0
  Ce3+  3.0
  Pr3+  3.0
  Nd3+  3.0
  Sm3+  3.0
  Bi2+  2.0
  S2-  -2.0
loop_
 _atom_site_type_symbol
 _atom_site_label
 _atom_site_symmetry_multiplicity
 _atom_site_fract_x
 _atom_site_fract_y
 _atom_site_fract_z
 _atom_site_occupancy
  La3+  La0  1  0.50754601  0.61150279  0.06346250  1
  La3+  La1  1  0.00661160  0.60575200  0.06813345  1
  La3+  La2  1  0.88412166  0.22849717  0.91333333  1
  La3+  La3  1  0.01065848  0.35664359  0.58137619  1
  La3+  La4  1  0.00394907  0.35955862  0.05705609  1
  La3+  La5  1  0.87638077  0.49302888  0.91196202  1
  La3+  La6  1  0.75298551  0.12520449  0.07228885  1
  La3+  La7  1  0.63538247  0.73834559  0.94466844  1
  La3+  La8  1  0.13916203  0.49507881  0.92256959  1
  La3+  La9  1  0.76479189  0.88084676  0.11809214  1
  La3+  La10  1  0.25418967  0.36207119  0.06266618  1
  La3+  La11  1  0.64305955  0.23495081  0.43468572  1
  Ce3+  Ce12  1  0.13412196  0.23843619  0.44165564  1
  Ce3+  Ce13  1  0.50772466  0.86575885  0.06779104  1
  Ce3+  Ce14  1  0.13401162  -0.01763725  0.44203224  1
  Ce3+  Ce15  1  0.63646703  -0.01482575  0.43800801  1
  Ce3+  Ce16  1  0.63497605  -0.01204585  0.94650336  1
  Ce3+  Ce17  1  0.88737085  -0.01552106  0.43404025  1
  Ce3+  Ce18  1  0.38140517  -0.01799572  0.42684308  1
  Ce3+  Ce19  1  0.63203510  0.48569456  0.94177935  1
  Ce3+  Ce20  1  0.50597462  0.35880976  0.05124581  1
  Ce3+  Ce21  1  0.50792630  0.85840036  0.55158632  1
  Ce3+  Ce22  1  0.00236249  0.86084953  0.06529349  1
  Ce3+  Ce23  1  0.38157742  -0.00979181  0.94111160  1
  Ce3+  Ce24  1  0.25382118  0.11696207  0.06763544  1
  Ce3+  Ce25  1  0.50874788  0.10704966  0.55430915  1
  Pr3+  Pr26  1  0.88530413  0.48183640  0.44052753  1
  Pr3+  Pr27  1  0.38179040  0.47870002  0.43061640  1
  Pr3+  Pr28  1  0.76296581  0.36058764  0.57991577  1
  Pr3+  Pr29  1  0.26262569  0.11344798  0.56367625  1
  Pr3+  Pr30  1  0.37700699  0.23104911  0.92748901  1
  Pr3+  Pr31  1  0.13606295  0.72646405  0.43363540  1
  Pr3+  Pr32  1  0.13039135  0.23607035  0.92721843  1
  Pr3+  Pr33  1  0.38172372  0.73177677  0.42779723  1
  Pr3+  Pr34  1  0.50904221  0.35690362  0.55868209  1
  Pr3+  Pr35  1  0.63655317  0.48261990  0.44937352  1
  Pr3+  Pr36  1  0.13349607  -0.01427215  0.94595477  1
  Pr3+  Pr37  1  0.88882989  0.72771932  0.42860111  1
  Pr3+  Pr38  1  0.63451849  0.73195733  0.43494964  1
  Nd3+  Nd39  1  0.75932019  0.10580508  0.56666578  1
  Nd3+  Nd40  1  0.75720487  0.61577024  0.06960726  1
  Nd3+  Nd41  1  0.25792575  0.85913702  0.07226627  1
  Nd3+  Nd42  1  0.38095695  0.73837382  0.94149930  1
  Nd3+  Nd43  1  0.00895474  0.10435934  0.56704159  1
  Nd3+  Nd44  1  0.00924415  0.86060338  0.56315878  1
  Nd3+  Nd45  1  0.01094249  0.61141364  0.56511953  1
  Nd3+  Nd46  1  0.63318593  0.23272028  0.92805900  1
  Nd3+  Nd47  1  0.88452288  0.73644414  0.94199013  1
  Nd3+  Nd48  1  0.50517891  0.11169167  0.06332851  1
  Nd3+  Nd49  1  0.25998852  0.60821879  0.07384500  1
  Nd3+  Nd50  1  0.26079458  0.61229716  0.56789957  1
  Nd3+  Nd51  1  0.25820821  0.36343138  0.57651887  1
  Sm3+  Sm52  1  0.88198161  -0.01397523  0.94403242  1
  Sm3+  Sm53  1  0.26187820  0.85649422  0.56040702  1
  Sm3+  Sm54  1  0.50794536  0.60918307  0.55474821  1
  Sm3+  Sm55  1  0.76140692  0.61132911  0.56335974  1
  Sm3+  Sm56  1  0.75759714  0.36068426  0.04667770  1
  Sm3+  Sm57  1  0.38362573  0.23151531  0.43025304  1
  Sm3+  Sm58  1  0.88409283  0.23407045  0.44695114  1
  Sm3+  Sm59  1  0.13290337  0.73582932  0.94736340  1
  Sm3+  Sm60  1  0.38236659  0.48615923  0.93872851  1
  Sm3+  Sm61  1  0.00271290  0.11410434  0.05863875  1
  Sm3+  Sm62  1  0.75946711  0.85690242  0.55049408  1
  Sm3+  Sm63  1  0.13605391  0.48027069  0.44206082  1
  Bi2+  Bi64  1  -0.01958741  0.18794627  0.28838122  1
  Bi2+  Bi65  1  -0.01755818  0.04362977  0.78494831  1
  Bi2+  Bi66  1  0.00426489  0.38675507  0.29126098  1
  Bi2+  Bi67  1  0.00628853  0.33902112  0.77409900  1
  Bi2+  Bi68  1  0.02048835  0.67745496  0.30765211  1
  Bi2+  Bi69  1  0.01709826  0.67222087  0.78405537  1
  Bi2+  Bi70  1  0.05498972  0.93509661  0.27581831  1
  Bi2+  Bi71  1  -0.03367160  0.85497473  0.82325626  1
  Bi2+  Bi72  1  0.17808756  0.17443714  0.28674227  1
  Bi2+  Bi73  1  0.24499340  0.12449088  0.78824951  1
  Bi2+  Bi74  1  0.23931972  0.37131975  0.28560348  1
  Bi2+  Bi75  1  0.24446330  0.39003471  0.78631449  1
  Bi2+  Bi76  1  0.25022137  0.69446186  0.30436540  1
  Bi2+  Bi77  1  0.21748761  0.70854191  0.77708401  1
  Bi2+  Bi78  1  0.30262492  0.95684885  0.28364500  1
  Bi2+  Bi79  1  0.16967231  0.88176565  0.82618854  1
  Bi2+  Bi80  1  0.47200999  0.11626458  0.27854967  1
  Bi2+  Bi81  1  0.44432136  0.11516356  0.75595556  1
  Bi2+  Bi82  1  0.50352086  0.34847188  0.28457271  1
  Bi2+  Bi83  1  0.45110782  0.45239097  0.80450911  1
  Bi2+  Bi84  1  0.49989117  0.54233608  0.28983014  1
  Bi2+  Bi85  1  0.51101834  0.68436136  0.78397340  1
  Bi2+  Bi86  1  0.46823288  0.90894151  0.22753943  1
  Bi2+  Bi87  1  0.36708337  0.90637739  0.81719971  1
  Bi2+  Bi88  1  0.71711132  0.12939375  0.30800846  1
  Bi2+  Bi89  1  0.71281073  0.10896655  0.80130085  1
  Bi2+  Bi90  1  0.74550248  0.37609159  0.28608942  1
  Bi2+  Bi91  1  0.71682678  0.37016381  0.79261509  1
  Bi2+  Bi92  1  0.68808411  0.63006876  0.28743688  1
  Bi2+  Bi93  1  0.75147054  0.64137945  0.79170520  1
  Bi2+  Bi94  1  0.73909243  0.87634731  0.32191543  1
  Bi2+  Bi95  1  0.77828820  0.84874852  0.78548521  1
  Bi2+  Bi96  1  0.17181524  0.05219206  0.19053498  1
  Bi2+  Bi97  1  0.11041414  -0.05701499  0.71418299  1
  Bi2+  Bi98  1  0.10669337  0.30172018  0.20077838  1
  Bi2+  Bi99  1  0.14930421  0.20280948  0.69862202  1
  Bi2+  Bi100  1  0.10923983  0.55833986  0.19776465  1
  Bi2+  Bi101  1  0.14703462  0.50780494  0.70757827  1
  Bi2+  Bi102  1  0.18818622  0.85891936  0.20458049  1
  Bi2+  Bi103  1  0.09864255  0.75238097  0.68169023  1
  Bi2+  Bi104  1  0.37964252  0.06784908  0.17818799  1
  Bi2+  Bi105  1  0.27867318  0.02531856  0.68427618  1
  Bi2+  Bi106  1  0.36089651  0.25187766  0.21838612  1
  Bi2+  Bi107  1  0.38012753  0.29858865  0.72808437  1
  Bi2+  Bi108  1  0.35998793  0.46989978  0.20987712  1
  Bi2+  Bi109  1  0.38310057  0.57483925  0.72049334  1
  Bi2+  Bi110  1  0.36227956  0.72512776  0.21711852  1
  Bi2+  Bi111  1  0.35596322  0.85040664  0.70448728  1
  Bi2+  Bi112  1  0.65948875  0.02757769  0.21140348  1
  Bi2+  Bi113  1  0.53590692  -0.05648831  0.75890024  1
  Bi2+  Bi114  1  0.62052742  0.30026180  0.19161003  1
  Bi2+  Bi115  1  0.59142213  0.22253459  0.69439020  1
  Bi2+  Bi116  1  0.71415909  0.49483104  0.18861645  1
  Bi2+  Bi117  1  0.57792645  0.52737556  0.72701658  1
  Bi2+  Bi118  1  0.57007338  0.62440775  0.19328419  1
  Bi2+  Bi119  1  0.63376735  0.79641168  0.71010623  1
  Bi2+  Bi120  1  0.97210774  0.05459100  0.20027041  1
  Bi2+  Bi121  1  0.85257970  -0.02123664  0.70549007  1
  Bi2+  Bi122  1  0.88018086  0.29480754  0.21208260  1
  Bi2+  Bi123  1  0.84566976  0.23226861  0.70162436  1
  Bi2+  Bi124  1  0.87263796  0.52383882  0.26050404  1
  Bi2+  Bi125  1  0.86977904  0.51525222  0.71485813  1
  Bi2+  Bi126  1  0.88291346  0.75715693  0.21936724  1
  Bi2+  Bi127  1  0.90627962  0.77367158  0.70634104  1
  S2-  S128  1  -0.00368632  0.23004548  0.13509932  1
  S2-  S129  1  -0.00445689  0.19577160  0.65405961  1
  S2-  S130  1  0.01380170  0.46912486  0.14294199  1
  S2-  S131  1  -0.11154948  0.37375446  0.65537154  1
  S2-  S132  1  0.00305418  0.67342980  0.16634889  1
  S2-  S133  1  0.01293947  0.54503740  0.65841221  1
  S2-  S134  1  -0.06277776  0.87982663  0.15564763  1
  S2-  S135  1  -0.00771724  0.97590672  0.63951948  1
  S2-  S136  1  0.24216220  0.24264867  0.13895607  1
  S2-  S137  1  0.29013981  0.23010319  0.64190258  1
  S2-  S138  1  0.23643310  0.47510853  0.14447317  1
  S2-  S139  1  0.13265490  0.36253269  0.65683496  1
  S2-  S140  1  0.21654544  0.69780195  0.16103085  1
  S2-  S141  1  0.28473712  0.50003454  0.64477866  1
  S2-  S142  1  0.38521333  0.85082125  0.14216071  1
  S2-  S143  1  0.26440869  0.74527904  0.63760778  1
  S2-  S144  1  0.59857895  0.14453094  0.14680394  1
  S2-  S145  1  0.49500713  0.10080147  0.65153689  1
  S2-  S146  1  0.47791548  0.37308810  0.14794376  1
  S2-  S147  1  0.49320580  0.34951057  0.65972514  1
  S2-  S148  1  0.40426057  0.60508861  0.14565902  1
  S2-  S149  1  0.50584398  0.62223446  0.65308318  1
  S2-  S150  1  0.59487652  0.89047706  0.15450551  1
  S2-  S151  1  0.50207376  0.85990983  0.64981546  1
  S2-  S152  1  0.80124404  0.05017206  0.16083152  1
  S2-  S153  1  0.73993547  0.10643256  0.66733893  1
  S2-  S154  1  0.76686821  0.27943660  0.13490173  1
  S2-  S155  1  0.70673567  0.33535726  0.67897685  1
  S2-  S156  1  0.77403936  0.71200646  0.15476605  1
  S2-  S157  1  0.76478744  0.59487485  0.66225082  1
  S2-  S158  1  0.75644757  0.88315772  0.22813172  1
  S2-  S159  1  0.75982385  0.85698215  0.64870214  1
  S2-  S160  1  0.11558529  0.03957936  0.34952714  1
  S2-  S161  1  0.12805330  0.05427363  0.85194966  1
  S2-  S162  1  0.12668196  0.35877486  0.36817312  1
  S2-  S163  1  0.02032466  0.23863252  0.84612617  1
  S2-  S164  1  0.13779751  0.59171129  0.35906429  1
  S2-  S165  1  0.09160598  0.44690317  0.82392787  1
  S2-  S166  1  0.12503903  0.80539268  0.34066980  1
  S2-  S167  1  0.13573054  0.65073370  0.86046361  1
  S2-  S168  1  0.36896257  0.10814606  0.35577922  1
  S2-  S169  1  0.38791022  0.08944186  0.85872178  1
  S2-  S170  1  0.36978786  0.35207548  0.35716976  1
  S2-  S171  1  0.25419520  0.25730506  0.85366857  1
  S2-  S172  1  0.37103301  0.60428287  0.35416972  1
  S2-  S173  1  0.30275428  0.50627622  0.85291756  1
  S2-  S174  1  0.37018977  0.85844953  0.35187769  1
  S2-  S175  1  0.37047603  0.73371799  0.84060136  1
  S2-  S176  1  0.61253901  -0.00392063  0.33961354  1
  S2-  S177  1  0.61923024  0.00260934  0.84755970  1
  S2-  S178  1  0.57222450  0.22197111  0.34080429  1
  S2-  S179  1  0.61097892  0.24247028  0.82740616  1
  S2-  S180  1  0.65211466  0.48431120  0.34896756  1
  S2-  S181  1  0.69554336  0.51045807  0.85256093  1
  S2-  S182  1  0.60996009  0.75376932  0.33518681  1
  S2-  S183  1  0.63846169  0.74468926  0.84329007  1
  S2-  S184  1  0.83406067  0.02190088  0.34194833  1
  S2-  S185  1  0.85985069  0.06301209  0.85500004  1
  S2-  S186  1  0.78585988  0.25747075  0.36549288  1
  S2-  S187  1  0.81678168  0.24679479  0.81170073  1
  S2-  S188  1  0.89311485  0.58703852  0.35863694  1
  S2-  S189  1  0.87804903  0.43587736  0.81218350  1
  S2-  S190  1  0.89221611  0.79806007  0.33330411  1
  S2-  S191  1  0.87766679  0.64435732  0.85461505  1
  S2-  S192  1  0.00706428  0.11182216  0.45728117  1
  S2-  S193  1  0.00558398  0.10761684  0.95557852  1
  S2-  S194  1  0.00359433  0.35785947  0.46556181  1
  S2-  S195  1  0.00210373  0.37056030  0.94541392  1
  S2-  S196  1  0.01059175  0.60477576  0.46042036  1
  S2-  S197  1  0.00637310  0.61227617  0.95736998  1
  S2-  S198  1  0.00853381  0.85777194  0.45496137  1
  S2-  S199  1  0.00754473  0.86091684  0.95795060  1
  S2-  S200  1  0.25460951  0.11076834  0.45696895  1
  S2-  S201  1  0.25584470  0.11034129  0.96019611  1
  S2-  S202  1  0.25909231  0.35749015  0.46607551  1
  S2-  S203  1  0.25968618  0.36411094  0.95403324  1
  S2-  S204  1  0.25943272  0.60400143  0.46132800  1
  S2-  S205  1  0.26127890  0.61605769  0.96282248  1
  S2-  S206  1  0.25598786  0.85775204  0.45584225  1
  S2-  S207  1  0.25741743  0.86033496  0.96204291  1
  S2-  S208  1  0.51201386  0.10821931  0.45020556  1
  S2-  S209  1  0.50990759  0.11313577  0.95666739  1
  S2-  S210  1  0.51308046  0.35660323  0.45197881  1
  S2-  S211  1  0.50538143  0.35907704  0.94286049  1
  S2-  S212  1  0.51106861  0.60682705  0.45019585  1
  S2-  S213  1  0.50600148  0.61096040  0.95041683  1
  S2-  S214  1  0.51135107  0.85907371  0.44701203  1
  S2-  S215  1  0.50606263  0.86405939  0.95521244  1
  S2-  S216  1  0.76333510  0.10637047  0.45926382  1
  S2-  S217  1  0.75497168  0.11271600  0.95634464  1
  S2-  S218  1  0.76272905  0.36200084  0.46906422  1
  S2-  S219  1  0.75770278  0.35945621  0.94181183  1
  S2-  S220  1  0.75988737  0.60970629  0.45759929  1
  S2-  S221  1  0.75663456  0.61106814  0.96141021  1
  S2-  S222  1  0.76231398  0.85656559  0.44644502  1
  S2-  S223  1  0.76137806  0.86342741  0.94346158  1
  S2-  S224  1  0.12864073  -0.01282026  0.05494846  1
  S2-  S225  1  0.13957708  -0.01908086  0.54876786  1
  S2-  S226  1  0.12819568  0.23323232  0.03499677  1
  S2-  S227  1  0.13227389  0.23106614  0.54688916  1
  S2-  S228  1  0.13271468  0.48786004  0.03600633  1
  S2-  S229  1  0.13341507  0.48745980  0.54693349  1
  S2-  S230  1  0.13124993  0.73924022  0.05068677  1
  S2-  S231  1  0.13182967  0.73673249  0.54143577  1
  S2-  S232  1  0.37867021  -0.01007530  0.04633060  1
  S2-  S233  1  0.38218412  -0.01836639  0.54087758  1
  S2-  S234  1  0.38374697  0.23414338  0.03970120  1
  S2-  S235  1  0.38993819  0.23246333  0.53643778  1
  S2-  S236  1  0.38407813  0.48455858  0.04159457  1
  S2-  S237  1  0.39004436  0.48533079  0.54111897  1
  S2-  S238  1  0.38165563  0.73659409  0.04558611  1
  S2-  S239  1  0.38761714  0.73268684  0.53726324  1
  S2-  S240  1  0.63618379  -0.01031565  0.05036764  1
  S2-  S241  1  0.63676858  -0.01931991  0.54668618  1
  S2-  S242  1  0.62839315  0.24095300  0.03477425  1
  S2-  S243  1  0.63747123  0.23251130  0.54857419  1
  S2-  S244  1  0.63334771  0.48456871  0.04820616  1
  S2-  S245  1  0.63551361  0.48750377  0.55694457  1
  S2-  S246  1  0.63089889  0.73899919  0.05203569  1
  S2-  S247  1  0.63556260  0.73175070  0.54487323  1
  S2-  S248  1  0.88057048  -0.01136716  0.04759434  1
  S2-  S249  1  0.87959427  -0.01852199  0.54085512  1
  S2-  S250  1  0.88030026  0.23625658  0.02954432  1
  S2-  S251  1  0.88090410  0.23063930  0.55008630  1
  S2-  S252  1  0.87321921  0.48597303  0.04573305  1
  S2-  S253  1  0.88325613  0.48994401  0.54853629  1
  S2-  S254  1  0.88159194  0.73701623  0.04694505  1
  S2-  S255  1  0.88460039  0.73470093  0.54553599  1
