# generated using pymatgen
data_La12Ce14Pr13Nd13Sm12(BiS2)64
_symmetry_space_group_name_H-M   'P 1'
_cell_length_a   16.11182427
_cell_length_b   16.09657536
_cell_length_c   27.20309616
_cell_angle_alpha   89.98493990
_cell_angle_beta   89.91731022
_cell_angle_gamma   90.09899250
_symmetry_Int_Tables_number   1
_chemical_formula_structural   La12Ce14Pr13Nd13Sm12(BiS2)64
_chemical_formula_sum   'La12 Ce14 Pr13 Nd13 Sm12 Bi64 S128'
_cell_volume   7054.97411466
_cell_formula_units_Z   1
loop_
 _symmetry_equiv_pos_site_id
 _symmetry_equiv_pos_as_xyz
  1  'x, y, z'
loop_
 _atom_type_symbol
 _atom_type_oxidation_number
  La3+  3.0
  Ce3+  3.0
  Pr3+  3.0
  Nd3+  3.0
  Sm3+  3.0
  Bi2+  2.0
  S2-  -2.0
loop_
 _atom_site_type_symbol
 _atom_site_label
 _atom_site_symmetry_multiplicity
 _atom_site_fract_x
 _atom_site_fract_y
 _atom_site_fract_z
 _atom_site_occupancy
  La3+  La0  1  0.52584507  0.87106063  0.56754667  1
  La3+  La1  1  0.63626190  0.49582576  0.90594188  1
  La3+  La2  1  0.37111497  -0.00304076  0.90927481  1
  La3+  La3  1  0.88653058  0.74220222  0.39611972  1
  La3+  La4  1  0.00222663  0.63556705  0.09373795  1
  La3+  La5  1  0.00185976  0.37206434  0.07985878  1
  La3+  La6  1  0.26457636  0.36608398  0.56717507  1
  La3+  La7  1  0.64491034  0.00182442  0.41526578  1
  La3+  La8  1  0.89809885  -0.00447450  0.42472919  1
  La3+  La9  1  0.77723882  0.36109276  0.57740760  1
  La3+  La10  1  0.63188006  0.73372883  0.42554031  1
  La3+  La11  1  0.13217839  0.25549489  0.92985629  1
  Ce3+  Ce12  1  0.62496851  0.25772057  0.94537494  1
  Ce3+  Ce13  1  0.64356292  0.24653804  0.44153602  1
  Ce3+  Ce14  1  0.87668125  0.50317737  0.94952539  1
  Ce3+  Ce15  1  0.49858042  0.12530955  0.04740573  1
  Ce3+  Ce16  1  0.49890399  0.37903948  0.05975741  1
  Ce3+  Ce17  1  0.76931950  0.12002717  0.55547741  1
  Ce3+  Ce18  1  0.51694963  0.36752157  0.56483995  1
  Ce3+  Ce19  1  0.00688708  0.12713558  0.05926174  1
  Ce3+  Ce20  1  0.62445362  0.00131179  0.93975750  1
  Ce3+  Ce21  1  0.24968664  0.63585755  0.07042636  1
  Ce3+  Ce22  1  0.39534633  0.74450207  0.44885060  1
  Ce3+  Ce23  1  0.01200988  0.86679935  0.55308510  1
  Ce3+  Ce24  1  0.00248492  0.87957111  0.05794937  1
  Ce3+  Ce25  1  0.13884627  0.49557606  0.43861976  1
  Pr3+  Pr26  1  0.14071213  0.74344580  0.43483461  1
  Pr3+  Pr27  1  0.26719594  0.86569480  0.57559733  1
  Pr3+  Pr28  1  0.14612195  0.24306016  0.43195942  1
  Pr3+  Pr29  1  0.01275936  0.61931966  0.55979364  1
  Pr3+  Pr30  1  0.74934791  0.62940071  0.06146498  1
  Pr3+  Pr31  1  0.38365905  0.73904094  0.92017988  1
  Pr3+  Pr32  1  0.76418307  0.86714644  0.54922825  1
  Pr3+  Pr33  1  0.12552111  0.75325596  0.93823296  1
  Pr3+  Pr34  1  0.25413549  0.11517807  0.57958320  1
  Pr3+  Pr35  1  0.87268395  0.25933608  0.94273443  1
  Pr3+  Pr36  1  0.75021456  0.37970824  0.07612837  1
  Pr3+  Pr37  1  0.89832564  0.25186877  0.42868645  1
  Pr3+  Pr38  1  0.25698660  0.12389859  0.06271009  1
  Nd3+  Nd39  1  0.26592988  0.62089813  0.55893920  1
  Nd3+  Nd40  1  0.52214077  0.61342185  0.58096597  1
  Nd3+  Nd41  1  0.39290718  0.49489457  0.44724373  1
  Nd3+  Nd42  1  0.62827512  0.75433412  0.93048123  1
  Nd3+  Nd43  1  0.87371737  0.00452412  0.94816827  1
  Nd3+  Nd44  1  0.12467181  0.50401805  0.94432648  1
  Nd3+  Nd45  1  0.74875126  0.87641159  0.06954456  1
  Nd3+  Nd46  1  0.25377380  0.87864398  0.05654397  1
  Nd3+  Nd47  1  0.87223149  0.75249414  0.93631117  1
  Nd3+  Nd48  1  0.14876865  -0.00794898  0.43453920  1
  Nd3+  Nd49  1  0.49800583  0.87410598  0.05596338  1
  Nd3+  Nd50  1  0.38918201  -0.00734406  0.44937198  1
  Nd3+  Nd51  1  0.12324856  0.01076330  0.92564508  1
  Sm3+  Sm52  1  0.38511661  0.24415747  0.44509231  1
  Sm3+  Sm53  1  0.74756737  0.12778952  0.05851562  1
  Sm3+  Sm54  1  0.37473456  0.25702923  0.93777201  1
  Sm3+  Sm55  1  0.01673597  0.11816514  0.55593547  1
  Sm3+  Sm56  1  0.02234257  0.36833985  0.56451659  1
  Sm3+  Sm57  1  0.24329130  0.37342439  0.07486274  1
  Sm3+  Sm58  1  0.64303650  0.49219223  0.44709801  1
  Sm3+  Sm59  1  0.50120788  0.62900357  0.05510800  1
  Sm3+  Sm60  1  0.88746997  0.49244292  0.43463265  1
  Sm3+  Sm61  1  0.37418461  0.50640336  0.95067249  1
  Sm3+  Sm62  1  0.51632857  0.11664339  0.55708085  1
  Sm3+  Sm63  1  0.76363569  0.61195573  0.56473002  1
  Bi2+  Bi64  1  -0.10021466  0.21039463  0.29748349  1
  Bi2+  Bi65  1  -0.04861134  0.10455414  0.79753385  1
  Bi2+  Bi66  1  0.09023974  0.35788038  0.26971649  1
  Bi2+  Bi67  1  0.00699091  0.37416129  0.78376148  1
  Bi2+  Bi68  1  0.02179799  0.60755303  0.28898318  1
  Bi2+  Bi69  1  0.00455062  0.56813221  0.81988869  1
  Bi2+  Bi70  1  0.06442197  0.91323646  0.27231257  1
  Bi2+  Bi71  1  -0.01451629  0.76851979  0.81620297  1
  Bi2+  Bi72  1  0.19756801  0.11024959  0.30598906  1
  Bi2+  Bi73  1  0.23196091  0.14073313  0.78913808  1
  Bi2+  Bi74  1  0.30566126  0.36555538  0.29552003  1
  Bi2+  Bi75  1  0.23703656  0.39369599  0.79068129  1
  Bi2+  Bi76  1  0.23358652  0.66153814  0.29186922  1
  Bi2+  Bi77  1  0.20173620  0.59324069  0.80488118  1
  Bi2+  Bi78  1  0.24583913  0.84588977  0.32496890  1
  Bi2+  Bi79  1  0.23425824  0.87401100  0.77399972  1
  Bi2+  Bi80  1  0.48858575  0.16427771  0.29047235  1
  Bi2+  Bi81  1  0.53659380  0.16029453  0.78799905  1
  Bi2+  Bi82  1  0.50889374  0.36247507  0.29489138  1
  Bi2+  Bi83  1  0.49062198  0.35411671  0.79852017  1
  Bi2+  Bi84  1  0.49172051  0.60698163  0.29814786  1
  Bi2+  Bi85  1  0.45713538  0.61818738  0.78145677  1
  Bi2+  Bi86  1  0.43804103  0.87070084  0.28589001  1
  Bi2+  Bi87  1  0.50529855  0.86800225  0.78914337  1
  Bi2+  Bi88  1  0.70338928  0.17421432  0.26506080  1
  Bi2+  Bi89  1  0.73405397  0.15110747  0.77826774  1
  Bi2+  Bi90  1  0.70686979  0.38381439  0.30304582  1
  Bi2+  Bi91  1  0.77610096  0.35134491  0.79216053  1
  Bi2+  Bi92  1  0.73845661  0.62904769  0.28845109  1
  Bi2+  Bi93  1  0.81258760  0.63141867  0.79297635  1
  Bi2+  Bi94  1  0.72527020  0.91411466  0.28041117  1
  Bi2+  Bi95  1  0.75687120  0.88904100  0.79072867  1
  Bi2+  Bi96  1  0.09605359  -0.00585576  0.16612682  1
  Bi2+  Bi97  1  0.01844148  -0.06550186  0.75255587  1
  Bi2+  Bi98  1  0.12844726  0.19014417  0.21440395  1
  Bi2+  Bi99  1  0.06525862  0.24933053  0.70005535  1
  Bi2+  Bi100  1  0.21894376  0.49234108  0.21679116  1
  Bi2+  Bi101  1  0.15176734  0.50540863  0.70611638  1
  Bi2+  Bi102  1  0.15021055  0.76482427  0.20089147  1
  Bi2+  Bi103  1  0.04890384  0.73774254  0.70632573  1
  Bi2+  Bi104  1  0.28967816  -0.02302869  0.23853960  1
  Bi2+  Bi105  1  0.39714125  0.01345514  0.70311258  1
  Bi2+  Bi106  1  0.37170364  0.22846355  0.21009581  1
  Bi2+  Bi107  1  0.43178869  0.26293214  0.69959248  1
  Bi2+  Bi108  1  0.41857842  0.49330904  0.21567713  1
  Bi2+  Bi109  1  0.37824500  0.44740217  0.71921325  1
  Bi2+  Bi110  1  0.37769307  0.71438699  0.21904842  1
  Bi2+  Bi111  1  0.32090914  0.75590462  0.70373964  1
  Bi2+  Bi112  1  0.56022246  0.05122681  0.20324397  1
  Bi2+  Bi113  1  0.67233579  0.00367265  0.70586642  1
  Bi2+  Bi114  1  0.62912226  0.32279850  0.19620764  1
  Bi2+  Bi115  1  0.63223674  0.28571646  0.71065426  1
  Bi2+  Bi116  1  0.68430833  0.50739976  0.20257108  1
  Bi2+  Bi117  1  0.64442381  0.51409824  0.70881741  1
  Bi2+  Bi118  1  0.61450367  0.78290225  0.19258247  1
  Bi2+  Bi119  1  0.58505238  0.77092237  0.70157310  1
  Bi2+  Bi120  1  0.94868644  0.05624675  0.23109300  1
  Bi2+  Bi121  1  0.86385923  -0.03476395  0.67942638  1
  Bi2+  Bi122  1  0.84708057  0.21627443  0.18605425  1
  Bi2+  Bi123  1  0.88766382  0.16338048  0.69111132  1
  Bi2+  Bi124  1  0.86785554  0.45978518  0.23933533  1
  Bi2+  Bi125  1  0.89330406  0.49666954  0.72296639  1
  Bi2+  Bi126  1  0.87008097  0.75919347  0.21204824  1
  Bi2+  Bi127  1  0.85327145  0.77266477  0.71489881  1
  S2-  S128  1  0.00763320  0.21993915  0.14151202  1
  S2-  S129  1  0.10344579  0.12172865  0.64117100  1
  S2-  S130  1  0.12934458  0.40070261  0.15325715  1
  S2-  S131  1  -0.06485064  0.33279100  0.64634960  1
  S2-  S132  1  -0.05619046  0.59180031  0.19324413  1
  S2-  S133  1  0.00929531  0.57680228  0.65870345  1
  S2-  S134  1  -0.00674770  0.79587892  0.14511122  1
  S2-  S135  1  0.03925451  0.87635722  0.65017921  1
  S2-  S136  1  0.26207910  -0.00475457  0.13585709  1
  S2-  S137  1  0.30644513  0.15301125  0.67709778  1
  S2-  S138  1  0.25346271  0.23841754  0.14203743  1
  S2-  S139  1  0.15627799  0.36547532  0.64555729  1
  S2-  S140  1  0.14780086  0.61798271  0.15152577  1
  S2-  S141  1  0.22961481  0.64604130  0.65520388  1
  S2-  S142  1  0.28486257  0.77172504  0.13644220  1
  S2-  S143  1  0.25285719  0.92654990  0.67186286  1
  S2-  S144  1  0.45358679  0.12159844  0.14117000  1
  S2-  S145  1  0.53588935  0.06417846  0.65118700  1
  S2-  S146  1  0.45892651  0.35901776  0.15487856  1
  S2-  S147  1  0.52629723  0.46314995  0.64837040  1
  S2-  S148  1  0.50904393  0.68504336  0.14876591  1
  S2-  S149  1  0.45245560  0.65789710  0.67554788  1
  S2-  S150  1  0.51885292  0.90265529  0.15599164  1
  S2-  S151  1  0.44251067  0.86525610  0.65893128  1
  S2-  S152  1  0.71135833  0.11066371  0.15447741  1
  S2-  S153  1  0.74929017  0.21681087  0.63885875  1
  S2-  S154  1  0.86965742  0.38482148  0.15231917  1
  S2-  S155  1  0.77651965  0.49234377  0.64642370  1
  S2-  S156  1  0.74183192  0.66880834  0.16012079  1
  S2-  S157  1  0.65973717  0.65021599  0.64547361  1
  S2-  S158  1  0.76271566  0.88300681  0.17063657  1
  S2-  S159  1  0.66439177  0.87185971  0.63492185  1
  S2-  S160  1  0.04023821  0.00202229  0.35368544  1
  S2-  S161  1  0.22408096  -0.00399153  0.84375048  1
  S2-  S162  1  0.03670978  0.25331258  0.35109234  1
  S2-  S163  1  0.10271704  0.14494876  0.84940333  1
  S2-  S164  1  0.10206433  0.47701636  0.34251516  1
  S2-  S165  1  0.11414071  0.39135370  0.86546743  1
  S2-  S166  1  0.04740694  0.73018425  0.34810329  1
  S2-  S167  1  0.17399068  0.75307640  0.84032331  1
  S2-  S168  1  0.28700217  0.00476805  0.36848851  1
  S2-  S169  1  0.41431874  0.05581553  0.80866196  1
  S2-  S170  1  0.28315529  0.23368212  0.36348381  1
  S2-  S171  1  0.28881793  0.25074346  0.85052657  1
  S2-  S172  1  0.37156212  0.50555975  0.34860853  1
  S2-  S173  1  0.35762410  0.58683724  0.86242463  1
  S2-  S174  1  0.47176843  0.74081064  0.36058794  1
  S2-  S175  1  0.36812082  0.85160689  0.84049100  1
  S2-  S176  1  0.56639331  -0.04520849  0.32261132  1
  S2-  S177  1  0.62579781  -0.04953454  0.84678754  1
  S2-  S178  1  0.63173524  0.16396233  0.35586176  1
  S2-  S179  1  0.63857868  0.33532591  0.85818684  1
  S2-  S180  1  0.62683070  0.57390871  0.36034381  1
  S2-  S181  1  0.59504969  0.54675471  0.80874825  1
  S2-  S182  1  0.69640402  0.76820419  0.33207128  1
  S2-  S183  1  0.52484272  0.73353612  0.84859595  1
  S2-  S184  1  0.78428861  0.00777394  0.34787776  1
  S2-  S185  1  0.86950167  -0.01152925  0.84882045  1
  S2-  S186  1  0.85254421  0.37681667  0.35903221  1
  S2-  S187  1  0.90025560  0.26387343  0.84313389  1
  S2-  S188  1  0.87970266  0.58873162  0.34766946  1
  S2-  S189  1  0.80092840  0.48923339  0.85995160  1
  S2-  S190  1  0.87607946  0.82688638  0.29950097  1
  S2-  S191  1  0.75613448  0.75321173  0.85980539  1
  S2-  S192  1  0.02168725  0.11975425  0.45312768  1
  S2-  S193  1  -0.00446804  0.13071964  0.95450453  1
  S2-  S194  1  0.01869348  0.37412126  0.45818044  1
  S2-  S195  1  -0.00296684  0.37883303  0.96526425  1
  S2-  S196  1  0.01124319  0.61887481  0.45318842  1
  S2-  S197  1  -0.00148129  0.62912329  0.95249882  1
  S2-  S198  1  0.01235519  0.86149606  0.44865398  1
  S2-  S199  1  -0.00124397  0.88032006  0.94975648  1
  S2-  S200  1  0.26619059  0.11956248  0.47004396  1
  S2-  S201  1  0.25681496  0.12753500  0.95304329  1
  S2-  S202  1  0.26597066  0.37339449  0.45889346  1
  S2-  S203  1  0.25637495  0.38246632  0.96374245  1
  S2-  S204  1  0.26744220  0.62016647  0.45191869  1
  S2-  S205  1  0.24696112  0.62706026  0.96170607  1
  S2-  S206  1  0.26732689  0.86335722  0.46602121  1
  S2-  S207  1  0.24822049  0.87883564  0.94942495  1
  S2-  S208  1  0.50773197  0.12186643  0.45232103  1
  S2-  S209  1  0.49899874  0.13186104  0.93992169  1
  S2-  S210  1  0.51370832  0.36701892  0.45460802  1
  S2-  S211  1  0.49871540  0.38356424  0.95297429  1
  S2-  S212  1  0.51417710  0.61275385  0.46785305  1
  S2-  S213  1  0.51505018  0.61309208  0.95297941  1
  S2-  S214  1  0.51742908  0.87475146  0.45571644  1
  S2-  S215  1  0.50155635  0.87665621  0.94867332  1
  S2-  S216  1  0.77280112  0.12730055  0.45130787  1
  S2-  S217  1  0.74844079  0.12949962  0.95109439  1
  S2-  S218  1  0.76264071  0.36930222  0.46442627  1
  S2-  S219  1  0.74707397  0.38187181  0.96788906  1
  S2-  S220  1  0.76790762  0.61601408  0.45711365  1
  S2-  S221  1  0.74711698  0.62275573  0.95586099  1
  S2-  S222  1  0.77072831  0.86211809  0.44384377  1
  S2-  S223  1  0.75054054  0.88021117  0.96120793  1
  S2-  S224  1  0.12515544  0.00275046  0.03340101  1
  S2-  S225  1  0.14081908  -0.01296333  0.54352703  1
  S2-  S226  1  0.13011678  0.25135195  0.03964707  1
  S2-  S227  1  0.13970558  0.24386624  0.54058184  1
  S2-  S228  1  0.12517676  0.50447379  0.04802538  1
  S2-  S229  1  0.14121346  0.49697146  0.54520681  1
  S2-  S230  1  0.12276642  0.75516658  0.04466068  1
  S2-  S231  1  0.14075656  0.74398920  0.54536376  1
  S2-  S232  1  0.38048216  -0.00098021  0.03075596  1
  S2-  S233  1  0.38821673  -0.00431137  0.55344892  1
  S2-  S234  1  0.37727037  0.25534060  0.04044660  1
  S2-  S235  1  0.39099522  0.24080959  0.55023958  1
  S2-  S236  1  0.37324867  0.50522543  0.05590714  1
  S2-  S237  1  0.38866261  0.49374402  0.55412768  1
  S2-  S238  1  0.38191222  0.74837383  0.03050001  1
  S2-  S239  1  0.39459263  0.74169082  0.55367876  1
  S2-  S240  1  0.62576467  0.00060333  0.04604026  1
  S2-  S241  1  0.64372787  0.00191406  0.53196814  1
  S2-  S242  1  0.62475228  0.25236353  0.05092644  1
  S2-  S243  1  0.63496495  0.24250012  0.54495474  1
  S2-  S244  1  0.62282952  0.50376243  0.06230324  1
  S2-  S245  1  0.64259287  0.48699763  0.54797403  1
  S2-  S246  1  0.62596081  0.75419980  0.04124657  1
  S2-  S247  1  0.64135133  0.73855625  0.53628578  1
  S2-  S248  1  0.87294549  0.00487073  0.05562073  1
  S2-  S249  1  0.89236760  -0.00513336  0.53741014  1
  S2-  S250  1  0.86909470  0.24928827  0.04780148  1
  S2-  S251  1  0.89814106  0.24003458  0.53705953  1
  S2-  S252  1  0.88069072  0.51147116  0.05577545  1
  S2-  S253  1  0.89388823  0.49127360  0.54238843  1
  S2-  S254  1  0.87402295  0.75488710  0.04358310  1
  S2-  S255  1  0.88456843  0.74061919  0.56077994  1
