# generated using pymatgen
data_La12Ce14Pr13Nd13Sm12(BiS2)64
_symmetry_space_group_name_H-M   'P 1'
_cell_length_a   16.06551088
_cell_length_b   16.09678881
_cell_length_c   27.38690870
_cell_angle_alpha   90.27554957
_cell_angle_beta   89.32848475
_cell_angle_gamma   90.10936506
_symmetry_Int_Tables_number   1
_chemical_formula_structural   La12Ce14Pr13Nd13Sm12(BiS2)64
_chemical_formula_sum   'La12 Ce14 Pr13 Nd13 Sm12 Bi64 S128'
_cell_volume   7081.76000050
_cell_formula_units_Z   1
loop_
 _symmetry_equiv_pos_site_id
 _symmetry_equiv_pos_as_xyz
  1  'x, y, z'
loop_
 _atom_type_symbol
 _atom_type_oxidation_number
  La3+  3.0
  Ce3+  3.0
  Pr3+  3.0
  Nd3+  3.0
  Sm3+  3.0
  Bi2+  2.0
  S2-  -2.0
loop_
 _atom_site_type_symbol
 _atom_site_label
 _atom_site_symmetry_multiplicity
 _atom_site_fract_x
 _atom_site_fract_y
 _atom_site_fract_z
 _atom_site_occupancy
  La3+  La0  1  0.49342079  0.12768609  0.55978831  1
  La3+  La1  1  0.12710024  0.00090863  0.42374139  1
  La3+  La2  1  0.64418487  0.74810069  0.93367593  1
  La3+  La3  1  0.76891402  0.37880864  0.07093815  1
  La3+  La4  1  0.24312371  0.62563058  0.57154484  1
  La3+  La5  1  0.14946063  0.75114549  0.92732675  1
  La3+  La6  1  0.73343200  0.36972241  0.58003571  1
  La3+  La7  1  0.52307396  0.62652345  0.08196552  1
  La3+  La8  1  0.14854977  0.25398553  0.93027279  1
  La3+  La9  1  0.37081920  0.49523221  0.41485532  1
  La3+  La10  1  0.27214640  0.63330117  0.08206581  1
  La3+  La11  1  0.62426182  0.74593878  0.41835331  1
  Ce3+  Ce12  1  0.36776040  0.74860140  0.43753435  1
  Ce3+  Ce13  1  0.02463543  0.13054276  0.06326187  1
  Ce3+  Ce14  1  0.49506255  0.87105786  0.55207439  1
  Ce3+  Ce15  1  0.40094897  0.50364822  0.95283261  1
  Ce3+  Ce16  1  0.12366183  0.50768120  0.43079546  1
  Ce3+  Ce17  1  0.62104021  -0.00035471  0.43924005  1
  Ce3+  Ce18  1  0.27112481  0.87750380  0.06681646  1
  Ce3+  Ce19  1  0.49585958  0.38103907  0.54843906  1
  Ce3+  Ce20  1  -0.00142162  0.62702405  0.55694650  1
  Ce3+  Ce21  1  0.62957081  0.24867104  0.42763440  1
  Ce3+  Ce22  1  0.87012738  0.49928224  0.45032067  1
  Ce3+  Ce23  1  0.15914376  0.50450911  0.94056644  1
  Ce3+  Ce24  1  0.87227866  0.75115860  0.44400540  1
  Ce3+  Ce25  1  0.36930711  0.00046141  0.43988217  1
  Pr3+  Pr26  1  0.12122168  0.25283823  0.43212963  1
  Pr3+  Pr27  1  0.24132251  0.37608648  0.56975439  1
  Pr3+  Pr28  1  0.64870944  0.25592791  0.93437978  1
  Pr3+  Pr29  1  -0.00383374  0.37723921  0.56190044  1
  Pr3+  Pr30  1  0.77188131  0.87354061  0.06628124  1
  Pr3+  Pr31  1  0.51384233  0.36829767  0.07411324  1
  Pr3+  Pr32  1  0.37258075  0.25017643  0.43435665  1
  Pr3+  Pr33  1  0.89739318  0.25191360  0.93186563  1
  Pr3+  Pr34  1  0.39977869  0.24882997  0.92446200  1
  Pr3+  Pr35  1  0.64879204  0.00348936  0.94550588  1
  Pr3+  Pr36  1  0.02137760  0.63238749  0.05657232  1
  Pr3+  Pr37  1  0.65352580  0.50307471  0.94198296  1
  Pr3+  Pr38  1  0.89692835  0.00378108  0.94605188  1
  Nd3+  Nd39  1  0.15028489  0.00222362  0.94509508  1
  Nd3+  Nd40  1  0.23975669  0.87602504  0.57522449  1
  Nd3+  Nd41  1  0.02121675  0.37899796  0.05409753  1
  Nd3+  Nd42  1  0.77330819  0.13113251  0.07219401  1
  Nd3+  Nd43  1  0.26861509  0.38190560  0.07161600  1
  Nd3+  Nd44  1  0.63742445  0.49337245  0.42077578  1
  Nd3+  Nd45  1  0.73902333  0.62635425  0.56148756  1
  Nd3+  Nd46  1  0.12223502  0.75590428  0.43188181  1
  Nd3+  Nd47  1  -0.00396404  0.12484748  0.55814284  1
  Nd3+  Nd48  1  0.24264863  0.12563329  0.56463087  1
  Nd3+  Nd49  1  0.76948010  0.62961542  0.07739241  1
  Nd3+  Nd50  1  0.89634454  0.74917585  0.92855141  1
  Nd3+  Nd51  1  -0.00422224  0.87823052  0.56104816  1
  Sm3+  Sm52  1  0.39652987  0.74753348  0.94034196  1
  Sm3+  Sm53  1  0.52171797  0.87748183  0.05925786  1
  Sm3+  Sm54  1  0.39753525  0.00459329  0.94644747  1
  Sm3+  Sm55  1  0.74388421  0.12643449  0.55869322  1
  Sm3+  Sm56  1  0.87093210  0.00134079  0.44134187  1
  Sm3+  Sm57  1  0.49635041  0.62329408  0.54506461  1
  Sm3+  Sm58  1  0.89605721  0.50415650  0.94341478  1
  Sm3+  Sm59  1  0.74298777  0.87509033  0.55098298  1
  Sm3+  Sm60  1  0.52104617  0.12953852  0.05907291  1
  Sm3+  Sm61  1  0.87218834  0.25205424  0.44677906  1
  Sm3+  Sm62  1  0.02167707  0.87728595  0.05452176  1
  Sm3+  Sm63  1  0.27261923  0.13050235  0.06065771  1
  Bi2+  Bi64  1  -0.03213870  0.13661535  0.29577429  1
  Bi2+  Bi65  1  -0.01534766  0.11212169  0.79287326  1
  Bi2+  Bi66  1  0.04429528  0.38577533  0.32694915  1
  Bi2+  Bi67  1  -0.09339214  0.33197742  0.79746442  1
  Bi2+  Bi68  1  -0.00335852  0.57295620  0.29660187  1
  Bi2+  Bi69  1  -0.00681657  0.60617869  0.80203814  1
  Bi2+  Bi70  1  -0.04487471  0.86900030  0.29161995  1
  Bi2+  Bi71  1  -0.02907395  0.84415388  0.76171743  1
  Bi2+  Bi72  1  0.23269800  0.14607336  0.28597595  1
  Bi2+  Bi73  1  0.25647894  0.12722143  0.79851043  1
  Bi2+  Bi74  1  0.22978024  0.34659255  0.28960733  1
  Bi2+  Bi75  1  0.20354660  0.37862123  0.78112207  1
  Bi2+  Bi76  1  0.26674080  0.63410733  0.29787600  1
  Bi2+  Bi77  1  0.23051366  0.62112632  0.80600759  1
  Bi2+  Bi78  1  0.19473799  0.92201139  0.27126220  1
  Bi2+  Bi79  1  0.23335489  0.88395764  0.79030930  1
  Bi2+  Bi80  1  0.41097955  0.11434557  0.32425094  1
  Bi2+  Bi81  1  0.51535930  0.06209076  0.78628068  1
  Bi2+  Bi82  1  0.49353393  0.28534919  0.28538598  1
  Bi2+  Bi83  1  0.47958140  0.36047267  0.77275081  1
  Bi2+  Bi84  1  0.50872884  0.68442528  0.29071613  1
  Bi2+  Bi85  1  0.47055463  0.61688894  0.80122711  1
  Bi2+  Bi86  1  0.45738071  0.96676335  0.25383454  1
  Bi2+  Bi87  1  0.55138965  0.86077289  0.78410623  1
  Bi2+  Bi88  1  0.64885096  0.16517617  0.27569056  1
  Bi2+  Bi89  1  0.78708989  0.08585624  0.76644146  1
  Bi2+  Bi90  1  0.77887673  0.36067600  0.29653388  1
  Bi2+  Bi91  1  0.67277012  0.34093324  0.79622115  1
  Bi2+  Bi92  1  0.77954679  0.63006627  0.29193035  1
  Bi2+  Bi93  1  0.72964317  0.60134659  0.79920656  1
  Bi2+  Bi94  1  0.72077774  0.92278038  0.29073013  1
  Bi2+  Bi95  1  0.77560630  0.84057745  0.77558033  1
  Bi2+  Bi96  1  0.04175556  0.00612977  0.21724801  1
  Bi2+  Bi97  1  0.11920989  -0.00682701  0.70728327  1
  Bi2+  Bi98  1  0.07233926  0.27737839  0.23349364  1
  Bi2+  Bi99  1  0.12907606  0.24913625  0.70847323  1
  Bi2+  Bi100  1  0.12027061  0.49416920  0.21445396  1
  Bi2+  Bi101  1  0.13765253  0.50650894  0.70396263  1
  Bi2+  Bi102  1  0.11561380  0.77006349  0.21158281  1
  Bi2+  Bi103  1  0.14544627  0.74687111  0.71138327  1
  Bi2+  Bi104  1  0.30170386  0.00635453  0.18447775  1
  Bi2+  Bi105  1  0.35528203  -0.00071260  0.72557566  1
  Bi2+  Bi106  1  0.37165382  0.19521244  0.19442310  1
  Bi2+  Bi107  1  0.37084631  0.22438067  0.71983782  1
  Bi2+  Bi108  1  0.39295596  0.48790701  0.20946555  1
  Bi2+  Bi109  1  0.35068030  0.50405947  0.73604804  1
  Bi2+  Bi110  1  0.38923571  0.79317712  0.20893515  1
  Bi2+  Bi111  1  0.38001582  0.80010881  0.72667506  1
  Bi2+  Bi112  1  0.57904111  0.06140942  0.18542326  1
  Bi2+  Bi113  1  0.64852834  -0.01489251  0.70897881  1
  Bi2+  Bi114  1  0.63358745  0.32569310  0.20171250  1
  Bi2+  Bi115  1  0.61415304  0.24660617  0.70550632  1
  Bi2+  Bi116  1  0.67101475  0.52459463  0.22030745  1
  Bi2+  Bi117  1  0.63361786  0.50378876  0.69476571  1
  Bi2+  Bi118  1  0.67757840  0.79754546  0.20476271  1
  Bi2+  Bi119  1  0.59477166  0.73767371  0.68589960  1
  Bi2+  Bi120  1  0.76267674  -0.02097057  0.18195479  1
  Bi2+  Bi121  1  0.85469389  -0.05157257  0.68899382  1
  Bi2+  Bi122  1  0.82870191  0.15555464  0.21795352  1
  Bi2+  Bi123  1  0.89597082  0.21419912  0.70734675  1
  Bi2+  Bi124  1  0.90380380  0.44387836  0.22186340  1
  Bi2+  Bi125  1  0.92311539  0.47867551  0.72472039  1
  Bi2+  Bi126  1  0.91061531  0.67248077  0.21058218  1
  Bi2+  Bi127  1  0.88281024  0.67777777  0.71909888  1
  S2-  S128  1  -0.03481949  0.12598595  0.15377531  1
  S2-  S129  1  0.02815616  0.12501106  0.65617458  1
  S2-  S130  1  0.02558955  0.37429382  0.15339647  1
  S2-  S131  1  0.09424413  0.37223613  0.64361910  1
  S2-  S132  1  0.05986295  0.63444083  0.15453406  1
  S2-  S133  1  0.08704078  0.63217765  0.63965373  1
  S2-  S134  1  0.02319120  0.87290738  0.15336158  1
  S2-  S135  1  0.09168184  0.87220462  0.64376567  1
  S2-  S136  1  0.21626454  0.15401263  0.15287806  1
  S2-  S137  1  0.24693292  0.01262183  0.64355805  1
  S2-  S138  1  0.36753972  0.34975591  0.15165932  1
  S2-  S139  1  0.26135941  0.24296955  0.64211976  1
  S2-  S140  1  0.24842978  0.50427250  0.15274821  1
  S2-  S141  1  0.27879762  0.49938496  0.64158243  1
  S2-  S142  1  0.24872949  0.77544011  0.14592707  1
  S2-  S143  1  0.27310952  0.75030620  0.64746809  1
  S2-  S144  1  0.52729577  0.22117899  0.14228770  1
  S2-  S145  1  0.49567193  0.14498968  0.65960811  1
  S2-  S146  1  0.53970534  0.46663978  0.15872555  1
  S2-  S147  1  0.56906395  0.37722807  0.63722753  1
  S2-  S148  1  0.41061267  0.64260434  0.16431443  1
  S2-  S149  1  0.51725729  0.61223559  0.64413239  1
  S2-  S150  1  0.52768533  0.84400490  0.15584207  1
  S2-  S151  1  0.48491485  0.86146826  0.64879615  1
  S2-  S152  1  0.76570013  0.25586745  0.14440977  1
  S2-  S153  1  0.74025119  0.21340545  0.64317034  1
  S2-  S154  1  0.79394401  0.49711806  0.14913578  1
  S2-  S155  1  0.77427203  0.42910719  0.67406661  1
  S2-  S156  1  0.64560082  0.65037298  0.15499542  1
  S2-  S157  1  0.73324543  0.64129622  0.66111240  1
  S2-  S158  1  0.81610929  0.76241035  0.14217434  1
  S2-  S159  1  0.71450591  0.85795151  0.64695918  1
  S2-  S160  1  0.09347662  -0.12618516  0.35329094  1
  S2-  S161  1  0.14693747  0.00953486  0.84596394  1
  S2-  S162  1  0.11060967  0.13540299  0.35564625  1
  S2-  S163  1  0.02274406  0.24207571  0.85571478  1
  S2-  S164  1  0.22934190  0.49413554  0.35216894  1
  S2-  S165  1  0.11626038  0.49388367  0.84478544  1
  S2-  S166  1  0.12593085  0.66109671  0.34660431  1
  S2-  S167  1  0.01897625  0.75205395  0.85196420  1
  S2-  S168  1  0.28300551  -0.01009287  0.35692513  1
  S2-  S169  1  0.39391464  0.08369924  0.85922491  1
  S2-  S170  1  0.37574650  0.34606957  0.35035050  1
  S2-  S171  1  0.26902221  0.27132731  0.85508683  1
  S2-  S172  1  0.42357472  0.54826127  0.31028065  1
  S2-  S173  1  0.34795830  0.52997422  0.86128741  1
  S2-  S174  1  0.36263104  0.75424752  0.33836101  1
  S2-  S175  1  0.28340780  0.75518860  0.86085555  1
  S2-  S176  1  0.66184603  0.05577153  0.35130053  1
  S2-  S177  1  0.62748389  -0.01487115  0.84686353  1
  S2-  S178  1  0.62987921  0.36060687  0.35165939  1
  S2-  S179  1  0.53421514  0.27068289  0.85624142  1
  S2-  S180  1  0.62460897  0.61454887  0.34674766  1
  S2-  S181  1  0.58789989  0.54216537  0.84894759  1
  S2-  S182  1  0.59965620  0.83036555  0.32890196  1
  S2-  S183  1  0.51210866  0.74587699  0.86252333  1
  S2-  S184  1  0.88988221  -0.00421390  0.34300989  1
  S2-  S185  1  0.88019926  0.01540914  0.84666905  1
  S2-  S186  1  0.84849694  0.23846568  0.35010338  1
  S2-  S187  1  0.77243183  0.25145794  0.85827670  1
  S2-  S188  1  0.80277461  0.49546680  0.36161992  1
  S2-  S189  1  0.79795413  0.50725771  0.86283191  1
  S2-  S190  1  0.85088683  0.75971341  0.34695191  1
  S2-  S191  1  0.76773438  0.74211326  0.85781147  1
  S2-  S192  1  -0.00861781  0.12546510  0.45403771  1
  S2-  S193  1  0.02438293  0.12522066  0.95774679  1
  S2-  S194  1  -0.00469622  0.37616934  0.45584724  1
  S2-  S195  1  0.02213765  0.38397606  0.95013670  1
  S2-  S196  1  -0.00586859  0.62692324  0.45195177  1
  S2-  S197  1  0.02345517  0.62321424  0.95148631  1
  S2-  S198  1  -0.00849715  0.87882125  0.45704506  1
  S2-  S199  1  0.02279089  0.87993548  0.95083188  1
  S2-  S200  1  0.24812862  0.12875885  0.45732956  1
  S2-  S201  1  0.27140577  0.12667504  0.95778805  1
  S2-  S202  1  0.24362498  0.37352483  0.45613507  1
  S2-  S203  1  0.27473567  0.37828374  0.96255521  1
  S2-  S204  1  0.24617966  0.62779570  0.45477859  1
  S2-  S205  1  0.27427382  0.62941225  0.96738580  1
  S2-  S206  1  0.24802564  0.87392931  0.45977210  1
  S2-  S207  1  0.27611975  0.88127980  0.95921918  1
  S2-  S208  1  0.49927628  0.12636494  0.45161180  1
  S2-  S209  1  0.52342826  0.12638646  0.95663584  1
  S2-  S210  1  0.50313189  0.37586630  0.44717639  1
  S2-  S211  1  0.52278337  0.37994158  0.96141559  1
  S2-  S212  1  0.49472934  0.62186447  0.44235685  1
  S2-  S213  1  0.52098465  0.62743352  0.96747698  1
  S2-  S214  1  0.49557471  0.87522126  0.44533126  1
  S2-  S215  1  0.51865281  0.88170662  0.95613130  1
  S2-  S216  1  0.75074340  0.12549783  0.45635919  1
  S2-  S217  1  0.77211331  0.12745977  0.96279096  1
  S2-  S218  1  0.74976526  0.37059147  0.46348071  1
  S2-  S219  1  0.77622788  0.37801887  0.96239338  1
  S2-  S220  1  0.74885470  0.62716618  0.45585799  1
  S2-  S221  1  0.77473119  0.62881609  0.96621167  1
  S2-  S222  1  0.74674250  0.87697609  0.44721652  1
  S2-  S223  1  0.77223571  0.87765235  0.95743278  1
  S2-  S224  1  0.14685917  0.00289291  0.05150739  1
  S2-  S225  1  0.11839002  0.00225357  0.53851573  1
  S2-  S226  1  0.14776682  0.25465255  0.04332098  1
  S2-  S227  1  0.11720457  0.24796297  0.53955937  1
  S2-  S228  1  0.14446684  0.50448172  0.04622922  1
  S2-  S229  1  0.11900820  0.50136705  0.53821391  1
  S2-  S230  1  0.14486113  0.75792965  0.03910333  1
  S2-  S231  1  0.11825367  0.75410991  0.53848270  1
  S2-  S232  1  0.39812197  0.00483794  0.05123696  1
  S2-  S233  1  0.37137823  -0.00208908  0.54536287  1
  S2-  S234  1  0.39358534  0.24704472  0.03895445  1
  S2-  S235  1  0.37281380  0.25436199  0.54118010  1
  S2-  S236  1  0.39566964  0.50339945  0.05530242  1
  S2-  S237  1  0.37394497  0.50188573  0.53339095  1
  S2-  S238  1  0.39887787  0.75749195  0.04727118  1
  S2-  S239  1  0.37320725  0.74736587  0.54195784  1
  S2-  S240  1  0.64620976  0.00394213  0.05168222  1
  S2-  S241  1  0.62206592  0.00096637  0.54705382  1
  S2-  S242  1  0.64606722  0.24916219  0.04147583  1
  S2-  S243  1  0.61982580  0.24714252  0.53662297  1
  S2-  S244  1  0.64513434  0.50135812  0.04907230  1
  S2-  S245  1  0.62314010  0.50269079  0.53517499  1
  S2-  S246  1  0.64433145  0.75667107  0.04429534  1
  S2-  S247  1  0.62072718  0.75024156  0.53405497  1
  S2-  S248  1  0.89719710  0.00242043  0.05161283  1
  S2-  S249  1  0.86700425  0.00119682  0.54694235  1
  S2-  S250  1  0.89943442  0.25208482  0.04264361  1
  S2-  S251  1  0.87157329  0.25032873  0.55031657  1
  S2-  S252  1  0.89945735  0.50522681  0.04632994  1
  S2-  S253  1  0.86874314  0.50216159  0.55640165  1
  S2-  S254  1  0.90147659  0.75670968  0.03550310  1
  S2-  S255  1  0.86908780  0.75252166  0.55238334  1
