# generated using pymatgen
data_La12Ce14Pr13Nd13Sm12(BiS2)64
_symmetry_space_group_name_H-M   'P 1'
_cell_length_a   16.17170533
_cell_length_b   16.18458982
_cell_length_c   27.30360878
_cell_angle_alpha   90.10306231
_cell_angle_beta   90.04587645
_cell_angle_gamma   90.02793832
_symmetry_Int_Tables_number   1
_chemical_formula_structural   La12Ce14Pr13Nd13Sm12(BiS2)64
_chemical_formula_sum   'La12 Ce14 Pr13 Nd13 Sm12 Bi64 S128'
_cell_volume   7146.22482608
_cell_formula_units_Z   1
loop_
 _symmetry_equiv_pos_site_id
 _symmetry_equiv_pos_as_xyz
  1  'x, y, z'
loop_
 _atom_type_symbol
 _atom_type_oxidation_number
  La3+  3.0
  Ce3+  3.0
  Pr3+  3.0
  Nd3+  3.0
  Sm3+  3.0
  Bi2+  2.0
  S2-  -2.0
loop_
 _atom_site_type_symbol
 _atom_site_label
 _atom_site_symmetry_multiplicity
 _atom_site_fract_x
 _atom_site_fract_y
 _atom_site_fract_z
 _atom_site_occupancy
  La3+  La0  1  0.11878366  0.50734073  0.43731846  1
  La3+  La1  1  0.36526160  0.25843816  0.42740148  1
  La3+  La2  1  0.74346266  0.87439145  0.06266744  1
  La3+  La3  1  0.62184313  0.50949067  0.91759242  1
  La3+  La4  1  0.49433447  0.60775569  0.09661177  1
  La3+  La5  1  0.49242927  0.87521294  0.06550112  1
  La3+  La6  1  0.63316551  0.23754986  0.89080140  1
  La3+  La7  1  0.37816521  0.51594200  0.42352104  1
  La3+  La8  1  0.75018696  0.62937606  0.07152608  1
  La3+  La9  1  0.50263081  0.37761695  0.61244007  1
  La3+  La10  1  0.86164420  0.26523336  0.41902272  1
  La3+  La11  1  0.10860787  -0.00033033  0.41735119  1
  Ce3+  Ce12  1  -0.00371237  0.37881039  0.55858179  1
  Ce3+  Ce13  1  0.49229722  0.13737478  0.56179190  1
  Ce3+  Ce14  1  0.36970643  0.74689789  0.94798820  1
  Ce3+  Ce15  1  0.62036347  0.00049822  0.94198171  1
  Ce3+  Ce16  1  0.11873556  0.25079387  0.94724734  1
  Ce3+  Ce17  1  0.74038261  0.63000697  0.56277747  1
  Ce3+  Ce18  1  0.11980909  -0.00016225  0.93928051  1
  Ce3+  Ce19  1  0.61837701  0.00558555  0.45206505  1
  Ce3+  Ce20  1  0.24474137  0.12820477  0.06007825  1
  Ce3+  Ce21  1  0.86832310  0.00683536  0.44175692  1
  Ce3+  Ce22  1  0.49692580  0.38028745  0.04595672  1
  Ce3+  Ce23  1  0.37125544  -0.00004966  0.94454230  1
  Ce3+  Ce24  1  0.74175392  0.12918650  0.06090641  1
  Ce3+  Ce25  1  0.49342771  0.88088343  0.57026568  1
  Pr3+  Pr26  1  -0.00533868  0.12775682  0.06061733  1
  Pr3+  Pr27  1  0.37084220  0.00549813  0.44067919  1
  Pr3+  Pr28  1  0.61429784  0.50661727  0.44370934  1
  Pr3+  Pr29  1  -0.00224456  0.63848322  0.57444886  1
  Pr3+  Pr30  1  0.11380343  0.75928174  0.43992469  1
  Pr3+  Pr31  1  0.49095661  0.63479841  0.56791260  1
  Pr3+  Pr32  1  0.11752201  0.75833969  0.90211070  1
  Pr3+  Pr33  1  0.24288317  0.87457702  0.05904103  1
  Pr3+  Pr34  1  0.86757382  0.50795740  0.44524670  1
  Pr3+  Pr35  1  0.24030434  0.88871114  0.56244394  1
  Pr3+  Pr36  1  0.36373389  0.50300870  0.92886264  1
  Pr3+  Pr37  1  0.11460990  0.25471557  0.42598256  1
  Pr3+  Pr38  1  -0.00453863  0.13641460  0.55921951  1
  Nd3+  Nd39  1  0.86933884  0.74907814  0.93500033  1
  Nd3+  Nd40  1  0.74402856  0.88458912  0.56574749  1
  Nd3+  Nd41  1  0.24731977  0.37808825  0.06466676  1
  Nd3+  Nd42  1  0.24262829  0.62303788  0.05797637  1
  Nd3+  Nd43  1  0.37116138  0.24977894  0.94244237  1
  Nd3+  Nd44  1  0.74291924  0.14074498  0.55779005  1
  Nd3+  Nd45  1  0.74002952  0.37910982  0.05183375  1
  Nd3+  Nd46  1  -0.01135177  0.89217065  0.57375316  1
  Nd3+  Nd47  1  -0.00452604  0.62505488  0.05677285  1
  Nd3+  Nd48  1  -0.01461687  0.37650295  0.06839352  1
  Nd3+  Nd49  1  -0.00327917  0.87489727  0.05896505  1
  Nd3+  Nd50  1  0.36987192  0.76089957  0.44156912  1
  Nd3+  Nd51  1  0.25416478  0.38431540  0.55522387  1
  Sm3+  Sm52  1  0.87102728  0.49824453  0.93748085  1
  Sm3+  Sm53  1  0.61741584  0.74478871  0.94966763  1
  Sm3+  Sm54  1  0.61903290  0.75928628  0.44426048  1
  Sm3+  Sm55  1  0.11937646  0.49916921  0.93866515  1
  Sm3+  Sm56  1  0.86867016  -0.00078219  0.94811318  1
  Sm3+  Sm57  1  0.24576653  0.63203296  0.55604873  1
  Sm3+  Sm58  1  0.49660012  0.12938712  0.05516444  1
  Sm3+  Sm59  1  0.86906759  0.25032872  0.93792485  1
  Sm3+  Sm60  1  0.61010775  0.25616273  0.43450692  1
  Sm3+  Sm61  1  0.74169296  0.38235739  0.56004639  1
  Sm3+  Sm62  1  0.86880505  0.75641321  0.45203301  1
  Sm3+  Sm63  1  0.24221794  0.13286390  0.54790863  1
  Bi2+  Bi64  1  0.00226389  0.10893665  0.28415554  1
  Bi2+  Bi65  1  0.00173505  0.18440503  0.78483307  1
  Bi2+  Bi66  1  -0.03211285  0.38117593  0.28912461  1
  Bi2+  Bi67  1  -0.01804742  0.45039685  0.82475118  1
  Bi2+  Bi68  1  0.00543051  0.63802209  0.29413772  1
  Bi2+  Bi69  1  -0.05354582  0.62834599  0.78176942  1
  Bi2+  Bi70  1  -0.00065177  0.85165354  0.29822120  1
  Bi2+  Bi71  1  -0.00960623  0.89331188  0.78548664  1
  Bi2+  Bi72  1  0.30674856  0.14802678  0.29920122  1
  Bi2+  Bi73  1  0.18100789  0.10518480  0.78989903  1
  Bi2+  Bi74  1  0.20196606  0.39672133  0.28435935  1
  Bi2+  Bi75  1  0.23671987  0.35638473  0.79128951  1
  Bi2+  Bi76  1  0.24073483  0.64136862  0.23183717  1
  Bi2+  Bi77  1  0.29784997  0.61482901  0.80027062  1
  Bi2+  Bi78  1  0.29432667  0.84812525  0.30299821  1
  Bi2+  Bi79  1  0.25902287  0.90162897  0.78626499  1
  Bi2+  Bi80  1  0.56402601  0.12740753  0.28572955  1
  Bi2+  Bi81  1  0.46034577  0.09665956  0.79188954  1
  Bi2+  Bi82  1  0.46027055  0.37759209  0.29923904  1
  Bi2+  Bi83  1  0.46675170  0.36053206  0.81187056  1
  Bi2+  Bi84  1  0.48302402  0.64155439  0.29543957  1
  Bi2+  Bi85  1  0.50612746  0.67145112  0.78854543  1
  Bi2+  Bi86  1  0.54718424  0.88053543  0.28936151  1
  Bi2+  Bi87  1  0.54515559  0.87071978  0.78581881  1
  Bi2+  Bi88  1  0.76083147  0.09886414  0.26551876  1
  Bi2+  Bi89  1  0.76219942  0.04976756  0.78899842  1
  Bi2+  Bi90  1  0.72748506  0.36151825  0.28482191  1
  Bi2+  Bi91  1  0.79422368  0.37703513  0.79650368  1
  Bi2+  Bi92  1  0.80948136  0.62825664  0.28915204  1
  Bi2+  Bi93  1  0.75334667  0.65406664  0.79188786  1
  Bi2+  Bi94  1  0.73980639  0.90369984  0.28046863  1
  Bi2+  Bi95  1  0.74748311  0.84926745  0.79624970  1
  Bi2+  Bi96  1  0.20827898  -0.01071537  0.23342586  1
  Bi2+  Bi97  1  0.16078624  -0.01269599  0.69961744  1
  Bi2+  Bi98  1  0.11539177  0.21586241  0.20910128  1
  Bi2+  Bi99  1  0.12336023  0.26621447  0.70328158  1
  Bi2+  Bi100  1  0.07134356  0.57659886  0.18740847  1
  Bi2+  Bi101  1  0.10514700  0.45786112  0.73172689  1
  Bi2+  Bi102  1  0.10539304  0.76839110  0.20565771  1
  Bi2+  Bi103  1  0.14037338  0.71133657  0.70219249  1
  Bi2+  Bi104  1  0.39919687  0.06621660  0.21689612  1
  Bi2+  Bi105  1  0.46425411  -0.01347772  0.69549333  1
  Bi2+  Bi106  1  0.37198131  0.26762216  0.21189620  1
  Bi2+  Bi107  1  0.30471441  0.20785812  0.72287469  1
  Bi2+  Bi108  1  0.36839587  0.47488930  0.20868944  1
  Bi2+  Bi109  1  0.35171076  0.50572422  0.70500512  1
  Bi2+  Bi110  1  0.38881808  0.80660994  0.21033691  1
  Bi2+  Bi111  1  0.38722872  0.80848251  0.71851832  1
  Bi2+  Bi112  1  0.64557431  -0.00254099  0.19092494  1
  Bi2+  Bi113  1  0.65884888  -0.03492228  0.70037793  1
  Bi2+  Bi114  1  0.58023515  0.28290594  0.21662237  1
  Bi2+  Bi115  1  0.64422914  0.22342491  0.70266817  1
  Bi2+  Bi116  1  0.61256491  0.47208309  0.22571594  1
  Bi2+  Bi117  1  0.62432149  0.50103355  0.71585163  1
  Bi2+  Bi118  1  0.66760787  0.69788970  0.22307041  1
  Bi2+  Bi119  1  0.65208215  0.76423479  0.69581416  1
  Bi2+  Bi120  1  0.89128853  -0.02926921  0.21816399  1
  Bi2+  Bi121  1  0.92234605  0.03944535  0.72156673  1
  Bi2+  Bi122  1  0.87874724  0.25400599  0.18717773  1
  Bi2+  Bi123  1  0.88114504  0.27545687  0.70984920  1
  Bi2+  Bi124  1  0.88520858  0.50387092  0.21332148  1
  Bi2+  Bi125  1  0.90016191  0.47196711  0.71363190  1
  Bi2+  Bi126  1  0.88988316  0.76603106  0.19791872  1
  Bi2+  Bi127  1  0.87882979  0.78344913  0.71326546  1
  S2-  S128  1  -0.00562754  0.12741723  0.16147486  1
  S2-  S129  1  0.01895716  0.02551646  0.63979408  1
  S2-  S130  1  0.02444900  0.33971923  0.16378191  1
  S2-  S131  1  -0.00223303  0.26293646  0.63116138  1
  S2-  S132  1  -0.10725680  0.62327803  0.13787106  1
  S2-  S133  1  0.05715305  0.57731587  0.66382569  1
  S2-  S134  1  0.00952454  0.89224151  0.15765736  1
  S2-  S135  1  0.01439110  0.77416551  0.64586921  1
  S2-  S136  1  0.21349182  0.11877820  0.15642662  1
  S2-  S137  1  0.25359537  0.10672314  0.64601522  1
  S2-  S138  1  0.24848715  0.36907354  0.16483882  1
  S2-  S139  1  0.33023754  0.37847434  0.64432897  1
  S2-  S140  1  0.32563065  0.60074503  0.14399712  1
  S2-  S141  1  0.26947127  0.62547979  0.65454095  1
  S2-  S142  1  0.25661902  0.89426915  0.15901699  1
  S2-  S143  1  0.23387070  0.84192261  0.65959222  1
  S2-  S144  1  0.52031946  0.10687656  0.15154614  1
  S2-  S145  1  0.50619467  0.20946819  0.64991997  1
  S2-  S146  1  0.48638069  0.44373202  0.13674434  1
  S2-  S147  1  0.49979075  0.39341723  0.72130192  1
  S2-  S148  1  0.49987892  0.68670792  0.19165737  1
  S2-  S149  1  0.49778563  0.54426454  0.65370731  1
  S2-  S150  1  0.52102399  0.89011342  0.16435852  1
  S2-  S151  1  0.49451814  0.76340703  0.64280305  1
  S2-  S152  1  0.75622581  0.14245230  0.15809634  1
  S2-  S153  1  0.78347450  0.15913171  0.65381351  1
  S2-  S154  1  0.81947058  0.38286693  0.14140468  1
  S2-  S155  1  0.67367191  0.37584665  0.65188834  1
  S2-  S156  1  0.65581673  0.57850108  0.15060261  1
  S2-  S157  1  0.72074858  0.61824580  0.66002501  1
  S2-  S158  1  0.74645121  0.78484521  0.14850433  1
  S2-  S159  1  0.82819736  0.90693952  0.65130955  1
  S2-  S160  1  0.14550987  0.07551185  0.32401298  1
  S2-  S161  1  0.12182252  -0.08567491  0.85383573  1
  S2-  S162  1  0.23629685  0.27504692  0.35058352  1
  S2-  S163  1  0.13210922  0.25196549  0.85012124  1
  S2-  S164  1  0.08454828  0.49163081  0.33841406  1
  S2-  S165  1  0.22690807  0.49029467  0.86038789  1
  S2-  S166  1  0.13411143  0.85277919  0.35588248  1
  S2-  S167  1  0.16161690  0.69881237  0.80672489  1
  S2-  S168  1  0.36226637  -0.01380104  0.34056089  1
  S2-  S169  1  0.36251703  -0.01290768  0.84737682  1
  S2-  S170  1  0.49317595  0.23857294  0.35491534  1
  S2-  S171  1  0.37528842  0.21906112  0.84502747  1
  S2-  S172  1  0.31418724  0.47782287  0.32962801  1
  S2-  S173  1  0.45094237  0.52719280  0.84037066  1
  S2-  S174  1  0.36149540  0.69478974  0.34950667  1
  S2-  S175  1  0.37604361  0.74368750  0.85084179  1
  S2-  S176  1  0.59477611  -0.00281865  0.35569733  1
  S2-  S177  1  0.62194266  0.06582083  0.85285801  1
  S2-  S178  1  0.71955488  0.25156283  0.35685786  1
  S2-  S179  1  0.57280725  0.22572130  0.78903622  1
  S2-  S180  1  0.52855399  0.52209730  0.35506776  1
  S2-  S181  1  0.62286567  0.39327564  0.84101151  1
  S2-  S182  1  0.59480485  0.74918517  0.34600830  1
  S2-  S183  1  0.61984654  0.66883803  0.86025692  1
  S2-  S184  1  0.95358275  -0.00626371  0.35751622  1
  S2-  S185  1  0.88884982  -0.00473759  0.85102059  1
  S2-  S186  1  0.99229383  0.24869420  0.34828458  1
  S2-  S187  1  0.79621353  0.23561584  0.84891586  1
  S2-  S188  1  0.85500932  0.42494688  0.35628029  1
  S2-  S189  1  0.77787161  0.52647377  0.85687803  1
  S2-  S190  1  0.88938708  0.74505458  0.35465138  1
  S2-  S191  1  0.96349473  0.75679027  0.85131684  1
  S2-  S192  1  -0.01053753  0.13215654  0.45254244  1
  S2-  S193  1  -0.00842495  0.12449744  0.95219539  1
  S2-  S194  1  -0.00572694  0.38402781  0.45472919  1
  S2-  S195  1  -0.00702155  0.37416689  0.95790924  1
  S2-  S196  1  -0.00812129  0.63274895  0.46110692  1
  S2-  S197  1  -0.00224299  0.62338861  0.95019128  1
  S2-  S198  1  -0.01243603  0.87879207  0.46431518  1
  S2-  S199  1  -0.00527260  0.87613447  0.95475801  1
  S2-  S200  1  0.24057220  0.12493073  0.44469776  1
  S2-  S201  1  0.24508523  0.12473048  0.95280913  1
  S2-  S202  1  0.24641160  0.38971210  0.45004382  1
  S2-  S203  1  0.24314817  0.37166021  0.95809771  1
  S2-  S204  1  0.24137965  0.63595164  0.44996888  1
  S2-  S205  1  0.23169642  0.63381415  0.95230306  1
  S2-  S206  1  0.24514726  0.88258877  0.45548910  1
  S2-  S207  1  0.24366460  0.87273158  0.95348268  1
  S2-  S208  1  0.49420568  0.12844674  0.45689180  1
  S2-  S209  1  0.49746843  0.12761479  0.95146753  1
  S2-  S210  1  0.49201068  0.38208210  0.44747134  1
  S2-  S211  1  0.49508081  0.37273643  0.94268811  1
  S2-  S212  1  0.49679543  0.64117738  0.46016972  1
  S2-  S213  1  0.49099817  0.62678103  0.95599725  1
  S2-  S214  1  0.49533987  0.87978049  0.46037566  1
  S2-  S215  1  0.49683761  0.87311336  0.95556068  1
  S2-  S216  1  0.74082217  0.12909173  0.45240627  1
  S2-  S217  1  0.74719809  0.12483743  0.95514168  1
  S2-  S218  1  0.73716286  0.38540277  0.45768752  1
  S2-  S219  1  0.74745146  0.37178886  0.94867900  1
  S2-  S220  1  0.74210707  0.63379759  0.45394870  1
  S2-  S221  1  0.74950721  0.63090477  0.96167645  1
  S2-  S222  1  0.74474981  0.87935309  0.45606190  1
  S2-  S223  1  0.74433455  0.87299265  0.95348881  1
  S2-  S224  1  0.11967175  0.00207555  0.04676236  1
  S2-  S225  1  0.11962543  0.00900817  0.53489648  1
  S2-  S226  1  0.11911231  0.25472633  0.05214107  1
  S2-  S227  1  0.12703069  0.25961526  0.53397284  1
  S2-  S228  1  0.11785869  0.49649058  0.04523321  1
  S2-  S229  1  0.12205349  0.50682150  0.54638407  1
  S2-  S230  1  0.11909094  0.74883627  0.05566643  1
  S2-  S231  1  0.12314678  0.75711453  0.54474121  1
  S2-  S232  1  0.37076480  0.00463153  0.05154406  1
  S2-  S233  1  0.37003417  0.00862612  0.54774030  1
  S2-  S234  1  0.37156476  0.25189518  0.04993438  1
  S2-  S235  1  0.36568946  0.25259256  0.53770631  1
  S2-  S236  1  0.36585399  0.49969046  0.03608259  1
  S2-  S237  1  0.36761654  0.51459118  0.53814742  1
  S2-  S238  1  0.36882098  0.74806863  0.05426219  1
  S2-  S239  1  0.36289361  0.76017229  0.54656481  1
  S2-  S240  1  0.61890483  0.00205523  0.04713227  1
  S2-  S241  1  0.61912676  0.01003710  0.55797887  1
  S2-  S242  1  0.61788682  0.25297559  0.05352249  1
  S2-  S243  1  0.61738165  0.26169340  0.54155745  1
  S2-  S244  1  0.62008115  0.50191099  0.03570909  1
  S2-  S245  1  0.61744041  0.50421794  0.54886253  1
  S2-  S246  1  0.61248543  0.74609969  0.05275252  1
  S2-  S247  1  0.62346767  0.75913327  0.54766011  1
  S2-  S248  1  0.86962695  0.00039162  0.05337069  1
  S2-  S249  1  0.86410077  0.01333302  0.54527221  1
  S2-  S250  1  0.86875771  0.25019412  0.04269087  1
  S2-  S251  1  0.86384687  0.26321853  0.53526087  1
  S2-  S252  1  0.87045495  0.49976727  0.03922732  1
  S2-  S253  1  0.86961610  0.50620043  0.55341504  1
  S2-  S254  1  0.87502127  0.75513426  0.03998199  1
  S2-  S255  1  0.86436782  0.75569393  0.55446355  1
