# generated using pymatgen
data_La12Ce14Pr13Nd13Sm12(BiS2)64
_symmetry_space_group_name_H-M   'P 1'
_cell_length_a   16.07842489
_cell_length_b   16.16485910
_cell_length_c   27.17540292
_cell_angle_alpha   89.91685552
_cell_angle_beta   90.11066018
_cell_angle_gamma   90.05171547
_symmetry_Int_Tables_number   1
_chemical_formula_structural   La12Ce14Pr13Nd13Sm12(BiS2)64
_chemical_formula_sum   'La12 Ce14 Pr13 Nd13 Sm12 Bi64 S128'
_cell_volume   7063.01247694
_cell_formula_units_Z   1
loop_
 _symmetry_equiv_pos_site_id
 _symmetry_equiv_pos_as_xyz
  1  'x, y, z'
loop_
 _atom_type_symbol
 _atom_type_oxidation_number
  La3+  3.0
  Ce3+  3.0
  Pr3+  3.0
  Nd3+  3.0
  Sm3+  3.0
  Bi2+  2.0
  S2-  -2.0
loop_
 _atom_site_type_symbol
 _atom_site_label
 _atom_site_symmetry_multiplicity
 _atom_site_fract_x
 _atom_site_fract_y
 _atom_site_fract_z
 _atom_site_occupancy
  La3+  La0  1  0.73383617  0.62817489  0.07753157  1
  La3+  La1  1  0.10778423  0.00874508  0.90218253  1
  La3+  La2  1  0.36458389  0.26013135  0.91405905  1
  La3+  La3  1  0.63138780  0.51255735  0.91061343  1
  La3+  La4  1  0.86406853  0.74742717  0.42800018  1
  La3+  La5  1  0.63570876  0.24550337  0.91709259  1
  La3+  La6  1  0.74672288  0.11644928  0.57080520  1
  La3+  La7  1  0.11452126  0.26193044  0.92660744  1
  La3+  La8  1  0.74761587  0.12088600  0.10585396  1
  La3+  La9  1  0.37266114  0.50999146  0.92352142  1
  La3+  La10  1  0.74427727  0.86835826  0.57786813  1
  La3+  La11  1  0.75335729  0.37725087  0.60224033  1
  Ce3+  Ce12  1  0.24157252  0.13477552  0.05180190  1
  Ce3+  Ce13  1  0.24621771  0.61427284  0.56848370  1
  Ce3+  Ce14  1  0.62262051  0.74254743  0.44414224  1
  Ce3+  Ce15  1  0.36976564  0.24158668  0.44874635  1
  Ce3+  Ce16  1  0.87131159  0.23622358  0.42657125  1
  Ce3+  Ce17  1  0.24346543  0.36340304  0.56774792  1
  Ce3+  Ce18  1  0.86668452  0.25543817  0.96251235  1
  Ce3+  Ce19  1  0.37082478  0.49189899  0.45093716  1
  Ce3+  Ce20  1  -0.00329476  0.63159519  0.06465833  1
  Ce3+  Ce21  1  0.62460621  0.49068022  0.43607178  1
  Ce3+  Ce22  1  0.74082825  0.88655361  0.06216877  1
  Ce3+  Ce23  1  -0.00902574  0.36390357  0.55262921  1
  Ce3+  Ce24  1  0.50304141  0.61074067  0.56004544  1
  Ce3+  Ce25  1  0.86931192  0.01375285  0.94410981  1
  Pr3+  Pr26  1  0.12299444  0.24060260  0.43943386  1
  Pr3+  Pr27  1  0.11405323  0.75815225  0.92773436  1
  Pr3+  Pr28  1  0.61684775  -0.00662265  0.43814675  1
  Pr3+  Pr29  1  0.36952072  0.75879614  0.92325455  1
  Pr3+  Pr30  1  0.00428454  0.38438853  0.07719184  1
  Pr3+  Pr31  1  0.37064920  -0.00762136  0.43608160  1
  Pr3+  Pr32  1  -0.00355287  0.88546717  0.06014936  1
  Pr3+  Pr33  1  0.73115236  0.37850224  0.07013725  1
  Pr3+  Pr34  1  0.62526496  0.76039516  0.93506278  1
  Pr3+  Pr35  1  -0.01051197  0.60977873  0.56146028  1
  Pr3+  Pr36  1  0.11353115  0.50879430  0.93650313  1
  Pr3+  Pr37  1  -0.00687690  0.86626437  0.56106031  1
  Pr3+  Pr38  1  0.36926320  0.74059585  0.44492440  1
  Nd3+  Nd39  1  0.49797885  0.86599939  0.56716267  1
  Nd3+  Nd40  1  0.49595694  0.11594974  0.56511582  1
  Nd3+  Nd41  1  0.24439670  0.88325769  0.05021156  1
  Nd3+  Nd42  1  0.86309691  -0.00611542  0.43217146  1
  Nd3+  Nd43  1  0.88006227  0.49486601  0.41322616  1
  Nd3+  Nd44  1  0.00219718  0.13308915  0.06895902  1
  Nd3+  Nd45  1  0.24805767  0.10576662  0.57301563  1
  Nd3+  Nd46  1  -0.00389603  0.11700594  0.55732444  1
  Nd3+  Nd47  1  0.12042274  0.49233215  0.44194932  1
  Nd3+  Nd48  1  0.62550887  0.24558050  0.44549287  1
  Nd3+  Nd49  1  0.25202192  0.38367667  0.05663701  1
  Nd3+  Nd50  1  0.24631500  0.85711818  0.57183490  1
  Nd3+  Nd51  1  0.12215424  -0.01047749  0.43705682  1
  Sm3+  Sm52  1  0.86838978  0.75955092  0.95405680  1
  Sm3+  Sm53  1  0.36747964  0.00892234  0.93651871  1
  Sm3+  Sm54  1  0.24713713  0.63379641  0.04901198  1
  Sm3+  Sm55  1  0.49204889  0.88393089  0.05152654  1
  Sm3+  Sm56  1  0.49855000  0.38184723  0.03923288  1
  Sm3+  Sm57  1  0.49821761  0.13594738  0.04754249  1
  Sm3+  Sm58  1  0.62095626  0.00805839  0.93791797  1
  Sm3+  Sm59  1  0.49604063  0.63339247  0.04926401  1
  Sm3+  Sm60  1  0.50031977  0.36488693  0.56289223  1
  Sm3+  Sm61  1  0.74854715  0.61220540  0.55218138  1
  Sm3+  Sm62  1  0.86523146  0.50742876  0.95549900  1
  Sm3+  Sm63  1  0.11889439  0.74081983  0.44929156  1
  Bi2+  Bi64  1  0.07100550  0.10382134  0.27160381  1
  Bi2+  Bi65  1  0.00452001  0.16352000  0.80334911  1
  Bi2+  Bi66  1  0.06826629  0.37454492  0.27833307  1
  Bi2+  Bi67  1  -0.02508911  0.36072946  0.78610948  1
  Bi2+  Bi68  1  0.06357531  0.63328349  0.29338905  1
  Bi2+  Bi69  1  0.02707912  0.56335779  0.81548200  1
  Bi2+  Bi70  1  -0.01537730  0.95266971  0.32110419  1
  Bi2+  Bi71  1  0.00764289  0.75218463  0.79438326  1
  Bi2+  Bi72  1  0.23578329  0.15489316  0.31765710  1
  Bi2+  Bi73  1  0.29728024  0.14097652  0.77767939  1
  Bi2+  Bi74  1  0.25837546  0.40934826  0.28775388  1
  Bi2+  Bi75  1  0.22393232  0.38305624  0.78355717  1
  Bi2+  Bi76  1  0.30039092  0.62877045  0.29554795  1
  Bi2+  Bi77  1  0.20251266  0.64777274  0.81062353  1
  Bi2+  Bi78  1  0.31603159  0.89630479  0.28986785  1
  Bi2+  Bi79  1  0.28234745  0.83551121  0.80482828  1
  Bi2+  Bi80  1  0.48968230  0.11417411  0.29557941  1
  Bi2+  Bi81  1  0.51620418  0.00447303  0.79900930  1
  Bi2+  Bi82  1  0.45734593  0.38729652  0.26585017  1
  Bi2+  Bi83  1  0.47099949  0.34084932  0.77813474  1
  Bi2+  Bi84  1  0.45795850  0.58860900  0.22860724  1
  Bi2+  Bi85  1  0.41893543  0.57473845  0.76036221  1
  Bi2+  Bi86  1  0.51489497  0.84912992  0.29111097  1
  Bi2+  Bi87  1  0.55286820  0.81598709  0.81321611  1
  Bi2+  Bi88  1  0.74097342  0.12434595  0.30689287  1
  Bi2+  Bi89  1  0.81062116  0.11146145  0.80398762  1
  Bi2+  Bi90  1  0.69289205  0.37803676  0.31253538  1
  Bi2+  Bi91  1  0.77883980  0.37471444  0.80360402  1
  Bi2+  Bi92  1  0.74074764  0.62678189  0.29784778  1
  Bi2+  Bi93  1  0.76959375  0.64371374  0.79623455  1
  Bi2+  Bi94  1  0.71816732  0.87285963  0.27603218  1
  Bi2+  Bi95  1  0.75020333  0.86492926  0.79273698  1
  Bi2+  Bi96  1  0.14843627  -0.02230239  0.19253765  1
  Bi2+  Bi97  1  0.10913149  0.02610991  0.70041458  1
  Bi2+  Bi98  1  0.17976525  0.25139229  0.20881045  1
  Bi2+  Bi99  1  0.13107329  0.31417663  0.69374743  1
  Bi2+  Bi100  1  0.17675682  0.52306321  0.20057400  1
  Bi2+  Bi101  1  0.07251398  0.50348856  0.70130927  1
  Bi2+  Bi102  1  0.16893404  0.78522018  0.24894725  1
  Bi2+  Bi103  1  0.15788027  0.77522653  0.72321532  1
  Bi2+  Bi104  1  0.34137120  0.04569543  0.21205932  1
  Bi2+  Bi105  1  0.40350770  -0.04883426  0.69347837  1
  Bi2+  Bi106  1  0.37361546  0.24132684  0.18418987  1
  Bi2+  Bi107  1  0.41486238  0.13887095  0.68926247  1
  Bi2+  Bi108  1  0.36616921  0.44194247  0.17035032  1
  Bi2+  Bi109  1  0.26356948  0.53832799  0.69568551  1
  Bi2+  Bi110  1  0.35080002  0.75480249  0.19973089  1
  Bi2+  Bi111  1  0.41289067  0.76796220  0.72821953  1
  Bi2+  Bi112  1  0.53281359  -0.00518781  0.20784200  1
  Bi2+  Bi113  1  0.65504792  -0.01027191  0.71788835  1
  Bi2+  Bi114  1  0.57073556  0.25428005  0.20586505  1
  Bi2+  Bi115  1  0.63268162  0.24498037  0.71492229  1
  Bi2+  Bi116  1  0.64968964  0.48997024  0.19540373  1
  Bi2+  Bi117  1  0.61345701  0.50219957  0.71202046  1
  Bi2+  Bi118  1  0.61067458  0.74497877  0.21265715  1
  Bi2+  Bi119  1  0.61484417  0.73472993  0.71079891  1
  Bi2+  Bi120  1  0.89097168  -0.01898001  0.20959710  1
  Bi2+  Bi121  1  0.89077693  -0.06470605  0.72141114  1
  Bi2+  Bi122  1  0.87791066  0.25096846  0.22701522  1
  Bi2+  Bi123  1  0.90874765  0.23200283  0.70684325  1
  Bi2+  Bi124  1  0.89799409  0.50658457  0.20852117  1
  Bi2+  Bi125  1  0.87468476  0.57910412  0.71063076  1
  Bi2+  Bi126  1  0.90024627  0.80456265  0.27069646  1
  Bi2+  Bi127  1  0.80820489  0.76489856  0.69269556  1
  S2-  S128  1  -0.08740722  0.12419728  0.15840769  1
  S2-  S129  1  -0.02582806  0.10318380  0.65695822  1
  S2-  S130  1  -0.02826488  0.35079943  0.17815557  1
  S2-  S131  1  -0.07836278  0.37375717  0.64133393  1
  S2-  S132  1  0.01428898  0.58714505  0.15944634  1
  S2-  S133  1  0.00718256  0.64672399  0.66000763  1
  S2-  S134  1  0.01825756  0.88366074  0.16042451  1
  S2-  S135  1  0.02142085  0.88617534  0.66132409  1
  S2-  S136  1  0.14177733  0.13137375  0.13477680  1
  S2-  S137  1  0.18637580  0.15936312  0.66312326  1
  S2-  S138  1  0.15519573  0.38397132  0.13916149  1
  S2-  S139  1  0.29076603  0.37398379  0.66353218  1
  S2-  S140  1  0.24289262  0.65260467  0.14676470  1
  S2-  S141  1  0.24644322  0.72489303  0.64467677  1
  S2-  S142  1  0.28926097  0.89619512  0.14637247  1
  S2-  S143  1  0.24716997  0.96974186  0.64707108  1
  S2-  S144  1  0.57128675  0.12675474  0.13751887  1
  S2-  S145  1  0.57904810  0.11301555  0.65395664  1
  S2-  S146  1  0.57899742  0.38182924  0.12969555  1
  S2-  S147  1  0.54135985  0.36834159  0.65972146  1
  S2-  S148  1  0.58060439  0.62221223  0.13578977  1
  S2-  S149  1  0.50725893  0.60982923  0.65797247  1
  S2-  S150  1  0.53220389  0.85845301  0.14661078  1
  S2-  S151  1  0.60309540  0.86845117  0.64828332  1
  S2-  S152  1  0.72641526  0.18074067  0.20577290  1
  S2-  S153  1  0.76051743  0.22064202  0.65214161  1
  S2-  S154  1  0.77445565  0.39467384  0.17249595  1
  S2-  S155  1  0.73108190  0.38607113  0.71049883  1
  S2-  S156  1  0.79146727  0.61619165  0.17717051  1
  S2-  S157  1  0.73930104  0.54732527  0.64321934  1
  S2-  S158  1  0.75311351  0.96017770  0.15084195  1
  S2-  S159  1  0.77803024  0.99559629  0.64841852  1
  S2-  S160  1  0.24231341  -0.00854899  0.36259661  1
  S2-  S161  1  0.14098192  0.06036922  0.80143801  1
  S2-  S162  1  0.07172770  0.24209111  0.34188180  1
  S2-  S163  1  0.22712414  0.23926985  0.84414903  1
  S2-  S164  1  0.03730356  0.49409475  0.35298185  1
  S2-  S165  1  0.09404407  0.39928334  0.85840322  1
  S2-  S166  1  0.13840629  0.74624108  0.35150961  1
  S2-  S167  1  0.11135997  0.86225715  0.84614515  1
  S2-  S168  1  0.49405748  -0.00810719  0.36089757  1
  S2-  S169  1  0.35121306  -0.00806966  0.83821857  1
  S2-  S170  1  0.37861433  0.22178133  0.35089751  1
  S2-  S171  1  0.43810809  0.20451072  0.82559930  1
  S2-  S172  1  0.36311448  0.49980807  0.35354789  1
  S2-  S173  1  0.35157465  0.40336088  0.84297232  1
  S2-  S174  1  0.39784341  0.75108808  0.34554943  1
  S2-  S175  1  0.37344378  0.63521049  0.84941659  1
  S2-  S176  1  0.72729781  -0.01524539  0.35740029  1
  S2-  S177  1  0.65575237  0.08411670  0.85137843  1
  S2-  S178  1  0.61159958  0.22731236  0.34517066  1
  S2-  S179  1  0.62300242  0.29625203  0.81746606  1
  S2-  S180  1  0.61685433  0.53494548  0.33959362  1
  S2-  S181  1  0.54873078  0.49161120  0.81242980  1
  S2-  S182  1  0.71207736  0.76091656  0.36066093  1
  S2-  S183  1  0.63482122  0.66309566  0.85173901  1
  S2-  S184  1  0.88462859  0.10643131  0.35515802  1
  S2-  S185  1  0.93986172  0.01790264  0.85331771  1
  S2-  S186  1  0.82470577  0.28527904  0.32787038  1
  S2-  S187  1  0.81355823  0.24279383  0.86899414  1
  S2-  S188  1  0.82189482  0.48716257  0.31461896  1
  S2-  S189  1  0.79510755  0.51019306  0.86452557  1
  S2-  S190  1  0.90760999  0.67038224  0.33970620  1
  S2-  S191  1  0.86206809  0.76383802  0.85539243  1
  S2-  S192  1  0.00176847  0.11351200  0.45266228  1
  S2-  S193  1  -0.00326570  0.13470859  0.95760959  1
  S2-  S194  1  -0.00567443  0.36516592  0.44765804  1
  S2-  S195  1  -0.01273784  0.38494112  0.96582403  1
  S2-  S196  1  -0.00476911  0.61882692  0.45470157  1
  S2-  S197  1  -0.01089856  0.63426277  0.95681506  1
  S2-  S198  1  -0.00355580  0.86568393  0.45248062  1
  S2-  S199  1  -0.00699063  0.88314882  0.95361679  1
  S2-  S200  1  0.24593818  0.11699408  0.46459878  1
  S2-  S201  1  0.23920199  0.12467644  0.94532187  1
  S2-  S202  1  0.24445104  0.36793812  0.45677319  1
  S2-  S203  1  0.24338543  0.38687959  0.95205469  1
  S2-  S204  1  0.24289600  0.61658747  0.45928468  1
  S2-  S205  1  0.24003086  0.63507474  0.94641338  1
  S2-  S206  1  0.24431317  0.86189437  0.46402385  1
  S2-  S207  1  0.24404969  0.88336187  0.94516638  1
  S2-  S208  1  0.49628375  0.12238456  0.46009494  1
  S2-  S209  1  0.49429085  0.12887238  0.94393419  1
  S2-  S210  1  0.49589577  0.36733326  0.45515244  1
  S2-  S211  1  0.50365635  0.38048501  0.93624565  1
  S2-  S212  1  0.49797150  0.61632154  0.45297180  1
  S2-  S213  1  0.49842911  0.63571114  0.94723611  1
  S2-  S214  1  0.49603367  0.86263997  0.46067608  1
  S2-  S215  1  0.49319577  0.88540887  0.94624745  1
  S2-  S216  1  0.74350797  0.11929883  0.45930674  1
  S2-  S217  1  0.74505959  0.12618328  0.96498171  1
  S2-  S218  1  0.75116094  0.37070805  0.43923124  1
  S2-  S219  1  0.74458285  0.38207878  0.96093972  1
  S2-  S220  1  0.75091545  0.61165662  0.44858371  1
  S2-  S221  1  0.74861791  0.63715887  0.96552911  1
  S2-  S222  1  0.74401953  0.86823985  0.46625628  1
  S2-  S223  1  0.74657337  0.88648459  0.95390214  1
  S2-  S224  1  0.12136389  0.00499889  0.03884154  1
  S2-  S225  1  0.12045602  -0.01173086  0.54399603  1
  S2-  S226  1  0.12131652  0.26183326  0.03683006  1
  S2-  S227  1  0.12159714  0.24068181  0.54692816  1
  S2-  S228  1  0.12371556  0.51237812  0.04255849  1
  S2-  S229  1  0.12034081  0.48895682  0.54946581  1
  S2-  S230  1  0.12137459  0.75668681  0.04166373  1
  S2-  S231  1  0.11510080  0.73739396  0.55115839  1
  S2-  S232  1  0.37182896  0.01058127  0.04215714  1
  S2-  S233  1  0.37522950  -0.01243306  0.54510963  1
  S2-  S234  1  0.37203630  0.25789578  0.03346371  1
  S2-  S235  1  0.37121063  0.24238364  0.55576063  1
  S2-  S236  1  0.37345218  0.51106929  0.03488668  1
  S2-  S237  1  0.37360866  0.48851959  0.55623149  1
  S2-  S238  1  0.37170419  0.75731895  0.03548585  1
  S2-  S239  1  0.37877002  0.73688136  0.55147404  1
  S2-  S240  1  0.61543891  0.00472088  0.04190974  1
  S2-  S241  1  0.61774588  -0.00745717  0.54565696  1
  S2-  S242  1  0.61582481  0.25595220  0.03205396  1
  S2-  S243  1  0.62297734  0.24826212  0.55073820  1
  S2-  S244  1  0.61619239  0.50941234  0.03048798  1
  S2-  S245  1  0.62529698  0.48433862  0.54355766  1
  S2-  S246  1  0.61739478  0.76157688  0.04140150  1
  S2-  S247  1  0.62459777  0.73628458  0.54944767  1
  S2-  S248  1  0.87169819  0.00987179  0.04948227  1
  S2-  S249  1  0.87431310  -0.00827814  0.54053180  1
  S2-  S250  1  0.86613658  0.25696681  0.06540562  1
  S2-  S251  1  0.87199831  0.23982595  0.53824349  1
  S2-  S252  1  0.86821821  0.50469495  0.05930820  1
  S2-  S253  1  0.86738517  0.48818814  0.53718181  1
  S2-  S254  1  0.86751614  0.75777685  0.06019418  1
  S2-  S255  1  0.86849229  0.73958697  0.54523425  1
