# generated using pymatgen
data_La12Ce14Pr13Nd13Sm12(BiS2)64
_symmetry_space_group_name_H-M   'P 1'
_cell_length_a   16.13991567
_cell_length_b   16.12399809
_cell_length_c   27.21633715
_cell_angle_alpha   90.07005170
_cell_angle_beta   89.78966853
_cell_angle_gamma   90.08091631
_symmetry_Int_Tables_number   1
_chemical_formula_structural   La12Ce14Pr13Nd13Sm12(BiS2)64
_chemical_formula_sum   'La12 Ce14 Pr13 Nd13 Sm12 Bi64 S128'
_cell_volume   7082.71870920
_cell_formula_units_Z   1
loop_
 _symmetry_equiv_pos_site_id
 _symmetry_equiv_pos_as_xyz
  1  'x, y, z'
loop_
 _atom_type_symbol
 _atom_type_oxidation_number
  La3+  3.0
  Ce3+  3.0
  Pr3+  3.0
  Nd3+  3.0
  Sm3+  3.0
  Bi2+  2.0
  S2-  -2.0
loop_
 _atom_site_type_symbol
 _atom_site_label
 _atom_site_symmetry_multiplicity
 _atom_site_fract_x
 _atom_site_fract_y
 _atom_site_fract_z
 _atom_site_occupancy
  La3+  La0  1  0.49491274  0.13235362  0.58285144  1
  La3+  La1  1  0.50656347  0.62074147  0.10534098  1
  La3+  La2  1  -0.00838386  0.85901697  0.07038665  1
  La3+  La3  1  0.13524435  0.74082059  0.92648616  1
  La3+  La4  1  0.60767637  0.49555817  0.92004036  1
  La3+  La5  1  0.50044521  0.36597501  0.07075901  1
  La3+  La6  1  0.38499882  0.00531620  0.43368786  1
  La3+  La7  1  0.63226284  0.48747902  0.40902261  1
  La3+  La8  1  0.26106410  0.87061086  0.59181945  1
  La3+  La9  1  0.37403227  0.25196063  0.89948492  1
  La3+  La10  1  0.87433740  0.73934861  0.92224517  1
  La3+  La11  1  0.24779029  0.37810529  0.07516252  1
  Ce3+  Ce12  1  0.75295076  0.87657151  0.55827806  1
  Ce3+  Ce13  1  -0.00247759  0.62170311  0.05354724  1
  Ce3+  Ce14  1  0.87580659  0.49465686  0.93249027  1
  Ce3+  Ce15  1  0.00285075  0.37975115  0.56537724  1
  Ce3+  Ce16  1  0.25454503  0.37971295  0.55190019  1
  Ce3+  Ce17  1  0.75366986  0.62713084  0.54833244  1
  Ce3+  Ce18  1  0.88006511  0.75265395  0.44137316  1
  Ce3+  Ce19  1  0.74986609  0.86568276  0.05538421  1
  Ce3+  Ce20  1  0.25717345  0.62296887  0.56129503  1
  Ce3+  Ce21  1  0.12976413  0.24870385  0.44318521  1
  Ce3+  Ce22  1  0.37347522  0.00380449  0.94661294  1
  Ce3+  Ce23  1  0.75065337  0.12686963  0.56410727  1
  Ce3+  Ce24  1  -0.00473654  0.37340547  0.04983249  1
  Ce3+  Ce25  1  0.37307007  0.74687521  0.95030672  1
  Pr3+  Pr26  1  0.76007035  0.38801554  0.57415864  1
  Pr3+  Pr27  1  0.24217535  0.87526868  0.08038450  1
  Pr3+  Pr28  1  0.12836609  0.50067888  0.43364801  1
  Pr3+  Pr29  1  0.50789095  0.38605758  0.57268805  1
  Pr3+  Pr30  1  0.00994442  0.12443676  0.57077331  1
  Pr3+  Pr31  1  0.12492796  -0.00526241  0.94470812  1
  Pr3+  Pr32  1  0.24212025  0.12281986  0.07531611  1
  Pr3+  Pr33  1  0.75160201  0.12008042  0.06903921  1
  Pr3+  Pr34  1  -0.00368486  0.12530005  0.06665767  1
  Pr3+  Pr35  1  0.88150349  0.49929989  0.43386829  1
  Pr3+  Pr36  1  0.63018253  0.00384570  0.43507618  1
  Pr3+  Pr37  1  0.49770726  0.12111112  0.07260828  1
  Pr3+  Pr38  1  0.50614390  0.62382546  0.55016172  1
  Nd3+  Nd39  1  0.87204547  0.24270276  0.92927943  1
  Nd3+  Nd40  1  0.37355699  0.50381130  0.42609706  1
  Nd3+  Nd41  1  0.24746652  0.62865326  0.06993906  1
  Nd3+  Nd42  1  0.63087836  0.75121190  0.43241939  1
  Nd3+  Nd43  1  0.25303933  0.12677410  0.56462045  1
  Nd3+  Nd44  1  0.62709668  0.24071003  0.93812606  1
  Nd3+  Nd45  1  0.74500646  0.37428132  0.05078090  1
  Nd3+  Nd46  1  0.50387794  0.87816969  0.55641417  1
  Nd3+  Nd47  1  0.62132261  0.74441229  0.93574537  1
  Nd3+  Nd48  1  0.13504537  0.00039970  0.43618796  1
  Nd3+  Nd49  1  0.88094725  0.25037383  0.44803026  1
  Nd3+  Nd50  1  0.00761470  0.63135789  0.55724295  1
  Nd3+  Nd51  1  0.13096135  0.49191993  0.93563629  1
  Sm3+  Sm52  1  0.37895460  0.75062546  0.43756426  1
  Sm3+  Sm53  1  0.12863913  0.24262181  0.94314063  1
  Sm3+  Sm54  1  0.62950219  0.25486651  0.45200596  1
  Sm3+  Sm55  1  0.74272836  0.61810180  0.05239178  1
  Sm3+  Sm56  1  0.37699704  0.49236656  0.95518140  1
  Sm3+  Sm57  1  0.13267932  0.75447786  0.44230105  1
  Sm3+  Sm58  1  0.87739645  -0.00732158  0.94273514  1
  Sm3+  Sm59  1  0.62428769  -0.00219983  0.94732110  1
  Sm3+  Sm60  1  0.49928938  0.86639035  0.06050882  1
  Sm3+  Sm61  1  0.38441031  0.25369051  0.44184232  1
  Sm3+  Sm62  1  0.00766352  0.87753787  0.55568435  1
  Sm3+  Sm63  1  0.88053889  0.00289750  0.45045585  1
  Bi2+  Bi64  1  -0.05922521  0.12163851  0.28847913  1
  Bi2+  Bi65  1  -0.02886658  0.18695534  0.81227411  1
  Bi2+  Bi66  1  -0.00088707  0.45456182  0.32242345  1
  Bi2+  Bi67  1  -0.05145978  0.38259533  0.81616604  1
  Bi2+  Bi68  1  0.03596827  0.63918978  0.29279926  1
  Bi2+  Bi69  1  -0.00741997  0.67917752  0.79291739  1
  Bi2+  Bi70  1  -0.09411453  0.87251792  0.27729145  1
  Bi2+  Bi71  1  0.02017930  0.94414971  0.81161020  1
  Bi2+  Bi72  1  0.23806101  0.12376656  0.31049121  1
  Bi2+  Bi73  1  0.15272780  0.14837862  0.78472347  1
  Bi2+  Bi74  1  0.17484503  0.38242090  0.29469213  1
  Bi2+  Bi75  1  0.14390687  0.40690765  0.80766698  1
  Bi2+  Bi76  1  0.23950714  0.64598787  0.29083210  1
  Bi2+  Bi77  1  0.25133677  0.65742635  0.78592055  1
  Bi2+  Bi78  1  0.22082545  0.88850412  0.28614865  1
  Bi2+  Bi79  1  0.27746982  0.85408458  0.77097306  1
  Bi2+  Bi80  1  0.50172109  0.15821963  0.29795135  1
  Bi2+  Bi81  1  0.49462374  0.12025175  0.79267871  1
  Bi2+  Bi82  1  0.53087540  0.38080265  0.28202961  1
  Bi2+  Bi83  1  0.51043991  0.37415618  0.78499744  1
  Bi2+  Bi84  1  0.48538277  0.63171845  0.29052206  1
  Bi2+  Bi85  1  0.50173775  0.65697207  0.77621289  1
  Bi2+  Bi86  1  0.50771221  0.88996384  0.28345096  1
  Bi2+  Bi87  1  0.46695875  0.85538024  0.79132437  1
  Bi2+  Bi88  1  0.69034892  0.08876892  0.29394336  1
  Bi2+  Bi89  1  0.74914355  0.11602859  0.78874097  1
  Bi2+  Bi90  1  0.76400486  0.33323982  0.29471704  1
  Bi2+  Bi91  1  0.77147724  0.34934188  0.77490346  1
  Bi2+  Bi92  1  0.83752806  0.60475957  0.28329592  1
  Bi2+  Bi93  1  0.77896528  0.55081346  0.76855993  1
  Bi2+  Bi94  1  0.70219014  0.89239928  0.31212464  1
  Bi2+  Bi95  1  0.72191524  0.75742501  0.80617237  1
  Bi2+  Bi96  1  0.13898024  0.02172791  0.21465424  1
  Bi2+  Bi97  1  0.06654115  0.01025286  0.69793714  1
  Bi2+  Bi98  1  0.08459926  0.23439580  0.23799370  1
  Bi2+  Bi99  1  0.10996401  0.29083937  0.70555811  1
  Bi2+  Bi100  1  0.10059957  0.49949344  0.21175809  1
  Bi2+  Bi101  1  0.18512672  0.50566334  0.71010328  1
  Bi2+  Bi102  1  0.10747227  0.75617892  0.20572303  1
  Bi2+  Bi103  1  0.09256583  0.75372179  0.70043909  1
  Bi2+  Bi104  1  0.44382363  0.02138950  0.19934192  1
  Bi2+  Bi105  1  0.43544212  0.00519151  0.71064482  1
  Bi2+  Bi106  1  0.37483692  0.20528317  0.21315601  1
  Bi2+  Bi107  1  0.32460457  0.27291103  0.69349157  1
  Bi2+  Bi108  1  0.36008489  0.46429816  0.20848735  1
  Bi2+  Bi109  1  0.36611013  0.50447930  0.76594768  1
  Bi2+  Bi110  1  0.37313628  0.83565538  0.20698892  1
  Bi2+  Bi111  1  0.40185509  0.70876672  0.68501294  1
  Bi2+  Bi112  1  0.64398502  0.04004047  0.18048542  1
  Bi2+  Bi113  1  0.64722578  -0.07568149  0.77049991  1
  Bi2+  Bi114  1  0.64607939  0.23364276  0.21079592  1
  Bi2+  Bi115  1  0.62606556  0.22418135  0.69760777  1
  Bi2+  Bi116  1  0.66352014  0.49195690  0.20377771  1
  Bi2+  Bi117  1  0.61913735  0.52682255  0.69979009  1
  Bi2+  Bi118  1  0.65730752  0.84125685  0.20276303  1
  Bi2+  Bi119  1  0.60445711  0.77448382  0.69321110  1
  Bi2+  Bi120  1  0.84430424  0.01568813  0.20819774  1
  Bi2+  Bi121  1  0.88179345  0.00408588  0.73381260  1
  Bi2+  Bi122  1  0.89433848  0.27075611  0.21395976  1
  Bi2+  Bi123  1  0.93736978  0.18412810  0.69775098  1
  Bi2+  Bi124  1  0.90373751  0.47162717  0.20921509  1
  Bi2+  Bi125  1  0.99029876  0.46921523  0.70753317  1
  Bi2+  Bi126  1  0.83370392  0.74271280  0.19958841  1
  Bi2+  Bi127  1  0.79305940  0.71241353  0.69993961  1
  S2-  S128  1  0.10706181  0.14115922  0.14772317  1
  S2-  S129  1  0.13488473  0.13637275  0.64247465  1
  S2-  S130  1  0.01485212  0.37952195  0.14686715  1
  S2-  S131  1  -0.10296607  0.38529032  0.64320748  1
  S2-  S132  1  -0.01834469  0.69391197  0.14243442  1
  S2-  S133  1  0.00467157  0.63068078  0.65768101  1
  S2-  S134  1  0.08765429  0.89083555  0.15354182  1
  S2-  S135  1  -0.00145825  0.85768403  0.65388670  1
  S2-  S136  1  0.26892843  0.00450634  0.15171195  1
  S2-  S137  1  0.34982693  0.11531742  0.64957185  1
  S2-  S138  1  0.28059062  0.31266160  0.17031776  1
  S2-  S139  1  0.28893528  0.42919015  0.64328094  1
  S2-  S140  1  0.23343388  0.51614738  0.14790885  1
  S2-  S141  1  0.24249277  0.71232846  0.64584004  1
  S2-  S142  1  0.24971465  0.74581114  0.14981596  1
  S2-  S143  1  0.21973350  0.92338842  0.68881128  1
  S2-  S144  1  0.51111973  0.24133853  0.14943109  1
  S2-  S145  1  0.57322999  0.06439657  0.66529898  1
  S2-  S146  1  0.51069412  0.46032108  0.15850158  1
  S2-  S147  1  0.48293167  0.27551056  0.65147638  1
  S2-  S148  1  0.41473130  0.61618528  0.19985746  1
  S2-  S149  1  0.49602733  0.53084626  0.63623190  1
  S2-  S150  1  0.51374674  0.78925343  0.14860983  1
  S2-  S151  1  0.41815503  0.86918614  0.64332860  1
  S2-  S152  1  0.87407540  0.14340193  0.14131866  1
  S2-  S153  1  0.77342882  0.15505672  0.66019799  1
  S2-  S154  1  0.72308103  0.36488756  0.15038233  1
  S2-  S155  1  0.66462025  0.37354591  0.65970011  1
  S2-  S156  1  0.67477829  0.61862537  0.14488963  1
  S2-  S157  1  0.75842238  0.56978606  0.63949332  1
  S2-  S158  1  0.84981463  0.87645981  0.13674787  1
  S2-  S159  1  0.74333229  0.86766529  0.65566061  1
  S2-  S160  1  0.11514139  0.00249975  0.33569840  1
  S2-  S161  1  0.16455231  0.00758906  0.84539567  1
  S2-  S162  1  0.11275804  0.23481019  0.34645149  1
  S2-  S163  1  0.21093671  0.26442666  0.85697338  1
  S2-  S164  1  0.23767223  0.51875851  0.35434282  1
  S2-  S165  1  0.12758461  0.58646959  0.85027165  1
  S2-  S166  1  0.13131496  0.76446158  0.34355685  1
  S2-  S167  1  0.08544359  0.79639574  0.83201991  1
  S2-  S168  1  0.31450308  -0.01228254  0.33987255  1
  S2-  S169  1  0.38152336  0.08619009  0.86049877  1
  S2-  S170  1  0.36509370  0.23577083  0.34353110  1
  S2-  S171  1  0.37832937  0.26383836  0.78175651  1
  S2-  S172  1  0.43338956  0.47690623  0.33197320  1
  S2-  S173  1  0.43242118  0.46501529  0.86135843  1
  S2-  S174  1  0.35891238  0.72612995  0.34022718  1
  S2-  S175  1  0.29005702  0.76196317  0.86510272  1
  S2-  S176  1  0.51569720  0.01634011  0.35885174  1
  S2-  S177  1  0.62293799  0.03486768  0.85059790  1
  S2-  S178  1  0.62355471  0.32342495  0.36112752  1
  S2-  S179  1  0.53242570  0.25145486  0.85429133  1
  S2-  S180  1  0.61267496  0.53405333  0.30481479  1
  S2-  S181  1  0.66322694  0.44166324  0.82441233  1
  S2-  S182  1  0.59938124  0.75144789  0.33418763  1
  S2-  S183  1  0.61148652  0.64274798  0.85409947  1
  S2-  S184  1  0.88565280  0.00103042  0.35271012  1
  S2-  S185  1  0.86947751  0.03007318  0.84617473  1
  S2-  S186  1  0.87458793  0.24985264  0.34843830  1
  S2-  S187  1  0.74808619  0.23474850  0.85696341  1
  S2-  S188  1  0.78479214  0.47579599  0.35175073  1
  S2-  S189  1  0.87507237  0.59282960  0.85123725  1
  S2-  S190  1  0.86542857  0.74828600  0.34473346  1
  S2-  S191  1  0.88568322  0.80614292  0.82729401  1
  S2-  S192  1  0.00621099  0.12177227  0.45977291  1
  S2-  S193  1  -0.00123669  0.12256511  0.95453540  1
  S2-  S194  1  0.00604862  0.37444715  0.45685009  1
  S2-  S195  1  0.00219525  0.36709341  0.94520201  1
  S2-  S196  1  0.00734658  0.62972779  0.44917026  1
  S2-  S197  1  0.00351666  0.61782338  0.95031990  1
  S2-  S198  1  0.00599628  0.87853817  0.45019622  1
  S2-  S199  1  -0.00132665  0.86750670  0.95241902  1
  S2-  S200  1  0.25643893  0.12821718  0.45572055  1
  S2-  S201  1  0.24785949  0.12331180  0.96334206  1
  S2-  S202  1  0.25519294  0.37275220  0.44704530  1
  S2-  S203  1  0.25351737  0.37090524  0.96047861  1
  S2-  S204  1  0.25231720  0.63121551  0.45554001  1
  S2-  S205  1  0.25425103  0.61446241  0.96109981  1
  S2-  S206  1  0.25693649  0.87356475  0.44714403  1
  S2-  S207  1  0.25112778  0.87568660  0.96627458  1
  S2-  S208  1  0.50697240  0.13388696  0.46242786  1
  S2-  S209  1  0.50389535  0.11898760  0.96475822  1
  S2-  S210  1  0.50207145  0.37820882  0.45642448  1
  S2-  S211  1  0.49688475  0.36276298  0.96144947  1
  S2-  S212  1  0.50615780  0.62462886  0.44191536  1
  S2-  S213  1  0.49232276  0.62329558  0.95359066  1
  S2-  S214  1  0.50524949  0.87137028  0.45045475  1
  S2-  S215  1  0.50005806  0.87310089  0.95276092  1
  S2-  S216  1  0.75411833  0.12738032  0.45501198  1
  S2-  S217  1  0.75252370  0.11356542  0.96077433  1
  S2-  S218  1  0.75824671  0.37287307  0.46275455  1
  S2-  S219  1  0.74811076  0.37591580  0.94620609  1
  S2-  S220  1  0.75333196  0.62584213  0.44285795  1
  S2-  S221  1  0.74437971  0.61588097  0.94958768  1
  S2-  S222  1  0.75554551  0.87870956  0.45160073  1
  S2-  S223  1  0.74798117  0.87179868  0.94679320  1
  S2-  S224  1  0.11626223  -0.00362465  0.04898515  1
  S2-  S225  1  0.13508424  -0.00671555  0.54503748  1
  S2-  S226  1  0.12247796  0.25298457  0.04593158  1
  S2-  S227  1  0.12848816  0.25689649  0.54720606  1
  S2-  S228  1  0.12064234  0.49803675  0.04196239  1
  S2-  S229  1  0.12781035  0.50408697  0.54486963  1
  S2-  S230  1  0.12345853  0.74469290  0.04003184  1
  S2-  S231  1  0.13210123  0.75725058  0.54580921  1
  S2-  S232  1  0.37926135  -0.00732415  0.05112489  1
  S2-  S233  1  0.37587049  -0.00255585  0.54325852  1
  S2-  S234  1  0.36791352  0.24248386  0.05854468  1
  S2-  S235  1  0.37554634  0.25665043  0.54509522  1
  S2-  S236  1  0.37963981  0.50293726  0.05693358  1
  S2-  S237  1  0.37753961  0.50351903  0.53336780  1
  S2-  S238  1  0.38096235  0.74207406  0.05313890  1
  S2-  S239  1  0.38019239  0.74996768  0.54073323  1
  S2-  S240  1  0.62436540  -0.00924308  0.05206979  1
  S2-  S241  1  0.62818583  0.00116484  0.54366536  1
  S2-  S242  1  0.62973110  0.24095527  0.04559682  1
  S2-  S243  1  0.63004839  0.25439614  0.55358124  1
  S2-  S244  1  0.61998915  0.49722455  0.03985297  1
  S2-  S245  1  0.63315308  0.50188351  0.53513466  1
  S2-  S246  1  0.62397186  0.74558793  0.04114717  1
  S2-  S247  1  0.62858252  0.75242571  0.54103053  1
  S2-  S248  1  0.87509626  -0.00445846  0.04371344  1
  S2-  S249  1  0.88157479  0.00144716  0.55599538  1
  S2-  S250  1  0.87069173  0.25071116  0.03623032  1
  S2-  S251  1  0.88225808  0.24634582  0.55194101  1
  S2-  S252  1  0.87044783  0.49834214  0.04252427  1
  S2-  S253  1  0.88523777  0.50853028  0.53984146  1
  S2-  S254  1  0.86724926  0.73830255  0.03314755  1
  S2-  S255  1  0.88140264  0.75408105  0.54785198  1
