# generated using pymatgen
data_La12Ce14Pr13Nd13Sm12(BiS2)64
_symmetry_space_group_name_H-M   'P 1'
_cell_length_a   16.16430018
_cell_length_b   16.13580831
_cell_length_c   27.30769896
_cell_angle_alpha   89.97737729
_cell_angle_beta   89.97266773
_cell_angle_gamma   89.96522864
_symmetry_Int_Tables_number   1
_chemical_formula_structural   La12Ce14Pr13Nd13Sm12(BiS2)64
_chemical_formula_sum   'La12 Ce14 Pr13 Nd13 Sm12 Bi64 S128'
_cell_volume   7122.50193989
_cell_formula_units_Z   1
loop_
 _symmetry_equiv_pos_site_id
 _symmetry_equiv_pos_as_xyz
  1  'x, y, z'
loop_
 _atom_type_symbol
 _atom_type_oxidation_number
  La3+  3.0
  Ce3+  3.0
  Pr3+  3.0
  Nd3+  3.0
  Sm3+  3.0
  Bi2+  2.0
  S2-  -2.0
loop_
 _atom_site_type_symbol
 _atom_site_label
 _atom_site_symmetry_multiplicity
 _atom_site_fract_x
 _atom_site_fract_y
 _atom_site_fract_z
 _atom_site_occupancy
  La3+  La0  1  0.61996405  0.74188692  0.93448652  1
  La3+  La1  1  0.36434464  -0.00959807  0.91775415  1
  La3+  La2  1  0.86712976  0.49936155  0.92103991  1
  La3+  La3  1  0.48894117  0.86669209  0.06067225  1
  La3+  La4  1  0.61829766  0.23850956  0.93510185  1
  La3+  La5  1  0.38446867  0.77417680  0.40574928  1
  La3+  La6  1  0.23240052  0.12670411  0.61572847  1
  La3+  La7  1  0.12287068  0.24945798  0.92573575  1
  La3+  La8  1  0.49606581  0.11750545  0.08595881  1
  La3+  La9  1  0.11138835  -0.01614146  0.93596132  1
  La3+  La10  1  0.74784601  0.14078765  0.57429584  1
  La3+  La11  1  0.50005064  0.37230037  0.10474825  1
  Ce3+  Ce12  1  0.74281062  0.36516720  0.05462482  1
  Ce3+  Ce13  1  0.50026872  0.38541483  0.55180450  1
  Ce3+  Ce14  1  -0.00209898  0.36837471  0.04745828  1
  Ce3+  Ce15  1  0.74365565  0.61239373  0.06013780  1
  Ce3+  Ce16  1  0.24679247  0.36582888  0.06435518  1
  Ce3+  Ce17  1  0.13088039  0.00801842  0.43906297  1
  Ce3+  Ce18  1  0.12979609  0.25946140  0.43859190  1
  Ce3+  Ce19  1  0.00405415  0.13881217  0.55651242  1
  Ce3+  Ce20  1  0.74983485  0.38877767  0.55737821  1
  Ce3+  Ce21  1  0.12290113  0.49464996  0.93872109  1
  Ce3+  Ce22  1  0.12928821  0.51360907  0.43679426  1
  Ce3+  Ce23  1  0.62621315  0.76511874  0.43808179  1
  Ce3+  Ce24  1  0.62550986  0.25994181  0.42939089  1
  Ce3+  Ce25  1  0.88108661  0.51467501  0.44166899  1
  Pr3+  Pr26  1  0.75042911  0.63775466  0.55236601  1
  Pr3+  Pr27  1  0.00361479  0.64051698  0.55728768  1
  Pr3+  Pr28  1  -0.01021843  0.85619367  0.08376853  1
  Pr3+  Pr29  1  0.25406777  0.38474932  0.55602595  1
  Pr3+  Pr30  1  0.87631172  0.74538872  0.94030197  1
  Pr3+  Pr31  1  0.62575031  0.50847517  0.42533420  1
  Pr3+  Pr32  1  0.12007206  0.76859480  0.39859165  1
  Pr3+  Pr33  1  0.49901989  0.63724437  0.55573212  1
  Pr3+  Pr34  1  0.74598599  0.11983577  0.07124303  1
  Pr3+  Pr35  1  0.87474661  0.76371681  0.43326632  1
  Pr3+  Pr36  1  0.25494915  0.88902576  0.56162573  1
  Pr3+  Pr37  1  0.49907603  0.14657370  0.57236330  1
  Pr3+  Pr38  1  0.36778175  0.73888098  0.93186524  1
  Nd3+  Nd39  1  0.87763904  0.26153631  0.44583741  1
  Nd3+  Nd40  1  0.24837608  0.12022898  0.06035687  1
  Nd3+  Nd41  1  0.38001756  0.51341274  0.42002110  1
  Nd3+  Nd42  1  0.74723277  0.86341290  0.06399484  1
  Nd3+  Nd43  1  -0.00586356  0.11938085  0.06512328  1
  Nd3+  Nd44  1  0.49509739  0.61893000  0.06082528  1
  Nd3+  Nd45  1  0.86882322  0.23939959  0.93890718  1
  Nd3+  Nd46  1  0.25379056  0.64109624  0.54050339  1
  Nd3+  Nd47  1  0.24104207  0.87184433  0.05878025  1
  Nd3+  Nd48  1  -0.00105090  0.61297429  0.06517357  1
  Nd3+  Nd49  1  0.37170381  0.49002543  0.94566403  1
  Nd3+  Nd50  1  0.75013295  0.88680776  0.55934580  1
  Nd3+  Nd51  1  0.00516123  0.88864715  0.55701341  1
  Sm3+  Sm52  1  0.61911854  -0.00695112  0.94438066  1
  Sm3+  Sm53  1  0.87752818  0.01283178  0.44832463  1
  Sm3+  Sm54  1  0.37343459  0.24193804  0.94568046  1
  Sm3+  Sm55  1  0.37793970  0.25958372  0.43576296  1
  Sm3+  Sm56  1  0.86998078  -0.00759876  0.94908846  1
  Sm3+  Sm57  1  0.61726520  0.49063487  0.94772490  1
  Sm3+  Sm58  1  0.50096450  0.89017388  0.56300733  1
  Sm3+  Sm59  1  0.00494458  0.38683338  0.55767247  1
  Sm3+  Sm60  1  0.25121099  0.62077454  0.06559416  1
  Sm3+  Sm61  1  0.37731868  0.01199696  0.44533011  1
  Sm3+  Sm62  1  0.11681631  0.74050854  0.94297527  1
  Sm3+  Sm63  1  0.62572176  0.01814499  0.44108571  1
  Bi2+  Bi64  1  0.05092135  0.15142469  0.27411082  1
  Bi2+  Bi65  1  -0.02333127  0.10028154  0.79149994  1
  Bi2+  Bi66  1  -0.05509231  0.36320406  0.30254371  1
  Bi2+  Bi67  1  0.00417829  0.45491272  0.79180871  1
  Bi2+  Bi68  1  -0.00086770  0.62703146  0.28989530  1
  Bi2+  Bi69  1  0.08854646  0.61984681  0.82878953  1
  Bi2+  Bi70  1  -0.00048780  0.90063117  0.28691951  1
  Bi2+  Bi71  1  -0.04188123  0.76263063  0.80323334  1
  Bi2+  Bi72  1  0.25495560  0.13037432  0.29197564  1
  Bi2+  Bi73  1  0.26002362  0.15900156  0.81649128  1
  Bi2+  Bi74  1  0.18674239  0.31508019  0.25318166  1
  Bi2+  Bi75  1  0.25266766  0.40999050  0.78067087  1
  Bi2+  Bi76  1  0.24647485  0.56714414  0.29133478  1
  Bi2+  Bi77  1  0.28034893  0.66021350  0.81766100  1
  Bi2+  Bi78  1  0.27376304  0.93440849  0.28003054  1
  Bi2+  Bi79  1  0.22527945  0.85472930  0.80675686  1
  Bi2+  Bi80  1  0.52589638  0.12561012  0.28811536  1
  Bi2+  Bi81  1  0.53824213  0.12893970  0.78794885  1
  Bi2+  Bi82  1  0.49050630  0.39135585  0.29661183  1
  Bi2+  Bi83  1  0.45100421  0.38647191  0.77765420  1
  Bi2+  Bi84  1  0.52039556  0.65491314  0.27727673  1
  Bi2+  Bi85  1  0.52850137  0.62584455  0.80755739  1
  Bi2+  Bi86  1  0.56166277  0.93312902  0.31158806  1
  Bi2+  Bi87  1  0.49721782  0.83288879  0.77711490  1
  Bi2+  Bi88  1  0.78823166  0.09224909  0.30166357  1
  Bi2+  Bi89  1  0.75549066  0.11460154  0.81441753  1
  Bi2+  Bi90  1  0.75157212  0.34679599  0.27836868  1
  Bi2+  Bi91  1  0.84724215  0.32757376  0.74071152  1
  Bi2+  Bi92  1  0.73381560  0.61628814  0.29434428  1
  Bi2+  Bi93  1  0.76486669  0.57200436  0.78566341  1
  Bi2+  Bi94  1  0.73410387  0.81251458  0.31769227  1
  Bi2+  Bi95  1  0.78437264  0.85959135  0.75398977  1
  Bi2+  Bi96  1  0.16222465  0.03497876  0.20226737  1
  Bi2+  Bi97  1  0.10063843  -0.08447040  0.72591261  1
  Bi2+  Bi98  1  0.11171127  0.21086770  0.16195219  1
  Bi2+  Bi99  1  0.10078502  0.27000578  0.70673331  1
  Bi2+  Bi100  1  0.07550570  0.47374781  0.21983168  1
  Bi2+  Bi101  1  0.15857692  0.52490367  0.70639540  1
  Bi2+  Bi102  1  0.13813307  0.74484939  0.19587603  1
  Bi2+  Bi103  1  0.15881079  0.72400189  0.73009165  1
  Bi2+  Bi104  1  0.42916876  0.00109050  0.22164008  1
  Bi2+  Bi105  1  0.36751734  -0.02031154  0.71613815  1
  Bi2+  Bi106  1  0.35328824  0.22744962  0.21139450  1
  Bi2+  Bi107  1  0.37272079  0.25199714  0.70559674  1
  Bi2+  Bi108  1  0.35166628  0.52621093  0.20112773  1
  Bi2+  Bi109  1  0.35539090  0.49800333  0.69424441  1
  Bi2+  Bi110  1  0.38938319  0.77600990  0.21685736  1
  Bi2+  Bi111  1  0.39868477  0.68554399  0.72289116  1
  Bi2+  Bi112  1  0.69648669  -0.02518973  0.22904947  1
  Bi2+  Bi113  1  0.62210616  -0.02962591  0.73971416  1
  Bi2+  Bi114  1  0.65663597  0.21710816  0.21367559  1
  Bi2+  Bi115  1  0.62500005  0.26035534  0.70469420  1
  Bi2+  Bi116  1  0.67767458  0.50224306  0.20454088  1
  Bi2+  Bi117  1  0.61173254  0.48142134  0.74497003  1
  Bi2+  Bi118  1  0.63360892  0.78274516  0.21123591  1
  Bi2+  Bi119  1  0.64424958  0.73957531  0.69822474  1
  Bi2+  Bi120  1  0.89338120  -0.00255395  0.21479887  1
  Bi2+  Bi121  1  0.91450799  -0.01541670  0.70698654  1
  Bi2+  Bi122  1  0.92142154  0.25464606  0.20522193  1
  Bi2+  Bi123  1  0.81420842  0.15106511  0.70132777  1
  Bi2+  Bi124  1  0.87623747  0.48178314  0.21748542  1
  Bi2+  Bi125  1  0.89274890  0.51874742  0.70466113  1
  Bi2+  Bi126  1  0.82929564  0.75166355  0.22346112  1
  Bi2+  Bi127  1  0.89334647  0.72029806  0.69829409  1
  S2-  S128  1  -0.12156971  0.12609425  0.14456243  1
  S2-  S129  1  0.06112152  0.14196864  0.64834442  1
  S2-  S130  1  0.02915812  0.37993021  0.14345026  1
  S2-  S131  1  0.00527121  0.36358391  0.65558212  1
  S2-  S132  1  0.00264718  0.70396048  0.14970675  1
  S2-  S133  1  0.01588818  0.60503562  0.65549411  1
  S2-  S134  1  0.07888038  0.89897143  0.16845663  1
  S2-  S135  1  -0.00615841  0.84786850  0.65317704  1
  S2-  S136  1  0.34753910  0.09169264  0.14384516  1
  S2-  S137  1  0.22795019  0.14430357  0.72424618  1
  S2-  S138  1  0.32987446  0.37551611  0.15032565  1
  S2-  S139  1  0.23970820  0.30417983  0.64533496  1
  S2-  S140  1  0.20567701  0.59265380  0.15998246  1
  S2-  S141  1  0.26586847  0.61532173  0.63895042  1
  S2-  S142  1  0.27962986  0.80815369  0.14908021  1
  S2-  S143  1  0.23189804  0.95693946  0.65456508  1
  S2-  S144  1  0.50237369  0.23499998  0.16485809  1
  S2-  S145  1  0.39831413  0.11328863  0.65532094  1
  S2-  S146  1  0.51241749  0.45577673  0.19839159  1
  S2-  S147  1  0.49803876  0.31028739  0.64005549  1
  S2-  S148  1  0.43826756  0.64809725  0.15291654  1
  S2-  S149  1  0.52788013  0.64814761  0.65576277  1
  S2-  S150  1  0.50416940  0.88051381  0.16092399  1
  S2-  S151  1  0.45250240  0.88978724  0.65889849  1
  S2-  S152  1  0.64166182  0.08632126  0.15062366  1
  S2-  S153  1  0.62661483  0.13048517  0.64645395  1
  S2-  S154  1  0.68361450  0.35343236  0.14554064  1
  S2-  S155  1  0.74431123  0.35845215  0.65368269  1
  S2-  S156  1  0.71837488  0.65810386  0.15277299  1
  S2-  S157  1  0.75143370  0.64121813  0.65239032  1
  S2-  S158  1  0.84522603  0.86702838  0.14713729  1
  S2-  S159  1  0.69848163  0.89316047  0.65379426  1
  S2-  S160  1  0.12729406  -0.07269738  0.35103433  1
  S2-  S161  1  0.21166535  0.00443178  0.85461272  1
  S2-  S162  1  0.10260341  0.28244278  0.34296977  1
  S2-  S163  1  0.09230632  0.19786644  0.83037094  1
  S2-  S164  1  0.10112587  0.51627279  0.34082658  1
  S2-  S165  1  0.14231750  0.39957567  0.85683544  1
  S2-  S166  1  0.14619562  0.71626530  0.30056942  1
  S2-  S167  1  0.05730780  0.84242067  0.87105009  1
  S2-  S168  1  0.38396811  -0.06590847  0.35666767  1
  S2-  S169  1  0.40408176  0.05767186  0.82031204  1
  S2-  S170  1  0.44708262  0.25338211  0.34497569  1
  S2-  S171  1  0.36634702  0.28537520  0.84923372  1
  S2-  S172  1  0.33097798  0.44188455  0.33085687  1
  S2-  S173  1  0.38683549  0.53783327  0.85041981  1
  S2-  S174  1  0.35984377  0.69646966  0.31351723  1
  S2-  S175  1  0.38440985  0.84749676  0.85267483  1
  S2-  S176  1  0.64510192  0.12885576  0.36410415  1
  S2-  S177  1  0.62476880  0.00034145  0.84629345  1
  S2-  S178  1  0.63702906  0.37501349  0.35292927  1
  S2-  S179  1  0.64301812  0.24599023  0.83499217  1
  S2-  S180  1  0.50824464  0.53682915  0.34946657  1
  S2-  S181  1  0.63763058  0.50148732  0.85092795  1
  S2-  S182  1  0.54148126  0.77238294  0.35312799  1
  S2-  S183  1  0.62913737  0.75469746  0.83415693  1
  S2-  S184  1  0.88864847  -0.01258112  0.35103640  1
  S2-  S185  1  0.87547801  -0.00232366  0.85075480  1
  S2-  S186  1  0.85456239  0.23546673  0.34899346  1
  S2-  S187  1  0.87823101  0.21714113  0.84035258  1
  S2-  S188  1  0.86869337  0.55505033  0.34727936  1
  S2-  S189  1  0.84869031  0.42178844  0.82911991  1
  S2-  S190  1  0.96490909  0.76693503  0.34722377  1
  S2-  S191  1  0.85803118  0.64407934  0.85805847  1
  S2-  S192  1  0.00265572  0.13423482  0.44888749  1
  S2-  S193  1  -0.00632977  0.11702525  0.95600467  1
  S2-  S194  1  0.00376194  0.38661685  0.45245927  1
  S2-  S195  1  -0.01097131  0.36963616  0.94380485  1
  S2-  S196  1  0.00777019  0.64304690  0.45063764  1
  S2-  S197  1  -0.00415409  0.61677332  0.95880758  1
  S2-  S198  1  0.00212901  0.88710341  0.45336571  1
  S2-  S199  1  -0.01182526  0.86765626  0.97601675  1
  S2-  S200  1  0.25555648  0.13434952  0.43803991  1
  S2-  S201  1  0.24543041  0.12230595  0.95408726  1
  S2-  S202  1  0.25355350  0.38470649  0.44808109  1
  S2-  S203  1  0.25090541  0.36741304  0.95950570  1
  S2-  S204  1  0.25212595  0.64534578  0.43477037  1
  S2-  S205  1  0.24413760  0.61737953  0.95763963  1
  S2-  S206  1  0.25352331  0.88150049  0.45378507  1
  S2-  S207  1  0.24146607  0.86119407  0.95479684  1
  S2-  S208  1  0.49826048  0.13489384  0.45786285  1
  S2-  S209  1  0.49278282  0.11347511  0.94828473  1
  S2-  S210  1  0.49673981  0.38676433  0.44879178  1
  S2-  S211  1  0.49638552  0.36822555  0.94674634  1
  S2-  S212  1  0.49698005  0.64271985  0.45056327  1
  S2-  S213  1  0.49608106  0.61719814  0.95482340  1
  S2-  S214  1  0.50534338  0.89202315  0.45855299  1
  S2-  S215  1  0.49775042  0.86877255  0.95260673  1
  S2-  S216  1  0.75757190  0.13522449  0.46534885  1
  S2-  S217  1  0.74588852  0.11397732  0.95910357  1
  S2-  S218  1  0.75745450  0.38989808  0.45287164  1
  S2-  S219  1  0.74495966  0.36882126  0.94876378  1
  S2-  S220  1  0.74940917  0.63732771  0.44677275  1
  S2-  S221  1  0.74093534  0.61625944  0.95637675  1
  S2-  S222  1  0.75058879  0.89333631  0.45271164  1
  S2-  S223  1  0.74634553  0.86846419  0.95425427  1
  S2-  S224  1  0.12064159  -0.00155804  0.04803533  1
  S2-  S225  1  0.12903857  0.01469444  0.54490158  1
  S2-  S226  1  0.12168722  0.24250009  0.03700114  1
  S2-  S227  1  0.12670971  0.26161691  0.54245022  1
  S2-  S228  1  0.12672527  0.49458767  0.04566821  1
  S2-  S229  1  0.12810950  0.51168716  0.54371017  1
  S2-  S230  1  0.12410683  0.73910849  0.04699127  1
  S2-  S231  1  0.12940120  0.76336483  0.55303638  1
  S2-  S232  1  0.36831821  -0.00860571  0.03908537  1
  S2-  S233  1  0.37897870  0.01299145  0.54707363  1
  S2-  S234  1  0.37726777  0.24499404  0.04900547  1
  S2-  S235  1  0.37550469  0.26145679  0.53872599  1
  S2-  S236  1  0.37340007  0.49388724  0.05128469  1
  S2-  S237  1  0.37564941  0.51153111  0.53352796  1
  S2-  S238  1  0.36843899  0.74116031  0.03879659  1
  S2-  S239  1  0.37921804  0.76454638  0.54840656  1
  S2-  S240  1  0.62078927  -0.01274065  0.04783562  1
  S2-  S241  1  0.62567512  0.00944970  0.54473644  1
  S2-  S242  1  0.61717914  0.24055748  0.04456261  1
  S2-  S243  1  0.62873894  0.26625885  0.53786366  1
  S2-  S244  1  0.61363167  0.48963973  0.05208151  1
  S2-  S245  1  0.62481901  0.51220044  0.54053851  1
  S2-  S246  1  0.62043153  0.74335907  0.04527126  1
  S2-  S247  1  0.62504018  0.76401156  0.54496878  1
  S2-  S248  1  0.86929179  -0.00666198  0.05105141  1
  S2-  S249  1  0.87647500  0.01250116  0.55402186  1
  S2-  S250  1  0.87152690  0.24642123  0.04435064  1
  S2-  S251  1  0.87910862  0.26435339  0.55220680  1
  S2-  S252  1  0.87038416  0.49142187  0.04621004  1
  S2-  S253  1  0.87886372  0.51122131  0.54821612  1
  S2-  S254  1  0.86731858  0.73397104  0.04620734  1
  S2-  S255  1  0.87632919  0.76436659  0.54200482  1
