# generated using pymatgen
data_La12Ce14Pr13Nd13Sm12(BiS2)64
_symmetry_space_group_name_H-M   'P 1'
_cell_length_a   16.15637067
_cell_length_b   16.15920420
_cell_length_c   27.33107952
_cell_angle_alpha   90.29584511
_cell_angle_beta   90.19540041
_cell_angle_gamma   89.86056305
_symmetry_Int_Tables_number   1
_chemical_formula_structural   La12Ce14Pr13Nd13Sm12(BiS2)64
_chemical_formula_sum   'La12 Ce14 Pr13 Nd13 Sm12 Bi64 S128'
_cell_volume   7135.27934871
_cell_formula_units_Z   1
loop_
 _symmetry_equiv_pos_site_id
 _symmetry_equiv_pos_as_xyz
  1  'x, y, z'
loop_
 _atom_type_symbol
 _atom_type_oxidation_number
  La3+  3.0
  Ce3+  3.0
  Pr3+  3.0
  Nd3+  3.0
  Sm3+  3.0
  Bi2+  2.0
  S2-  -2.0
loop_
 _atom_site_type_symbol
 _atom_site_label
 _atom_site_symmetry_multiplicity
 _atom_site_fract_x
 _atom_site_fract_y
 _atom_site_fract_z
 _atom_site_occupancy
  La3+  La0  1  0.36101545  0.25417773  0.43597259  1
  La3+  La1  1  -0.00042771  0.62382364  0.57289011  1
  La3+  La2  1  0.26949562  0.37747046  0.05339600  1
  La3+  La3  1  0.62833920  0.52089303  0.38544734  1
  La3+  La4  1  0.51829939  0.63323189  0.08390962  1
  La3+  La5  1  -0.00482577  0.09385955  0.62117351  1
  La3+  La6  1  0.76901651  0.36656752  0.06731405  1
  La3+  La7  1  0.01765821  0.61460541  0.07666256  1
  La3+  La8  1  0.25440112  0.39230292  0.58613674  1
  La3+  La9  1  0.51990806  0.87724222  0.06761621  1
  La3+  La10  1  0.01934059  0.87450102  0.06680386  1
  La3+  La11  1  0.74178732  0.63666415  0.56669311  1
  Ce3+  Ce12  1  0.12107835  0.75361793  0.44653868  1
  Ce3+  Ce13  1  0.77033726  0.87626997  0.05692760  1
  Ce3+  Ce14  1  0.14348833  -0.00337686  0.93752788  1
  Ce3+  Ce15  1  0.51414953  0.37520898  0.05640253  1
  Ce3+  Ce16  1  0.86894122  0.50776253  0.44163045  1
  Ce3+  Ce17  1  0.87118049  0.75325862  0.44603600  1
  Ce3+  Ce18  1  0.77143466  0.61729106  0.07922317  1
  Ce3+  Ce19  1  0.63971538  0.24828835  0.93679906  1
  Ce3+  Ce20  1  0.61951792  0.00699070  0.43052044  1
  Ce3+  Ce21  1  0.13933740  0.50466062  0.92852371  1
  Ce3+  Ce22  1  0.26645629  0.87527710  0.06204187  1
  Ce3+  Ce23  1  0.49634516  0.13368083  0.56825993  1
  Ce3+  Ce24  1  0.37279682  0.75255153  0.43351359  1
  Ce3+  Ce25  1  0.12768069  0.50570484  0.44555526  1
  Pr3+  Pr26  1  0.61775059  0.25865253  0.43866509  1
  Pr3+  Pr27  1  0.75370425  0.88924117  0.56665420  1
  Pr3+  Pr28  1  0.25650001  0.64129294  0.56848846  1
  Pr3+  Pr29  1  0.12094435  0.25760993  0.45689960  1
  Pr3+  Pr30  1  0.15227980  0.25030200  0.91856888  1
  Pr3+  Pr31  1  0.12267673  0.00679704  0.44408800  1
  Pr3+  Pr32  1  0.36920693  0.49884720  0.42626201  1
  Pr3+  Pr33  1  -0.00963344  0.37134242  0.57942683  1
  Pr3+  Pr34  1  0.64323363  0.50211570  0.94580404  1
  Pr3+  Pr35  1  0.89614789  0.24980215  0.92733307  1
  Pr3+  Pr36  1  0.49641050  0.38478599  0.55830691  1
  Pr3+  Pr37  1  0.87170574  0.26063133  0.43756833  1
  Pr3+  Pr38  1  0.87320268  0.00778681  0.43644028  1
  Nd3+  Nd39  1  0.51495795  0.12651188  0.05584304  1
  Nd3+  Nd40  1  0.02182538  0.36856314  0.05895598  1
  Nd3+  Nd41  1  0.26808855  0.12833908  0.05225133  1
  Nd3+  Nd42  1  0.39759360  0.25945889  0.91304954  1
  Nd3+  Nd43  1  0.13887244  0.74597257  0.94312908  1
  Nd3+  Nd44  1  0.39327106  -0.00322455  0.93993714  1
  Nd3+  Nd45  1  0.39722026  0.50945671  0.93195526  1
  Nd3+  Nd46  1  0.24811575  0.88142862  0.56173316  1
  Nd3+  Nd47  1  0.37122650  0.00606158  0.44663128  1
  Nd3+  Nd48  1  0.64462526  0.74692167  0.94596092  1
  Nd3+  Nd49  1  0.62654527  0.76272600  0.42738260  1
  Nd3+  Nd50  1  0.50097710  0.63316432  0.54656908  1
  Nd3+  Nd51  1  -0.00365193  0.87914919  0.55868659  1
  Sm3+  Sm52  1  0.75071015  0.13398137  0.55558291  1
  Sm3+  Sm53  1  0.89284529  0.74781684  0.94665562  1
  Sm3+  Sm54  1  0.89335818  -0.00120790  0.94529264  1
  Sm3+  Sm55  1  0.64319639  -0.00155627  0.94617144  1
  Sm3+  Sm56  1  0.74745269  0.38400176  0.55857359  1
  Sm3+  Sm57  1  0.50391760  0.88524619  0.55358914  1
  Sm3+  Sm58  1  0.25163462  0.13556578  0.57579709  1
  Sm3+  Sm59  1  0.77002603  0.12841257  0.05582600  1
  Sm3+  Sm60  1  0.89292858  0.49929384  0.94219902  1
  Sm3+  Sm61  1  0.26789793  0.62415575  0.05489941  1
  Sm3+  Sm62  1  0.02076629  0.13158757  0.05548971  1
  Sm3+  Sm63  1  0.39540413  0.74741903  0.94003000  1
  Bi2+  Bi64  1  -0.02000566  0.07585214  0.28497850  1
  Bi2+  Bi65  1  -0.03995392  0.10210159  0.81819184  1
  Bi2+  Bi66  1  0.01732991  0.40556358  0.30301875  1
  Bi2+  Bi67  1  -0.01955166  0.37645398  0.80651193  1
  Bi2+  Bi68  1  0.01734969  0.60469462  0.28916400  1
  Bi2+  Bi69  1  -0.02905332  0.61955400  0.80013444  1
  Bi2+  Bi70  1  -0.00413024  0.83358931  0.31118288  1
  Bi2+  Bi71  1  -0.01571004  0.83817342  0.79147880  1
  Bi2+  Bi72  1  0.29001238  0.13580483  0.29330100  1
  Bi2+  Bi73  1  0.25588958  0.01003124  0.77904522  1
  Bi2+  Bi74  1  0.23065322  0.36449064  0.30507337  1
  Bi2+  Bi75  1  0.27177077  0.36280944  0.78540755  1
  Bi2+  Bi76  1  0.21101606  0.65034169  0.27577220  1
  Bi2+  Bi77  1  0.20902338  0.67171164  0.77922613  1
  Bi2+  Bi78  1  0.22127720  0.90862381  0.28496883  1
  Bi2+  Bi79  1  0.21129739  0.84663011  0.83746829  1
  Bi2+  Bi80  1  0.55122268  0.13460153  0.32902890  1
  Bi2+  Bi81  1  0.50976628  0.12492986  0.78067830  1
  Bi2+  Bi82  1  0.49879805  0.37930752  0.28560946  1
  Bi2+  Bi83  1  0.53077029  0.38864597  0.79191730  1
  Bi2+  Bi84  1  0.47828540  0.65114862  0.28018204  1
  Bi2+  Bi85  1  0.52284057  0.63369827  0.79915560  1
  Bi2+  Bi86  1  0.50232527  0.95364033  0.29959959  1
  Bi2+  Bi87  1  0.40244969  0.87420080  0.80578776  1
  Bi2+  Bi88  1  0.74279937  0.14513932  0.29834178  1
  Bi2+  Bi89  1  0.70434576  0.10969340  0.77909000  1
  Bi2+  Bi90  1  0.76470734  0.37851226  0.29424283  1
  Bi2+  Bi91  1  0.69687836  0.36220637  0.73216326  1
  Bi2+  Bi92  1  0.75812548  0.70944044  0.27295732  1
  Bi2+  Bi93  1  0.74364910  0.70093440  0.77713790  1
  Bi2+  Bi94  1  0.73836012  0.95217968  0.27637850  1
  Bi2+  Bi95  1  0.69575198  0.89193584  0.78380612  1
  Bi2+  Bi96  1  0.13855535  0.05161144  0.22109004  1
  Bi2+  Bi97  1  0.14783507  -0.13519456  0.72565856  1
  Bi2+  Bi98  1  0.07846503  0.23662851  0.24789656  1
  Bi2+  Bi99  1  0.11841607  0.20273670  0.72699382  1
  Bi2+  Bi100  1  0.13514596  0.49620677  0.21784867  1
  Bi2+  Bi101  1  0.13339664  0.48629972  0.71880883  1
  Bi2+  Bi102  1  0.10225813  0.76951436  0.20993218  1
  Bi2+  Bi103  1  0.05129736  0.69535758  0.69938676  1
  Bi2+  Bi104  1  0.39818933  0.02361996  0.20536841  1
  Bi2+  Bi105  1  0.44579033  -0.00895991  0.70359595  1
  Bi2+  Bi106  1  0.33876598  0.22828782  0.20157019  1
  Bi2+  Bi107  1  0.43306974  0.26145840  0.71209925  1
  Bi2+  Bi108  1  0.34548269  0.46997861  0.19011561  1
  Bi2+  Bi109  1  0.39179571  0.53168377  0.70734021  1
  Bi2+  Bi110  1  0.36780122  0.83397761  0.22342236  1
  Bi2+  Bi111  1  0.35154518  0.75203899  0.72105978  1
  Bi2+  Bi112  1  0.59287519  -0.00733637  0.19492561  1
  Bi2+  Bi113  1  0.62152086  0.01282595  0.64933185  1
  Bi2+  Bi114  1  0.60279385  0.19242213  0.22500864  1
  Bi2+  Bi115  1  0.61203827  0.20579756  0.68048064  1
  Bi2+  Bi116  1  0.60917989  0.48998437  0.18142132  1
  Bi2+  Bi117  1  0.59717415  0.52471478  0.70536002  1
  Bi2+  Bi118  1  0.62874584  0.79577938  0.20636826  1
  Bi2+  Bi119  1  0.60476305  0.77661521  0.70843613  1
  Bi2+  Bi120  1  0.84647469  0.09312173  0.20043164  1
  Bi2+  Bi121  1  0.79452929  -0.00617377  0.70376337  1
  Bi2+  Bi122  1  0.90556011  0.27591808  0.19891487  1
  Bi2+  Bi123  1  0.86420051  0.25270197  0.71764062  1
  Bi2+  Bi124  1  0.89801744  0.51597612  0.21137900  1
  Bi2+  Bi125  1  0.86707561  0.49685305  0.71387800  1
  Bi2+  Bi126  1  0.89356505  0.79833304  0.21023857  1
  Bi2+  Bi127  1  0.87458305  0.77757429  0.70152898  1
  S2-  S128  1  0.02589850  0.24208820  0.13101073  1
  S2-  S129  1  0.00062052  0.08088862  0.72867084  1
  S2-  S130  1  0.02453457  0.47356377  0.14087460  1
  S2-  S131  1  0.00441549  0.25932663  0.66113983  1
  S2-  S132  1  -0.10444576  0.64926001  0.14888661  1
  S2-  S133  1  0.00542516  0.50334294  0.65001816  1
  S2-  S134  1  0.00941325  0.90020934  0.16619202  1
  S2-  S135  1  -0.07249689  0.92409708  0.64557370  1
  S2-  S136  1  0.25437298  0.09392457  0.15018243  1
  S2-  S137  1  0.16330399  0.09942443  0.65772879  1
  S2-  S138  1  0.24726529  0.33292905  0.14980443  1
  S2-  S139  1  0.20018406  0.34439260  0.68536287  1
  S2-  S140  1  0.24453810  0.58380914  0.14891746  1
  S2-  S141  1  0.24793396  0.54270115  0.65148576  1
  S2-  S142  1  0.23976207  0.83913130  0.15552393  1
  S2-  S143  1  0.25683397  0.77766878  0.64166795  1
  S2-  S144  1  0.48587297  0.16230335  0.15205149  1
  S2-  S145  1  0.38385378  0.13343743  0.64551575  1
  S2-  S146  1  0.48444945  0.37908976  0.15348821  1
  S2-  S147  1  0.40850472  0.39365102  0.64639169  1
  S2-  S148  1  0.45793228  0.58584214  0.18036665  1
  S2-  S149  1  0.48968744  0.62466757  0.64743104  1
  S2-  S150  1  0.48724913  0.78499652  0.14954229  1
  S2-  S151  1  0.47973969  0.84980254  0.64914189  1
  S2-  S152  1  0.77107050  0.22612500  0.13696843  1
  S2-  S153  1  0.82521564  0.13710798  0.64557678  1
  S2-  S154  1  0.77506268  0.46455258  0.15207915  1
  S2-  S155  1  0.83574818  0.37038529  0.64455942  1
  S2-  S156  1  0.65925952  0.64644007  0.15219165  1
  S2-  S157  1  0.75238188  0.56404841  0.66063015  1
  S2-  S158  1  0.76653920  0.87042976  0.15314316  1
  S2-  S159  1  0.72848691  0.77217628  0.64063685  1
  S2-  S160  1  0.10030613  -0.03154507  0.34608079  1
  S2-  S161  1  0.12368610  0.04844953  0.84553313  1
  S2-  S162  1  0.20680768  0.23224146  0.36844071  1
  S2-  S163  1  0.06402196  0.24579755  0.82961102  1
  S2-  S164  1  0.22442170  0.50044346  0.36283678  1
  S2-  S165  1  0.13845478  0.43768691  0.83498000  1
  S2-  S166  1  0.12916763  0.72765259  0.35008733  1
  S2-  S167  1  0.11406367  0.64087439  0.86348078  1
  S2-  S168  1  0.32797449  -0.00022653  0.34999831  1
  S2-  S169  1  0.39137135  0.04184603  0.84427955  1
  S2-  S170  1  0.38600967  0.34302080  0.34905098  1
  S2-  S171  1  0.27597300  0.23735752  0.84266166  1
  S2-  S172  1  0.46197378  0.52499396  0.33923786  1
  S2-  S173  1  0.38984581  0.41105982  0.84724726  1
  S2-  S174  1  0.38868244  0.74678134  0.33549058  1
  S2-  S175  1  0.39919900  0.64041586  0.86154152  1
  S2-  S176  1  0.63803758  -0.10391970  0.35575790  1
  S2-  S177  1  0.63074727  0.00846374  0.84914793  1
  S2-  S178  1  0.62597520  0.34782311  0.35201762  1
  S2-  S179  1  0.54534343  0.24958636  0.85474877  1
  S2-  S180  1  0.63595969  0.49295374  0.27419319  1
  S2-  S181  1  0.61500143  0.51340150  0.84700658  1
  S2-  S182  1  0.62392467  0.68006051  0.33746139  1
  S2-  S183  1  0.61955534  0.75447644  0.84777825  1
  S2-  S184  1  0.87913284  -0.03902968  0.33865035  1
  S2-  S185  1  0.89378041  -0.03663064  0.84902359  1
  S2-  S186  1  0.89580178  0.29743632  0.33913327  1
  S2-  S187  1  0.85477394  0.26013376  0.82843488  1
  S2-  S188  1  0.79928105  0.50516189  0.35148416  1
  S2-  S189  1  0.87143363  0.50513245  0.84372316  1
  S2-  S190  1  0.86140092  0.73847755  0.34864061  1
  S2-  S191  1  0.87460396  0.73740255  0.84876193  1
  S2-  S192  1  -0.00151270  0.13334510  0.43994665  1
  S2-  S193  1  0.01687851  0.12265838  0.95159942  1
  S2-  S194  1  -0.00213291  0.38435186  0.46002960  1
  S2-  S195  1  0.01708240  0.37525948  0.94875879  1
  S2-  S196  1  -0.00228117  0.62876157  0.45901423  1
  S2-  S197  1  0.00941333  0.62344333  0.96483517  1
  S2-  S198  1  -0.00370772  0.87946611  0.45442729  1
  S2-  S199  1  0.01562306  0.87359030  0.95692101  1
  S2-  S200  1  0.24586854  0.12490945  0.46988458  1
  S2-  S201  1  0.27058328  0.12103252  0.94804713  1
  S2-  S202  1  0.24661213  0.38193613  0.46723147  1
  S2-  S203  1  0.26993370  0.38213968  0.94652813  1
  S2-  S204  1  0.24944542  0.63534190  0.45934760  1
  S2-  S205  1  0.26718121  0.62790634  0.95348077  1
  S2-  S206  1  0.24716525  0.87864780  0.45587522  1
  S2-  S207  1  0.26937984  0.87043249  0.95698150  1
  S2-  S208  1  0.49288010  0.13149207  0.45828414  1
  S2-  S209  1  0.51777673  0.11997767  0.95168059  1
  S2-  S210  1  0.49370379  0.38030530  0.45467888  1
  S2-  S211  1  0.51827671  0.37839877  0.95295439  1
  S2-  S212  1  0.50205394  0.63186141  0.44376761  1
  S2-  S213  1  0.52060186  0.62916429  0.96562149  1
  S2-  S214  1  0.49423639  0.88160139  0.44904293  1
  S2-  S215  1  0.51928135  0.87354088  0.95697584  1
  S2-  S216  1  0.74703151  0.13294953  0.44820735  1
  S2-  S217  1  0.76750067  0.12269665  0.95028733  1
  S2-  S218  1  0.74561839  0.38331780  0.45581976  1
  S2-  S219  1  0.76722230  0.37272766  0.95094201  1
  S2-  S220  1  0.74311405  0.63203721  0.45447585  1
  S2-  S221  1  0.77077641  0.62444383  0.95752170  1
  S2-  S222  1  0.75242704  0.88298496  0.45885092  1
  S2-  S223  1  0.76867452  0.87538193  0.95064691  1
  S2-  S224  1  0.14119151  0.00304601  0.04665308  1
  S2-  S225  1  0.12009393  0.00300426  0.55146742  1
  S2-  S226  1  0.14595668  0.24798114  0.02915239  1
  S2-  S227  1  0.13212383  0.26222792  0.55963844  1
  S2-  S228  1  0.14425026  0.50019964  0.03725933  1
  S2-  S229  1  0.12758834  0.50878231  0.54907082  1
  S2-  S230  1  0.14059835  0.74502844  0.04918286  1
  S2-  S231  1  0.11888247  0.75538620  0.55083502  1
  S2-  S232  1  0.39225062  -0.00071913  0.04782072  1
  S2-  S233  1  0.37322112  0.00184625  0.55123128  1
  S2-  S234  1  0.39288371  0.24907566  0.03629613  1
  S2-  S235  1  0.37186263  0.25715292  0.54585639  1
  S2-  S236  1  0.39457614  0.50560042  0.04370315  1
  S2-  S237  1  0.37496378  0.51362754  0.53938699  1
  S2-  S238  1  0.38860442  0.74983668  0.04468558  1
  S2-  S239  1  0.38028262  0.76251066  0.53955310  1
  S2-  S240  1  0.64561098  0.00511189  0.05050324  1
  S2-  S241  1  0.62506553  0.01040226  0.53637660  1
  S2-  S242  1  0.63839000  0.24762020  0.04213660  1
  S2-  S243  1  0.62499328  0.25756219  0.54641658  1
  S2-  S244  1  0.64046010  0.49778812  0.05083222  1
  S2-  S245  1  0.62272286  0.50559229  0.55312748  1
  S2-  S246  1  0.64671019  0.75378278  0.04953602  1
  S2-  S247  1  0.62134249  0.76292417  0.53616291  1
  S2-  S248  1  0.89557412  0.00680807  0.05093531  1
  S2-  S249  1  0.87710491  0.01461535  0.54194781  1
  S2-  S250  1  0.89401623  0.24701012  0.03351116  1
  S2-  S251  1  0.86729700  0.25815126  0.54127635  1
  S2-  S252  1  0.89096299  0.49169501  0.04470843  1
  S2-  S253  1  0.86941786  0.50738713  0.54636509  1
  S2-  S254  1  0.89266447  0.75199627  0.04910460  1
  S2-  S255  1  0.87670383  0.75329680  0.55081583  1
