# generated using pymatgen
data_La12Ce14Pr13Nd13Sm12(BiS2)64
_symmetry_space_group_name_H-M   'P 1'
_cell_length_a   16.05894170
_cell_length_b   16.09107051
_cell_length_c   27.17732454
_cell_angle_alpha   90.14718460
_cell_angle_beta   89.78394067
_cell_angle_gamma   89.96490279
_symmetry_Int_Tables_number   1
_chemical_formula_structural   La12Ce14Pr13Nd13Sm12(BiS2)64
_chemical_formula_sum   'La12 Ce14 Pr13 Nd13 Sm12 Bi64 S128'
_cell_volume   7022.69739290
_cell_formula_units_Z   1
loop_
 _symmetry_equiv_pos_site_id
 _symmetry_equiv_pos_as_xyz
  1  'x, y, z'
loop_
 _atom_type_symbol
 _atom_type_oxidation_number
  La3+  3.0
  Ce3+  3.0
  Pr3+  3.0
  Nd3+  3.0
  Sm3+  3.0
  Bi2+  2.0
  S2-  -2.0
loop_
 _atom_site_type_symbol
 _atom_site_label
 _atom_site_symmetry_multiplicity
 _atom_site_fract_x
 _atom_site_fract_y
 _atom_site_fract_z
 _atom_site_occupancy
  La3+  La0  1  0.64490837  0.49292279  0.92699780  1
  La3+  La1  1  0.51980556  0.62012610  0.07254572  1
  La3+  La2  1  0.61666015  -0.01346769  0.40786713  1
  La3+  La3  1  0.89846902  0.49971450  0.92035489  1
  La3+  La4  1  0.24637872  0.86699128  0.58030632  1
  La3+  La5  1  0.88580072  -0.00611448  0.40993857  1
  La3+  La6  1  0.50944316  0.37156788  0.57286732  1
  La3+  La7  1  0.60887337  0.25799843  0.39598729  1
  La3+  La8  1  0.01721823  0.12329545  0.07988948  1
  La3+  La9  1  0.87600706  0.25522870  0.41464399  1
  La3+  La10  1  0.50185206  0.87448933  0.58025587  1
  La3+  La11  1  0.40362216  -0.00952705  0.88876695  1
  Ce3+  Ce12  1  0.25335991  0.62239928  0.55785313  1
  Ce3+  Ce13  1  0.63024283  0.49629282  0.44610498  1
  Ce3+  Ce14  1  0.50129343  0.12209014  0.56248158  1
  Ce3+  Ce15  1  0.76501641  0.87644296  0.06456901  1
  Ce3+  Ce16  1  0.14337423  -0.00033347  0.94067035  1
  Ce3+  Ce17  1  0.00134976  0.62568284  0.55701327  1
  Ce3+  Ce18  1  0.88969859  -0.00162959  0.94415388  1
  Ce3+  Ce19  1  0.12827920  -0.00108576  0.44364356  1
  Ce3+  Ce20  1  0.62689475  0.74717705  0.44406347  1
  Ce3+  Ce21  1  0.14593327  0.74938038  0.94208709  1
  Ce3+  Ce22  1  0.89133398  0.24586543  0.94385605  1
  Ce3+  Ce23  1  0.38199080  0.75371197  0.44414435  1
  Ce3+  Ce24  1  -0.01280099  0.12500507  0.55644842  1
  Ce3+  Ce25  1  0.75077473  0.12347333  0.53304926  1
  Pr3+  Pr26  1  0.90074126  0.75795208  0.92628921  1
  Pr3+  Pr27  1  0.01988548  0.62852165  0.06964026  1
  Pr3+  Pr28  1  0.76161561  0.36813622  0.56791521  1
  Pr3+  Pr29  1  -0.00035355  0.87630995  0.56067713  1
  Pr3+  Pr30  1  0.23024014  0.13255737  0.58568080  1
  Pr3+  Pr31  1  0.39205419  0.74635317  0.93919100  1
  Pr3+  Pr32  1  0.24866591  0.37414843  0.56716087  1
  Pr3+  Pr33  1  0.38247038  0.49000955  0.43829644  1
  Pr3+  Pr34  1  0.63840670  0.74182842  0.93399082  1
  Pr3+  Pr35  1  0.37449822  0.00166186  0.44744005  1
  Pr3+  Pr36  1  0.76033997  0.12625568  0.08306778  1
  Pr3+  Pr37  1  0.01751834  0.87364523  0.06919435  1
  Pr3+  Pr38  1  0.75413436  0.87743636  0.55824543  1
  Nd3+  Nd39  1  0.76500542  0.37547523  0.06492867  1
  Nd3+  Nd40  1  0.13312486  0.74988903  0.43253829  1
  Nd3+  Nd41  1  0.00799962  0.37853362  0.06686881  1
  Nd3+  Nd42  1  0.13023048  0.50016421  0.44113919  1
  Nd3+  Nd43  1  0.12499408  0.24607950  0.43155813  1
  Nd3+  Nd44  1  0.27235042  0.62381971  0.07449026  1
  Nd3+  Nd45  1  0.39153520  0.49634009  0.93618098  1
  Nd3+  Nd46  1  0.13979884  0.50029894  0.93947652  1
  Nd3+  Nd47  1  0.75338452  0.63024160  0.57379653  1
  Nd3+  Nd48  1  0.87403691  0.50156894  0.43867517  1
  Nd3+  Nd49  1  0.26981164  0.87748963  0.05669533  1
  Nd3+  Nd50  1  0.51735594  0.87845410  0.05864721  1
  Nd3+  Nd51  1  0.37565560  0.24479002  0.45111788  1
  Sm3+  Sm52  1  0.64251251  -0.00250828  0.93533155  1
  Sm3+  Sm53  1  0.39126064  0.25076267  0.92679909  1
  Sm3+  Sm54  1  0.51582771  0.37265023  0.05836933  1
  Sm3+  Sm55  1  0.51561288  0.12542957  0.05050749  1
  Sm3+  Sm56  1  -0.00157906  0.37456597  0.55238004  1
  Sm3+  Sm57  1  0.87609641  0.74867536  0.43365296  1
  Sm3+  Sm58  1  0.76748796  0.63231989  0.05945632  1
  Sm3+  Sm59  1  0.50302038  0.62248052  0.55829277  1
  Sm3+  Sm60  1  0.64463171  0.24645885  0.93630999  1
  Sm3+  Sm61  1  0.26375002  0.37205041  0.05507453  1
  Sm3+  Sm62  1  0.26892720  0.12597036  0.05232562  1
  Sm3+  Sm63  1  0.14068218  0.24533818  0.93890786  1
  Bi2+  Bi64  1  0.09936293  0.15602935  0.26820678  1
  Bi2+  Bi65  1  -0.05562015  0.14235731  0.80002231  1
  Bi2+  Bi66  1  0.01572583  0.38200436  0.29115098  1
  Bi2+  Bi67  1  0.03360709  0.37516022  0.79489490  1
  Bi2+  Bi68  1  -0.11541952  0.62554813  0.31458889  1
  Bi2+  Bi69  1  -0.04180072  0.64207880  0.75390273  1
  Bi2+  Bi70  1  0.00013304  0.86254684  0.29478936  1
  Bi2+  Bi71  1  -0.01954494  0.95581520  0.76354621  1
  Bi2+  Bi72  1  0.24578058  0.11295786  0.35351979  1
  Bi2+  Bi73  1  0.24703040  0.14263147  0.79337116  1
  Bi2+  Bi74  1  0.22929206  0.29380691  0.30013983  1
  Bi2+  Bi75  1  0.25609907  0.45004637  0.79715910  1
  Bi2+  Bi76  1  0.22615870  0.61274186  0.29815914  1
  Bi2+  Bi77  1  0.26879723  0.62382524  0.85468433  1
  Bi2+  Bi78  1  0.25893877  0.92787995  0.30635091  1
  Bi2+  Bi79  1  0.17652869  0.89003612  0.80902564  1
  Bi2+  Bi80  1  0.42309810  0.14982194  0.29987563  1
  Bi2+  Bi81  1  0.46798010  0.22317116  0.75512132  1
  Bi2+  Bi82  1  0.46945043  0.42600575  0.29201453  1
  Bi2+  Bi83  1  0.51644315  0.45422170  0.80133335  1
  Bi2+  Bi84  1  0.50147979  0.63249706  0.26934080  1
  Bi2+  Bi85  1  0.40460098  0.60705079  0.76851054  1
  Bi2+  Bi86  1  0.45478486  0.86876346  0.29395367  1
  Bi2+  Bi87  1  0.54461287  0.85495394  0.78824141  1
  Bi2+  Bi88  1  0.75001263  0.13227563  0.26732185  1
  Bi2+  Bi89  1  0.76941186  0.11613142  0.85154531  1
  Bi2+  Bi90  1  0.74891445  0.40008089  0.28659789  1
  Bi2+  Bi91  1  0.76502406  0.35948074  0.79243067  1
  Bi2+  Bi92  1  0.68876307  0.63354268  0.31457798  1
  Bi2+  Bi93  1  0.72052103  0.63136964  0.79873429  1
  Bi2+  Bi94  1  0.71428978  0.82833862  0.28456097  1
  Bi2+  Bi95  1  0.81017287  0.85290866  0.77760562  1
  Bi2+  Bi96  1  0.15562309  -0.03402494  0.21258917  1
  Bi2+  Bi97  1  0.14953115  -0.01547588  0.70397507  1
  Bi2+  Bi98  1  0.06978434  0.28260721  0.18161488  1
  Bi2+  Bi99  1  0.06643727  0.22740104  0.71948803  1
  Bi2+  Bi100  1  0.08724780  0.47616554  0.20098763  1
  Bi2+  Bi101  1  0.10925604  0.50283723  0.71613395  1
  Bi2+  Bi102  1  0.11992752  0.72195692  0.21939413  1
  Bi2+  Bi103  1  0.14531958  0.70243273  0.77078452  1
  Bi2+  Bi104  1  0.34362692  0.02902030  0.21622540  1
  Bi2+  Bi105  1  0.42538295  0.01012403  0.70790064  1
  Bi2+  Bi106  1  0.33797696  0.23152778  0.20505846  1
  Bi2+  Bi107  1  0.32042316  0.33303435  0.71273152  1
  Bi2+  Bi108  1  0.29240412  0.45210503  0.23993377  1
  Bi2+  Bi109  1  0.29155213  0.52975482  0.68037195  1
  Bi2+  Bi110  1  0.32976861  0.71888596  0.21624559  1
  Bi2+  Bi111  1  0.31820402  0.76972524  0.72850482  1
  Bi2+  Bi112  1  0.60562761  -0.00004083  0.20567030  1
  Bi2+  Bi113  1  0.71797028  0.01773270  0.74978074  1
  Bi2+  Bi114  1  0.58535008  0.26765559  0.20270579  1
  Bi2+  Bi115  1  0.66141712  0.20200509  0.76127172  1
  Bi2+  Bi116  1  0.64135497  0.50551171  0.21968402  1
  Bi2+  Bi117  1  0.59670228  0.50322811  0.69935430  1
  Bi2+  Bi118  1  0.61685770  0.74575604  0.19744013  1
  Bi2+  Bi119  1  0.62774510  0.75861501  0.69825914  1
  Bi2+  Bi120  1  0.88515278  0.00407305  0.21424047  1
  Bi2+  Bi121  1  0.85665213  -0.02718615  0.66820267  1
  Bi2+  Bi122  1  0.87611605  0.28874558  0.20835238  1
  Bi2+  Bi123  1  0.86664883  0.22151134  0.70820756  1
  Bi2+  Bi124  1  0.90070493  0.54603524  0.21045098  1
  Bi2+  Bi125  1  0.84696437  0.46248817  0.69982275  1
  Bi2+  Bi126  1  0.87846173  0.74195293  0.21843672  1
  Bi2+  Bi127  1  0.94286598  0.79900210  0.68345348  1
  S2-  S128  1  -0.10812722  0.13850052  0.15549840  1
  S2-  S129  1  0.07169319  0.10941677  0.64376695  1
  S2-  S130  1  -0.11801633  0.41207764  0.14098921  1
  S2-  S131  1  -0.08790807  0.34743770  0.63594455  1
  S2-  S132  1  0.01213149  0.75515813  0.14738887  1
  S2-  S133  1  -0.01257179  0.58001937  0.65247457  1
  S2-  S134  1  0.02290911  0.98518244  0.15084312  1
  S2-  S135  1  0.10254077  0.86086796  0.64522416  1
  S2-  S136  1  0.23705269  0.11694667  0.15005217  1
  S2-  S137  1  0.29121797  0.08576305  0.67956277  1
  S2-  S138  1  0.30350811  0.37349313  0.15082266  1
  S2-  S139  1  0.19548116  0.28492277  0.64862688  1
  S2-  S140  1  0.15062744  0.60468303  0.14621304  1
  S2-  S141  1  0.24140853  0.69414729  0.64617896  1
  S2-  S142  1  0.25309083  0.84662285  0.15525050  1
  S2-  S143  1  0.37158074  0.86728877  0.65534318  1
  S2-  S144  1  0.54479633  0.12070489  0.14986132  1
  S2-  S145  1  0.50157863  0.13761552  0.66202767  1
  S2-  S146  1  0.53422198  0.40032672  0.15680698  1
  S2-  S147  1  0.47342371  0.39325976  0.67059820  1
  S2-  S148  1  0.39575937  0.62091436  0.14878832  1
  S2-  S149  1  0.51594313  0.65030221  0.65556448  1
  S2-  S150  1  0.51920615  0.86942491  0.16032541  1
  S2-  S151  1  0.58039586  0.90852453  0.67400449  1
  S2-  S152  1  0.74247610  -0.01587807  0.14970475  1
  S2-  S153  1  0.83806924  0.13026832  0.62055845  1
  S2-  S154  1  0.72176933  0.26755128  0.14826657  1
  S2-  S155  1  0.69885478  0.38319206  0.66522462  1
  S2-  S156  1  0.65662725  0.59904947  0.13837116  1
  S2-  S157  1  0.74800535  0.58258046  0.67432708  1
  S2-  S158  1  0.77181925  0.76087594  0.13888931  1
  S2-  S159  1  0.77095381  0.77074972  0.63988713  1
  S2-  S160  1  0.05267816  -0.02460498  0.35622387  1
  S2-  S161  1  0.13818966  0.05296635  0.84655802  1
  S2-  S162  1  0.01909506  0.23996421  0.34820864  1
  S2-  S163  1  0.17106687  0.27106213  0.84172878  1
  S2-  S164  1  0.12870083  0.49508081  0.34159652  1
  S2-  S165  1  0.04192110  0.50302486  0.85614670  1
  S2-  S166  1  0.10546683  0.73409282  0.33293620  1
  S2-  S167  1  0.06681294  0.77129446  0.85669938  1
  S2-  S168  1  0.46164467  -0.00329772  0.35648592  1
  S2-  S169  1  0.32638555  -0.01568256  0.79482773  1
  S2-  S170  1  0.43239116  0.29885346  0.36092742  1
  S2-  S171  1  0.40289965  0.15935484  0.84126458  1
  S2-  S172  1  0.38908195  0.55130190  0.34344481  1
  S2-  S173  1  0.39170822  0.38363851  0.85619517  1
  S2-  S174  1  0.33622821  0.78756124  0.35138674  1
  S2-  S175  1  0.42224052  0.81686718  0.84729367  1
  S2-  S176  1  0.67601452  -0.00997779  0.30782725  1
  S2-  S177  1  0.56407351  -0.00866972  0.84430695  1
  S2-  S178  1  0.58366825  0.18529302  0.29841788  1
  S2-  S179  1  0.62404802  0.34745016  0.85534255  1
  S2-  S180  1  0.61350031  0.42516560  0.35571577  1
  S2-  S181  1  0.58928547  0.61114751  0.85385516  1
  S2-  S182  1  0.58419330  0.81871616  0.35829060  1
  S2-  S183  1  0.68371518  0.79337849  0.83952240  1
  S2-  S184  1  0.87900620  0.06420118  0.30922119  1
  S2-  S185  1  0.89544227  -0.09676870  0.86140755  1
  S2-  S186  1  0.75922604  0.25176511  0.33798841  1
  S2-  S187  1  0.90069312  0.33404653  0.85810829  1
  S2-  S188  1  0.87774197  0.41466001  0.35206987  1
  S2-  S189  1  0.76969979  0.49815266  0.84790215  1
  S2-  S190  1  0.86180230  0.84623797  0.35093372  1
  S2-  S191  1  0.87996919  0.65831136  0.84067807  1
  S2-  S192  1  0.00158743  0.12222445  0.44902058  1
  S2-  S193  1  0.01687200  0.12300931  0.95747332  1
  S2-  S194  1  0.00551699  0.37938598  0.45009578  1
  S2-  S195  1  0.02128956  0.36948837  0.96144738  1
  S2-  S196  1  0.00282178  0.62508350  0.44807854  1
  S2-  S197  1  0.02130721  0.62890949  0.95967267  1
  S2-  S198  1  0.00447014  0.86429920  0.45398708  1
  S2-  S199  1  0.02284538  0.87869357  0.96257198  1
  S2-  S200  1  0.24822582  0.12677356  0.46963504  1
  S2-  S201  1  0.27089307  0.12554080  0.94829005  1
  S2-  S202  1  0.25067060  0.37170138  0.45588047  1
  S2-  S203  1  0.26260382  0.37026034  0.95246176  1
  S2-  S204  1  0.25752287  0.62261059  0.45089392  1
  S2-  S205  1  0.26799197  0.62001773  0.96741474  1
  S2-  S206  1  0.25197911  0.87361737  0.46185733  1
  S2-  S207  1  0.27345869  0.88043123  0.94828993  1
  S2-  S208  1  0.50788380  0.12739433  0.45411093  1
  S2-  S209  1  0.51659662  0.12478595  0.94693377  1
  S2-  S210  1  0.50732194  0.37029608  0.46513908  1
  S2-  S211  1  0.51428143  0.36839247  0.95625179  1
  S2-  S212  1  0.50289872  0.62116238  0.45260241  1
  S2-  S213  1  0.51063495  0.61937899  0.96211694  1
  S2-  S214  1  0.50114080  0.87738208  0.46757433  1
  S2-  S215  1  0.51735440  0.87803963  0.95322058  1
  S2-  S216  1  0.74273930  0.11476037  0.43045843  1
  S2-  S217  1  0.76373003  0.12334457  0.96531495  1
  S2-  S218  1  0.74794290  0.37288240  0.45685313  1
  S2-  S219  1  0.76790841  0.36754893  0.95842796  1
  S2-  S220  1  0.75260076  0.62620377  0.45845891  1
  S2-  S221  1  0.76987819  0.62753225  0.95448941  1
  S2-  S222  1  0.74696525  0.87397628  0.45115293  1
  S2-  S223  1  0.76169890  0.87519323  0.95673476  1
  S2-  S224  1  0.14589393  0.00245425  0.04621716  1
  S2-  S225  1  0.12527078  -0.00051253  0.54679019  1
  S2-  S226  1  0.14062384  0.24807468  0.04593921  1
  S2-  S227  1  0.11601326  0.25249050  0.53861761  1
  S2-  S228  1  0.14079837  0.49325907  0.04606401  1
  S2-  S229  1  0.12421061  0.49794496  0.54853722  1
  S2-  S230  1  0.14926370  0.75038390  0.04689333  1
  S2-  S231  1  0.12579669  0.74443688  0.53996044  1
  S2-  S232  1  0.39208772  0.00436433  0.05502935  1
  S2-  S233  1  0.37113334  0.00252180  0.55502820  1
  S2-  S234  1  0.39137600  0.24970880  0.04101677  1
  S2-  S235  1  0.37411658  0.24883806  0.55791221  1
  S2-  S236  1  0.39027137  0.49193445  0.04415610  1
  S2-  S237  1  0.37954549  0.49624538  0.54743281  1
  S2-  S238  1  0.39370838  0.75273876  0.04712983  1
  S2-  S239  1  0.37974659  0.74500273  0.54874943  1
  S2-  S240  1  0.63806952  0.00355692  0.04093077  1
  S2-  S241  1  0.62946632  0.00142688  0.55368095  1
  S2-  S242  1  0.63670430  0.24941285  0.04019531  1
  S2-  S243  1  0.63208069  0.24447327  0.56002491  1
  S2-  S244  1  0.64135795  0.49245816  0.03841450  1
  S2-  S245  1  0.63194205  0.50265612  0.55291095  1
  S2-  S246  1  0.63725149  0.75237738  0.04152272  1
  S2-  S247  1  0.62489615  0.74831878  0.54857085  1
  S2-  S248  1  0.88985869  0.00108855  0.04870777  1
  S2-  S249  1  0.87703265  -0.00510972  0.52498852  1
  S2-  S250  1  0.89171948  0.24753959  0.04879874  1
  S2-  S251  1  0.87724816  0.25282623  0.52391057  1
  S2-  S252  1  0.89109539  0.50872543  0.03950697  1
  S2-  S253  1  0.87525448  0.50298112  0.54431452  1
  S2-  S254  1  0.89357857  0.75162900  0.03910404  1
  S2-  S255  1  0.87864798  0.74776041  0.53771517  1
