# generated using pymatgen
data_La12Ce14Pr13Nd13Sm12(BiS2)64
_symmetry_space_group_name_H-M   'P 1'
_cell_length_a   16.21444241
_cell_length_b   16.18511256
_cell_length_c   27.16351481
_cell_angle_alpha   90.07969403
_cell_angle_beta   90.03979411
_cell_angle_gamma   90.06200538
_symmetry_Int_Tables_number   1
_chemical_formula_structural   La12Ce14Pr13Nd13Sm12(BiS2)64
_chemical_formula_sum   'La12 Ce14 Pr13 Nd13 Sm12 Bi64 S128'
_cell_volume   7128.57835615
_cell_formula_units_Z   1
loop_
 _symmetry_equiv_pos_site_id
 _symmetry_equiv_pos_as_xyz
  1  'x, y, z'
loop_
 _atom_type_symbol
 _atom_type_oxidation_number
  La3+  3.0
  Ce3+  3.0
  Pr3+  3.0
  Nd3+  3.0
  Sm3+  3.0
  Bi2+  2.0
  S2-  -2.0
loop_
 _atom_site_type_symbol
 _atom_site_label
 _atom_site_symmetry_multiplicity
 _atom_site_fract_x
 _atom_site_fract_y
 _atom_site_fract_z
 _atom_site_occupancy
  La3+  La0  1  0.61483031  -0.00895802  0.42265265  1
  La3+  La1  1  0.74262280  0.86815432  0.56524888  1
  La3+  La2  1  -0.00609435  0.63550695  0.06166060  1
  La3+  La3  1  0.60779254  0.75902298  0.88589135  1
  La3+  La4  1  0.11190851  0.49677471  0.91773144  1
  La3+  La5  1  0.37625132  0.26055080  0.41262886  1
  La3+  La6  1  0.23663800  0.61815606  0.58117450  1
  La3+  La7  1  -0.00271425  0.88559862  0.06604071  1
  La3+  La8  1  0.73824147  0.13989614  0.08665261  1
  La3+  La9  1  0.49783796  0.88516796  0.05811676  1
  La3+  La10  1  0.49445462  0.38805074  0.06587367  1
  La3+  La11  1  -0.00265383  0.39050586  0.07610944  1
  Ce3+  Ce12  1  0.61914962  0.24074810  0.43338217  1
  Ce3+  Ce13  1  0.11810613  0.24330732  0.43072864  1
  Ce3+  Ce14  1  0.74092239  0.11836656  0.55775943  1
  Ce3+  Ce15  1  -0.00215025  0.86945158  0.55686004  1
  Ce3+  Ce16  1  0.74413753  0.38231700  0.05662238  1
  Ce3+  Ce17  1  0.11977874  0.74338941  0.43957352  1
  Ce3+  Ce18  1  0.49534445  0.14188694  0.06871241  1
  Ce3+  Ce19  1  0.24232331  0.63226882  0.05199261  1
  Ce3+  Ce20  1  0.36978179  0.26099453  0.94407021  1
  Ce3+  Ce21  1  0.36230639  0.75854321  0.93430957  1
  Ce3+  Ce22  1  0.87036428  0.49527122  0.44185621  1
  Ce3+  Ce23  1  0.86929300  -0.00803631  0.44169182  1
  Ce3+  Ce24  1  0.37142360  -0.00635916  0.43717737  1
  Ce3+  Ce25  1  0.49572072  0.36862731  0.56759446  1
  Pr3+  Pr26  1  0.12051750  -0.00680425  0.43352286  1
  Pr3+  Pr27  1  -0.00390609  0.11971559  0.55565895  1
  Pr3+  Pr28  1  0.74468761  0.63761762  0.05720440  1
  Pr3+  Pr29  1  0.61959959  0.25934552  0.93383260  1
  Pr3+  Pr30  1  0.11699720  0.76128690  0.93282321  1
  Pr3+  Pr31  1  0.49452711  0.63501139  0.06451885  1
  Pr3+  Pr32  1  0.62335123  0.01302871  0.93443171  1
  Pr3+  Pr33  1  0.86892265  0.24489351  0.43843177  1
  Pr3+  Pr34  1  0.24268823  0.39569677  0.06886377  1
  Pr3+  Pr35  1  0.36982038  0.74186070  0.44702866  1
  Pr3+  Pr36  1  0.49250558  0.86262676  0.56761021  1
  Pr3+  Pr37  1  0.49730150  0.61126205  0.57343732  1
  Pr3+  Pr38  1  0.24539345  0.13806650  0.06450689  1
  Nd3+  Nd39  1  -0.00307912  0.36860658  0.55925861  1
  Nd3+  Nd40  1  0.37205436  0.00859003  0.93800395  1
  Nd3+  Nd41  1  0.62048914  0.74397879  0.43369465  1
  Nd3+  Nd42  1  0.86222245  0.76402051  0.93614053  1
  Nd3+  Nd43  1  0.37049291  0.49728465  0.44676736  1
  Nd3+  Nd44  1  0.24381797  0.36739047  0.55677536  1
  Nd3+  Nd45  1  0.24647944  0.88421233  0.05726871  1
  Nd3+  Nd46  1  0.12075898  0.25901180  0.94623056  1
  Nd3+  Nd47  1  0.24559606  0.87121250  0.55675557  1
  Nd3+  Nd48  1  0.86875190  0.25917804  0.94844107  1
  Nd3+  Nd49  1  -0.00447934  0.13671876  0.06599166  1
  Nd3+  Nd50  1  0.37003660  0.51101388  0.93455743  1
  Nd3+  Nd51  1  0.24845161  0.12167313  0.54801329  1
  Sm3+  Sm52  1  0.86700580  0.01215108  0.95339735  1
  Sm3+  Sm53  1  0.61947714  0.51459775  0.94024712  1
  Sm3+  Sm54  1  -0.00270217  0.61817601  0.56040609  1
  Sm3+  Sm55  1  0.49529935  0.11999260  0.55220800  1
  Sm3+  Sm56  1  0.74711058  0.61845094  0.55878983  1
  Sm3+  Sm57  1  0.87140080  0.74177762  0.44683053  1
  Sm3+  Sm58  1  0.74304234  0.88633584  0.06125940  1
  Sm3+  Sm59  1  0.86984963  0.50967488  0.94069584  1
  Sm3+  Sm60  1  0.11934718  0.49488429  0.43538450  1
  Sm3+  Sm61  1  0.11804510  0.01014645  0.94730697  1
  Sm3+  Sm62  1  0.61933375  0.49496055  0.44788652  1
  Sm3+  Sm63  1  0.74640000  0.36798049  0.55393248  1
  Bi2+  Bi64  1  -0.02492562  0.11731644  0.28083061  1
  Bi2+  Bi65  1  0.07777660  0.14485103  0.80187113  1
  Bi2+  Bi66  1  0.01650600  0.37937176  0.29867282  1
  Bi2+  Bi67  1  -0.06852308  0.39070731  0.77941955  1
  Bi2+  Bi68  1  -0.04120776  0.64009488  0.29570903  1
  Bi2+  Bi69  1  -0.04586014  0.61920446  0.77650636  1
  Bi2+  Bi70  1  0.07762554  0.85249333  0.30771381  1
  Bi2+  Bi71  1  0.00480054  0.86139082  0.79940559  1
  Bi2+  Bi72  1  0.21043522  0.06354367  0.26883097  1
  Bi2+  Bi73  1  0.26606857  0.16632925  0.77242484  1
  Bi2+  Bi74  1  0.25402998  0.37729677  0.29289539  1
  Bi2+  Bi75  1  0.24811972  0.37415702  0.80937206  1
  Bi2+  Bi76  1  0.27081559  0.66227289  0.25277717  1
  Bi2+  Bi77  1  0.27731348  0.63606733  0.79037680  1
  Bi2+  Bi78  1  0.26905721  0.84568841  0.30448155  1
  Bi2+  Bi79  1  0.21717355  0.89880157  0.78667734  1
  Bi2+  Bi80  1  0.49714741  0.14216764  0.29928018  1
  Bi2+  Bi81  1  0.53870960  0.13932075  0.77882521  1
  Bi2+  Bi82  1  0.50648032  0.41142220  0.28571208  1
  Bi2+  Bi83  1  0.54823194  0.33787443  0.80425253  1
  Bi2+  Bi84  1  0.52262853  0.64605026  0.30626489  1
  Bi2+  Bi85  1  0.49912026  0.62610975  0.77699450  1
  Bi2+  Bi86  1  0.50884985  0.83998045  0.29090533  1
  Bi2+  Bi87  1  0.47042576  0.89011363  0.78902717  1
  Bi2+  Bi88  1  0.75316342  0.11233198  0.27459928  1
  Bi2+  Bi89  1  0.77249920  0.16632261  0.79119345  1
  Bi2+  Bi90  1  0.76258004  0.31325523  0.29245949  1
  Bi2+  Bi91  1  0.73940032  0.39062038  0.80575326  1
  Bi2+  Bi92  1  0.72210466  0.64403639  0.30567642  1
  Bi2+  Bi93  1  0.76451043  0.58609771  0.79938085  1
  Bi2+  Bi94  1  0.75782977  0.81092246  0.24774256  1
  Bi2+  Bi95  1  0.75804449  0.90454612  0.79269722  1
  Bi2+  Bi96  1  0.10515249  -0.04777735  0.19721417  1
  Bi2+  Bi97  1  0.14402214  0.03759073  0.71339750  1
  Bi2+  Bi98  1  0.13799484  0.22309860  0.19981536  1
  Bi2+  Bi99  1  0.11487016  0.26839552  0.70064451  1
  Bi2+  Bi100  1  0.12220653  0.54818888  0.21016518  1
  Bi2+  Bi101  1  0.14249942  0.48933220  0.69983039  1
  Bi2+  Bi102  1  0.12784137  0.74452732  0.18814964  1
  Bi2+  Bi103  1  0.09622994  0.75745798  0.71718117  1
  Bi2+  Bi104  1  0.37993691  -0.02239636  0.25361993  1
  Bi2+  Bi105  1  0.37724004  0.01414674  0.68858078  1
  Bi2+  Bi106  1  0.37171737  0.23343343  0.21071333  1
  Bi2+  Bi107  1  0.43564592  0.26284798  0.71389451  1
  Bi2+  Bi108  1  0.40006841  0.52863331  0.21822713  1
  Bi2+  Bi109  1  0.39814031  0.45017995  0.73155601  1
  Bi2+  Bi110  1  0.43381289  0.72128603  0.18916793  1
  Bi2+  Bi111  1  0.33220862  0.74559129  0.70673212  1
  Bi2+  Bi112  1  0.59534663  -0.02793279  0.20922400  1
  Bi2+  Bi113  1  0.63654300  0.03200693  0.69777238  1
  Bi2+  Bi114  1  0.61687547  0.25144726  0.21621885  1
  Bi2+  Bi115  1  0.65697553  0.28331104  0.70381602  1
  Bi2+  Bi116  1  0.66805427  0.44377887  0.22296193  1
  Bi2+  Bi117  1  0.61853693  0.47789440  0.72107536  1
  Bi2+  Bi118  1  0.62327266  0.68575709  0.20567396  1
  Bi2+  Bi119  1  0.63539010  0.77711277  0.68286408  1
  Bi2+  Bi120  1  0.91365440  -0.06659029  0.26575148  1
  Bi2+  Bi121  1  0.90948949  0.02960728  0.76095538  1
  Bi2+  Bi122  1  0.87040246  0.24819119  0.20312731  1
  Bi2+  Bi123  1  0.92085455  0.22076765  0.72035760  1
  Bi2+  Bi124  1  0.84221939  0.52458234  0.22925378  1
  Bi2+  Bi125  1  0.83955337  0.51886332  0.70121292  1
  Bi2+  Bi126  1  0.93402367  0.71927574  0.19097517  1
  Bi2+  Bi127  1  0.90131001  0.77711987  0.71504275  1
  S2-  S128  1  0.03692249  0.10578108  0.16067379  1
  S2-  S129  1  0.02260744  0.12935998  0.65445094  1
  S2-  S130  1  0.02312477  0.32713128  0.17300945  1
  S2-  S131  1  0.02382355  0.40304528  0.65633366  1
  S2-  S132  1  0.00710600  0.53009965  0.14279590  1
  S2-  S133  1  0.08915734  0.62162803  0.64417973  1
  S2-  S134  1  -0.05812751  0.88340257  0.16152710  1
  S2-  S135  1  0.01036301  0.87209870  0.65399567  1
  S2-  S136  1  0.29008146  0.11657704  0.16171922  1
  S2-  S137  1  0.26395895  0.10821551  0.64748536  1
  S2-  S138  1  0.25715250  0.33185467  0.16652419  1
  S2-  S139  1  0.23497147  0.35885470  0.65706721  1
  S2-  S140  1  0.23489026  0.54023230  0.13473226  1
  S2-  S141  1  0.29004538  0.57753898  0.67663562  1
  S2-  S142  1  0.23447249  0.87017757  0.15600372  1
  S2-  S143  1  0.28210621  0.87602001  0.65426562  1
  S2-  S144  1  0.59571718  0.10019857  0.14741700  1
  S2-  S145  1  0.48920850  0.12858526  0.65111276  1
  S2-  S146  1  0.48957907  0.27312684  0.14350839  1
  S2-  S147  1  0.49780811  0.47742008  0.64593952  1
  S2-  S148  1  0.49904363  0.51292192  0.13967729  1
  S2-  S149  1  0.48597425  0.71267672  0.65442907  1
  S2-  S150  1  0.47121059  0.89115858  0.15820737  1
  S2-  S151  1  0.51514442  0.91566209  0.66367688  1
  S2-  S152  1  0.81256479  0.10047612  0.18054651  1
  S2-  S153  1  0.73673813  0.13826552  0.65508152  1
  S2-  S154  1  0.73407819  0.29992754  0.14262468  1
  S2-  S155  1  0.76553055  0.38069251  0.65149290  1
  S2-  S156  1  0.79110159  0.62749835  0.15481477  1
  S2-  S157  1  0.73140335  0.64801250  0.65491291  1
  S2-  S158  1  0.71238282  0.88173309  0.15959810  1
  S2-  S159  1  0.74548406  0.91287720  0.66345994  1
  S2-  S160  1  0.09346622  0.06593490  0.34225939  1
  S2-  S161  1  0.10654572  -0.01323884  0.85036224  1
  S2-  S162  1  0.12957996  0.27981193  0.33365391  1
  S2-  S163  1  0.11523925  0.33679430  0.85815470  1
  S2-  S164  1  0.13974104  0.47879152  0.33674929  1
  S2-  S165  1  0.16746249  0.52844685  0.81824745  1
  S2-  S166  1  0.10310118  0.69487440  0.34697405  1
  S2-  S167  1  0.21987695  0.76375720  0.85061357  1
  S2-  S168  1  0.45525280  -0.00467470  0.35243848  1
  S2-  S169  1  0.35872971  -0.02763734  0.83870862  1
  S2-  S170  1  0.33278876  0.21953939  0.31561826  1
  S2-  S171  1  0.35129506  0.24573879  0.84734020  1
  S2-  S172  1  0.36827228  0.43467362  0.35333575  1
  S2-  S173  1  0.38777445  0.51567023  0.83388628  1
  S2-  S174  1  0.37322700  0.72316399  0.34738186  1
  S2-  S175  1  0.44088469  0.75002596  0.84684824  1
  S2-  S176  1  0.63652153  0.12001208  0.35530667  1
  S2-  S177  1  0.60916107  -0.07568752  0.84517302  1
  S2-  S178  1  0.52392325  0.28500501  0.35477505  1
  S2-  S179  1  0.63828386  0.14090449  0.86015725  1
  S2-  S180  1  0.61302060  0.51164194  0.35014823  1
  S2-  S181  1  0.61018464  0.58839254  0.85146463  1
  S2-  S182  1  0.62944969  0.85573453  0.35661418  1
  S2-  S183  1  0.59828220  0.75921149  0.77499235  1
  S2-  S184  1  0.83165404  0.00110801  0.34622991  1
  S2-  S185  1  0.83449163  0.00948517  0.85641968  1
  S2-  S186  1  0.91691163  0.25021824  0.34091030  1
  S2-  S187  1  0.87425189  0.26316791  0.84897891  1
  S2-  S188  1  0.90843466  0.49031555  0.34686281  1
  S2-  S189  1  0.96117771  0.49971376  0.85784753  1
  S2-  S190  1  0.85098698  0.74109319  0.34889009  1
  S2-  S191  1  0.77500246  0.76862837  0.84993532  1
  S2-  S192  1  -0.00711973  0.11901987  0.44974782  1
  S2-  S193  1  -0.00537083  0.13381864  0.95750521  1
  S2-  S194  1  -0.00341636  0.37100263  0.45242911  1
  S2-  S195  1  -0.00971721  0.38088419  0.96373858  1
  S2-  S196  1  -0.00444161  0.61820795  0.45600922  1
  S2-  S197  1  -0.01043670  0.64012657  0.95120338  1
  S2-  S198  1  -0.00619961  0.86748825  0.44960545  1
  S2-  S199  1  -0.00799325  0.88717555  0.95589750  1
  S2-  S200  1  0.24881279  0.12227167  0.44147814  1
  S2-  S201  1  0.24299800  0.13180151  0.95346422  1
  S2-  S202  1  0.24244563  0.37111878  0.45076477  1
  S2-  S203  1  0.24711016  0.38523951  0.95663662  1
  S2-  S204  1  0.24239617  0.61595427  0.45543075  1
  S2-  S205  1  0.23933122  0.62861028  0.94616202  1
  S2-  S206  1  0.24522073  0.86932590  0.44977201  1
  S2-  S207  1  0.24180386  0.88905660  0.95217308  1
  S2-  S208  1  0.48759750  0.12544053  0.45045083  1
  S2-  S209  1  0.49210233  0.13499929  0.95681029  1
  S2-  S210  1  0.49644500  0.37582582  0.46192996  1
  S2-  S211  1  0.49694163  0.38852418  0.95088787  1
  S2-  S212  1  0.49753977  0.61822663  0.46087677  1
  S2-  S213  1  0.49466890  0.63415428  0.95616666  1
  S2-  S214  1  0.49339498  0.86444339  0.45882233  1
  S2-  S215  1  0.49318098  0.88197647  0.95022545  1
  S2-  S216  1  0.74842032  0.11782124  0.45423587  1
  S2-  S217  1  0.74867859  0.13659006  0.96592024  1
  S2-  S218  1  0.74308739  0.37104323  0.44826381  1
  S2-  S219  1  0.74428179  0.38776474  0.94993077  1
  S2-  S220  1  0.74506270  0.61959463  0.45352166  1
  S2-  S221  1  0.74716241  0.63220301  0.95149859  1
  S2-  S222  1  0.74891839  0.86454711  0.45747907  1
  S2-  S223  1  0.74611149  0.88913420  0.95790848  1
  S2-  S224  1  0.12207525  0.01055931  0.05101158  1
  S2-  S225  1  0.12329859  -0.00391664  0.54252340  1
  S2-  S226  1  0.12080299  0.26160298  0.05261201  1
  S2-  S227  1  0.12044946  0.24411277  0.54084493  1
  S2-  S228  1  0.11639382  0.51077302  0.03251925  1
  S2-  S229  1  0.11921534  0.49319546  0.54200320  1
  S2-  S230  1  0.12047672  0.76030661  0.04176542  1
  S2-  S231  1  0.12106521  0.74606137  0.54609369  1
  S2-  S232  1  0.36965792  0.01164392  0.04667515  1
  S2-  S233  1  0.37262563  -0.00557581  0.54360970  1
  S2-  S234  1  0.36393580  0.26471102  0.04751555  1
  S2-  S235  1  0.37187944  0.24644116  0.54563360  1
  S2-  S236  1  0.36971886  0.51217515  0.03932827  1
  S2-  S237  1  0.36374474  0.49479095  0.55141207  1
  S2-  S238  1  0.36722213  0.75763475  0.04421731  1
  S2-  S239  1  0.36395991  0.73924846  0.55234819  1
  S2-  S240  1  0.62280264  0.00900752  0.04295823  1
  S2-  S241  1  0.61582467  -0.00590295  0.54197909  1
  S2-  S242  1  0.61871473  0.26190735  0.03969644  1
  S2-  S243  1  0.61990443  0.24596524  0.54429699  1
  S2-  S244  1  0.62562738  0.51017279  0.04380020  1
  S2-  S245  1  0.62847205  0.49305387  0.55137179  1
  S2-  S246  1  0.62137982  0.76007906  0.05545081  1
  S2-  S247  1  0.62114747  0.73983905  0.54385717  1
  S2-  S248  1  0.86839128  0.01133428  0.05745027  1
  S2-  S249  1  0.87095681  -0.00562959  0.55041822  1
  S2-  S250  1  0.87407732  0.25968341  0.05401746  1
  S2-  S251  1  0.87031830  0.24568453  0.54737739  1
  S2-  S252  1  0.86678260  0.50834713  0.04513510  1
  S2-  S253  1  0.87199685  0.49498425  0.54879587  1
  S2-  S254  1  0.86802246  0.76395522  0.04429723  1
  S2-  S255  1  0.87319573  0.74117673  0.55273166  1
