# generated using pymatgen
data_La12Ce14Pr13Nd13Sm12(BiS2)64
_symmetry_space_group_name_H-M   'P 1'
_cell_length_a   16.19795779
_cell_length_b   16.18992640
_cell_length_c   27.11980563
_cell_angle_alpha   89.90473746
_cell_angle_beta   90.23208619
_cell_angle_gamma   89.96112745
_symmetry_Int_Tables_number   1
_chemical_formula_structural   La12Ce14Pr13Nd13Sm12(BiS2)64
_chemical_formula_sum   'La12 Ce14 Pr13 Nd13 Sm12 Bi64 S128'
_cell_volume   7111.92953204
_cell_formula_units_Z   1
loop_
 _symmetry_equiv_pos_site_id
 _symmetry_equiv_pos_as_xyz
  1  'x, y, z'
loop_
 _atom_type_symbol
 _atom_type_oxidation_number
  La3+  3.0
  Ce3+  3.0
  Pr3+  3.0
  Nd3+  3.0
  Sm3+  3.0
  Bi2+  2.0
  S2-  -2.0
loop_
 _atom_site_type_symbol
 _atom_site_label
 _atom_site_symmetry_multiplicity
 _atom_site_fract_x
 _atom_site_fract_y
 _atom_site_fract_z
 _atom_site_occupancy
  La3+  La0  1  0.36855649  0.01038236  0.93482757  1
  La3+  La1  1  0.86654305  0.24859185  0.92490318  1
  La3+  La2  1  0.35320817  0.49438244  0.42487786  1
  La3+  La3  1  0.24961807  0.35657265  0.57562355  1
  La3+  La4  1  0.74715420  0.87813555  0.06131853  1
  La3+  La5  1  -0.00422307  0.87422092  0.06617608  1
  La3+  La6  1  0.23963659  0.12335288  0.08162279  1
  La3+  La7  1  0.61925657  0.25271701  0.94599743  1
  La3+  La8  1  0.37188842  0.74848985  0.93445012  1
  La3+  La9  1  0.86897364  0.50121316  0.89185521  1
  La3+  La10  1  0.37156546  -0.00956885  0.42052167  1
  La3+  La11  1  0.87276439  0.75294118  0.93042974  1
  Ce3+  Ce12  1  0.61753606  0.74557153  0.44262369  1
  Ce3+  Ce13  1  -0.00861490  0.86851835  0.56289769  1
  Ce3+  Ce14  1  0.49641878  0.62108986  0.05379556  1
  Ce3+  Ce15  1  0.49437900  0.87815508  0.05573084  1
  Ce3+  Ce16  1  0.86606618  0.00275605  0.93359460  1
  Ce3+  Ce17  1  0.24401129  0.86831013  0.55751215  1
  Ce3+  Ce18  1  0.61755937  -0.00616276  0.43952690  1
  Ce3+  Ce19  1  0.48767731  0.61896805  0.55086994  1
  Ce3+  Ce20  1  0.48964155  0.11816631  0.54959720  1
  Ce3+  Ce21  1  0.11493112  0.74383398  0.44748935  1
  Ce3+  Ce22  1  0.12147815  0.00167199  0.93769735  1
  Ce3+  Ce23  1  0.11984510  0.74918794  0.94006309  1
  Ce3+  Ce24  1  0.11581832  0.24763118  0.43869726  1
  Ce3+  Ce25  1  0.24719999  0.62205290  0.05892564  1
  Pr3+  Pr26  1  -0.00262296  0.37921127  0.04628716  1
  Pr3+  Pr27  1  0.12690565  0.25254855  0.93560334  1
  Pr3+  Pr28  1  0.74081885  0.36914632  0.56194494  1
  Pr3+  Pr29  1  0.36262515  0.74513349  0.43308800  1
  Pr3+  Pr30  1  0.48885241  0.36762598  0.54968852  1
  Pr3+  Pr31  1  0.50792574  0.38746355  0.09694291  1
  Pr3+  Pr32  1  0.74879186  0.12916042  0.06624021  1
  Pr3+  Pr33  1  -0.00907811  0.11837057  0.56139135  1
  Pr3+  Pr34  1  0.74289214  0.61903015  0.56047806  1
  Pr3+  Pr35  1  0.13248946  0.50979984  0.90860292  1
  Pr3+  Pr36  1  -0.00445278  0.61719785  0.56511971  1
  Pr3+  Pr37  1  0.25162450  0.61518370  0.57441339  1
  Pr3+  Pr38  1  0.50419657  0.11974332  0.08438294  1
  Nd3+  Nd39  1  0.74811681  0.62323643  0.05595082  1
  Nd3+  Nd40  1  0.61504408  0.49524992  0.43549576  1
  Nd3+  Nd41  1  0.86656046  0.24771022  0.44026754  1
  Nd3+  Nd42  1  -0.01500803  0.35514216  0.58525270  1
  Nd3+  Nd43  1  0.75051953  0.37663925  0.06069271  1
  Nd3+  Nd44  1  0.11352937  -0.00609343  0.44200108  1
  Nd3+  Nd45  1  0.35453724  0.23855280  0.41601433  1
  Nd3+  Nd46  1  0.61737975  0.00290787  0.93395481  1
  Nd3+  Nd47  1  0.24776220  0.87526858  0.05809124  1
  Nd3+  Nd48  1  0.86567061  0.74444927  0.44086897  1
  Nd3+  Nd49  1  0.37092828  0.25269806  0.96100786  1
  Nd3+  Nd50  1  0.61393599  0.24682885  0.43818537  1
  Nd3+  Nd51  1  0.48820822  0.87285573  0.56417331  1
  Sm3+  Sm52  1  -0.00514122  0.13081271  0.05677814  1
  Sm3+  Sm53  1  0.74157031  0.86824878  0.55952971  1
  Sm3+  Sm54  1  0.86543686  -0.00440275  0.44637784  1
  Sm3+  Sm55  1  0.24317694  0.37802693  0.06388113  1
  Sm3+  Sm56  1  0.86809797  0.49374692  0.44758382  1
  Sm3+  Sm57  1  0.37308041  0.49758949  0.94178125  1
  Sm3+  Sm58  1  0.62200463  0.74950274  0.94613317  1
  Sm3+  Sm59  1  0.74017924  0.11831262  0.55425309  1
  Sm3+  Sm60  1  0.62400029  0.49973805  0.93568297  1
  Sm3+  Sm61  1  0.24591387  0.11684141  0.55361974  1
  Sm3+  Sm62  1  -0.00272344  0.62223615  0.04947577  1
  Sm3+  Sm63  1  0.11787103  0.49325222  0.45221632  1
  Bi2+  Bi64  1  -0.04066290  0.11574456  0.24387983  1
  Bi2+  Bi65  1  0.01297240  0.08325800  0.79706438  1
  Bi2+  Bi66  1  0.00185511  0.35785328  0.30376540  1
  Bi2+  Bi67  1  -0.00429221  0.34629478  0.78030108  1
  Bi2+  Bi68  1  -0.01150320  0.55565798  0.28088468  1
  Bi2+  Bi69  1  -0.01139566  0.66117738  0.78789854  1
  Bi2+  Bi70  1  -0.00390192  0.82702978  0.27147492  1
  Bi2+  Bi71  1  -0.03763704  0.89010865  0.83366058  1
  Bi2+  Bi72  1  0.20524469  0.12260365  0.29358816  1
  Bi2+  Bi73  1  0.24098161  0.14980298  0.79439352  1
  Bi2+  Bi74  1  0.18416955  0.40294904  0.28410414  1
  Bi2+  Bi75  1  0.34564515  0.35893610  0.79606019  1
  Bi2+  Bi76  1  0.31003025  0.63563762  0.31796363  1
  Bi2+  Bi77  1  0.32570513  0.63384140  0.79273670  1
  Bi2+  Bi78  1  0.23835833  0.87051268  0.29596739  1
  Bi2+  Bi79  1  0.28723544  0.90733908  0.78759945  1
  Bi2+  Bi80  1  0.50932012  0.13640549  0.30089626  1
  Bi2+  Bi81  1  0.51379879  0.13337396  0.78223656  1
  Bi2+  Bi82  1  0.54619188  0.38547858  0.29626704  1
  Bi2+  Bi83  1  0.52787239  0.41136974  0.81574286  1
  Bi2+  Bi84  1  0.50317415  0.63310354  0.28898547  1
  Bi2+  Bi85  1  0.51375766  0.60195438  0.77927150  1
  Bi2+  Bi86  1  0.50620983  0.87866745  0.24854236  1
  Bi2+  Bi87  1  0.57131456  0.89898236  0.80300486  1
  Bi2+  Bi88  1  0.77850103  0.11848353  0.29529673  1
  Bi2+  Bi89  1  0.74914519  0.11198889  0.78758536  1
  Bi2+  Bi90  1  0.79480243  0.37630329  0.28192533  1
  Bi2+  Bi91  1  0.71360094  0.35587600  0.78420089  1
  Bi2+  Bi92  1  0.80536430  0.63634937  0.28497080  1
  Bi2+  Bi93  1  0.70987533  0.63666518  0.78382365  1
  Bi2+  Bi94  1  0.77777214  0.87751194  0.30029213  1
  Bi2+  Bi95  1  0.80260421  0.89343184  0.76701997  1
  Bi2+  Bi96  1  0.12225537  -0.01546111  0.20441456  1
  Bi2+  Bi97  1  0.14197698  0.00434132  0.72729848  1
  Bi2+  Bi98  1  0.07188429  0.26705539  0.20982557  1
  Bi2+  Bi99  1  0.14020592  0.26959051  0.70372890  1
  Bi2+  Bi100  1  0.12959849  0.53391280  0.19943488  1
  Bi2+  Bi101  1  0.12526492  0.52805782  0.72015334  1
  Bi2+  Bi102  1  0.14905390  0.70953365  0.25321774  1
  Bi2+  Bi103  1  0.11613325  0.81561900  0.78380561  1
  Bi2+  Bi104  1  0.37559478  0.00692916  0.20279367  1
  Bi2+  Bi105  1  0.41838588  -0.02661957  0.70908308  1
  Bi2+  Bi106  1  0.35141443  0.26095249  0.22544678  1
  Bi2+  Bi107  1  0.39003064  0.22517703  0.70954200  1
  Bi2+  Bi108  1  0.37427941  0.49825036  0.20430384  1
  Bi2+  Bi109  1  0.38184518  0.48074934  0.70576738  1
  Bi2+  Bi110  1  0.37250500  0.73673366  0.22660773  1
  Bi2+  Bi111  1  0.34308338  0.74013558  0.69406623  1
  Bi2+  Bi112  1  0.65536713  0.01023820  0.23337718  1
  Bi2+  Bi113  1  0.62456849  0.01572380  0.71489687  1
  Bi2+  Bi114  1  0.70651664  0.24855506  0.21114840  1
  Bi2+  Bi115  1  0.58275428  0.27507502  0.71014142  1
  Bi2+  Bi116  1  0.64693050  0.52799231  0.20685387  1
  Bi2+  Bi117  1  0.58916629  0.46708694  0.70349594  1
  Bi2+  Bi118  1  0.64853629  0.74170902  0.24397201  1
  Bi2+  Bi119  1  0.62231429  0.77283319  0.72010138  1
  Bi2+  Bi120  1  0.83543010  -0.00155321  0.19166034  1
  Bi2+  Bi121  1  0.94061554  -0.00742590  0.70423915  1
  Bi2+  Bi122  1  0.87687340  0.23109284  0.15797179  1
  Bi2+  Bi123  1  0.85385115  0.19347296  0.70195227  1
  Bi2+  Bi124  1  0.91017238  0.42389123  0.19779235  1
  Bi2+  Bi125  1  0.86492974  0.49918380  0.69404934  1
  Bi2+  Bi126  1  0.89108460  0.71968276  0.19355474  1
  Bi2+  Bi127  1  0.86854142  0.74611764  0.69187919  1
  S2-  S128  1  0.08413506  0.11636649  0.13982758  1
  S2-  S129  1  0.00322007  0.20920361  0.64790879  1
  S2-  S130  1  0.06027532  0.39458366  0.14179411  1
  S2-  S131  1  0.01615039  0.41571775  0.67811767  1
  S2-  S132  1  0.00876767  0.63832479  0.14847631  1
  S2-  S133  1  -0.01543802  0.61953019  0.66621614  1
  S2-  S134  1  0.02043345  0.87613206  0.16687774  1
  S2-  S135  1  -0.00140178  0.84431992  0.65987879  1
  S2-  S136  1  0.26423047  0.13501036  0.18590607  1
  S2-  S137  1  0.23836872  0.20382816  0.63862669  1
  S2-  S138  1  0.28116355  0.38053421  0.16097919  1
  S2-  S139  1  0.21611513  0.42265178  0.67251569  1
  S2-  S140  1  0.27256898  0.61895769  0.15640056  1
  S2-  S141  1  0.20472881  0.66443441  0.66923209  1
  S2-  S142  1  0.24819246  0.90598008  0.15667808  1
  S2-  S143  1  0.28884783  0.89102557  0.65032862  1
  S2-  S144  1  0.45754860  0.14585021  0.18449754  1
  S2-  S145  1  0.44701218  0.09051015  0.64285468  1
  S2-  S146  1  0.47741158  0.36281122  0.19767734  1
  S2-  S147  1  0.40298629  0.35317336  0.63591981  1
  S2-  S148  1  0.50610363  0.55402391  0.14413553  1
  S2-  S149  1  0.40475755  0.61066074  0.63648014  1
  S2-  S150  1  0.50633839  0.93311441  0.14693090  1
  S2-  S151  1  0.49678478  0.82262974  0.66097909  1
  S2-  S152  1  0.64942662  0.11821799  0.14909515  1
  S2-  S153  1  0.73541882  0.10937113  0.65230969  1
  S2-  S154  1  0.66606586  0.39260412  0.14867774  1
  S2-  S155  1  0.82341433  0.35044135  0.65015860  1
  S2-  S156  1  0.75707118  0.60892051  0.15628246  1
  S2-  S157  1  0.75249510  0.61488752  0.66091791  1
  S2-  S158  1  0.78115934  0.84892626  0.15850778  1
  S2-  S159  1  0.74763562  0.85296219  0.65741215  1
  S2-  S160  1  0.13612129  -0.00011190  0.34170157  1
  S2-  S161  1  0.23586266  0.02093919  0.86354522  1
  S2-  S162  1  0.20517335  0.26094787  0.35436492  1
  S2-  S163  1  0.09807227  0.23286498  0.83539234  1
  S2-  S164  1  0.20027329  0.50761435  0.36418476  1
  S2-  S165  1  0.10951401  0.44956761  0.81093841  1
  S2-  S166  1  0.11693205  0.76954259  0.35043923  1
  S2-  S167  1  0.12938140  0.66984125  0.85264053  1
  S2-  S168  1  0.35071659  0.09718847  0.34032147  1
  S2-  S169  1  0.49060634  0.02613431  0.86140189  1
  S2-  S170  1  0.41704895  0.28374119  0.32430568  1
  S2-  S171  1  0.34057342  0.22219721  0.86275933  1
  S2-  S172  1  0.41926282  0.49438160  0.32888676  1
  S2-  S173  1  0.29238190  0.50075894  0.85478240  1
  S2-  S174  1  0.36769180  0.85532524  0.35263816  1
  S2-  S175  1  0.37845952  0.78574876  0.83522659  1
  S2-  S176  1  0.54993589  0.00385760  0.35010876  1
  S2-  S177  1  0.71804279  -0.02292680  0.85165347  1
  S2-  S178  1  0.62606074  0.24720349  0.33902041  1
  S2-  S179  1  0.68364593  0.23188964  0.85281996  1
  S2-  S180  1  0.63276854  0.50660361  0.33623318  1
  S2-  S181  1  0.70810128  0.50139808  0.84837184  1
  S2-  S182  1  0.64791290  0.78145039  0.34916179  1
  S2-  S183  1  0.62466534  0.75029358  0.84796271  1
  S2-  S184  1  0.86834956  -0.00728111  0.34807139  1
  S2-  S185  1  0.87764119  0.11537492  0.85778377  1
  S2-  S186  1  0.87241185  0.25053517  0.34093881  1
  S2-  S187  1  0.86650184  0.34486744  0.84098425  1
  S2-  S188  1  0.85789217  0.50466203  0.34967970  1
  S2-  S189  1  0.92137004  0.50773160  0.78793932  1
  S2-  S190  1  0.89084707  0.75906286  0.34254864  1
  S2-  S191  1  0.85126407  0.66845653  0.84320298  1
  S2-  S192  1  -0.01130621  0.11978749  0.45184404  1
  S2-  S193  1  0.00205660  0.12651530  0.95387577  1
  S2-  S194  1  -0.00877925  0.37220907  0.45689257  1
  S2-  S195  1  0.00304041  0.38298989  0.93903753  1
  S2-  S196  1  -0.00902924  0.61661399  0.45492194  1
  S2-  S197  1  -0.00602017  0.61969932  0.94494785  1
  S2-  S198  1  -0.01247098  0.87127495  0.45474740  1
  S2-  S199  1  -0.00260264  0.87698785  0.95719319  1
  S2-  S200  1  0.23627596  0.11593101  0.45105877  1
  S2-  S201  1  0.24428152  0.13028863  0.97013180  1
  S2-  S202  1  0.23770739  0.36788141  0.46120196  1
  S2-  S203  1  0.24715650  0.37848110  0.95647464  1
  S2-  S204  1  0.23764593  0.62380210  0.46485771  1
  S2-  S205  1  0.24955021  0.62457937  0.95432065  1
  S2-  S206  1  0.23704025  0.87051388  0.45287654  1
  S2-  S207  1  0.24575855  0.87165161  0.95185201  1
  S2-  S208  1  0.49149116  0.12338576  0.44621945  1
  S2-  S209  1  0.49520694  0.13087277  0.96904125  1
  S2-  S210  1  0.48926461  0.37085144  0.44354135  1
  S2-  S211  1  0.49498958  0.37786439  0.95225048  1
  S2-  S212  1  0.49065757  0.62071354  0.44458710  1
  S2-  S213  1  0.49848634  0.62222925  0.94573122  1
  S2-  S214  1  0.49561120  0.86758212  0.45621297  1
  S2-  S215  1  0.49700867  0.87306206  0.95183352  1
  S2-  S216  1  0.74177987  0.12108712  0.44880659  1
  S2-  S217  1  0.74250817  0.12227470  0.95995886  1
  S2-  S218  1  0.74179328  0.37181907  0.45272703  1
  S2-  S219  1  0.74740762  0.38020589  0.95423346  1
  S2-  S220  1  0.74307674  0.61784012  0.45201910  1
  S2-  S221  1  0.74402598  0.62587964  0.95139426  1
  S2-  S222  1  0.74471471  0.87126545  0.45502430  1
  S2-  S223  1  0.74493850  0.87149377  0.95428438  1
  S2-  S224  1  0.12071891  -0.00363056  0.04416384  1
  S2-  S225  1  0.11789355  -0.00401091  0.55131071  1
  S2-  S226  1  0.12308269  0.25462961  0.04451732  1
  S2-  S227  1  0.11376351  0.24239554  0.54247093  1
  S2-  S228  1  0.12490467  0.50318620  0.03932531  1
  S2-  S229  1  0.11693827  0.48909335  0.55641783  1
  S2-  S230  1  0.12241033  0.74841688  0.04826466  1
  S2-  S231  1  0.11770552  0.74440272  0.55379741  1
  S2-  S232  1  0.36923230  0.00250748  0.04868610  1
  S2-  S233  1  0.36589637  -0.00670561  0.53510089  1
  S2-  S234  1  0.37297764  0.25450395  0.06579431  1
  S2-  S235  1  0.36742725  0.23703469  0.52986294  1
  S2-  S236  1  0.37256155  0.49503105  0.04664506  1
  S2-  S237  1  0.36609175  0.49205664  0.53577150  1
  S2-  S238  1  0.37282733  0.74930766  0.04712539  1
  S2-  S239  1  0.36857666  0.74795691  0.54100236  1
  S2-  S240  1  0.62233791  -0.00025964  0.04331768  1
  S2-  S241  1  0.61877362  -0.00754734  0.54833040  1
  S2-  S242  1  0.61843341  0.25664815  0.05357109  1
  S2-  S243  1  0.61750933  0.24288086  0.54657210  1
  S2-  S244  1  0.62268267  0.49968669  0.04044605  1
  S2-  S245  1  0.61549502  0.49409138  0.54427803  1
  S2-  S246  1  0.62032516  0.74911665  0.05251335  1
  S2-  S247  1  0.61656450  0.74511850  0.55046160  1
  S2-  S248  1  0.87463372  0.00475849  0.04689821  1
  S2-  S249  1  0.86314930  -0.00611436  0.55189823  1
  S2-  S250  1  0.87260013  0.25269207  0.03513375  1
  S2-  S251  1  0.86289280  0.24070452  0.54483789  1
  S2-  S252  1  0.87311427  0.50224796  0.05007499  1
  S2-  S253  1  0.86990783  0.49161122  0.55211433  1
  S2-  S254  1  0.87342705  0.74734412  0.04180617  1
  S2-  S255  1  0.86662555  0.74417169  0.54772076  1
