# generated using pymatgen
data_La12Ce14Pr13Nd13Sm12(BiS2)64
_symmetry_space_group_name_H-M   'P 1'
_cell_length_a   16.13035478
_cell_length_b   16.16538875
_cell_length_c   27.32090255
_cell_angle_alpha   90.09893159
_cell_angle_beta   89.85937196
_cell_angle_gamma   89.96728064
_symmetry_Int_Tables_number   1
_chemical_formula_structural   La12Ce14Pr13Nd13Sm12(BiS2)64
_chemical_formula_sum   'La12 Ce14 Pr13 Nd13 Sm12 Bi64 S128'
_cell_volume   7123.98649479
_cell_formula_units_Z   1
loop_
 _symmetry_equiv_pos_site_id
 _symmetry_equiv_pos_as_xyz
  1  'x, y, z'
loop_
 _atom_type_symbol
 _atom_type_oxidation_number
  La3+  3.0
  Ce3+  3.0
  Pr3+  3.0
  Nd3+  3.0
  Sm3+  3.0
  Bi2+  2.0
  S2-  -2.0
loop_
 _atom_site_type_symbol
 _atom_site_label
 _atom_site_symmetry_multiplicity
 _atom_site_fract_x
 _atom_site_fract_y
 _atom_site_fract_z
 _atom_site_occupancy
  La3+  La0  1  0.74987301  0.87438929  0.57177486  1
  La3+  La1  1  0.86909319  0.50584295  0.38272611  1
  La3+  La2  1  0.24750994  0.88226992  0.58129338  1
  La3+  La3  1  0.26693401  0.87556962  0.10390022  1
  La3+  La4  1  0.12428373  0.25153072  0.42825097  1
  La3+  La5  1  0.38257575  0.75536836  0.93394952  1
  La3+  La6  1  0.74046373  0.63398667  0.10238625  1
  La3+  La7  1  0.13009642  -0.00439821  0.42854836  1
  La3+  La8  1  0.00103674  0.63286280  0.06831943  1
  La3+  La9  1  0.62246518  0.24121626  0.41514886  1
  La3+  La10  1  0.00788392  0.88221408  0.06418807  1
  La3+  La11  1  0.14325838  0.25558619  0.92332499  1
  Ce3+  Ce12  1  0.25750885  0.62866588  0.06081659  1
  Ce3+  Ce13  1  0.88252551  0.00650886  0.94488403  1
  Ce3+  Ce14  1  0.62488631  0.50028425  0.42919387  1
  Ce3+  Ce15  1  0.49847591  0.87488413  0.56741327  1
  Ce3+  Ce16  1  -0.00159296  0.12605555  0.55116906  1
  Ce3+  Ce17  1  0.49882761  0.37363897  0.54783654  1
  Ce3+  Ce18  1  0.63223193  0.00280057  0.95059657  1
  Ce3+  Ce19  1  0.88238625  0.25276879  0.94797342  1
  Ce3+  Ce20  1  0.37979915  0.00416297  0.94788507  1
  Ce3+  Ce21  1  0.87522306  -0.00283695  0.43481522  1
  Ce3+  Ce22  1  0.75458633  0.87466105  0.05966725  1
  Ce3+  Ce23  1  0.62311335  -0.00186065  0.43972792  1
  Ce3+  Ce24  1  0.24508517  0.37256136  0.56058158  1
  Ce3+  Ce25  1  0.74955658  0.62427443  0.55164228  1
  Pr3+  Pr26  1  0.62241437  0.75072689  0.43728667  1
  Pr3+  Pr27  1  0.50760417  0.87335000  0.06113845  1
  Pr3+  Pr28  1  0.25739056  0.38310214  0.06616223  1
  Pr3+  Pr29  1  0.74804112  0.12972166  0.55294380  1
  Pr3+  Pr30  1  0.01524763  0.12948276  0.06471295  1
  Pr3+  Pr31  1  0.49871433  0.62009604  0.56169061  1
  Pr3+  Pr32  1  0.64185162  0.74579855  0.92428937  1
  Pr3+  Pr33  1  0.00970031  0.37721864  0.06290565  1
  Pr3+  Pr34  1  0.74893915  0.37547002  0.54408105  1
  Pr3+  Pr35  1  0.37052534  0.50004919  0.42912998  1
  Pr3+  Pr36  1  0.87955941  0.25176564  0.41547902  1
  Pr3+  Pr37  1  0.13131793  0.50405097  0.93725647  1
  Pr3+  Pr38  1  0.88137212  0.50235173  0.95095162  1
  Nd3+  Nd39  1  0.74714994  0.37500044  0.08682404  1
  Nd3+  Nd40  1  0.26363572  0.13464827  0.07855670  1
  Nd3+  Nd41  1  0.88379871  0.75620030  0.93738124  1
  Nd3+  Nd42  1  0.63602827  0.25246682  0.94208765  1
  Nd3+  Nd43  1  0.12080002  0.50473404  0.43252818  1
  Nd3+  Nd44  1  -0.00302175  0.62552553  0.55923118  1
  Nd3+  Nd45  1  0.24436390  0.13227967  0.56698006  1
  Nd3+  Nd46  1  0.75672713  0.13065003  0.07075242  1
  Nd3+  Nd47  1  0.50830621  0.38244255  0.06282094  1
  Nd3+  Nd48  1  0.50363485  0.12944832  0.06501723  1
  Nd3+  Nd49  1  0.63755929  0.50279318  0.94642552  1
  Nd3+  Nd50  1  0.38477407  0.50402374  0.93691148  1
  Nd3+  Nd51  1  0.37291970  0.75152257  0.44265884  1
  Sm3+  Sm52  1  -0.00366826  0.37774296  0.54738610  1
  Sm3+  Sm53  1  0.38326865  0.25408857  0.94664745  1
  Sm3+  Sm54  1  -0.00133789  0.87673605  0.56522223  1
  Sm3+  Sm55  1  0.49681774  0.12863281  0.54926791  1
  Sm3+  Sm56  1  0.36761189  0.24835638  0.43292922  1
  Sm3+  Sm57  1  0.13816635  0.00497679  0.94950818  1
  Sm3+  Sm58  1  0.87295301  0.75610434  0.43615821  1
  Sm3+  Sm59  1  0.13380284  0.75636939  0.94847208  1
  Sm3+  Sm60  1  0.24823108  0.62533147  0.55758383  1
  Sm3+  Sm61  1  0.12244994  0.75091699  0.44863444  1
  Sm3+  Sm62  1  0.50792516  0.63116297  0.05901497  1
  Sm3+  Sm63  1  0.36876970  -0.00339174  0.44353834  1
  Bi2+  Bi64  1  -0.08145035  0.10450702  0.30303150  1
  Bi2+  Bi65  1  -0.04621085  0.16557765  0.77594727  1
  Bi2+  Bi66  1  0.06756689  0.35721609  0.28075739  1
  Bi2+  Bi67  1  -0.01226959  0.40934599  0.78681375  1
  Bi2+  Bi68  1  0.01290959  0.64102498  0.28864384  1
  Bi2+  Bi69  1  0.03434179  0.59891463  0.79884615  1
  Bi2+  Bi70  1  -0.00931829  0.85977144  0.29995520  1
  Bi2+  Bi71  1  0.00591484  0.79569353  0.79890139  1
  Bi2+  Bi72  1  0.30238398  0.12024574  0.28638564  1
  Bi2+  Bi73  1  0.23214278  0.10942448  0.81094221  1
  Bi2+  Bi74  1  0.26253552  0.37599590  0.29327465  1
  Bi2+  Bi75  1  0.24024473  0.36286202  0.78723162  1
  Bi2+  Bi76  1  0.26594515  0.60127481  0.26899210  1
  Bi2+  Bi77  1  0.22379889  0.57874419  0.77349985  1
  Bi2+  Bi78  1  0.24618191  0.85635476  0.30332279  1
  Bi2+  Bi79  1  0.26053504  0.87489134  0.81087626  1
  Bi2+  Bi80  1  0.47057200  0.21801525  0.30978347  1
  Bi2+  Bi81  1  0.49956660  0.09991662  0.74466175  1
  Bi2+  Bi82  1  0.45334192  0.42254824  0.31113847  1
  Bi2+  Bi83  1  0.52268440  0.35342854  0.76921172  1
  Bi2+  Bi84  1  0.45482985  0.61560867  0.30421875  1
  Bi2+  Bi85  1  0.50024244  0.63640214  0.80944872  1
  Bi2+  Bi86  1  0.55923300  0.86561297  0.31673156  1
  Bi2+  Bi87  1  0.52987262  0.90401945  0.75374236  1
  Bi2+  Bi88  1  0.73017785  0.15412879  0.28906661  1
  Bi2+  Bi89  1  0.68252826  0.13049685  0.79046494  1
  Bi2+  Bi90  1  0.73599344  0.40073675  0.26620939  1
  Bi2+  Bi91  1  0.74523713  0.35166522  0.82031869  1
  Bi2+  Bi92  1  0.74618514  0.65497866  0.28442936  1
  Bi2+  Bi93  1  0.81403607  0.62228925  0.77660252  1
  Bi2+  Bi94  1  0.73935986  0.89632242  0.28048725  1
  Bi2+  Bi95  1  0.73423336  0.87514574  0.80809703  1
  Bi2+  Bi96  1  0.08715219  -0.01211703  0.21703807  1
  Bi2+  Bi97  1  0.11132407  -0.00153054  0.70849259  1
  Bi2+  Bi98  1  0.10722051  0.22089006  0.20257116  1
  Bi2+  Bi99  1  0.09883822  0.24390240  0.69841479  1
  Bi2+  Bi100  1  0.16943715  0.45931095  0.19862681  1
  Bi2+  Bi101  1  0.12304316  0.45830255  0.70445071  1
  Bi2+  Bi102  1  0.13247062  0.72651857  0.21283445  1
  Bi2+  Bi103  1  0.12146704  0.72848052  0.71096822  1
  Bi2+  Bi104  1  0.47126055  0.02471409  0.27907992  1
  Bi2+  Bi105  1  0.35278095  -0.02129355  0.72346447  1
  Bi2+  Bi106  1  0.37080104  0.26685222  0.20898723  1
  Bi2+  Bi107  1  0.36562386  0.27372909  0.71589198  1
  Bi2+  Bi108  1  0.34791954  0.51026756  0.16388570  1
  Bi2+  Bi109  1  0.37813499  0.47155047  0.73083111  1
  Bi2+  Bi110  1  0.39623109  0.72328162  0.21295295  1
  Bi2+  Bi111  1  0.37541109  0.73176328  0.71055936  1
  Bi2+  Bi112  1  0.63359535  0.03028729  0.20595323  1
  Bi2+  Bi113  1  0.70114973  -0.01851821  0.71325009  1
  Bi2+  Bi114  1  0.55178827  0.20578763  0.18964147  1
  Bi2+  Bi115  1  0.61216191  0.27735075  0.67341960  1
  Bi2+  Bi116  1  0.52133075  0.49962789  0.21226390  1
  Bi2+  Bi117  1  0.66430132  0.49618968  0.75512337  1
  Bi2+  Bi118  1  0.57276837  0.80282201  0.20060642  1
  Bi2+  Bi119  1  0.63071476  0.73332816  0.70484816  1
  Bi2+  Bi120  1  0.83533609  0.01812231  0.20615793  1
  Bi2+  Bi121  1  0.93988225  -0.02587924  0.75864180  1
  Bi2+  Bi122  1  0.86727579  0.24345965  0.22480185  1
  Bi2+  Bi123  1  0.80101482  0.23767176  0.71892357  1
  Bi2+  Bi124  1  0.92512597  0.49674959  0.18255519  1
  Bi2+  Bi125  1  0.84543820  0.46457085  0.71370244  1
  Bi2+  Bi126  1  0.87292729  0.80181487  0.20793485  1
  Bi2+  Bi127  1  0.87919739  0.75924963  0.70477098  1
  S2-  S128  1  -0.02219705  0.09326742  0.16143818  1
  S2-  S129  1  0.02254691  0.11860078  0.64910908  1
  S2-  S130  1  -0.01650733  0.33382914  0.16001915  1
  S2-  S131  1  0.01715409  0.35942019  0.64644790  1
  S2-  S132  1  0.08002919  0.58757583  0.15678650  1
  S2-  S133  1  -0.00295388  0.65139448  0.65887992  1
  S2-  S134  1  0.02959320  0.84780264  0.16175896  1
  S2-  S135  1  0.10682015  0.87159556  0.64689267  1
  S2-  S136  1  0.18412974  0.08602866  0.16626259  1
  S2-  S137  1  0.24658815  0.03093295  0.64831675  1
  S2-  S138  1  0.23557909  0.27578574  0.14498124  1
  S2-  S139  1  0.24882881  0.26292852  0.63867328  1
  S2-  S140  1  0.25901707  0.71576612  0.14674989  1
  S2-  S141  1  0.25665368  0.66114087  0.65401677  1
  S2-  S142  1  0.22924316  0.90196925  0.20544076  1
  S2-  S143  1  0.38512417  0.85734899  0.64567515  1
  S2-  S144  1  0.40791080  0.12606085  0.14829981  1
  S2-  S145  1  0.49990774  0.15519748  0.64643691  1
  S2-  S146  1  0.58197635  0.36847296  0.15238380  1
  S2-  S147  1  0.52357621  0.41023110  0.64083970  1
  S2-  S148  1  0.57706393  0.64245996  0.14986027  1
  S2-  S149  1  0.49879961  0.65270098  0.66228803  1
  S2-  S150  1  0.43119954  0.86744618  0.15197087  1
  S2-  S151  1  0.61825269  0.87214909  0.64170346  1
  S2-  S152  1  0.76133731  0.23771859  0.15069192  1
  S2-  S153  1  0.75640485  0.10804897  0.65273214  1
  S2-  S154  1  0.76027724  0.48716929  0.16389311  1
  S2-  S155  1  0.76543210  0.36200277  0.64452934  1
  S2-  S156  1  0.89106723  0.65820751  0.15217039  1
  S2-  S157  1  0.73754145  0.65950299  0.64783456  1
  S2-  S158  1  0.73048737  0.80123325  0.14722366  1
  S2-  S159  1  0.88122164  0.87950522  0.64027778  1
  S2-  S160  1  0.05456011  0.00046879  0.33385987  1
  S2-  S161  1  0.14368974  -0.01278898  0.85036330  1
  S2-  S162  1  0.01904341  0.23597160  0.34607507  1
  S2-  S163  1  0.09155684  0.18609942  0.83242551  1
  S2-  S164  1  0.03446012  0.50371316  0.34400485  1
  S2-  S165  1  0.12315920  0.39805372  0.85804896  1
  S2-  S166  1  0.11796503  0.76068106  0.34928511  1
  S2-  S167  1  0.15398762  0.76303756  0.85079851  1
  S2-  S168  1  0.27045318  -0.00549717  0.36135056  1
  S2-  S169  1  0.36423516  0.00470129  0.85053658  1
  S2-  S170  1  0.25358474  0.23223732  0.35757718  1
  S2-  S171  1  0.30342516  0.24769970  0.86092978  1
  S2-  S172  1  0.24570116  0.51431239  0.35842584  1
  S2-  S173  1  0.39739504  0.50728492  0.83831641  1
  S2-  S174  1  0.37159521  0.78655045  0.34468337  1
  S2-  S175  1  0.37254298  0.74934557  0.83277542  1
  S2-  S176  1  0.63219449  0.08588250  0.35666335  1
  S2-  S177  1  0.63800069  0.00775000  0.85340090  1
  S2-  S178  1  0.63430713  0.30975551  0.31947650  1
  S2-  S179  1  0.59202002  0.25874066  0.84584757  1
  S2-  S180  1  0.70171427  0.51531657  0.34037675  1
  S2-  S181  1  0.62625986  0.56190974  0.85292393  1
  S2-  S182  1  0.61016353  0.70206081  0.33994363  1
  S2-  S183  1  0.58393188  0.78762454  0.82930312  1
  S2-  S184  1  0.85679477  -0.11742291  0.36174889  1
  S2-  S185  1  0.87307283  -0.03780103  0.85097140  1
  S2-  S186  1  0.84716270  0.35330191  0.33063020  1
  S2-  S187  1  0.84631077  0.22117033  0.85487804  1
  S2-  S188  1  0.87373894  0.53916398  0.26880927  1
  S2-  S189  1  0.86140342  0.46190246  0.85362509  1
  S2-  S190  1  0.87298696  0.67547348  0.34820866  1
  S2-  S191  1  0.78524874  0.73411567  0.85595442  1
  S2-  S192  1  -0.00029003  0.12056689  0.44761292  1
  S2-  S193  1  0.01094728  0.12664630  0.95674360  1
  S2-  S194  1  -0.00564857  0.38167064  0.44516686  1
  S2-  S195  1  0.00687184  0.37575755  0.95711042  1
  S2-  S196  1  -0.00107153  0.63047120  0.45334727  1
  S2-  S197  1  0.00775204  0.63120640  0.95501933  1
  S2-  S198  1  0.00137498  0.87433188  0.45711476  1
  S2-  S199  1  0.01097209  0.88076780  0.95561018  1
  S2-  S200  1  0.25006739  0.12369599  0.46093660  1
  S2-  S201  1  0.26014977  0.12916729  0.96491450  1
  S2-  S202  1  0.24824735  0.37724269  0.45564564  1
  S2-  S203  1  0.26302711  0.38278640  0.95901719  1
  S2-  S204  1  0.24777060  0.62990731  0.45491509  1
  S2-  S205  1  0.25647352  0.62800934  0.95074086  1
  S2-  S206  1  0.24948372  0.87068075  0.46490557  1
  S2-  S207  1  0.25626801  0.87803471  0.95545979  1
  S2-  S208  1  0.48868614  0.12245208  0.44562285  1
  S2-  S209  1  0.50616580  0.13087450  0.95726230  1
  S2-  S210  1  0.49554784  0.37184022  0.44171431  1
  S2-  S211  1  0.50801762  0.37850962  0.95392295  1
  S2-  S212  1  0.49580715  0.62256568  0.45135293  1
  S2-  S213  1  0.50911053  0.62873389  0.95382458  1
  S2-  S214  1  0.49607833  0.87703330  0.45727945  1
  S2-  S215  1  0.50904591  0.87756186  0.95267423  1
  S2-  S216  1  0.75690159  0.12645605  0.44702794  1
  S2-  S217  1  0.75614229  0.12757870  0.96317585  1
  S2-  S218  1  0.74711626  0.37253847  0.43933332  1
  S2-  S219  1  0.75595049  0.37567030  0.96692260  1
  S2-  S220  1  0.75008879  0.62538689  0.44790832  1
  S2-  S221  1  0.76064881  0.62582235  0.95858241  1
  S2-  S222  1  0.74314784  0.87523853  0.46045127  1
  S2-  S223  1  0.75764563  0.87918395  0.95593408  1
  S2-  S224  1  0.14042906  -0.00001449  0.05478277  1
  S2-  S225  1  0.12096781  0.00227013  0.54049103  1
  S2-  S226  1  0.13426014  0.25421311  0.04140470  1
  S2-  S227  1  0.11911522  0.25396303  0.53676388  1
  S2-  S228  1  0.13202131  0.50426638  0.04344666  1
  S2-  S229  1  0.12340336  0.50122158  0.54445564  1
  S2-  S230  1  0.13428886  0.75745572  0.05139083  1
  S2-  S231  1  0.12414357  0.74750748  0.55046964  1
  S2-  S232  1  0.37829168  -0.00169686  0.05263110  1
  S2-  S233  1  0.37581238  0.00572711  0.54632635  1
  S2-  S234  1  0.38514957  0.25969521  0.04882541  1
  S2-  S235  1  0.37417824  0.25152719  0.53738471  1
  S2-  S236  1  0.38622082  0.50690079  0.04298763  1
  S2-  S237  1  0.36948922  0.49961164  0.54331714  1
  S2-  S238  1  0.38232997  0.75109238  0.04347090  1
  S2-  S239  1  0.37377045  0.74403319  0.54626658  1
  S2-  S240  1  0.63055571  0.00455135  0.05756069  1
  S2-  S241  1  0.62132928  0.00708667  0.54433832  1
  S2-  S242  1  0.62823841  0.25167756  0.04763289  1
  S2-  S243  1  0.62127881  0.24925498  0.52946504  1
  S2-  S244  1  0.63218035  0.50677979  0.05124753  1
  S2-  S245  1  0.62375677  0.50012995  0.53645255  1
  S2-  S246  1  0.63152988  0.75077351  0.03857871  1
  S2-  S247  1  0.62047038  0.74526643  0.54275720  1
  S2-  S248  1  0.87929282  0.00576678  0.05192334  1
  S2-  S249  1  0.87408975  0.00259016  0.54126009  1
  S2-  S250  1  0.88471771  0.25058081  0.05172934  1
  S2-  S251  1  0.87613899  0.25280219  0.53480456  1
  S2-  S252  1  0.87877117  0.49918511  0.05627510  1
  S2-  S253  1  0.87446570  0.49992673  0.55086724  1
  S2-  S254  1  0.88178964  0.75859207  0.04321588  1
  S2-  S255  1  0.87535382  0.74919200  0.54116528  1
