# generated using pymatgen
data_La12Ce14Pr13Nd13Sm12(BiS2)64
_symmetry_space_group_name_H-M   'P 1'
_cell_length_a   16.21645801
_cell_length_b   16.19957234
_cell_length_c   27.12798596
_cell_angle_alpha   90.00551585
_cell_angle_beta   89.94973756
_cell_angle_gamma   90.04718235
_symmetry_Int_Tables_number   1
_chemical_formula_structural   La12Ce14Pr13Nd13Sm12(BiS2)64
_chemical_formula_sum   'La12 Ce14 Pr13 Nd13 Sm12 Bi64 S128'
_cell_volume   7126.50816713
_cell_formula_units_Z   1
loop_
 _symmetry_equiv_pos_site_id
 _symmetry_equiv_pos_as_xyz
  1  'x, y, z'
loop_
 _atom_type_symbol
 _atom_type_oxidation_number
  La3+  3.0
  Ce3+  3.0
  Pr3+  3.0
  Nd3+  3.0
  Sm3+  3.0
  Bi2+  2.0
  S2-  -2.0
loop_
 _atom_site_type_symbol
 _atom_site_label
 _atom_site_symmetry_multiplicity
 _atom_site_fract_x
 _atom_site_fract_y
 _atom_site_fract_z
 _atom_site_occupancy
  La3+  La0  1  0.74151954  0.38254100  0.08017755  1
  La3+  La1  1  0.37014824  0.73885135  0.88830145  1
  La3+  La2  1  0.61795798  0.26050575  0.93762632  1
  La3+  La3  1  0.23571930  0.60934715  0.57949235  1
  La3+  La4  1  0.87554647  0.00631345  0.39797525  1
  La3+  La5  1  0.11959695  0.50746727  0.93045999  1
  La3+  La6  1  0.49587189  0.87083022  0.07244571  1
  La3+  La7  1  -0.00273702  0.88180842  0.07373687  1
  La3+  La8  1  0.61503195  -0.01122523  0.41598057  1
  La3+  La9  1  0.12982353  0.49203375  0.42098151  1
  La3+  La10  1  0.87308552  0.74394326  0.43303708  1
  La3+  La11  1  0.73645133  0.13385024  0.09521215  1
  Ce3+  Ce12  1  0.37208366  -0.00549163  0.94083224  1
  Ce3+  Ce13  1  0.74819811  0.63186333  0.05296403  1
  Ce3+  Ce14  1  0.12227244  0.24356649  0.43805994  1
  Ce3+  Ce15  1  0.74641241  0.11303326  0.55365062  1
  Ce3+  Ce16  1  0.74595230  0.87703897  0.06633089  1
  Ce3+  Ce17  1  0.74826025  0.86885953  0.54632711  1
  Ce3+  Ce18  1  0.62185933  0.74188684  0.43790038  1
  Ce3+  Ce19  1  0.12677511  0.73836121  0.43205337  1
  Ce3+  Ce20  1  0.37112777  0.25478205  0.94789502  1
  Ce3+  Ce21  1  0.49739957  0.61657693  0.55843846  1
  Ce3+  Ce22  1  0.61803792  0.50925124  0.94728569  1
  Ce3+  Ce23  1  0.87133516  0.48758202  0.44163677  1
  Ce3+  Ce24  1  0.49449250  0.38012744  0.06699752  1
  Ce3+  Ce25  1  0.61983593  0.00454002  0.95114645  1
  Pr3+  Pr26  1  0.11352080  0.00520429  0.93777369  1
  Pr3+  Pr27  1  0.49129463  0.63324014  0.06338566  1
  Pr3+  Pr28  1  0.86788501  0.00769616  0.94941834  1
  Pr3+  Pr29  1  0.49306904  0.12766477  0.06606124  1
  Pr3+  Pr30  1  0.12104803  0.25530348  0.94465426  1
  Pr3+  Pr31  1  0.74627955  0.36546937  0.56355734  1
  Pr3+  Pr32  1  -0.00246506  0.86724737  0.55356267  1
  Pr3+  Pr33  1  0.24745165  0.11530282  0.55787091  1
  Pr3+  Pr34  1  0.24387332  0.38140224  0.05974661  1
  Pr3+  Pr35  1  0.61978244  0.76044361  0.93411159  1
  Pr3+  Pr36  1  0.50112785  0.86550865  0.56199645  1
  Pr3+  Pr37  1  0.12722342  -0.01484814  0.42420306  1
  Pr3+  Pr38  1  0.37289963  0.49095301  0.44178489  1
  Nd3+  Nd39  1  -0.00564518  0.13270487  0.06801540  1
  Nd3+  Nd40  1  0.37274402  -0.00792594  0.43712806  1
  Nd3+  Nd41  1  -0.00186488  0.36539588  0.55888343  1
  Nd3+  Nd42  1  0.49931235  0.11361918  0.55893058  1
  Nd3+  Nd43  1  -0.00210330  0.61482935  0.55226945  1
  Nd3+  Nd44  1  0.23784680  0.63180071  0.06283841  1
  Nd3+  Nd45  1  0.24490924  0.86775631  0.56251614  1
  Nd3+  Nd46  1  -0.00176417  0.11428576  0.55484116  1
  Nd3+  Nd47  1  0.24384899  0.87869701  0.05741547  1
  Nd3+  Nd48  1  0.11553994  0.75840990  0.93294920  1
  Nd3+  Nd49  1  0.86715007  0.50215395  0.94061861  1
  Nd3+  Nd50  1  0.86809575  0.25556995  0.94711085  1
  Nd3+  Nd51  1  0.24743347  0.36472237  0.56472573  1
  Sm3+  Sm52  1  -0.00653061  0.62952543  0.05796032  1
  Sm3+  Sm53  1  0.74764468  0.61665833  0.55437131  1
  Sm3+  Sm54  1  0.87349651  0.75786616  0.94088159  1
  Sm3+  Sm55  1  0.24389750  0.12844396  0.05264001  1
  Sm3+  Sm56  1  -0.00536586  0.38068138  0.05761027  1
  Sm3+  Sm57  1  0.87008599  0.23968666  0.44062125  1
  Sm3+  Sm58  1  0.62362713  0.24034963  0.44100144  1
  Sm3+  Sm59  1  0.49903230  0.36547283  0.55822344  1
  Sm3+  Sm60  1  0.36951709  0.50936552  0.94565842  1
  Sm3+  Sm61  1  0.37491353  0.24146455  0.44555711  1
  Sm3+  Sm62  1  0.37270151  0.73847441  0.44846755  1
  Sm3+  Sm63  1  0.62398241  0.49029188  0.44542008  1
  Bi2+  Bi64  1  0.10465428  0.16352870  0.31136087  1
  Bi2+  Bi65  1  0.00905720  0.14432850  0.78801436  1
  Bi2+  Bi66  1  0.02008733  0.33840274  0.27954674  1
  Bi2+  Bi67  1  0.00921752  0.39397377  0.81220714  1
  Bi2+  Bi68  1  -0.01891902  0.58100401  0.28669760  1
  Bi2+  Bi69  1  -0.02598388  0.70169449  0.76264827  1
  Bi2+  Bi70  1  0.01340403  0.86333213  0.29177002  1
  Bi2+  Bi71  1  0.00766518  0.89965633  0.80137931  1
  Bi2+  Bi72  1  0.27150208  0.06411185  0.32171958  1
  Bi2+  Bi73  1  0.26166939  0.14106650  0.75836855  1
  Bi2+  Bi74  1  0.28819103  0.36550150  0.28451340  1
  Bi2+  Bi75  1  0.24218150  0.34179855  0.76735654  1
  Bi2+  Bi76  1  0.24814648  0.61984738  0.28994670  1
  Bi2+  Bi77  1  0.24632261  0.62050526  0.78009222  1
  Bi2+  Bi78  1  0.24970810  0.89056041  0.27057829  1
  Bi2+  Bi79  1  0.25348541  0.88277802  0.78839641  1
  Bi2+  Bi80  1  0.45220736  0.13941425  0.29398367  1
  Bi2+  Bi81  1  0.45111066  0.15801084  0.78354708  1
  Bi2+  Bi82  1  0.50215619  0.42474270  0.28475752  1
  Bi2+  Bi83  1  0.52564730  0.33903731  0.79880963  1
  Bi2+  Bi84  1  0.43998292  0.60789619  0.27895968  1
  Bi2+  Bi85  1  0.57570499  0.60005775  0.76923786  1
  Bi2+  Bi86  1  0.43939697  0.85073211  0.29532533  1
  Bi2+  Bi87  1  0.52649653  0.86309956  0.79221617  1
  Bi2+  Bi88  1  0.73805762  0.15560662  0.29214594  1
  Bi2+  Bi89  1  0.74460580  0.14340011  0.78140898  1
  Bi2+  Bi90  1  0.76808629  0.40135643  0.28543402  1
  Bi2+  Bi91  1  0.75938817  0.40757130  0.79617831  1
  Bi2+  Bi92  1  0.73234116  0.59555892  0.29321430  1
  Bi2+  Bi93  1  0.75522934  0.66999062  0.79493636  1
  Bi2+  Bi94  1  0.74886249  0.84530747  0.29375606  1
  Bi2+  Bi95  1  0.74923722  0.85756661  0.81606147  1
  Bi2+  Bi96  1  0.11888600  0.04048665  0.22203576  1
  Bi2+  Bi97  1  0.09835697  0.03579887  0.70497709  1
  Bi2+  Bi98  1  0.17692919  0.24838108  0.21411983  1
  Bi2+  Bi99  1  0.10837947  0.25249085  0.70050351  1
  Bi2+  Bi100  1  0.09964221  0.48858725  0.21816509  1
  Bi2+  Bi101  1  0.10658815  0.49486009  0.70308125  1
  Bi2+  Bi102  1  0.16172113  0.72893812  0.20445799  1
  Bi2+  Bi103  1  0.12098968  0.77312932  0.69315472  1
  Bi2+  Bi104  1  0.35577842  0.03962034  0.21051873  1
  Bi2+  Bi105  1  0.40216422  0.02079424  0.70625042  1
  Bi2+  Bi106  1  0.37359372  0.23870257  0.19263132  1
  Bi2+  Bi107  1  0.38549169  0.30749621  0.69482370  1
  Bi2+  Bi108  1  0.38232334  0.43818810  0.19225661  1
  Bi2+  Bi109  1  0.39580971  0.46874107  0.76300159  1
  Bi2+  Bi110  1  0.37781406  0.77717705  0.19046461  1
  Bi2+  Bi111  1  0.39558695  0.75975397  0.68392211  1
  Bi2+  Bi112  1  0.61121309  -0.00533013  0.21404524  1
  Bi2+  Bi113  1  0.64891795  -0.01437783  0.74723524  1
  Bi2+  Bi114  1  0.56104033  0.26016774  0.22404436  1
  Bi2+  Bi115  1  0.64251297  0.23011258  0.68824475  1
  Bi2+  Bi116  1  0.64190823  0.50997480  0.20543870  1
  Bi2+  Bi117  1  0.66700218  0.46966701  0.70172320  1
  Bi2+  Bi118  1  0.59399395  0.71328909  0.24875608  1
  Bi2+  Bi119  1  0.65175951  0.72097012  0.69181032  1
  Bi2+  Bi120  1  0.86462309  -0.04076615  0.19224033  1
  Bi2+  Bi121  1  0.85346501  -0.01420809  0.74714481  1
  Bi2+  Bi122  1  0.91475697  0.24853545  0.20422537  1
  Bi2+  Bi123  1  0.87584469  0.27087250  0.74317885  1
  Bi2+  Bi124  1  0.84084961  0.49628808  0.19666017  1
  Bi2+  Bi125  1  0.86832000  0.53906774  0.73843252  1
  Bi2+  Bi126  1  0.90261669  0.68754760  0.20446896  1
  Bi2+  Bi127  1  0.84945396  0.80292360  0.70124899  1
  S2-  S128  1  -0.02106857  0.09092945  0.16531406  1
  S2-  S129  1  -0.00207328  0.13793334  0.65414137  1
  S2-  S130  1  -0.02050535  0.38181161  0.15535018  1
  S2-  S131  1  0.01383590  0.38234347  0.65831203  1
  S2-  S132  1  0.05937275  0.61931334  0.14803337  1
  S2-  S133  1  0.07285644  0.62445027  0.64118341  1
  S2-  S134  1  -0.01631162  0.83178394  0.17094080  1
  S2-  S135  1  0.03569078  0.89205577  0.65161201  1
  S2-  S136  1  0.21858952  0.10768437  0.14903499  1
  S2-  S137  1  0.25165872  0.08053239  0.65602495  1
  S2-  S138  1  0.21480506  0.42711071  0.15562933  1
  S2-  S139  1  0.23089984  0.46396621  0.64442717  1
  S2-  S140  1  0.29286634  0.64565867  0.15842465  1
  S2-  S141  1  0.27590911  0.65402347  0.67755188  1
  S2-  S142  1  0.20673557  0.86474300  0.15518783  1
  S2-  S143  1  0.25464208  0.85967728  0.66336354  1
  S2-  S144  1  0.58100245  0.13338514  0.15399679  1
  S2-  S145  1  0.50502117  0.13485869  0.65746283  1
  S2-  S146  1  0.59697480  0.37608824  0.14649132  1
  S2-  S147  1  0.53601192  0.37007200  0.65483270  1
  S2-  S148  1  0.51782954  0.72668508  0.14762326  1
  S2-  S149  1  0.50479341  0.63250891  0.65626310  1
  S2-  S150  1  0.47307929  0.94132603  0.16527485  1
  S2-  S151  1  0.49287480  0.90711356  0.66047311  1
  S2-  S152  1  0.75870132  0.07811858  0.19408833  1
  S2-  S153  1  0.73380940  0.11277382  0.65121553  1
  S2-  S154  1  0.77840292  0.27220613  0.15694859  1
  S2-  S155  1  0.77384120  0.33824323  0.66200025  1
  S2-  S156  1  0.76812652  0.65093938  0.14958870  1
  S2-  S157  1  0.76199243  0.59455368  0.65182072  1
  S2-  S158  1  0.71564324  0.88203548  0.16443486  1
  S2-  S159  1  0.71910257  0.85798201  0.64290675  1
  S2-  S160  1  0.02553764  0.00835096  0.34309435  1
  S2-  S161  1  0.15126393  -0.02807957  0.84009203  1
  S2-  S162  1  0.12218830  0.35077193  0.36055308  1
  S2-  S163  1  0.10065373  0.24926534  0.84524025  1
  S2-  S164  1  0.11458955  0.62769699  0.35291097  1
  S2-  S165  1  0.13012760  0.50985286  0.82886463  1
  S2-  S166  1  0.13748231  0.84357077  0.35380034  1
  S2-  S167  1  0.20574010  0.74587371  0.84689500  1
  S2-  S168  1  0.46906295  -0.01431912  0.35411393  1
  S2-  S169  1  0.38075903  -0.08641905  0.85359475  1
  S2-  S170  1  0.37470151  0.26442439  0.34805175  1
  S2-  S171  1  0.38479766  0.27454767  0.85200837  1
  S2-  S172  1  0.27986812  0.49460114  0.35657401  1
  S2-  S173  1  0.36253904  0.56476963  0.85269638  1
  S2-  S174  1  0.35936117  0.72582896  0.34974760  1
  S2-  S175  1  0.36554110  0.74635486  0.77877782  1
  S2-  S176  1  0.67024478  -0.00015329  0.31760176  1
  S2-  S177  1  0.61383049  -0.02698181  0.85478415  1
  S2-  S178  1  0.62389523  0.22582990  0.34312014  1
  S2-  S179  1  0.62622942  0.21561779  0.84016211  1
  S2-  S180  1  0.64027472  0.47333017  0.34846267  1
  S2-  S181  1  0.62353277  0.45803122  0.85420371  1
  S2-  S182  1  0.60443557  0.79369981  0.34604387  1
  S2-  S183  1  0.53767643  0.72567555  0.84706075  1
  S2-  S184  1  0.86234237  -0.04055538  0.29416676  1
  S2-  S185  1  0.92581929  0.02662661  0.85453806  1
  S2-  S186  1  0.86687168  0.17174572  0.34951479  1
  S2-  S187  1  0.86211763  0.29568691  0.85016746  1
  S2-  S188  1  0.89983943  0.46305383  0.34586156  1
  S2-  S189  1  0.91827439  0.51525589  0.84532478  1
  S2-  S190  1  0.88664351  0.76486811  0.33290611  1
  S2-  S191  1  0.98182905  0.76378033  0.86360746  1
  S2-  S192  1  -0.00318236  0.11822282  0.45002790  1
  S2-  S193  1  -0.00547174  0.13398703  0.96026726  1
  S2-  S194  1  -0.00902839  0.36157123  0.45393922  1
  S2-  S195  1  -0.00506189  0.37982639  0.95343633  1
  S2-  S196  1  -0.00705066  0.61426706  0.44851936  1
  S2-  S197  1  -0.00824647  0.62776548  0.95466999  1
  S2-  S198  1  -0.00810517  0.87287086  0.44733456  1
  S2-  S199  1  -0.00796898  0.88362619  0.96430324  1
  S2-  S200  1  0.24972559  0.11933361  0.45122705  1
  S2-  S201  1  0.24638175  0.12682293  0.94699037  1
  S2-  S202  1  0.25386778  0.36206662  0.45975887  1
  S2-  S203  1  0.24677691  0.38253821  0.95092206  1
  S2-  S204  1  0.25215581  0.61711321  0.46362591  1
  S2-  S205  1  0.24406646  0.63153381  0.95460373  1
  S2-  S206  1  0.25559999  0.86501281  0.45507927  1
  S2-  S207  1  0.23898608  0.88105226  0.95292247  1
  S2-  S208  1  0.49826082  0.12002079  0.45224109  1
  S2-  S209  1  0.49311902  0.12761651  0.95562364  1
  S2-  S210  1  0.50076793  0.36592330  0.45212132  1
  S2-  S211  1  0.49128756  0.38518068  0.95929408  1
  S2-  S212  1  0.49996122  0.61477675  0.44953630  1
  S2-  S213  1  0.49206119  0.63208234  0.95617704  1
  S2-  S214  1  0.49547672  0.86175944  0.45549746  1
  S2-  S215  1  0.49823601  0.87914801  0.96200840  1
  S2-  S216  1  0.74464612  0.11344622  0.44717183  1
  S2-  S217  1  0.74428792  0.13217732  0.95341476  1
  S2-  S218  1  0.74563200  0.36372518  0.45411335  1
  S2-  S219  1  0.74425338  0.38209929  0.96325982  1
  S2-  S220  1  0.74627432  0.61503676  0.44845276  1
  S2-  S221  1  0.74850342  0.63334572  0.94553625  1
  S2-  S222  1  0.75099582  0.87424308  0.43966928  1
  S2-  S223  1  0.74904965  0.87849658  0.95845279  1
  S2-  S224  1  0.11862384  0.00759228  0.04709799  1
  S2-  S225  1  0.12408160  -0.00743263  0.53882285  1
  S2-  S226  1  0.11948438  0.25521607  0.05263401  1
  S2-  S227  1  0.12285443  0.24165655  0.54719048  1
  S2-  S228  1  0.11592728  0.50413811  0.04069311  1
  S2-  S229  1  0.11830911  0.48694857  0.53568931  1
  S2-  S230  1  0.11588982  0.75467982  0.04356633  1
  S2-  S231  1  0.12269385  0.74395635  0.54039624  1
  S2-  S232  1  0.36662652  0.00458174  0.04890574  1
  S2-  S233  1  0.37345187  -0.00961456  0.54501334  1
  S2-  S234  1  0.36754762  0.25359825  0.05350535  1
  S2-  S235  1  0.37539177  0.24158704  0.55096021  1
  S2-  S236  1  0.36769242  0.50759525  0.05077738  1
  S2-  S237  1  0.37662094  0.48817112  0.54977123  1
  S2-  S238  1  0.36379840  0.75475452  0.05135539  1
  S2-  S239  1  0.37062954  0.74132883  0.55377281  1
  S2-  S240  1  0.62167900  0.00277695  0.05543155  1
  S2-  S241  1  0.62058445  -0.00918608  0.53791069  1
  S2-  S242  1  0.61843927  0.25247349  0.04640711  1
  S2-  S243  1  0.62117374  0.24152754  0.54596866  1
  S2-  S244  1  0.61918681  0.51119459  0.05162898  1
  S2-  S245  1  0.62274034  0.49212595  0.54963536  1
  S2-  S246  1  0.62496015  0.75308172  0.04207423  1
  S2-  S247  1  0.62505215  0.73864861  0.54327893  1
  S2-  S248  1  0.86553445  0.01001746  0.05720191  1
  S2-  S249  1  0.87309801  -0.00784008  0.55032345  1
  S2-  S250  1  0.87141249  0.25553796  0.05155853  1
  S2-  S251  1  0.87195723  0.24000165  0.54652232  1
  S2-  S252  1  0.87216806  0.50398890  0.04845032  1
  S2-  S253  1  0.87205964  0.49146758  0.54915558  1
  S2-  S254  1  0.87421239  0.75588051  0.04654232  1
  S2-  S255  1  0.87189260  0.73889644  0.54350802  1
