# generated using pymatgen
data_La12Ce14Pr13Nd13Sm12(BiS2)64
_symmetry_space_group_name_H-M   'P 1'
_cell_length_a   16.09643903
_cell_length_b   16.08814008
_cell_length_c   27.27322850
_cell_angle_alpha   90.58295609
_cell_angle_beta   89.66967841
_cell_angle_gamma   90.01841729
_symmetry_Int_Tables_number   1
_chemical_formula_structural   La12Ce14Pr13Nd13Sm12(BiS2)64
_chemical_formula_sum   'La12 Ce14 Pr13 Nd13 Sm12 Bi64 S128'
_cell_volume   7062.24023760
_cell_formula_units_Z   1
loop_
 _symmetry_equiv_pos_site_id
 _symmetry_equiv_pos_as_xyz
  1  'x, y, z'
loop_
 _atom_type_symbol
 _atom_type_oxidation_number
  La3+  3.0
  Ce3+  3.0
  Pr3+  3.0
  Nd3+  3.0
  Sm3+  3.0
  Bi2+  2.0
  S2-  -2.0
loop_
 _atom_site_type_symbol
 _atom_site_label
 _atom_site_symmetry_multiplicity
 _atom_site_fract_x
 _atom_site_fract_y
 _atom_site_fract_z
 _atom_site_occupancy
  La3+  La0  1  0.14645923  -0.02166968  0.42664565  1
  La3+  La1  1  0.12086098  0.01909785  0.92892209  1
  La3+  La2  1  0.63814440  -0.03145578  0.42967823  1
  La3+  La3  1  0.74366005  0.90437574  0.07291520  1
  La3+  La4  1  0.37580929  0.02443073  0.89770284  1
  La3+  La5  1  0.89408631  0.72035519  0.41759897  1
  La3+  La6  1  0.61406385  0.53781687  0.92347593  1
  La3+  La7  1  0.00482956  0.36009116  0.57927298  1
  La3+  La8  1  0.76413073  0.09984767  0.56382945  1
  La3+  La9  1  0.62767586  0.03172261  0.93514720  1
  La3+  La10  1  0.13910468  0.47583257  0.43617312  1
  La3+  La11  1  0.25251165  0.91110962  0.08660588  1
  Ce3+  Ce12  1  0.76366091  0.60722047  0.55344599  1
  Ce3+  Ce13  1  -0.00480275  0.65323171  0.05971669  1
  Ce3+  Ce14  1  0.01639459  0.85528345  0.55951735  1
  Ce3+  Ce15  1  0.12386171  0.53065286  0.93498924  1
  Ce3+  Ce16  1  0.61922016  0.77819995  0.94531678  1
  Ce3+  Ce17  1  0.38780093  0.47602607  0.42662561  1
  Ce3+  Ce18  1  0.12100837  0.78587337  0.95538673  1
  Ce3+  Ce19  1  0.51466000  0.35716323  0.55682648  1
  Ce3+  Ce20  1  -0.00638728  0.40663847  0.06326630  1
  Ce3+  Ce21  1  0.49379293  0.15454939  0.05803664  1
  Ce3+  Ce22  1  0.74216578  0.65374175  0.06551949  1
  Ce3+  Ce23  1  0.51457957  0.10079926  0.55694509  1
  Ce3+  Ce24  1  0.88945594  0.22656594  0.43927637  1
  Ce3+  Ce25  1  0.76342298  0.85045005  0.55768337  1
  Pr3+  Pr26  1  0.73412595  0.16321211  0.08387825  1
  Pr3+  Pr27  1  0.14157429  0.72702969  0.43656117  1
  Pr3+  Pr28  1  0.51976846  0.60092727  0.56945543  1
  Pr3+  Pr29  1  0.23998608  0.65040898  0.06718644  1
  Pr3+  Pr30  1  0.89563043  0.46564942  0.42000430  1
  Pr3+  Pr31  1  0.63798445  0.47390894  0.43026477  1
  Pr3+  Pr32  1  0.36684889  0.53216082  0.93120117  1
  Pr3+  Pr33  1  0.36887291  0.27323570  0.93270166  1
  Pr3+  Pr34  1  0.87195577  0.52405951  0.92849691  1
  Pr3+  Pr35  1  0.62366872  0.27872938  0.93705913  1
  Pr3+  Pr36  1  0.38494985  0.72660043  0.44363442  1
  Pr3+  Pr37  1  0.51035391  0.86128249  0.60985866  1
  Pr3+  Pr38  1  0.26592780  0.10429448  0.56148982  1
  Nd3+  Nd39  1  0.13716662  0.22970581  0.44600685  1
  Nd3+  Nd40  1  0.63908323  0.22211083  0.43728805  1
  Nd3+  Nd41  1  0.01049529  0.60440092  0.56206694  1
  Nd3+  Nd42  1  0.25523800  0.85404392  0.57164456  1
  Nd3+  Nd43  1  0.26882604  0.60399563  0.56693024  1
  Nd3+  Nd44  1  0.38686290  -0.02400450  0.44359765  1
  Nd3+  Nd45  1  0.38906148  0.23079197  0.43233060  1
  Nd3+  Nd46  1  0.89051480  -0.02608079  0.43775793  1
  Nd3+  Nd47  1  -0.00685233  0.91754228  0.07314237  1
  Nd3+  Nd48  1  0.01844810  0.10950146  0.56852914  1
  Nd3+  Nd49  1  0.48852330  0.65189106  0.06751233  1
  Nd3+  Nd50  1  0.74325822  0.41293635  0.06345255  1
  Nd3+  Nd51  1  0.12324999  0.27568764  0.94910957  1
  Sm3+  Sm52  1  0.86826752  0.03690902  0.93753027  1
  Sm3+  Sm53  1  -0.00947476  0.15561618  0.05887382  1
  Sm3+  Sm54  1  0.76399782  0.35568070  0.55627923  1
  Sm3+  Sm55  1  0.36787224  0.78265671  0.94605915  1
  Sm3+  Sm56  1  0.24519904  0.14996806  0.05858779  1
  Sm3+  Sm57  1  0.24541159  0.40242516  0.05744790  1
  Sm3+  Sm58  1  0.49127231  0.90721759  0.05757179  1
  Sm3+  Sm59  1  0.26767781  0.35798854  0.55861524  1
  Sm3+  Sm60  1  0.86992544  0.78016699  0.94793382  1
  Sm3+  Sm61  1  0.87238756  0.27967215  0.94025331  1
  Sm3+  Sm62  1  0.63541005  0.72794243  0.44040813  1
  Sm3+  Sm63  1  0.49346896  0.40523614  0.04853658  1
  Bi2+  Bi64  1  -0.01325774  0.14832636  0.23993751  1
  Bi2+  Bi65  1  -0.00543442  0.06571912  0.79811773  1
  Bi2+  Bi66  1  -0.02169364  0.34795903  0.26738893  1
  Bi2+  Bi67  1  0.01089616  0.42130444  0.77207778  1
  Bi2+  Bi68  1  0.03575932  0.59191305  0.29584596  1
  Bi2+  Bi69  1  0.00779997  0.59264080  0.82656902  1
  Bi2+  Bi70  1  -0.02651370  0.86260764  0.29430757  1
  Bi2+  Bi71  1  -0.01478699  0.86878753  0.79056847  1
  Bi2+  Bi72  1  0.23345841  0.11143581  0.29743108  1
  Bi2+  Bi73  1  0.24722049  0.18096932  0.78595732  1
  Bi2+  Bi74  1  0.24877839  0.35847410  0.29730458  1
  Bi2+  Bi75  1  0.26877738  0.37795104  0.79902813  1
  Bi2+  Bi76  1  0.27124492  0.61215337  0.28220557  1
  Bi2+  Bi77  1  0.18823528  0.64823396  0.79189164  1
  Bi2+  Bi78  1  0.23338651  0.85989263  0.29594380  1
  Bi2+  Bi79  1  0.23772568  0.88202099  0.80045291  1
  Bi2+  Bi80  1  0.41558524  0.18679517  0.29341327  1
  Bi2+  Bi81  1  0.53080080  0.14369623  0.78746886  1
  Bi2+  Bi82  1  0.50675512  0.46402057  0.30259826  1
  Bi2+  Bi83  1  0.46154892  0.39592829  0.78530677  1
  Bi2+  Bi84  1  0.45531125  0.64923808  0.32525168  1
  Bi2+  Bi85  1  0.60457606  0.57895490  0.78478545  1
  Bi2+  Bi86  1  0.47612284  0.90913108  0.26334420  1
  Bi2+  Bi87  1  0.50488719  0.84578181  0.80804893  1
  Bi2+  Bi88  1  0.72312414  0.15414147  0.29314184  1
  Bi2+  Bi89  1  0.77704881  0.13066644  0.79244498  1
  Bi2+  Bi90  1  0.75298495  0.36531938  0.29019848  1
  Bi2+  Bi91  1  0.81350081  0.40762072  0.77225659  1
  Bi2+  Bi92  1  0.64202997  0.66013974  0.28680263  1
  Bi2+  Bi93  1  0.82158615  0.62677189  0.79634208  1
  Bi2+  Bi94  1  0.72974583  0.91287116  0.30026474  1
  Bi2+  Bi95  1  0.74403138  0.88036401  0.79076087  1
  Bi2+  Bi96  1  0.10402505  -0.02332860  0.20170304  1
  Bi2+  Bi97  1  0.10178447  -0.00801597  0.70558948  1
  Bi2+  Bi98  1  0.15945755  0.24302963  0.21705220  1
  Bi2+  Bi99  1  0.06069297  0.23484003  0.75160970  1
  Bi2+  Bi100  1  0.09842457  0.46482625  0.19641793  1
  Bi2+  Bi101  1  0.15594955  0.51869229  0.70562903  1
  Bi2+  Bi102  1  0.16300883  0.68673154  0.20321101  1
  Bi2+  Bi103  1  0.03592467  0.70654692  0.72942125  1
  Bi2+  Bi104  1  0.36516065  0.03715417  0.20710583  1
  Bi2+  Bi105  1  0.36524270  0.03754716  0.69861461  1
  Bi2+  Bi106  1  0.35004009  0.23755720  0.18452770  1
  Bi2+  Bi107  1  0.36300470  0.26778581  0.70519999  1
  Bi2+  Bi108  1  0.37069985  0.45277693  0.22272354  1
  Bi2+  Bi109  1  0.38474812  0.50106679  0.69942597  1
  Bi2+  Bi110  1  0.43198928  0.72945112  0.21810287  1
  Bi2+  Bi111  1  0.35655746  0.74234877  0.71430792  1
  Bi2+  Bi112  1  0.60940534  0.03867162  0.22152536  1
  Bi2+  Bi113  1  0.65468788  -0.00040965  0.71254806  1
  Bi2+  Bi114  1  0.53546573  0.27093644  0.21491952  1
  Bi2+  Bi115  1  0.56341788  0.27884075  0.70697964  1
  Bi2+  Bi116  1  0.62910339  0.49965389  0.19273027  1
  Bi2+  Bi117  1  0.66091639  0.45159767  0.69800026  1
  Bi2+  Bi118  1  0.61900652  0.81267348  0.20856575  1
  Bi2+  Bi119  1  0.72847406  0.72660335  0.71311968  1
  Bi2+  Bi120  1  0.86927876  -0.01611388  0.21049196  1
  Bi2+  Bi121  1  0.86119220  -0.07323982  0.70366454  1
  Bi2+  Bi122  1  0.81978252  0.23097321  0.20507776  1
  Bi2+  Bi123  1  0.88151311  0.20560761  0.68893996  1
  Bi2+  Bi124  1  0.87003196  0.51816704  0.24962697  1
  Bi2+  Bi125  1  0.85451455  0.56071227  0.68520688  1
  Bi2+  Bi126  1  0.80721434  0.70042340  0.23166210  1
  Bi2+  Bi127  1  0.89742864  0.74653471  0.64833267  1
  S2-  S128  1  -0.00998642  0.06650721  0.14213207  1
  S2-  S129  1  -0.04792194  0.04416105  0.65560079  1
  S2-  S130  1  -0.02897435  0.36549055  0.15718591  1
  S2-  S131  1  0.03645648  0.23369743  0.64777180  1
  S2-  S132  1  0.02611798  0.61442622  0.15319538  1
  S2-  S133  1  0.00994328  0.50402685  0.64536927  1
  S2-  S134  1  -0.02218586  0.86422578  0.17140649  1
  S2-  S135  1  0.11827161  0.86964476  0.63954332  1
  S2-  S136  1  0.22377518  0.05932026  0.14308967  1
  S2-  S137  1  0.21527526  0.09246955  0.65829399  1
  S2-  S138  1  0.24375024  0.45514862  0.15103165  1
  S2-  S139  1  0.25883273  0.38933000  0.65620326  1
  S2-  S140  1  0.32274552  0.66050153  0.15503314  1
  S2-  S141  1  0.23030396  0.65892664  0.65995037  1
  S2-  S142  1  0.20951164  0.85177879  0.18639588  1
  S2-  S143  1  0.34863014  0.88002906  0.65498554  1
  S2-  S144  1  0.57698720  0.15177531  0.14609509  1
  S2-  S145  1  0.51625256  0.03092213  0.64728872  1
  S2-  S146  1  0.49609124  0.40931684  0.14726294  1
  S2-  S147  1  0.51001390  0.45503461  0.63773923  1
  S2-  S148  1  0.55474631  0.62921838  0.15899458  1
  S2-  S149  1  0.45147359  0.64757970  0.66144220  1
  S2-  S150  1  0.41178360  0.91046763  0.14591035  1
  S2-  S151  1  0.51018342  0.81824205  0.71497518  1
  S2-  S152  1  0.74834696  0.02325451  0.15070608  1
  S2-  S153  1  0.72942643  0.12621975  0.66269888  1
  S2-  S154  1  0.72416817  0.31498643  0.14556329  1
  S2-  S155  1  0.84792635  0.34224596  0.64219734  1
  S2-  S156  1  0.75967428  0.53803601  0.13867275  1
  S2-  S157  1  0.67851688  0.60213497  0.64092777  1
  S2-  S158  1  0.75073486  0.77135605  0.14515479  1
  S2-  S159  1  0.67957960  0.87103211  0.64350301  1
  S2-  S160  1  0.09823550  -0.03788782  0.32748545  1
  S2-  S161  1  0.22138945  0.03609554  0.84643726  1
  S2-  S162  1  0.15089880  0.23451385  0.34633329  1
  S2-  S163  1  0.14209064  0.28578554  0.85008895  1
  S2-  S164  1  0.04137200  0.45409179  0.35264434  1
  S2-  S165  1  0.23915712  0.52521088  0.85827372  1
  S2-  S166  1  0.04132795  0.73728456  0.35146149  1
  S2-  S167  1  0.10979696  0.85577148  0.86696465  1
  S2-  S168  1  0.29778866  -0.02813383  0.35718626  1
  S2-  S169  1  0.37880798  -0.03540557  0.78539543  1
  S2-  S170  1  0.39650723  0.34108958  0.35435570  1
  S2-  S171  1  0.39189332  0.18139207  0.84671650  1
  S2-  S172  1  0.25710350  0.50012037  0.35801533  1
  S2-  S173  1  0.47690455  0.53885924  0.85114940  1
  S2-  S174  1  0.26797319  0.74787283  0.36141642  1
  S2-  S175  1  0.35599549  0.77787740  0.84644890  1
  S2-  S176  1  0.61929842  0.05641475  0.34210456  1
  S2-  S177  1  0.53563900  0.00742459  0.84902401  1
  S2-  S178  1  0.63643068  0.28609106  0.34494477  1
  S2-  S179  1  0.65269735  0.21639049  0.84312796  1
  S2-  S180  1  0.67159339  0.50896016  0.33259911  1
  S2-  S181  1  0.68675507  0.46660716  0.84015799  1
  S2-  S182  1  0.63187575  0.82668514  0.35721425  1
  S2-  S183  1  0.60535332  0.71845283  0.85343753  1
  S2-  S184  1  0.87711809  -0.00871244  0.33826026  1
  S2-  S185  1  0.75561082  0.00823828  0.86137801  1
  S2-  S186  1  0.88428457  0.31267647  0.35548952  1
  S2-  S187  1  0.88703309  0.16397833  0.86203574  1
  S2-  S188  1  0.88232759  0.58309860  0.34523251  1
  S2-  S189  1  0.89077408  0.38726277  0.85970244  1
  S2-  S190  1  0.83649789  0.78123668  0.32392499  1
  S2-  S191  1  0.85942759  0.78821696  0.84911890  1
  S2-  S192  1  0.01528667  0.10203057  0.45107026  1
  S2-  S193  1  0.00059493  0.15234657  0.95707505  1
  S2-  S194  1  0.01247992  0.34869820  0.46442867  1
  S2-  S195  1  0.00304179  0.40380243  0.95761943  1
  S2-  S196  1  0.01498455  0.60010704  0.45609027  1
  S2-  S197  1  -0.00377154  0.65678916  0.95339173  1
  S2-  S198  1  0.01702326  0.85657869  0.45239899  1
  S2-  S199  1  -0.01413025  0.90814047  0.96275446  1
  S2-  S200  1  0.26654603  0.10973078  0.45452896  1
  S2-  S201  1  0.24664444  0.14995257  0.95472849  1
  S2-  S202  1  0.26519381  0.34988839  0.45628411  1
  S2-  S203  1  0.24735094  0.40029852  0.95526329  1
  S2-  S204  1  0.26468008  0.60185735  0.46113846  1
  S2-  S205  1  0.24308520  0.65957432  0.95976485  1
  S2-  S206  1  0.26211687  0.85542451  0.46546072  1
  S2-  S207  1  0.25166325  0.90608498  0.95991791  1
  S2-  S208  1  0.50892341  0.10357670  0.45042350  1
  S2-  S209  1  0.49560356  0.15195300  0.95294512  1
  S2-  S210  1  0.51581676  0.35037466  0.45348002  1
  S2-  S211  1  0.49315351  0.39992912  0.94485919  1
  S2-  S212  1  0.51537655  0.60160690  0.45463093  1
  S2-  S213  1  0.48822933  0.65876481  0.96002613  1
  S2-  S214  1  0.50606463  0.85219107  0.44907496  1
  S2-  S215  1  0.49241137  0.90369470  0.95362275  1
  S2-  S216  1  0.76481777  0.10056787  0.45201988  1
  S2-  S217  1  0.74861781  0.16005549  0.96435829  1
  S2-  S218  1  0.76140826  0.35024367  0.45310941  1
  S2-  S219  1  0.74693823  0.40281338  0.95704021  1
  S2-  S220  1  0.75846409  0.60430843  0.44738979  1
  S2-  S221  1  0.74842568  0.65367444  0.95460891  1
  S2-  S222  1  0.76827436  0.84676789  0.45203825  1
  S2-  S223  1  0.74625206  0.89900993  0.96385904  1
  S2-  S224  1  0.11851343  0.03094731  0.04020613  1
  S2-  S225  1  0.13712512  -0.01284670  0.53902601  1
  S2-  S226  1  0.12135264  0.27629714  0.05568407  1
  S2-  S227  1  0.14514466  0.23467699  0.54942902  1
  S2-  S228  1  0.12065225  0.52591911  0.04281270  1
  S2-  S229  1  0.14283127  0.47829476  0.54684014  1
  S2-  S230  1  0.11977168  0.78542204  0.06015036  1
  S2-  S231  1  0.13678614  0.72377697  0.54485184  1
  S2-  S232  1  0.37144391  0.03317357  0.04669880  1
  S2-  S233  1  0.39008663  -0.02281511  0.54741068  1
  S2-  S234  1  0.36783356  0.27942221  0.04230443  1
  S2-  S235  1  0.39053122  0.23090683  0.54572366  1
  S2-  S236  1  0.36722036  0.52648420  0.04222917  1
  S2-  S237  1  0.38845857  0.48020837  0.53868387  1
  S2-  S238  1  0.36772039  0.77902810  0.05024010  1
  S2-  S239  1  0.39035654  0.73275833  0.55093396  1
  S2-  S240  1  0.61667662  0.02672687  0.04516643  1
  S2-  S241  1  0.63711843  -0.02209559  0.53882309  1
  S2-  S242  1  0.61516519  0.28335313  0.04248718  1
  S2-  S243  1  0.63949874  0.22971132  0.54643284  1
  S2-  S244  1  0.61292470  0.53005288  0.03706112  1
  S2-  S245  1  0.64294035  0.47633155  0.53756507  1
  S2-  S246  1  0.61062321  0.77882862  0.05032365  1
  S2-  S247  1  0.63285645  0.73384517  0.54371472  1
  S2-  S248  1  0.86532508  0.03566230  0.04350017  1
  S2-  S249  1  0.89000381  -0.02293477  0.54397325  1
  S2-  S250  1  0.87063052  0.27952843  0.04655067  1
  S2-  S251  1  0.88743966  0.22460513  0.54270845  1
  S2-  S252  1  0.87479751  0.52993308  0.03752393  1
  S2-  S253  1  0.88265951  0.48069903  0.53676299  1
  S2-  S254  1  0.87640606  0.78054432  0.05146375  1
  S2-  S255  1  0.89064043  0.72772698  0.53360074  1
