# generated using pymatgen
data_La12Ce14Pr13Nd13Sm12(BiS2)64
_symmetry_space_group_name_H-M   'P 1'
_cell_length_a   16.16674582
_cell_length_b   16.10659043
_cell_length_c   27.26988066
_cell_angle_alpha   89.71814009
_cell_angle_beta   90.22727541
_cell_angle_gamma   89.95936902
_symmetry_Int_Tables_number   1
_chemical_formula_structural   La12Ce14Pr13Nd13Sm12(BiS2)64
_chemical_formula_sum   'La12 Ce14 Pr13 Nd13 Sm12 Bi64 S128'
_cell_volume   7100.69201061
_cell_formula_units_Z   1
loop_
 _symmetry_equiv_pos_site_id
 _symmetry_equiv_pos_as_xyz
  1  'x, y, z'
loop_
 _atom_type_symbol
 _atom_type_oxidation_number
  La3+  3.0
  Ce3+  3.0
  Pr3+  3.0
  Nd3+  3.0
  Sm3+  3.0
  Bi2+  2.0
  S2-  -2.0
loop_
 _atom_site_type_symbol
 _atom_site_label
 _atom_site_symmetry_multiplicity
 _atom_site_fract_x
 _atom_site_fract_y
 _atom_site_fract_z
 _atom_site_occupancy
  La3+  La0  1  0.51188906  0.62028190  0.05831785  1
  La3+  La1  1  0.24515006  0.87819247  0.57739190  1
  La3+  La2  1  -0.01958680  0.88228455  0.58375127  1
  La3+  La3  1  0.48329501  0.37275036  0.59249432  1
  La3+  La4  1  -0.01478079  0.62251848  0.57743263  1
  La3+  La5  1  0.00876840  0.86040371  0.06759172  1
  La3+  La6  1  0.13208122  0.74015382  0.88912119  1
  La3+  La7  1  0.86102548  0.25271346  0.42864470  1
  La3+  La8  1  0.73308627  0.62272373  0.58592445  1
  La3+  La9  1  0.26130564  0.12121055  0.07847457  1
  La3+  La10  1  0.50788815  0.86887220  0.06011894  1
  La3+  La11  1  0.73685657  0.37090396  0.57647205  1
  Ce3+  Ce12  1  0.25713657  0.37314551  0.06443984  1
  Ce3+  Ce13  1  0.86704971  0.75158372  0.44735889  1
  Ce3+  Ce14  1  0.23587628  0.12263311  0.56593623  1
  Ce3+  Ce15  1  0.10646160  0.24851023  0.44438615  1
  Ce3+  Ce16  1  0.61096991  0.00198033  0.44368044  1
  Ce3+  Ce17  1  0.63139225  0.49468520  0.93248120  1
  Ce3+  Ce18  1  0.13645507  0.24682005  0.93311579  1
  Ce3+  Ce19  1  0.35038266  0.75405229  0.43154451  1
  Ce3+  Ce20  1  0.13552860  -0.01070542  0.93811194  1
  Ce3+  Ce21  1  0.37883136  -0.00520151  0.93866850  1
  Ce3+  Ce22  1  0.63103726  -0.00237324  0.94256349  1
  Ce3+  Ce23  1  0.25837351  0.61918029  0.06168429  1
  Ce3+  Ce24  1  0.76178838  0.11878252  0.06063703  1
  Ce3+  Ce25  1  0.63487655  0.74895687  0.92758195  1
  Pr3+  Pr26  1  0.25340022  0.86473235  0.07210106  1
  Pr3+  Pr27  1  0.36372821  0.24909430  0.44430272  1
  Pr3+  Pr28  1  0.23661795  0.37582218  0.56868722  1
  Pr3+  Pr29  1  0.10993185  0.50061541  0.44543887  1
  Pr3+  Pr30  1  0.10547587  0.75211720  0.44499148  1
  Pr3+  Pr31  1  0.73592365  0.12787724  0.57542934  1
  Pr3+  Pr32  1  0.37970645  0.49824450  0.93243693  1
  Pr3+  Pr33  1  0.60895037  0.75298184  0.42888838  1
  Pr3+  Pr34  1  0.36364618  0.49912202  0.43829192  1
  Pr3+  Pr35  1  0.73434362  0.87196934  0.56826719  1
  Pr3+  Pr36  1  0.88161977  0.24609310  0.94006809  1
  Pr3+  Pr37  1  0.75878064  0.37052426  0.06029179  1
  Pr3+  Pr38  1  0.48543566  0.62567798  0.55471409  1
  Nd3+  Nd39  1  0.88223696  0.74964083  0.92847914  1
  Nd3+  Nd40  1  0.50673103  0.12021736  0.05701806  1
  Nd3+  Nd41  1  0.23799264  0.63166394  0.56696005  1
  Nd3+  Nd42  1  0.00896352  0.62024035  0.05608884  1
  Nd3+  Nd43  1  0.48853953  0.87347605  0.55566243  1
  Nd3+  Nd44  1  0.01057278  0.11844124  0.05081660  1
  Nd3+  Nd45  1  0.37817505  0.75210289  0.93006412  1
  Nd3+  Nd46  1  0.50834315  0.37104199  0.05743940  1
  Nd3+  Nd47  1  0.13175682  0.49336786  0.93156438  1
  Nd3+  Nd48  1  0.88368224  -0.00504384  0.93871056  1
  Nd3+  Nd49  1  -0.01398973  0.37329131  0.56894719  1
  Nd3+  Nd50  1  0.61474334  0.49854352  0.44511146  1
  Nd3+  Nd51  1  0.48501931  0.12241755  0.56846662  1
  Sm3+  Sm52  1  0.86279237  0.00476982  0.44167030  1
  Sm3+  Sm53  1  0.88243752  0.49727933  0.94287535  1
  Sm3+  Sm54  1  0.38096316  0.24562510  0.94000547  1
  Sm3+  Sm55  1  0.75782747  0.62157602  0.04813034  1
  Sm3+  Sm56  1  -0.01398987  0.12487603  0.56806581  1
  Sm3+  Sm57  1  0.34730203  -0.00216610  0.43411817  1
  Sm3+  Sm58  1  0.10448173  -0.00362462  0.44424150  1
  Sm3+  Sm59  1  0.00933748  0.37053898  0.05557788  1
  Sm3+  Sm60  1  0.61074926  0.25062328  0.45063110  1
  Sm3+  Sm61  1  0.75833273  0.86970327  0.05698757  1
  Sm3+  Sm62  1  0.86201994  0.49776897  0.44523316  1
  Sm3+  Sm63  1  0.63227391  0.24681343  0.94380157  1
  Bi2+  Bi64  1  -0.03505260  0.10326429  0.29845247  1
  Bi2+  Bi65  1  0.00779246  0.13812405  0.78120873  1
  Bi2+  Bi66  1  0.03515323  0.37999551  0.29957795  1
  Bi2+  Bi67  1  -0.00044594  0.33672781  0.78379205  1
  Bi2+  Bi68  1  -0.04937295  0.62815941  0.29462220  1
  Bi2+  Bi69  1  -0.03771853  0.59491847  0.79150538  1
  Bi2+  Bi70  1  0.08826297  0.86354040  0.32046641  1
  Bi2+  Bi71  1  0.01839671  0.87423986  0.77929016  1
  Bi2+  Bi72  1  0.19443512  0.18326278  0.25131914  1
  Bi2+  Bi73  1  0.19153730  0.12468305  0.82458345  1
  Bi2+  Bi74  1  0.22170096  0.37803397  0.26730423  1
  Bi2+  Bi75  1  0.22989722  0.31186782  0.78350498  1
  Bi2+  Bi76  1  0.21935244  0.57795859  0.26514779  1
  Bi2+  Bi77  1  0.26220931  0.56148796  0.79115482  1
  Bi2+  Bi78  1  0.28872850  0.88902699  0.30236696  1
  Bi2+  Bi79  1  0.28456411  0.84462365  0.77945324  1
  Bi2+  Bi80  1  0.46418451  0.12418232  0.28607923  1
  Bi2+  Bi81  1  0.38782182  0.09876813  0.80543332  1
  Bi2+  Bi82  1  0.51405683  0.36753215  0.31455236  1
  Bi2+  Bi83  1  0.50765007  0.36615693  0.79381671  1
  Bi2+  Bi84  1  0.53092090  0.61016508  0.30517291  1
  Bi2+  Bi85  1  0.53058645  0.73102284  0.81170325  1
  Bi2+  Bi86  1  0.54032296  0.86289177  0.30162405  1
  Bi2+  Bi87  1  0.51726537  0.94565301  0.80707586  1
  Bi2+  Bi88  1  0.71376100  0.09717905  0.29258460  1
  Bi2+  Bi89  1  0.77455507  0.11954938  0.78256841  1
  Bi2+  Bi90  1  0.75981967  0.34872577  0.28950373  1
  Bi2+  Bi91  1  0.74474893  0.36596423  0.80656263  1
  Bi2+  Bi92  1  0.77553353  0.61713335  0.24299684  1
  Bi2+  Bi93  1  0.71235008  0.66267526  0.78586463  1
  Bi2+  Bi94  1  0.76941893  0.91661984  0.24632838  1
  Bi2+  Bi95  1  0.77020702  0.92235640  0.79173253  1
  Bi2+  Bi96  1  0.14095437  0.00449834  0.21270179  1
  Bi2+  Bi97  1  0.14958280  0.04870974  0.72045924  1
  Bi2+  Bi98  1  0.00770079  0.24037789  0.21706162  1
  Bi2+  Bi99  1  0.16446150  0.24378631  0.67319939  1
  Bi2+  Bi100  1  0.06576367  0.58448527  0.18642605  1
  Bi2+  Bi101  1  0.12398337  0.43282533  0.71328913  1
  Bi2+  Bi102  1  0.14907439  0.75463024  0.21985423  1
  Bi2+  Bi103  1  0.11893378  0.67041305  0.69476697  1
  Bi2+  Bi104  1  0.41547884  -0.00660264  0.20252021  1
  Bi2+  Bi105  1  0.41566287  0.00846860  0.70020164  1
  Bi2+  Bi106  1  0.36126945  0.25346956  0.21049134  1
  Bi2+  Bi107  1  0.35250765  0.21336678  0.71057290  1
  Bi2+  Bi108  1  0.37440921  0.49904376  0.20615254  1
  Bi2+  Bi109  1  0.37507422  0.50175550  0.70723484  1
  Bi2+  Bi110  1  0.33938132  0.73191158  0.23458606  1
  Bi2+  Bi111  1  0.41243981  0.74137009  0.72079553  1
  Bi2+  Bi112  1  0.60687144  0.02509809  0.20512846  1
  Bi2+  Bi113  1  0.60744044  0.01865541  0.66718544  1
  Bi2+  Bi114  1  0.60359448  0.21948619  0.22421922  1
  Bi2+  Bi115  1  0.62629109  0.18522228  0.71893822  1
  Bi2+  Bi116  1  0.61756998  0.48526945  0.19400300  1
  Bi2+  Bi117  1  0.61227014  0.55605574  0.71727040  1
  Bi2+  Bi118  1  0.60840223  0.73665463  0.19018889  1
  Bi2+  Bi119  1  0.61538121  0.84052549  0.72491090  1
  Bi2+  Bi120  1  0.93629829  -0.01131456  0.20563970  1
  Bi2+  Bi121  1  0.87141253  0.07198885  0.69064117  1
  Bi2+  Bi122  1  0.80202782  0.23013979  0.20249306  1
  Bi2+  Bi123  1  0.96306113  0.24930938  0.68119808  1
  Bi2+  Bi124  1  0.90849772  0.48131221  0.21406398  1
  Bi2+  Bi125  1  0.86860153  0.49725184  0.71672256  1
  Bi2+  Bi126  1  0.89580244  0.77605387  0.22299689  1
  Bi2+  Bi127  1  0.83995246  0.77282151  0.70597201  1
  S2-  S128  1  0.04484360  0.10907822  0.14769897  1
  S2-  S129  1  0.02006647  0.02251563  0.64847775  1
  S2-  S130  1  0.01001872  0.38127369  0.15347277  1
  S2-  S131  1  -0.00234699  0.48143167  0.64879708  1
  S2-  S132  1  -0.03168406  0.71479887  0.13807718  1
  S2-  S133  1  -0.13154002  0.63670998  0.65558738  1
  S2-  S134  1  0.11426778  0.87525566  0.14881151  1
  S2-  S135  1  0.00733056  0.79514946  0.67520114  1
  S2-  S136  1  0.24075561  0.26021188  0.14184831  1
  S2-  S137  1  0.25869470  0.01701348  0.64488515  1
  S2-  S138  1  0.26231313  0.49572738  0.13681683  1
  S2-  S139  1  0.33952471  0.37394830  0.65171457  1
  S2-  S140  1  0.28299716  0.72919306  0.14177139  1
  S2-  S141  1  0.22978360  0.54572187  0.65727215  1
  S2-  S142  1  0.27439503  0.98830331  0.14825160  1
  S2-  S143  1  0.23322858  0.74894485  0.64670678  1
  S2-  S144  1  0.42265977  0.13496554  0.14292251  1
  S2-  S145  1  0.49011555  0.22007601  0.65249475  1
  S2-  S146  1  0.48887970  0.38949338  0.15612737  1
  S2-  S147  1  0.53777452  0.41749437  0.69220223  1
  S2-  S148  1  0.49571607  0.61005915  0.15974574  1
  S2-  S149  1  0.48196393  0.62293121  0.65588976  1
  S2-  S150  1  0.49585103  0.84392509  0.16000928  1
  S2-  S151  1  0.41529454  0.86230180  0.64566144  1
  S2-  S152  1  0.80776259  0.08188861  0.15222104  1
  S2-  S153  1  0.73479468  0.24681916  0.65336096  1
  S2-  S154  1  0.72472886  0.38190755  0.15832139  1
  S2-  S155  1  0.73167024  0.48433408  0.65692060  1
  S2-  S156  1  0.71176252  0.61307954  0.14249008  1
  S2-  S157  1  0.68976982  0.75783419  0.64754892  1
  S2-  S158  1  0.72724120  0.84187960  0.15209489  1
  S2-  S159  1  0.83420154  0.91191122  0.65037488  1
  S2-  S160  1  0.21158267  -0.00523030  0.36352205  1
  S2-  S161  1  0.13240655  -0.09166889  0.85135540  1
  S2-  S162  1  0.01334444  0.23979714  0.36207268  1
  S2-  S163  1  0.12340065  0.36109746  0.85817035  1
  S2-  S164  1  0.04721074  0.52343993  0.35286478  1
  S2-  S165  1  0.11270367  0.57710687  0.84317131  1
  S2-  S166  1  0.21535976  0.75923276  0.36281241  1
  S2-  S167  1  0.14040603  0.76134702  0.77454596  1
  S2-  S168  1  0.42346998  -0.01328748  0.34338505  1
  S2-  S169  1  0.37135588  -0.10580555  0.85886862  1
  S2-  S170  1  0.40289795  0.26110610  0.34594650  1
  S2-  S171  1  0.40788421  0.27007776  0.84266637  1
  S2-  S172  1  0.41180639  0.49847897  0.34073184  1
  S2-  S173  1  0.39738635  0.49038941  0.83045688  1
  S2-  S174  1  0.44045675  0.74321813  0.34725322  1
  S2-  S175  1  0.29353548  0.70602789  0.84528233  1
  S2-  S176  1  0.64168162  -0.03712592  0.35036460  1
  S2-  S177  1  0.65855858  0.02783136  0.84666005  1
  S2-  S178  1  0.64297805  0.27030752  0.35354259  1
  S2-  S179  1  0.62811313  0.26956340  0.84556246  1
  S2-  S180  1  0.62781044  0.49829048  0.34379798  1
  S2-  S181  1  0.62683666  0.48249862  0.83394884  1
  S2-  S182  1  0.64362289  0.73796561  0.32883757  1
  S2-  S183  1  0.75460275  0.77476696  0.85547223  1
  S2-  S184  1  0.98526511  -0.02294456  0.36722372  1
  S2-  S185  1  0.90752190  -0.03144107  0.84094096  1
  S2-  S186  1  0.83240389  0.11816568  0.36328104  1
  S2-  S187  1  0.85550428  0.24740414  0.84064989  1
  S2-  S188  1  0.84764246  0.39617739  0.36339655  1
  S2-  S189  1  0.86261096  0.48465372  0.84526563  1
  S2-  S190  1  0.97857599  0.75531387  0.36951941  1
  S2-  S191  1  0.97085442  0.74479441  0.84173298  1
  S2-  S192  1  -0.01331113  0.12443016  0.46514789  1
  S2-  S193  1  0.00850440  0.12071562  0.94432089  1
  S2-  S194  1  -0.01273587  0.37666356  0.46398674  1
  S2-  S195  1  0.00150578  0.37190686  0.95207131  1
  S2-  S196  1  -0.01747721  0.61923564  0.46725489  1
  S2-  S197  1  0.00341298  0.61990961  0.95113635  1
  S2-  S198  1  -0.01890758  0.87818838  0.47316582  1
  S2-  S199  1  0.00543672  0.86994657  0.95580562  1
  S2-  S200  1  0.23412830  0.12834295  0.45782284  1
  S2-  S201  1  0.25972769  0.12181134  0.95538720  1
  S2-  S202  1  0.23572507  0.37393054  0.45312910  1
  S2-  S203  1  0.26125506  0.36982390  0.95363696  1
  S2-  S204  1  0.23647552  0.62137626  0.45835306  1
  S2-  S205  1  0.25371136  0.61862704  0.95208883  1
  S2-  S206  1  0.23246332  0.87657132  0.46689049  1
  S2-  S207  1  0.25629399  0.86933075  0.95968620  1
  S2-  S208  1  0.48643735  0.12441450  0.45620968  1
  S2-  S209  1  0.50709042  0.12404284  0.95033623  1
  S2-  S210  1  0.48815723  0.37498298  0.45904523  1
  S2-  S211  1  0.50711466  0.36936999  0.95068681  1
  S2-  S212  1  0.48754404  0.62427785  0.44959540  1
  S2-  S213  1  0.50772930  0.62262190  0.94608871  1
  S2-  S214  1  0.48299737  0.87740902  0.45079159  1
  S2-  S215  1  0.51167503  0.87108907  0.95219399  1
  S2-  S216  1  0.73083605  0.12723476  0.46609918  1
  S2-  S217  1  0.75701358  0.12212892  0.95349083  1
  S2-  S218  1  0.73366111  0.37325906  0.46612261  1
  S2-  S219  1  0.75699836  0.37113473  0.95320285  1
  S2-  S220  1  0.74054859  0.62391367  0.44686360  1
  S2-  S221  1  0.75712769  0.61817360  0.94477803  1
  S2-  S222  1  0.74005238  0.87620195  0.45553829  1
  S2-  S223  1  0.75654446  0.87742711  0.95419227  1
  S2-  S224  1  0.13354065  -0.00356616  0.04304624  1
  S2-  S225  1  0.11404605  0.00208106  0.54689254  1
  S2-  S226  1  0.12898453  0.24698562  0.03907432  1
  S2-  S227  1  0.11063657  0.25003430  0.54906536  1
  S2-  S228  1  0.12790060  0.49322776  0.03915169  1
  S2-  S229  1  0.11539738  0.49948227  0.54986434  1
  S2-  S230  1  0.13273985  0.73880180  0.04643036  1
  S2-  S231  1  0.10576398  0.75111795  0.55201053  1
  S2-  S232  1  0.38534826  -0.00531738  0.04263563  1
  S2-  S233  1  0.36729555  0.00199512  0.53907407  1
  S2-  S234  1  0.38458602  0.24894355  0.04235664  1
  S2-  S235  1  0.36045046  0.24753547  0.54956749  1
  S2-  S236  1  0.38809277  0.49542593  0.03887584  1
  S2-  S237  1  0.36161710  0.49877933  0.54617333  1
  S2-  S238  1  0.38752170  0.74337202  0.03754629  1
  S2-  S239  1  0.36379767  0.75033722  0.53939655  1
  S2-  S240  1  0.63444960  -0.00364776  0.05041619  1
  S2-  S241  1  0.61162629  0.00053476  0.54851717  1
  S2-  S242  1  0.63312145  0.24388906  0.05003257  1
  S2-  S243  1  0.60551048  0.25053109  0.55262165  1
  S2-  S244  1  0.63484328  0.49421295  0.03966829  1
  S2-  S245  1  0.60721866  0.49737658  0.55234777  1
  S2-  S246  1  0.63667584  0.74624930  0.03704027  1
  S2-  S247  1  0.61069461  0.74813502  0.53718396  1
  S2-  S248  1  0.88495740  -0.00890608  0.04557843  1
  S2-  S249  1  0.85766762  0.00825804  0.54588812  1
  S2-  S250  1  0.88562840  0.24586306  0.04849112  1
  S2-  S251  1  0.86565584  0.24861864  0.54802278  1
  S2-  S252  1  0.88248115  0.49621819  0.04871062  1
  S2-  S253  1  0.85800946  0.49761126  0.54835128  1
  S2-  S254  1  0.87457558  0.74515204  0.03552575  1
  S2-  S255  1  0.85801431  0.74780379  0.55050778  1
