# generated using pymatgen
data_La12Ce14Pr13Nd13Sm12(BiS2)64
_symmetry_space_group_name_H-M   'P 1'
_cell_length_a   16.10853284
_cell_length_b   16.15262170
_cell_length_c   27.32985938
_cell_angle_alpha   89.79356792
_cell_angle_beta   89.73233117
_cell_angle_gamma   89.87283421
_symmetry_Int_Tables_number   1
_chemical_formula_structural   La12Ce14Pr13Nd13Sm12(BiS2)64
_chemical_formula_sum   'La12 Ce14 Pr13 Nd13 Sm12 Bi64 S128'
_cell_volume   7110.95277124
_cell_formula_units_Z   1
loop_
 _symmetry_equiv_pos_site_id
 _symmetry_equiv_pos_as_xyz
  1  'x, y, z'
loop_
 _atom_type_symbol
 _atom_type_oxidation_number
  La3+  3.0
  Ce3+  3.0
  Pr3+  3.0
  Nd3+  3.0
  Sm3+  3.0
  Bi2+  2.0
  S2-  -2.0
loop_
 _atom_site_type_symbol
 _atom_site_label
 _atom_site_symmetry_multiplicity
 _atom_site_fract_x
 _atom_site_fract_y
 _atom_site_fract_z
 _atom_site_occupancy
  La3+  La0  1  0.37209134  0.00622065  0.91324906  1
  La3+  La1  1  0.25815427  0.62079780  0.60587853  1
  La3+  La2  1  0.87321326  -0.01373264  0.93202451  1
  La3+  La3  1  0.75986574  0.62265052  0.56162473  1
  La3+  La4  1  0.51300390  0.87820378  0.57818874  1
  La3+  La5  1  0.73281939  0.61441944  0.09065031  1
  La3+  La6  1  -0.00025986  0.37040869  0.58091320  1
  La3+  La7  1  0.36505203  0.50607867  0.92015250  1
  La3+  La8  1  0.10671175  0.76876833  0.91281458  1
  La3+  La9  1  0.73932314  0.12279875  0.06556504  1
  La3+  La10  1  0.13373403  0.25058882  0.44418187  1
  La3+  La11  1  0.88242107  0.75054361  0.38931273  1
  Ce3+  Ce12  1  0.25993479  0.37417147  0.56466760  1
  Ce3+  Ce13  1  0.48558249  0.61951150  0.06152737  1
  Ce3+  Ce14  1  0.73654525  0.87245558  0.07084198  1
  Ce3+  Ce15  1  0.75433896  0.87531148  0.55862752  1
  Ce3+  Ce16  1  -0.00360445  0.62734909  0.05925171  1
  Ce3+  Ce17  1  0.25158245  0.87436817  0.05397578  1
  Ce3+  Ce18  1  0.11413583  0.50643453  0.93094654  1
  Ce3+  Ce19  1  0.37856468  0.23924433  0.43034500  1
  Ce3+  Ce20  1  0.50869457  0.12583808  0.56170192  1
  Ce3+  Ce21  1  -0.00950124  0.12414818  0.06167673  1
  Ce3+  Ce22  1  0.37443635  0.75400245  0.92398245  1
  Ce3+  Ce23  1  0.63701749  0.74889062  0.44464456  1
  Ce3+  Ce24  1  0.36852630  0.25020087  0.93534343  1
  Ce3+  Ce25  1  0.13048179  0.75202009  0.44594332  1
  Pr3+  Pr26  1  0.13424298  0.50421373  0.45395586  1
  Pr3+  Pr27  1  0.25906111  0.12143326  0.57030027  1
  Pr3+  Pr28  1  -0.00006629  0.11910382  0.57607968  1
  Pr3+  Pr29  1  0.86766935  0.50162396  0.93673646  1
  Pr3+  Pr30  1  0.48876861  0.12363314  0.05739519  1
  Pr3+  Pr31  1  0.86915377  0.24183874  0.93152321  1
  Pr3+  Pr32  1  0.89003403  0.24633655  0.42975417  1
  Pr3+  Pr33  1  -0.01384524  0.87312045  0.07703302  1
  Pr3+  Pr34  1  0.62138059  -0.00108187  0.93468773  1
  Pr3+  Pr35  1  0.38610318  0.74818362  0.44214865  1
  Pr3+  Pr36  1  0.49174726  0.87209062  0.06202578  1
  Pr3+  Pr37  1  0.63721757  0.50141038  0.43419859  1
  Pr3+  Pr38  1  0.88721574  0.00088706  0.43563501  1
  Nd3+  Nd39  1  0.24069035  0.62594501  0.05061696  1
  Nd3+  Nd40  1  0.38255669  0.50503655  0.43640725  1
  Nd3+  Nd41  1  0.00829893  0.62597279  0.56515149  1
  Nd3+  Nd42  1  0.63623930  -0.00080104  0.43977197  1
  Nd3+  Nd43  1  0.24368566  0.12672141  0.05726609  1
  Nd3+  Nd44  1  0.11963471  -0.00014454  0.95019144  1
  Nd3+  Nd45  1  0.50656943  0.61299630  0.57294548  1
  Nd3+  Nd46  1  0.26466417  0.87320311  0.57498464  1
  Nd3+  Nd47  1  0.74325650  0.37718144  0.05418384  1
  Nd3+  Nd48  1  0.38401606  -0.00902173  0.43839319  1
  Nd3+  Nd49  1  0.11683047  0.25048999  0.93950107  1
  Nd3+  Nd50  1  0.50545150  0.37379499  0.54849993  1
  Nd3+  Nd51  1  0.00708146  0.87126365  0.56434802  1
  Sm3+  Sm52  1  0.13321602  -0.00238730  0.45338130  1
  Sm3+  Sm53  1  -0.00938510  0.37680740  0.05081422  1
  Sm3+  Sm54  1  0.62081213  0.25004192  0.94310078  1
  Sm3+  Sm55  1  0.63447992  0.25041969  0.43895628  1
  Sm3+  Sm56  1  0.76166424  0.37250073  0.54815593  1
  Sm3+  Sm57  1  0.61930220  0.50347083  0.93823227  1
  Sm3+  Sm58  1  0.48900728  0.37916286  0.04465555  1
  Sm3+  Sm59  1  0.88953321  0.50305903  0.43715709  1
  Sm3+  Sm60  1  0.86433876  0.74832447  0.95104565  1
  Sm3+  Sm61  1  0.61525302  0.75113023  0.94044611  1
  Sm3+  Sm62  1  0.24052404  0.37760133  0.04795003  1
  Sm3+  Sm63  1  0.75919487  0.12723129  0.55929522  1
  Bi2+  Bi64  1  0.00090746  0.15549828  0.28861803  1
  Bi2+  Bi65  1  -0.03698599  0.18929620  0.78595670  1
  Bi2+  Bi66  1  -0.08536201  0.36816835  0.30942305  1
  Bi2+  Bi67  1  -0.01314258  0.39886324  0.77884923  1
  Bi2+  Bi68  1  0.00409158  0.53685739  0.27848112  1
  Bi2+  Bi69  1  -0.04694140  0.62215338  0.76643912  1
  Bi2+  Bi70  1  0.04916314  0.89561551  0.30170955  1
  Bi2+  Bi71  1  -0.03408413  0.92983305  0.79621207  1
  Bi2+  Bi72  1  0.24586175  0.10962992  0.30960700  1
  Bi2+  Bi73  1  0.21680106  0.12581825  0.78812481  1
  Bi2+  Bi74  1  0.26194501  0.39734249  0.30242295  1
  Bi2+  Bi75  1  0.31017782  0.30089294  0.79266486  1
  Bi2+  Bi76  1  0.25513543  0.59220038  0.30721708  1
  Bi2+  Bi77  1  0.21614644  0.59846659  0.79313483  1
  Bi2+  Bi78  1  0.25071168  0.80349669  0.30240646  1
  Bi2+  Bi79  1  0.20177071  0.86023748  0.78512137  1
  Bi2+  Bi80  1  0.45574498  0.17668143  0.27553534  1
  Bi2+  Bi81  1  0.51593243  0.13278434  0.78801362  1
  Bi2+  Bi82  1  0.45854461  0.37496142  0.28944516  1
  Bi2+  Bi83  1  0.55958305  0.31964705  0.77246681  1
  Bi2+  Bi84  1  0.47804803  0.62961352  0.27154514  1
  Bi2+  Bi85  1  0.53907235  0.61870315  0.78946078  1
  Bi2+  Bi86  1  0.48724079  0.92315939  0.28798523  1
  Bi2+  Bi87  1  0.56478862  0.87190888  0.78797474  1
  Bi2+  Bi88  1  0.76685770  0.16603830  0.28156284  1
  Bi2+  Bi89  1  0.73486369  0.09013356  0.79812332  1
  Bi2+  Bi90  1  0.72719444  0.40277506  0.29052393  1
  Bi2+  Bi91  1  0.77465622  0.38971445  0.76661041  1
  Bi2+  Bi92  1  0.75500162  0.63610922  0.28171018  1
  Bi2+  Bi93  1  0.73345024  0.63953304  0.79938169  1
  Bi2+  Bi94  1  0.74328213  0.89070504  0.29405548  1
  Bi2+  Bi95  1  0.73633841  0.89987642  0.83567186  1
  Bi2+  Bi96  1  0.22631338  -0.03314819  0.23905301  1
  Bi2+  Bi97  1  0.10426968  0.03670025  0.70826665  1
  Bi2+  Bi98  1  0.16920743  0.21420890  0.21993708  1
  Bi2+  Bi99  1  0.21787718  0.22014938  0.68559722  1
  Bi2+  Bi100  1  0.10720130  0.39851405  0.22375460  1
  Bi2+  Bi101  1  0.16298056  0.38985501  0.73288081  1
  Bi2+  Bi102  1  0.18475356  0.68732070  0.21621304  1
  Bi2+  Bi103  1  0.08764518  0.75357945  0.70231450  1
  Bi2+  Bi104  1  0.39974619  0.01904144  0.19502477  1
  Bi2+  Bi105  1  0.37500973  -0.00966946  0.71493843  1
  Bi2+  Bi106  1  0.34867040  0.29007748  0.20608433  1
  Bi2+  Bi107  1  0.41549584  0.23499078  0.69824906  1
  Bi2+  Bi108  1  0.34585983  0.50071397  0.19174964  1
  Bi2+  Bi109  1  0.39644961  0.48434493  0.71486798  1
  Bi2+  Bi110  1  0.37468006  0.76027519  0.21098740  1
  Bi2+  Bi111  1  0.36382714  0.74410685  0.72787258  1
  Bi2+  Bi112  1  0.62971757  0.00497147  0.20710234  1
  Bi2+  Bi113  1  0.63382866  0.01477280  0.70488499  1
  Bi2+  Bi114  1  0.61737432  0.27346611  0.23730013  1
  Bi2+  Bi115  1  0.60936835  0.21325855  0.67239326  1
  Bi2+  Bi116  1  0.58966439  0.49920603  0.20418106  1
  Bi2+  Bi117  1  0.62843048  0.47113446  0.70938178  1
  Bi2+  Bi118  1  0.57551400  0.78462465  0.23166401  1
  Bi2+  Bi119  1  0.63371834  0.74017190  0.71278695  1
  Bi2+  Bi120  1  0.90716210  -0.00527367  0.19907938  1
  Bi2+  Bi121  1  0.83682463  -0.01329941  0.71813693  1
  Bi2+  Bi122  1  0.89391879  0.25664936  0.21139029  1
  Bi2+  Bi123  1  0.79602811  0.22743136  0.70630591  1
  Bi2+  Bi124  1  0.86481111  0.48843599  0.20216983  1
  Bi2+  Bi125  1  0.85642252  0.51262962  0.68561480  1
  Bi2+  Bi126  1  0.95199182  0.74401163  0.19739498  1
  Bi2+  Bi127  1  0.82159031  0.79203696  0.74654235  1
  S2-  S128  1  -0.01262071  0.12000129  0.15953414  1
  S2-  S129  1  0.04703014  0.18407692  0.66764768  1
  S2-  S130  1  -0.02293528  0.37769880  0.14838667  1
  S2-  S131  1  0.02787932  0.42661388  0.67598532  1
  S2-  S132  1  0.06442290  0.62997964  0.15018580  1
  S2-  S133  1  -0.04411205  0.65294937  0.65978236  1
  S2-  S134  1  0.04271669  0.88955960  0.17517713  1
  S2-  S135  1  0.02304361  0.90879541  0.66247675  1
  S2-  S136  1  0.25236079  0.09876940  0.15500251  1
  S2-  S137  1  0.25967662  0.00216332  0.64884331  1
  S2-  S138  1  0.22282982  0.42141128  0.14199741  1
  S2-  S139  1  0.27920146  0.45019443  0.65231923  1
  S2-  S140  1  0.35151397  0.62422991  0.12792939  1
  S2-  S141  1  0.16405553  0.60974248  0.69754376  1
  S2-  S142  1  0.36009281  0.87881851  0.13183588  1
  S2-  S143  1  0.23648219  0.77726402  0.65911507  1
  S2-  S144  1  0.53578304  0.11226908  0.15382903  1
  S2-  S145  1  0.49490491  0.02989915  0.64293433  1
  S2-  S146  1  0.47794163  0.42165774  0.13895070  1
  S2-  S147  1  0.50969583  0.45309159  0.63685187  1
  S2-  S148  1  0.58263757  0.62902558  0.14589826  1
  S2-  S149  1  0.41101173  0.62984594  0.66003781  1
  S2-  S150  1  0.60944824  0.87399518  0.14133038  1
  S2-  S151  1  0.42414881  0.84954619  0.66673406  1
  S2-  S152  1  0.76241089  0.07123779  0.16072267  1
  S2-  S153  1  0.85342973  0.10678177  0.64123213  1
  S2-  S154  1  0.73106799  0.45107893  0.14353776  1
  S2-  S155  1  0.83637587  0.36541310  0.63615022  1
  S2-  S156  1  0.80735046  0.64660951  0.18142654  1
  S2-  S157  1  0.69934521  0.60354199  0.65526235  1
  S2-  S158  1  0.84595244  0.86259414  0.14823655  1
  S2-  S159  1  0.66426899  0.87319381  0.64319026  1
  S2-  S160  1  0.10435207  0.02414526  0.35665879  1
  S2-  S161  1  0.10235106  -0.06551928  0.85795517  1
  S2-  S162  1  0.02774186  0.26409523  0.36245616  1
  S2-  S163  1  0.09599685  0.20806833  0.84302765  1
  S2-  S164  1  0.12211318  0.50019572  0.35294769  1
  S2-  S165  1  0.12638332  0.46690740  0.83604232  1
  S2-  S166  1  0.05568085  0.75883150  0.35613981  1
  S2-  S167  1  0.08785400  0.69246171  0.82293388  1
  S2-  S168  1  0.39581326  0.10655203  0.36303676  1
  S2-  S169  1  0.31948153  -0.04515934  0.81518371  1
  S2-  S170  1  0.24713096  0.25738301  0.36425504  1
  S2-  S171  1  0.36413910  0.16195100  0.85202636  1
  S2-  S172  1  0.40406953  0.62591117  0.36283795  1
  S2-  S173  1  0.37057046  0.51368463  0.81943447  1
  S2-  S174  1  0.38416291  0.86724839  0.36350923  1
  S2-  S175  1  0.30061024  0.74072477  0.83205691  1
  S2-  S176  1  0.63621494  -0.01372408  0.33924074  1
  S2-  S177  1  0.51975519  0.00114674  0.85226567  1
  S2-  S178  1  0.64271150  0.22805481  0.34240413  1
  S2-  S179  1  0.64336710  0.22524037  0.84727799  1
  S2-  S180  1  0.64082890  0.52808666  0.33471407  1
  S2-  S181  1  0.62558090  0.50412975  0.84050936  1
  S2-  S182  1  0.70028351  0.75118525  0.35246861  1
  S2-  S183  1  0.51363513  0.75170657  0.85880280  1
  S2-  S184  1  0.89350619  -0.08682435  0.34760416  1
  S2-  S185  1  0.88526760  0.11018902  0.85818055  1
  S2-  S186  1  0.87430971  0.12092935  0.35555578  1
  S2-  S187  1  0.87224030  0.32921162  0.84350278  1
  S2-  S188  1  0.87859924  0.58567180  0.35022836  1
  S2-  S189  1  0.87272042  0.56108772  0.84190361  1
  S2-  S190  1  0.86879270  0.75781137  0.27957366  1
  S2-  S191  1  0.92025462  0.82663415  0.87048034  1
  S2-  S192  1  0.01119710  0.12098437  0.46639602  1
  S2-  S193  1  -0.00371021  0.12250133  0.95781752  1
  S2-  S194  1  0.00653475  0.38078109  0.46588521  1
  S2-  S195  1  -0.00723340  0.37548262  0.94657645  1
  S2-  S196  1  0.00437136  0.62811278  0.45908896  1
  S2-  S197  1  -0.00669387  0.63262814  0.95107513  1
  S2-  S198  1  0.00882036  0.87631654  0.46034015  1
  S2-  S199  1  -0.00381567  0.87409841  0.97099198  1
  S2-  S200  1  0.25657838  0.11715700  0.46443827  1
  S2-  S201  1  0.24068060  0.12642130  0.95113146  1
  S2-  S202  1  0.26225423  0.38040646  0.46028382  1
  S2-  S203  1  0.24157835  0.37550076  0.94238624  1
  S2-  S204  1  0.25696216  0.62850865  0.45476640  1
  S2-  S205  1  0.23591403  0.63233798  0.94320189  1
  S2-  S206  1  0.25502795  0.87401408  0.46543770  1
  S2-  S207  1  0.24611477  0.87698198  0.94778765  1
  S2-  S208  1  0.51585891  0.12577379  0.45643356  1
  S2-  S209  1  0.49768678  0.13062763  0.95240952  1
  S2-  S210  1  0.50685158  0.37398929  0.44223295  1
  S2-  S211  1  0.49563020  0.37617025  0.93894807  1
  S2-  S212  1  0.51555257  0.62244019  0.46323553  1
  S2-  S213  1  0.49349193  0.62089819  0.95152090  1
  S2-  S214  1  0.51585314  0.87439417  0.46204890  1
  S2-  S215  1  0.49370009  0.87871093  0.95508465  1
  S2-  S216  1  0.75532529  0.12785169  0.45523861  1
  S2-  S217  1  0.74242652  0.12388348  0.95691775  1
  S2-  S218  1  0.76236942  0.37386823  0.44391741  1
  S2-  S219  1  0.74192536  0.37622530  0.94830928  1
  S2-  S220  1  0.76313042  0.62371769  0.45411110  1
  S2-  S221  1  0.73975467  0.62801621  0.94798532  1
  S2-  S222  1  0.76039968  0.87382493  0.45397941  1
  S2-  S223  1  0.74083513  0.87041291  0.96285109  1
  S2-  S224  1  0.12092421  -0.00027598  0.05512781  1
  S2-  S225  1  0.12964350  -0.00182641  0.55530995  1
  S2-  S226  1  0.11671844  0.25274040  0.04728771  1
  S2-  S227  1  0.13227875  0.25021444  0.55310143  1
  S2-  S228  1  0.11549279  0.49889285  0.03725285  1
  S2-  S229  1  0.13241283  0.50211853  0.55995693  1
  S2-  S230  1  0.12105799  0.75419063  0.04911939  1
  S2-  S231  1  0.13370108  0.74661026  0.55352727  1
  S2-  S232  1  0.36637013  0.00603091  0.03226035  1
  S2-  S233  1  0.38509374  -0.00110603  0.54333224  1
  S2-  S234  1  0.36596452  0.25426124  0.04356590  1
  S2-  S235  1  0.38291947  0.24857550  0.54565986  1
  S2-  S236  1  0.36193687  0.49583520  0.02765636  1
  S2-  S237  1  0.38053075  0.50123561  0.54136081  1
  S2-  S238  1  0.36739356  0.74823121  0.03025681  1
  S2-  S239  1  0.38498432  0.74549308  0.55088968  1
  S2-  S240  1  0.61557426  0.00172370  0.04170297  1
  S2-  S241  1  0.63779632  0.00693607  0.54483749  1
  S2-  S242  1  0.61461539  0.25491161  0.04876172  1
  S2-  S243  1  0.63650159  0.25284240  0.54285684  1
  S2-  S244  1  0.61564721  0.49787573  0.03999182  1
  S2-  S245  1  0.63728901  0.49274013  0.54026258  1
  S2-  S246  1  0.61645096  0.74268115  0.04263656  1
  S2-  S247  1  0.62899078  0.74329680  0.54929469  1
  S2-  S248  1  0.86639424  0.00018404  0.04457842  1
  S2-  S249  1  0.87986920  -0.00511844  0.54447378  1
  S2-  S250  1  0.86650033  0.25122437  0.04478985  1
  S2-  S251  1  0.88295349  0.24619870  0.53890547  1
  S2-  S252  1  0.86802147  0.50278223  0.04373610  1
  S2-  S253  1  0.88512483  0.49946999  0.54268519  1
  S2-  S254  1  0.86080983  0.73872899  0.05253835  1
  S2-  S255  1  0.87912388  0.75270493  0.55861997  1
