# generated using pymatgen
data_La12Ce14Pr13Nd13Sm12(BiS2)64
_symmetry_space_group_name_H-M   'P 1'
_cell_length_a   16.21023342
_cell_length_b   16.20065022
_cell_length_c   27.23540078
_cell_angle_alpha   89.93873234
_cell_angle_beta   89.90192121
_cell_angle_gamma   89.97237986
_symmetry_Int_Tables_number   1
_chemical_formula_structural   La12Ce14Pr13Nd13Sm12(BiS2)64
_chemical_formula_sum   'La12 Ce14 Pr13 Nd13 Sm12 Bi64 S128'
_cell_volume   7152.44537788
_cell_formula_units_Z   1
loop_
 _symmetry_equiv_pos_site_id
 _symmetry_equiv_pos_as_xyz
  1  'x, y, z'
loop_
 _atom_type_symbol
 _atom_type_oxidation_number
  La3+  3.0
  Ce3+  3.0
  Pr3+  3.0
  Nd3+  3.0
  Sm3+  3.0
  Bi2+  2.0
  S2-  -2.0
loop_
 _atom_site_type_symbol
 _atom_site_label
 _atom_site_symmetry_multiplicity
 _atom_site_fract_x
 _atom_site_fract_y
 _atom_site_fract_z
 _atom_site_occupancy
  La3+  La0  1  0.72667321  0.38593715  0.11784248  1
  La3+  La1  1  0.50130793  0.13652816  0.06222476  1
  La3+  La2  1  0.75853112  0.36436440  0.55877086  1
  La3+  La3  1  0.49294274  0.88181284  0.07177202  1
  La3+  La4  1  -0.00590124  0.37983174  0.07279715  1
  La3+  La5  1  0.50049237  0.62924697  0.06368449  1
  La3+  La6  1  0.38281943  -0.01546418  0.43846536  1
  La3+  La7  1  0.00540462  0.85536178  0.57481362  1
  La3+  La8  1  0.76467769  0.10883652  0.58673047  1
  La3+  La9  1  0.50128600  0.86325612  0.59065035  1
  La3+  La10  1  0.01042228  0.36776211  0.56577908  1
  La3+  La11  1  0.24587979  0.37918608  0.07043539  1
  Ce3+  Ce12  1  0.63262182  0.48940369  0.43591691  1
  Ce3+  Ce13  1  0.88348114  0.49075546  0.43970795  1
  Ce3+  Ce14  1  0.75075545  0.13476005  0.05962394  1
  Ce3+  Ce15  1  0.75171987  0.63089043  0.06366955  1
  Ce3+  Ce16  1  0.63224991  -0.01069046  0.45307823  1
  Ce3+  Ce17  1  0.74989528  0.87894499  0.05993218  1
  Ce3+  Ce18  1  0.00303215  0.62993122  0.05540143  1
  Ce3+  Ce19  1  0.37984278  0.00411144  0.93314298  1
  Ce3+  Ce20  1  0.37891389  0.75374262  0.93595608  1
  Ce3+  Ce21  1  0.50665537  0.36740229  0.56106414  1
  Ce3+  Ce22  1  0.87482040  0.00528344  0.94314801  1
  Ce3+  Ce23  1  0.63018827  0.25774240  0.93959043  1
  Ce3+  Ce24  1  0.13168266  0.49183449  0.43726226  1
  Ce3+  Ce25  1  0.25589583  0.61855606  0.55107794  1
  Pr3+  Pr26  1  0.00169361  0.12925404  0.05834502  1
  Pr3+  Pr27  1  0.50298473  0.12335590  0.57306692  1
  Pr3+  Pr28  1  0.75247010  0.86097597  0.56916415  1
  Pr3+  Pr29  1  0.25116070  0.13040822  0.05044813  1
  Pr3+  Pr30  1  0.88241676  0.74539065  0.42745268  1
  Pr3+  Pr31  1  0.37461542  0.50511695  0.93990617  1
  Pr3+  Pr32  1  0.11811652  0.49608735  0.93163676  1
  Pr3+  Pr33  1  0.37769656  0.25637762  0.93775478  1
  Pr3+  Pr34  1  0.12481734  0.75559901  0.93334918  1
  Pr3+  Pr35  1  0.87462184  0.75474831  0.94203936  1
  Pr3+  Pr36  1  0.63431589  0.75187964  0.42164099  1
  Pr3+  Pr37  1  0.38421716  0.23972646  0.43672186  1
  Pr3+  Pr38  1  0.63404100  0.23744245  0.44072546  1
  Nd3+  Nd39  1  0.62507390  0.75504906  0.94256236  1
  Nd3+  Nd40  1  0.13117559  0.74735689  0.42894148  1
  Nd3+  Nd41  1  0.00191163  0.87849004  0.05951732  1
  Nd3+  Nd42  1  0.62508913  0.00578792  0.94130494  1
  Nd3+  Nd43  1  0.75380866  0.62152234  0.55540472  1
  Nd3+  Nd44  1  0.13233207  0.24122527  0.44110541  1
  Nd3+  Nd45  1  0.38263996  0.49206295  0.44121283  1
  Nd3+  Nd46  1  0.88288605  -0.00973207  0.44900334  1
  Nd3+  Nd47  1  0.25597552  0.86420184  0.56562207  1
  Nd3+  Nd48  1  0.88734524  0.23925205  0.43421308  1
  Nd3+  Nd49  1  0.12608713  0.00332627  0.94080043  1
  Nd3+  Nd50  1  0.12540064  0.25380247  0.93682010  1
  Nd3+  Nd51  1  0.00741153  0.61839521  0.55327968  1
  Sm3+  Sm52  1  0.50114916  0.38236053  0.05559845  1
  Sm3+  Sm53  1  0.87417069  0.50226574  0.94641718  1
  Sm3+  Sm54  1  0.87483590  0.25617420  0.94355430  1
  Sm3+  Sm55  1  0.50727911  0.61832405  0.55405039  1
  Sm3+  Sm56  1  0.38895662  0.73983591  0.44039894  1
  Sm3+  Sm57  1  0.62973623  0.50292789  0.94430006  1
  Sm3+  Sm58  1  0.24855638  0.63042436  0.05143530  1
  Sm3+  Sm59  1  0.25751715  0.11600198  0.55422155  1
  Sm3+  Sm60  1  0.25640725  0.36800700  0.55190462  1
  Sm3+  Sm61  1  0.00743549  0.11607341  0.56279499  1
  Sm3+  Sm62  1  0.25252073  0.87756919  0.05583013  1
  Sm3+  Sm63  1  0.13041087  -0.01052885  0.45133595  1
  Bi2+  Bi64  1  0.05252551  0.09470482  0.28358162  1
  Bi2+  Bi65  1  0.01193340  0.13019323  0.73985839  1
  Bi2+  Bi66  1  -0.00455168  0.36478641  0.31181141  1
  Bi2+  Bi67  1  -0.03249941  0.38174145  0.78811702  1
  Bi2+  Bi68  1  0.03267154  0.67318245  0.26228597  1
  Bi2+  Bi69  1  0.00528560  0.58043143  0.76912451  1
  Bi2+  Bi70  1  -0.00127992  0.90028426  0.29976915  1
  Bi2+  Bi71  1  0.02986642  0.84872738  0.79387118  1
  Bi2+  Bi72  1  0.26770102  0.17819088  0.28670375  1
  Bi2+  Bi73  1  0.18530643  0.10705121  0.79264591  1
  Bi2+  Bi74  1  0.23443471  0.37061002  0.29043145  1
  Bi2+  Bi75  1  0.21677351  0.38832591  0.78476440  1
  Bi2+  Bi76  1  0.22953751  0.64783223  0.27004202  1
  Bi2+  Bi77  1  0.26721075  0.64204438  0.79466577  1
  Bi2+  Bi78  1  0.21792406  0.84552295  0.29132045  1
  Bi2+  Bi79  1  0.27836081  0.85090718  0.73674987  1
  Bi2+  Bi80  1  0.52505529  0.11017686  0.29280518  1
  Bi2+  Bi81  1  0.50168980  0.13044718  0.81059088  1
  Bi2+  Bi82  1  0.44550050  0.38482443  0.28961035  1
  Bi2+  Bi83  1  0.49323379  0.42169044  0.79326353  1
  Bi2+  Bi84  1  0.42744270  0.62734434  0.27222877  1
  Bi2+  Bi85  1  0.53047683  0.61920465  0.78928730  1
  Bi2+  Bi86  1  0.48799859  0.85875147  0.30648600  1
  Bi2+  Bi87  1  0.50606619  0.87669673  0.80488629  1
  Bi2+  Bi88  1  0.71092760  0.14165568  0.31836153  1
  Bi2+  Bi89  1  0.75868245  0.12745483  0.81201732  1
  Bi2+  Bi90  1  0.75069892  0.40299997  0.31518589  1
  Bi2+  Bi91  1  0.77163604  0.37965918  0.79144646  1
  Bi2+  Bi92  1  0.77495471  0.63156112  0.24569738  1
  Bi2+  Bi93  1  0.72440332  0.56077854  0.76185438  1
  Bi2+  Bi94  1  0.74689490  0.87310164  0.29555093  1
  Bi2+  Bi95  1  0.77162563  0.82097219  0.78872261  1
  Bi2+  Bi96  1  0.13124437  -0.02776337  0.20293669  1
  Bi2+  Bi97  1  0.13521699  -0.02014033  0.70611381  1
  Bi2+  Bi98  1  0.11559859  0.23357524  0.20945825  1
  Bi2+  Bi99  1  0.16536408  0.24146733  0.71128377  1
  Bi2+  Bi100  1  0.15878914  0.49580904  0.21117968  1
  Bi2+  Bi101  1  0.15341740  0.51790884  0.70523635  1
  Bi2+  Bi102  1  0.14614762  0.77987102  0.18392961  1
  Bi2+  Bi103  1  0.12493587  0.77015507  0.69328802  1
  Bi2+  Bi104  1  0.30798490  0.00067324  0.24794745  1
  Bi2+  Bi105  1  0.34666900  0.02988026  0.71213758  1
  Bi2+  Bi106  1  0.37979433  0.22444006  0.19102488  1
  Bi2+  Bi107  1  0.41114002  0.26856259  0.73622083  1
  Bi2+  Bi108  1  0.33430432  0.41205061  0.19072543  1
  Bi2+  Bi109  1  0.35416266  0.44947244  0.69801585  1
  Bi2+  Bi110  1  0.39066051  0.76885007  0.18936664  1
  Bi2+  Bi111  1  0.39251832  0.64406975  0.70719254  1
  Bi2+  Bi112  1  0.66562630  0.01811067  0.23138117  1
  Bi2+  Bi113  1  0.63681185  0.01710915  0.71240772  1
  Bi2+  Bi114  1  0.59474211  0.23615445  0.20681649  1
  Bi2+  Bi115  1  0.60797817  0.31444285  0.71023247  1
  Bi2+  Bi116  1  0.56425105  0.49943766  0.23618963  1
  Bi2+  Bi117  1  0.54865750  0.50080931  0.68602644  1
  Bi2+  Bi118  1  0.63486439  0.72715138  0.19704905  1
  Bi2+  Bi119  1  0.64038854  0.73283409  0.70944867  1
  Bi2+  Bi120  1  0.85542345  0.05173430  0.25000741  1
  Bi2+  Bi121  1  0.86744796  -0.03337489  0.73887092  1
  Bi2+  Bi122  1  0.86199404  0.24907386  0.21388968  1
  Bi2+  Bi123  1  0.84511855  0.25556675  0.69968227  1
  Bi2+  Bi124  1  0.93210949  0.51709997  0.22252255  1
  Bi2+  Bi125  1  0.88071645  0.49935123  0.69177071  1
  Bi2+  Bi126  1  0.88753745  0.78311747  0.21456040  1
  Bi2+  Bi127  1  0.87208915  0.69815537  0.71713440  1
  S2-  S128  1  -0.01381879  0.17192672  0.15552711  1
  S2-  S129  1  -0.08190158  0.13502642  0.64611500  1
  S2-  S130  1  -0.10897152  0.38337930  0.15573539  1
  S2-  S131  1  -0.02775082  0.36018688  0.66342387  1
  S2-  S132  1  0.00106673  0.60448509  0.15194428  1
  S2-  S133  1  -0.00342587  0.70626656  0.63828218  1
  S2-  S134  1  -0.00769406  0.88998987  0.15836209  1
  S2-  S135  1  -0.01154109  0.91335056  0.67200562  1
  S2-  S136  1  0.24057696  0.16035408  0.14862099  1
  S2-  S137  1  0.27315015  0.13894422  0.65087486  1
  S2-  S138  1  0.12198731  0.37405810  0.14388470  1
  S2-  S139  1  0.20224689  0.37755315  0.64420587  1
  S2-  S140  1  0.26283621  0.66708888  0.14707899  1
  S2-  S141  1  0.22419418  0.64940580  0.64608643  1
  S2-  S142  1  0.34606764  0.89889639  0.13711420  1
  S2-  S143  1  0.35240844  0.87068038  0.64756649  1
  S2-  S144  1  0.49814444  0.10654791  0.16088271  1
  S2-  S145  1  0.49030537  0.05411014  0.66638885  1
  S2-  S146  1  0.55576970  0.38013373  0.14919534  1
  S2-  S147  1  0.49321996  0.26582506  0.63980199  1
  S2-  S148  1  0.50285359  0.61663713  0.16472531  1
  S2-  S149  1  0.51031924  0.70193121  0.63948262  1
  S2-  S150  1  0.53772970  0.84977142  0.16976028  1
  S2-  S151  1  0.56526720  0.87747898  0.69143574  1
  S2-  S152  1  0.73600467  0.20496399  0.14822148  1
  S2-  S153  1  0.70106015  0.17112843  0.67518436  1
  S2-  S154  1  0.72361858  0.35579792  0.22431495  1
  S2-  S155  1  0.75087588  0.39246067  0.65756951  1
  S2-  S156  1  0.73524923  0.56085453  0.15284960  1
  S2-  S157  1  0.76032008  0.72355006  0.63666890  1
  S2-  S158  1  0.75477383  0.82921509  0.15381801  1
  S2-  S159  1  0.76324891  0.96172042  0.65462595  1
  S2-  S160  1  0.12798594  -0.02168890  0.35372702  1
  S2-  S161  1  0.10473340  -0.02383223  0.84383637  1
  S2-  S162  1  0.05352488  0.23046029  0.35378513  1
  S2-  S163  1  0.09939942  0.33045561  0.85002337  1
  S2-  S164  1  0.12045668  0.47256457  0.34082944  1
  S2-  S165  1  0.17398441  0.53358195  0.83948155  1
  S2-  S166  1  0.01057268  0.75672253  0.35546120  1
  S2-  S167  1  0.14729349  0.75750057  0.83354373  1
  S2-  S168  1  0.40599811  0.00747374  0.33903055  1
  S2-  S169  1  0.39281701  -0.00302617  0.83524793  1
  S2-  S170  1  0.41874394  0.22984434  0.33858519  1
  S2-  S171  1  0.37422943  0.23362664  0.83867035  1
  S2-  S172  1  0.37586570  0.51217259  0.34295153  1
  S2-  S173  1  0.39550156  0.54439948  0.84253904  1
  S2-  S174  1  0.34587374  0.80201897  0.35310862  1
  S2-  S175  1  0.39399404  0.78033133  0.83993413  1
  S2-  S176  1  0.62220835  -0.08892060  0.36462126  1
  S2-  S177  1  0.61637073  0.00344159  0.84017417  1
  S2-  S178  1  0.63491849  0.28888184  0.34428164  1
  S2-  S179  1  0.62269535  0.22807224  0.84258859  1
  S2-  S180  1  0.62848402  0.50951882  0.33722002  1
  S2-  S181  1  0.65465584  0.47499884  0.84813913  1
  S2-  S182  1  0.53623665  0.71847129  0.33655846  1
  S2-  S183  1  0.62445468  0.76839260  0.84340166  1
  S2-  S184  1  0.86318623  -0.02075691  0.35008071  1
  S2-  S185  1  0.86031608  0.01236531  0.84502002  1
  S2-  S186  1  0.85739103  0.26523770  0.33608687  1
  S2-  S187  1  0.85891360  0.24341496  0.84446425  1
  S2-  S188  1  0.89368602  0.50119736  0.34171518  1
  S2-  S189  1  0.92717011  0.50516967  0.85207967  1
  S2-  S190  1  0.76821919  0.74002431  0.35132364  1
  S2-  S191  1  0.89996684  0.75822884  0.84285934  1
  S2-  S192  1  0.00918403  0.11344505  0.45844086  1
  S2-  S193  1  0.00086582  0.13055865  0.94925100  1
  S2-  S194  1  0.00802188  0.36603848  0.45683292  1
  S2-  S195  1  -0.00458110  0.37742494  0.96027680  1
  S2-  S196  1  0.00867938  0.61651255  0.44815342  1
  S2-  S197  1  0.00106484  0.62938387  0.94923312  1
  S2-  S198  1  0.00915221  0.86926807  0.46167215  1
  S2-  S199  1  0.00055989  0.88046825  0.95307300  1
  S2-  S200  1  0.25489340  0.11446014  0.44854285  1
  S2-  S201  1  0.25057649  0.12969944  0.94376496  1
  S2-  S202  1  0.25744815  0.36581724  0.44662107  1
  S2-  S203  1  0.25014926  0.37917600  0.95404921  1
  S2-  S204  1  0.25687268  0.62116398  0.44361817  1
  S2-  S205  1  0.24973589  0.63053801  0.94787127  1
  S2-  S206  1  0.25305835  0.86588937  0.45857472  1
  S2-  S207  1  0.25196296  0.88007186  0.94958281  1
  S2-  S208  1  0.50677417  0.11558792  0.45724165  1
  S2-  S209  1  0.50290673  0.13179476  0.95352294  1
  S2-  S210  1  0.50610770  0.36662555  0.45274502  1
  S2-  S211  1  0.50270096  0.38261070  0.95013225  1
  S2-  S212  1  0.50744586  0.61492932  0.44992578  1
  S2-  S213  1  0.50490820  0.62678259  0.95380969  1
  S2-  S214  1  0.50371391  0.86384656  0.46117463  1
  S2-  S215  1  0.50257072  0.88027113  0.95723550  1
  S2-  S216  1  0.76099789  0.11563217  0.45901482  1
  S2-  S217  1  0.75094544  0.13023738  0.95421543  1
  S2-  S218  1  0.76071435  0.36468397  0.45152227  1
  S2-  S219  1  0.75487340  0.38055309  0.94990752  1
  S2-  S220  1  0.75646086  0.61273114  0.45044953  1
  S2-  S221  1  0.75046778  0.62798755  0.95250976  1
  S2-  S222  1  0.75931543  0.86953613  0.46202739  1
  S2-  S223  1  0.74905979  0.88048553  0.95202643  1
  S2-  S224  1  0.12815632  0.00166557  0.04762787  1
  S2-  S225  1  0.13159366  -0.00790325  0.55639639  1
  S2-  S226  1  0.12443817  0.25282931  0.04161623  1
  S2-  S227  1  0.13277683  0.23877280  0.54751347  1
  S2-  S228  1  0.12725317  0.50685625  0.04083693  1
  S2-  S229  1  0.13280334  0.49394668  0.54338351  1
  S2-  S230  1  0.12773745  0.75671432  0.04144724  1
  S2-  S231  1  0.13324718  0.74216886  0.53626992  1
  S2-  S232  1  0.37582506  0.00962091  0.03916767  1
  S2-  S233  1  0.37949107  -0.00584261  0.54716494  1
  S2-  S234  1  0.37542065  0.26075928  0.04536682  1
  S2-  S235  1  0.37442459  0.24372641  0.54230127  1
  S2-  S236  1  0.37341085  0.50477771  0.04812973  1
  S2-  S237  1  0.38057771  0.49264155  0.54768419  1
  S2-  S238  1  0.37417818  0.75182851  0.04161622  1
  S2-  S239  1  0.37983997  0.74029491  0.54340939  1
  S2-  S240  1  0.62590178  0.00552156  0.05076615  1
  S2-  S241  1  0.62578243  -0.00850447  0.55792667  1
  S2-  S242  1  0.62678676  0.26247614  0.04551215  1
  S2-  S243  1  0.63577235  0.23874153  0.54804463  1
  S2-  S244  1  0.62675132  0.50259884  0.04812035  1
  S2-  S245  1  0.63142453  0.49378728  0.54510284  1
  S2-  S246  1  0.62437595  0.75514383  0.04881312  1
  S2-  S247  1  0.62777892  0.74074066  0.53716174  1
  S2-  S248  1  0.87528963  0.00423474  0.05176733  1
  S2-  S249  1  0.88781457  -0.01245166  0.55332352  1
  S2-  S250  1  0.87675856  0.25176362  0.04619406  1
  S2-  S251  1  0.88538141  0.24106446  0.54293295  1
  S2-  S252  1  0.87544724  0.50971919  0.04839454  1
  S2-  S253  1  0.88183914  0.49579459  0.54749755  1
  S2-  S254  1  0.87746598  0.75529002  0.04892930  1
  S2-  S255  1  0.88084580  0.73957184  0.53523466  1
