# generated using pymatgen
data_La12Ce14Pr13Nd13Sm12(BiS2)64
_symmetry_space_group_name_H-M   'P 1'
_cell_length_a   16.15339706
_cell_length_b   16.12083947
_cell_length_c   27.37146466
_cell_angle_alpha   90.01558842
_cell_angle_beta   89.81587319
_cell_angle_gamma   89.98865717
_symmetry_Int_Tables_number   1
_chemical_formula_structural   La12Ce14Pr13Nd13Sm12(BiS2)64
_chemical_formula_sum   'La12 Ce14 Pr13 Nd13 Sm12 Bi64 S128'
_cell_volume   7127.66519678
_cell_formula_units_Z   1
loop_
 _symmetry_equiv_pos_site_id
 _symmetry_equiv_pos_as_xyz
  1  'x, y, z'
loop_
 _atom_type_symbol
 _atom_type_oxidation_number
  La3+  3.0
  Ce3+  3.0
  Pr3+  3.0
  Nd3+  3.0
  Sm3+  3.0
  Bi2+  2.0
  S2-  -2.0
loop_
 _atom_site_type_symbol
 _atom_site_label
 _atom_site_symmetry_multiplicity
 _atom_site_fract_x
 _atom_site_fract_y
 _atom_site_fract_z
 _atom_site_occupancy
  La3+  La0  1  0.24702275  0.87069201  0.56281019  1
  La3+  La1  1  0.50457761  0.63231693  0.09227017  1
  La3+  La2  1  0.61847392  0.24354119  0.41269879  1
  La3+  La3  1  0.49523194  0.12894651  0.56332504  1
  La3+  La4  1  0.38612112  0.74782194  0.38214676  1
  La3+  La5  1  0.12447530  0.75405602  0.42600675  1
  La3+  La6  1  0.25151528  0.38070322  0.06226702  1
  La3+  La7  1  0.62187520  0.75976897  0.92889549  1
  La3+  La8  1  0.24918021  0.37792753  0.60570811  1
  La3+  La9  1  -0.00935670  0.13252004  0.11464902  1
  La3+  La10  1  0.37167421  0.52053316  0.89916893  1
  La3+  La11  1  0.87456279  0.00869606  0.43024005  1
  Ce3+  Ce12  1  0.74923038  0.63070876  0.05814989  1
  Ce3+  Ce13  1  0.12898989  0.25398996  0.44208968  1
  Ce3+  Ce14  1  0.87469363  0.75763793  0.41776383  1
  Ce3+  Ce15  1  0.49919504  0.87655963  0.06257974  1
  Ce3+  Ce16  1  0.74602252  0.37541927  0.54861142  1
  Ce3+  Ce17  1  0.87654095  0.75281568  0.94780559  1
  Ce3+  Ce18  1  0.37236738  0.00152653  0.94140078  1
  Ce3+  Ce19  1  0.74735628  0.12834353  0.55822531  1
  Ce3+  Ce20  1  0.74545043  0.88183580  0.05507729  1
  Ce3+  Ce21  1  0.49483727  0.37861882  0.55445949  1
  Ce3+  Ce22  1  0.87435356  0.50244522  0.94530450  1
  Ce3+  Ce23  1  0.74957807  0.37556087  0.06261477  1
  Ce3+  Ce24  1  0.62566576  0.75024510  0.43658559  1
  Ce3+  Ce25  1  0.37503148  0.25321039  0.43574889  1
  Pr3+  Pr26  1  0.12479799  0.75048240  0.94679950  1
  Pr3+  Pr27  1  0.24785938  0.88064921  0.06738685  1
  Pr3+  Pr28  1  0.12514133  0.25349871  0.94006914  1
  Pr3+  Pr29  1  -0.00170505  0.12757612  0.56401893  1
  Pr3+  Pr30  1  0.24621235  0.12886634  0.06501119  1
  Pr3+  Pr31  1  0.62083710  -0.00290224  0.43799610  1
  Pr3+  Pr32  1  0.62188902  0.50599044  0.94313884  1
  Pr3+  Pr33  1  0.12763555  0.50157398  0.43242743  1
  Pr3+  Pr34  1  0.37474125  0.25515924  0.93615261  1
  Pr3+  Pr35  1  0.87768782  0.25423871  0.42876889  1
  Pr3+  Pr36  1  0.75029777  0.87682936  0.55964468  1
  Pr3+  Pr37  1  0.74943666  0.62417201  0.56186569  1
  Pr3+  Pr38  1  0.24808201  0.12840395  0.55462191  1
  Nd3+  Nd39  1  -0.00207540  0.87108136  0.55971569  1
  Nd3+  Nd40  1  -0.00093901  0.37558631  0.06116317  1
  Nd3+  Nd41  1  0.49885823  0.87129220  0.55817332  1
  Nd3+  Nd42  1  0.12391519  0.00319424  0.94584840  1
  Nd3+  Nd43  1  0.87423417  0.49883541  0.43164171  1
  Nd3+  Nd44  1  0.87337187  0.00692933  0.93790146  1
  Nd3+  Nd45  1  0.62462355  0.50561975  0.43639663  1
  Nd3+  Nd46  1  -0.00027696  0.62327196  0.55030869  1
  Nd3+  Nd47  1  0.49636270  0.12881758  0.06998832  1
  Nd3+  Nd48  1  -0.00277890  0.62794636  0.06959832  1
  Nd3+  Nd49  1  0.61286918  0.01557309  0.92844085  1
  Nd3+  Nd50  1  0.24131626  0.62748714  0.07704149  1
  Nd3+  Nd51  1  0.49735062  0.38283340  0.05997466  1
  Sm3+  Sm52  1  0.87521966  0.25134802  0.94625600  1
  Sm3+  Sm53  1  0.12357129  0.50350162  0.94059543  1
  Sm3+  Sm54  1  0.37854772  0.50380117  0.43235631  1
  Sm3+  Sm55  1  0.12305833  0.00164618  0.44746937  1
  Sm3+  Sm56  1  0.74192087  0.12481686  0.06262939  1
  Sm3+  Sm57  1  -0.00023377  0.37735559  0.55873110  1
  Sm3+  Sm58  1  0.49486134  0.62550907  0.55460001  1
  Sm3+  Sm59  1  0.37213377  -0.00618828  0.44223424  1
  Sm3+  Sm60  1  0.62239610  0.25607908  0.94608078  1
  Sm3+  Sm61  1  0.24947341  0.62010021  0.55114408  1
  Sm3+  Sm62  1  0.37351022  0.74714669  0.95197790  1
  Sm3+  Sm63  1  -0.00375067  0.88640209  0.06241125  1
  Bi2+  Bi64  1  0.03611518  0.11665079  0.31173310  1
  Bi2+  Bi65  1  -0.01840349  0.13110729  0.81429403  1
  Bi2+  Bi66  1  0.03929177  0.40903187  0.29338991  1
  Bi2+  Bi67  1  -0.00454784  0.38497202  0.78471320  1
  Bi2+  Bi68  1  -0.04132891  0.61043042  0.28336150  1
  Bi2+  Bi69  1  -0.00684190  0.63826725  0.81433746  1
  Bi2+  Bi70  1  -0.00512693  0.87372733  0.28566076  1
  Bi2+  Bi71  1  0.08199504  0.86990930  0.78880924  1
  Bi2+  Bi72  1  0.28311494  0.12827247  0.29423628  1
  Bi2+  Bi73  1  0.22331250  0.09164210  0.74501805  1
  Bi2+  Bi74  1  0.34484637  0.32863319  0.29850153  1
  Bi2+  Bi75  1  0.23725287  0.36606780  0.81210489  1
  Bi2+  Bi76  1  0.25277718  0.62857461  0.27583071  1
  Bi2+  Bi77  1  0.19832956  0.67423182  0.75346373  1
  Bi2+  Bi78  1  0.25100151  0.91480346  0.29907026  1
  Bi2+  Bi79  1  0.26333479  0.93927887  0.81760964  1
  Bi2+  Bi80  1  0.46438861  0.07546082  0.25757019  1
  Bi2+  Bi81  1  0.46388049  0.14516732  0.79388297  1
  Bi2+  Bi82  1  0.53759380  0.35805728  0.28394854  1
  Bi2+  Bi83  1  0.52818721  0.37085307  0.78950052  1
  Bi2+  Bi84  1  0.50337537  0.60622519  0.27811485  1
  Bi2+  Bi85  1  0.51835547  0.65004726  0.79379818  1
  Bi2+  Bi86  1  0.58526736  0.90483001  0.30915709  1
  Bi2+  Bi87  1  0.51889570  0.90226687  0.78624620  1
  Bi2+  Bi88  1  0.73248032  0.14641613  0.28540223  1
  Bi2+  Bi89  1  0.67807522  0.12703278  0.77679276  1
  Bi2+  Bi90  1  0.79917776  0.41932090  0.27814841  1
  Bi2+  Bi91  1  0.71362807  0.42530785  0.81347433  1
  Bi2+  Bi92  1  0.77579979  0.60463939  0.33487538  1
  Bi2+  Bi93  1  0.78487472  0.57354981  0.75134662  1
  Bi2+  Bi94  1  0.74538417  0.79598240  0.30631897  1
  Bi2+  Bi95  1  0.74640318  0.83141533  0.78773083  1
  Bi2+  Bi96  1  0.20714405  0.00577083  0.20719810  1
  Bi2+  Bi97  1  0.06648731  0.00502045  0.69745883  1
  Bi2+  Bi98  1  0.20668688  0.26734141  0.22518100  1
  Bi2+  Bi99  1  0.10088987  0.24955248  0.70798389  1
  Bi2+  Bi100  1  0.02616830  0.47107115  0.18839723  1
  Bi2+  Bi101  1  0.06327129  0.54246826  0.72044371  1
  Bi2+  Bi102  1  0.08568718  0.73572432  0.22019941  1
  Bi2+  Bi103  1  0.09954386  0.78305497  0.67984807  1
  Bi2+  Bi104  1  0.39237011  -0.02216484  0.16373159  1
  Bi2+  Bi105  1  0.36321737  -0.03660797  0.71597581  1
  Bi2+  Bi106  1  0.36673320  0.17564256  0.17693461  1
  Bi2+  Bi107  1  0.38080082  0.24799662  0.70633611  1
  Bi2+  Bi108  1  0.36943753  0.45193327  0.19513766  1
  Bi2+  Bi109  1  0.38187796  0.52605791  0.70130590  1
  Bi2+  Bi110  1  0.33572818  0.78584837  0.18575791  1
  Bi2+  Bi111  1  0.36584428  0.77715379  0.76828330  1
  Bi2+  Bi112  1  0.63298390  -0.00206148  0.21465342  1
  Bi2+  Bi113  1  0.61229442  0.00752315  0.68827344  1
  Bi2+  Bi114  1  0.60782750  0.25095504  0.20428003  1
  Bi2+  Bi115  1  0.64259528  0.28789979  0.70935902  1
  Bi2+  Bi116  1  0.69456292  0.56271920  0.23276107  1
  Bi2+  Bi117  1  0.62250107  0.48795265  0.71240284  1
  Bi2+  Bi118  1  0.64107009  0.78110374  0.20965345  1
  Bi2+  Bi119  1  0.61126912  0.75052959  0.68436396  1
  Bi2+  Bi120  1  0.86303584  0.00282986  0.21223713  1
  Bi2+  Bi121  1  0.81436714  0.00914958  0.74344333  1
  Bi2+  Bi122  1  0.85424968  0.27483495  0.20859773  1
  Bi2+  Bi123  1  0.82666564  0.29025485  0.75392597  1
  Bi2+  Bi124  1  0.86822248  0.57893616  0.17536826  1
  Bi2+  Bi125  1  0.89254958  0.44631016  0.69089499  1
  Bi2+  Bi126  1  0.89264730  0.76381139  0.21020452  1
  Bi2+  Bi127  1  0.92273477  0.77682741  0.74615688  1
  S2-  S128  1  -0.02336675  0.13326849  0.22623547  1
  S2-  S129  1  -0.00756109  0.15641900  0.66366562  1
  S2-  S130  1  -0.01510486  0.30533320  0.15208883  1
  S2-  S131  1  0.08227837  0.37727755  0.64394660  1
  S2-  S132  1  0.10616638  0.61607925  0.14665052  1
  S2-  S133  1  -0.00350431  0.64447200  0.64909527  1
  S2-  S134  1  -0.02096630  0.96358475  0.14914817  1
  S2-  S135  1  -0.04875148  0.91732664  0.65173985  1
  S2-  S136  1  0.15486654  0.14185426  0.15140683  1
  S2-  S137  1  0.25688034  0.17167453  0.65099310  1
  S2-  S138  1  0.20958155  0.39469201  0.15988795  1
  S2-  S139  1  0.24954415  0.35258427  0.71265831  1
  S2-  S140  1  0.30981080  0.61561585  0.17172388  1
  S2-  S141  1  0.25744043  0.54687056  0.64140906  1
  S2-  S142  1  0.17453266  0.84802060  0.15814716  1
  S2-  S143  1  0.22642100  0.90345385  0.66083320  1
  S2-  S144  1  0.61979540  0.12100070  0.13964191  1
  S2-  S145  1  0.49708531  0.13194383  0.66348093  1
  S2-  S146  1  0.46610394  0.32079174  0.15195552  1
  S2-  S147  1  0.42126705  0.38321059  0.64411154  1
  S2-  S148  1  0.50353750  0.53364022  0.18065104  1
  S2-  S149  1  0.48694131  0.62771340  0.65391512  1
  S2-  S150  1  0.50362751  0.78367672  0.14803071  1
  S2-  S151  1  0.49322561  0.87960894  0.65709988  1
  S2-  S152  1  0.82434627  0.13312304  0.14970617  1
  S2-  S153  1  0.75326935  0.09163806  0.65326596  1
  S2-  S154  1  0.72137915  0.36076783  0.15879317  1
  S2-  S155  1  0.73665446  0.40349750  0.64462743  1
  S2-  S156  1  0.66798565  0.64939161  0.14300480  1
  S2-  S157  1  0.73592360  0.65400209  0.66060921  1
  S2-  S158  1  0.74199410  0.89959361  0.15307118  1
  S2-  S159  1  0.71321722  0.86835755  0.65826460  1
  S2-  S160  1  0.10289482  -0.03294651  0.35242057  1
  S2-  S161  1  0.10958437  0.02494128  0.84751177  1
  S2-  S162  1  0.09190065  0.26271877  0.34667488  1
  S2-  S163  1  0.09618539  0.26451557  0.84055953  1
  S2-  S164  1  0.14474100  0.52209561  0.33163572  1
  S2-  S165  1  0.20566048  0.50869126  0.85545983  1
  S2-  S166  1  0.22335497  0.75449237  0.34134182  1
  S2-  S167  1  0.13567242  0.73223591  0.84730037  1
  S2-  S168  1  0.38712867  -0.07804513  0.35280561  1
  S2-  S169  1  0.46793352  0.01062778  0.86023643  1
  S2-  S170  1  0.47018738  0.24434147  0.35401469  1
  S2-  S171  1  0.33914001  0.22287076  0.83895369  1
  S2-  S172  1  0.36879487  0.57891077  0.34293088  1
  S2-  S173  1  0.37450572  0.45531951  0.79951118  1
  S2-  S174  1  0.39136174  0.73964427  0.27063397  1
  S2-  S175  1  0.37935826  0.68476074  0.85981847  1
  S2-  S176  1  0.63233692  0.08823977  0.35248821  1
  S2-  S177  1  0.64817580  -0.09419965  0.85259902  1
  S2-  S178  1  0.69874416  0.29871829  0.32770430  1
  S2-  S179  1  0.60164433  0.17542500  0.86172641  1
  S2-  S180  1  0.56156863  0.49168260  0.34351172  1
  S2-  S181  1  0.53835327  0.51750319  0.85524376  1
  S2-  S182  1  0.55448597  0.73629876  0.34677082  1
  S2-  S183  1  0.65573121  0.69997867  0.83376869  1
  S2-  S184  1  0.86317956  -0.10209731  0.35218935  1
  S2-  S185  1  0.88244863  0.00433384  0.83612198  1
  S2-  S186  1  0.88030378  0.13210436  0.35434660  1
  S2-  S187  1  0.86228989  0.22396847  0.84965475  1
  S2-  S188  1  0.90001995  0.38174124  0.35665457  1
  S2-  S189  1  0.93406792  0.49178282  0.85428497  1
  S2-  S190  1  1.00360597  0.74199204  0.35053423  1
  S2-  S191  1  0.87868199  0.76466457  0.85085043  1
  S2-  S192  1  0.00503135  0.13025910  0.45740739  1
  S2-  S193  1  -0.00106463  0.12923958  0.95010062  1
  S2-  S194  1  0.00393172  0.37700173  0.45660492  1
  S2-  S195  1  -0.00121244  0.37625501  0.95542862  1
  S2-  S196  1  -0.00347818  0.62180151  0.44618766  1
  S2-  S197  1  -0.00004537  0.62574433  0.96199414  1
  S2-  S198  1  -0.00129364  0.87869647  0.45558200  1
  S2-  S199  1  -0.00100558  0.88017409  0.95496342  1
  S2-  S200  1  0.25123593  0.12187867  0.44768136  1
  S2-  S201  1  0.24886344  0.12765705  0.95477946  1
  S2-  S202  1  0.25483812  0.37932630  0.43566531  1
  S2-  S203  1  0.25197064  0.38239984  0.95361536  1
  S2-  S204  1  0.25281608  0.62620121  0.44886536  1
  S2-  S205  1  0.24804822  0.62493009  0.96440502  1
  S2-  S206  1  0.24578793  0.87933159  0.45597811  1
  S2-  S207  1  0.24964671  0.87516830  0.95881093  1
  S2-  S208  1  0.49293956  0.11998988  0.45587709  1
  S2-  S209  1  0.49478667  0.13337023  0.96441091  1
  S2-  S210  1  0.50093198  0.37825149  0.45049208  1
  S2-  S211  1  0.49717991  0.37921365  0.95301372  1
  S2-  S212  1  0.49684740  0.62850990  0.45088917  1
  S2-  S213  1  0.49818015  0.62997665  0.96076544  1
  S2-  S214  1  0.49578056  0.87075487  0.45409605  1
  S2-  S215  1  0.49303871  0.87521778  0.95624524  1
  S2-  S216  1  0.74492395  0.13190441  0.45457478  1
  S2-  S217  1  0.74684989  0.13031418  0.95541296  1
  S2-  S218  1  0.74366898  0.37552028  0.44571932  1
  S2-  S219  1  0.74944430  0.37548946  0.95503557  1
  S2-  S220  1  0.75239530  0.62778586  0.45479547  1
  S2-  S221  1  0.75051965  0.62853450  0.95106173  1
  S2-  S222  1  0.74692250  0.87535378  0.45329126  1
  S2-  S223  1  0.75315357  0.88043107  0.95195083  1
  S2-  S224  1  0.12145242  0.00423546  0.04990888  1
  S2-  S225  1  0.12154133  0.00097851  0.55135186  1
  S2-  S226  1  0.12339906  0.25507870  0.04610323  1
  S2-  S227  1  0.12578543  0.25480151  0.54680259  1
  S2-  S228  1  0.12093010  0.50121070  0.04498183  1
  S2-  S229  1  0.12473361  0.49913906  0.53984414  1
  S2-  S230  1  0.11759262  0.75715778  0.05086547  1
  S2-  S231  1  0.12403207  0.74593554  0.53911969  1
  S2-  S232  1  0.37333949  0.00436618  0.04486539  1
  S2-  S233  1  0.37276808  -0.00141802  0.54937866  1
  S2-  S234  1  0.37322974  0.25256473  0.04330833  1
  S2-  S235  1  0.36806899  0.25676005  0.54244808  1
  S2-  S236  1  0.37633578  0.50789027  0.06207693  1
  S2-  S237  1  0.37388925  0.50216251  0.53658040  1
  S2-  S238  1  0.36894268  0.74979273  0.05458316  1
  S2-  S239  1  0.37165259  0.74613013  0.55608702  1
  S2-  S240  1  0.61930312  0.00210795  0.03838316  1
  S2-  S241  1  0.62138163  0.00005052  0.54503630  1
  S2-  S242  1  0.62136880  0.25549684  0.04705567  1
  S2-  S243  1  0.62107213  0.25222518  0.54918519  1
  S2-  S244  1  0.62497683  0.50222628  0.05008499  1
  S2-  S245  1  0.62092449  0.50357634  0.54376866  1
  S2-  S246  1  0.62509732  0.75645232  0.03911592  1
  S2-  S247  1  0.62299978  0.74775825  0.54434585  1
  S2-  S248  1  0.87017430  0.00589551  0.04269382  1
  S2-  S249  1  0.87337173  0.00379025  0.54150148  1
  S2-  S250  1  0.87168572  0.24951183  0.04834237  1
  S2-  S251  1  0.87508658  0.25417188  0.54493235  1
  S2-  S252  1  0.87348953  0.50093583  0.04997948  1
  S2-  S253  1  0.87451271  0.49891513  0.54011047  1
  S2-  S254  1  0.87538453  0.75747956  0.05428422  1
  S2-  S255  1  0.87370698  0.74956407  0.54468004  1
