# generated using pymatgen
data_La12Ce14Pr13Nd13Sm12(BiS2)64
_symmetry_space_group_name_H-M   'P 1'
_cell_length_a   16.11007678
_cell_length_b   16.16531260
_cell_length_c   27.23351327
_cell_angle_alpha   90.02120596
_cell_angle_beta   90.08074254
_cell_angle_gamma   89.81888239
_symmetry_Int_Tables_number   1
_chemical_formula_structural   La12Ce14Pr13Nd13Sm12(BiS2)64
_chemical_formula_sum   'La12 Ce14 Pr13 Nd13 Sm12 Bi64 S128'
_cell_volume   7092.22914186
_cell_formula_units_Z   1
loop_
 _symmetry_equiv_pos_site_id
 _symmetry_equiv_pos_as_xyz
  1  'x, y, z'
loop_
 _atom_type_symbol
 _atom_type_oxidation_number
  La3+  3.0
  Ce3+  3.0
  Pr3+  3.0
  Nd3+  3.0
  Sm3+  3.0
  Bi2+  2.0
  S2-  -2.0
loop_
 _atom_site_type_symbol
 _atom_site_label
 _atom_site_symmetry_multiplicity
 _atom_site_fract_x
 _atom_site_fract_y
 _atom_site_fract_z
 _atom_site_occupancy
  La3+  La0  1  0.24684203  0.11065102  0.09014700  1
  La3+  La1  1  0.14567582  0.01361569  0.41015063  1
  La3+  La2  1  0.13557471  0.50878011  0.42572550  1
  La3+  La3  1  -0.01744758  0.10810442  0.08781584  1
  La3+  La4  1  0.49720656  0.62117203  0.07913376  1
  La3+  La5  1  0.02464092  0.64311134  0.57607357  1
  La3+  La6  1  0.14824832  0.75485124  0.42309375  1
  La3+  La7  1  0.02889990  0.38432893  0.57255659  1
  La3+  La8  1  0.73525036  0.86257419  0.06057905  1
  La3+  La9  1  0.90019315  0.76159226  0.42815515  1
  La3+  La10  1  0.73452257  0.36620584  0.07007635  1
  La3+  La11  1  0.13146222  0.26096521  0.42215911  1
  Ce3+  Ce12  1  0.61269709  -0.00993657  0.93815254  1
  Ce3+  Ce13  1  0.39252470  0.01458417  0.43151535  1
  Ce3+  Ce14  1  0.26193495  0.13459978  0.55803605  1
  Ce3+  Ce15  1  0.40254849  0.50800627  0.42503340  1
  Ce3+  Ce16  1  0.10789730  0.73985003  0.93398000  1
  Ce3+  Ce17  1  0.73395052  0.61273333  0.04513004  1
  Ce3+  Ce18  1  0.86455551  0.23926148  0.94746782  1
  Ce3+  Ce19  1  0.51522188  0.88526507  0.55234720  1
  Ce3+  Ce20  1  0.89584321  0.51033644  0.45183652  1
  Ce3+  Ce21  1  0.26420725  0.38779374  0.54869756  1
  Ce3+  Ce22  1  0.76958060  0.88347537  0.55877091  1
  Ce3+  Ce23  1  0.77071087  0.63697865  0.56208990  1
  Ce3+  Ce24  1  0.23621163  0.36729230  0.07533054  1
  Ce3+  Ce25  1  0.02703406  0.12680148  0.56653510  1
  Pr3+  Pr26  1  0.60931671  0.23801370  0.93930647  1
  Pr3+  Pr27  1  0.85765209  0.74672555  0.91334896  1
  Pr3+  Pr28  1  0.23275438  0.85910245  0.06685935  1
  Pr3+  Pr29  1  0.35992891  0.73796265  0.94243325  1
  Pr3+  Pr30  1  0.85207825  0.47889676  0.91778585  1
  Pr3+  Pr31  1  0.26925191  0.63922166  0.55725640  1
  Pr3+  Pr32  1  -0.01841494  0.61476539  0.04858313  1
  Pr3+  Pr33  1  0.51550185  0.13441208  0.56054662  1
  Pr3+  Pr34  1  0.60733248  0.73735903  0.92653566  1
  Pr3+  Pr35  1  0.73697426  0.11208047  0.06286599  1
  Pr3+  Pr36  1  -0.02184671  0.85210887  0.07364377  1
  Pr3+  Pr37  1  0.77066270  0.38341191  0.57114469  1
  Pr3+  Pr38  1  0.64545178  0.50773613  0.43948633  1
  Nd3+  Nd39  1  0.48863549  0.11286566  0.06452636  1
  Nd3+  Nd40  1  0.60176832  0.48505996  0.93306216  1
  Nd3+  Nd41  1  0.23524503  0.61335626  0.05742120  1
  Nd3+  Nd42  1  0.64586296  0.25878489  0.44497178  1
  Nd3+  Nd43  1  0.35558849  0.23697784  0.94926070  1
  Nd3+  Nd44  1  0.39113463  0.25805783  0.44267444  1
  Nd3+  Nd45  1  0.02055871  0.88611484  0.55890053  1
  Nd3+  Nd46  1  -0.01408977  0.36878497  0.07231152  1
  Nd3+  Nd47  1  0.39422799  0.76076950  0.42608592  1
  Nd3+  Nd48  1  0.64687642  0.76223453  0.44055832  1
  Nd3+  Nd49  1  0.87319671  -0.00820116  0.93698704  1
  Nd3+  Nd50  1  0.51699918  0.63464519  0.55278139  1
  Nd3+  Nd51  1  0.10817681  0.48272074  0.93444605  1
  Sm3+  Sm52  1  0.48754189  0.86159838  0.05487544  1
  Sm3+  Sm53  1  0.36213009  0.48669036  0.94596482  1
  Sm3+  Sm54  1  0.89532536  0.25743362  0.45232534  1
  Sm3+  Sm55  1  0.26830593  0.88624660  0.54911995  1
  Sm3+  Sm56  1  0.64447447  0.01130768  0.44287285  1
  Sm3+  Sm57  1  0.76785484  0.13436331  0.55991087  1
  Sm3+  Sm58  1  0.89611649  0.01066717  0.44098865  1
  Sm3+  Sm59  1  0.10929736  -0.00926027  0.95560538  1
  Sm3+  Sm60  1  0.11234113  0.23859667  0.96223754  1
  Sm3+  Sm61  1  0.47914766  0.36896681  0.07708495  1
  Sm3+  Sm62  1  0.51691836  0.38581987  0.55734703  1
  Sm3+  Sm63  1  0.35751512  -0.00997644  0.94849446  1
  Bi2+  Bi64  1  -0.01016117  0.12251882  0.29918858  1
  Bi2+  Bi65  1  -0.07791697  0.11519553  0.82408951  1
  Bi2+  Bi66  1  -0.02234880  0.38251438  0.28695792  1
  Bi2+  Bi67  1  0.00904786  0.37491530  0.81100112  1
  Bi2+  Bi68  1  0.00242354  0.63036642  0.29361315  1
  Bi2+  Bi69  1  0.05514851  0.62712172  0.79761419  1
  Bi2+  Bi70  1  -0.06856389  0.87644080  0.29393578  1
  Bi2+  Bi71  1  0.00229191  0.87385853  0.80286153  1
  Bi2+  Bi72  1  0.29305981  0.14443599  0.28816938  1
  Bi2+  Bi73  1  0.23270583  0.16347436  0.81448423  1
  Bi2+  Bi74  1  0.17199271  0.39693196  0.30491970  1
  Bi2+  Bi75  1  0.23698133  0.40519848  0.77137850  1
  Bi2+  Bi76  1  0.27254303  0.64298991  0.28240053  1
  Bi2+  Bi77  1  0.31235765  0.65453364  0.76726613  1
  Bi2+  Bi78  1  0.29567136  0.88859689  0.26969604  1
  Bi2+  Bi79  1  0.26504495  0.92282462  0.73339551  1
  Bi2+  Bi80  1  0.49726722  0.09490969  0.30099231  1
  Bi2+  Bi81  1  0.42742366  0.13280358  0.79293860  1
  Bi2+  Bi82  1  0.55583030  0.36147725  0.28388815  1
  Bi2+  Bi83  1  0.43665394  0.39105899  0.78094059  1
  Bi2+  Bi84  1  0.56060719  0.61407602  0.28353904  1
  Bi2+  Bi85  1  0.49080193  0.64618522  0.81957782  1
  Bi2+  Bi86  1  0.47262177  0.81784312  0.30074272  1
  Bi2+  Bi87  1  0.43114926  0.90457489  0.79971957  1
  Bi2+  Bi88  1  0.73799125  0.13406331  0.28619136  1
  Bi2+  Bi89  1  0.72750520  0.13539330  0.80247481  1
  Bi2+  Bi90  1  0.75156080  0.38667095  0.30170695  1
  Bi2+  Bi91  1  0.73719823  0.35470011  0.79176839  1
  Bi2+  Bi92  1  0.77958997  0.58033648  0.28368812  1
  Bi2+  Bi93  1  0.68472541  0.61318862  0.77699065  1
  Bi2+  Bi94  1  0.66626421  0.88102547  0.27484394  1
  Bi2+  Bi95  1  0.74041176  0.93667357  0.77641714  1
  Bi2+  Bi96  1  0.12732288  0.01309241  0.21490943  1
  Bi2+  Bi97  1  0.11797218  0.04213650  0.71314489  1
  Bi2+  Bi98  1  0.11717494  0.27825479  0.22251251  1
  Bi2+  Bi99  1  0.04993485  0.21433493  0.75258314  1
  Bi2+  Bi100  1  0.17659380  0.51672120  0.21181083  1
  Bi2+  Bi101  1  0.10135925  0.48525655  0.69718629  1
  Bi2+  Bi102  1  0.11210601  0.77522538  0.19367876  1
  Bi2+  Bi103  1  0.14524107  0.74994712  0.70501047  1
  Bi2+  Bi104  1  0.45614930  -0.03143823  0.21764393  1
  Bi2+  Bi105  1  0.35568510  0.06452988  0.67507810  1
  Bi2+  Bi106  1  0.47382878  0.22220344  0.21275896  1
  Bi2+  Bi107  1  0.31435064  0.23997671  0.71888445  1
  Bi2+  Bi108  1  0.36464573  0.43987346  0.23244149  1
  Bi2+  Bi109  1  0.35213458  0.50797282  0.69826930  1
  Bi2+  Bi110  1  0.42028265  0.68534386  0.21423017  1
  Bi2+  Bi111  1  0.41694730  0.77389658  0.69470559  1
  Bi2+  Bi112  1  0.62376888  -0.00962137  0.15754077  1
  Bi2+  Bi113  1  0.53151486  0.00994607  0.72017533  1
  Bi2+  Bi114  1  0.65734084  0.18625359  0.18364938  1
  Bi2+  Bi115  1  0.62649459  0.26586521  0.69645440  1
  Bi2+  Bi116  1  0.64871374  0.48679174  0.21094085  1
  Bi2+  Bi117  1  0.54878345  0.51678575  0.71820528  1
  Bi2+  Bi118  1  0.65711591  0.76433464  0.18647439  1
  Bi2+  Bi119  1  0.59873725  0.79309008  0.77398262  1
  Bi2+  Bi120  1  0.79906944  -0.01555552  0.21425728  1
  Bi2+  Bi121  1  0.89509610  -0.00802114  0.71584217  1
  Bi2+  Bi122  1  0.82747888  0.27010385  0.21943591  1
  Bi2+  Bi123  1  0.86334226  0.19078714  0.71876013  1
  Bi2+  Bi124  1  0.92286439  0.52263630  0.20610935  1
  Bi2+  Bi125  1  0.86254252  0.48832378  0.71668375  1
  Bi2+  Bi126  1  0.84984510  0.70762951  0.20431615  1
  Bi2+  Bi127  1  0.87001011  0.74349004  0.69904652  1
  S2-  S128  1  0.02257675  0.14270503  0.19086070  1
  S2-  S129  1  0.00756803  0.00145525  0.63772504  1
  S2-  S130  1  0.11017728  0.39247551  0.14523046  1
  S2-  S131  1  -0.03852601  0.38719176  0.66938383  1
  S2-  S132  1  0.00020164  0.70326001  0.13697816  1
  S2-  S133  1  -0.04356358  0.59771914  0.67305022  1
  S2-  S134  1  0.02492839  0.92032046  0.16677487  1
  S2-  S135  1  0.01910808  0.78645167  0.64476198  1
  S2-  S136  1  0.22371922  0.15434046  0.18904842  1
  S2-  S137  1  0.15325680  0.15249829  0.63459017  1
  S2-  S138  1  0.35392835  0.34863541  0.14985791  1
  S2-  S139  1  0.17694981  0.38544429  0.63388770  1
  S2-  S140  1  0.22027210  0.65893833  0.15366603  1
  S2-  S141  1  0.16918323  0.62372736  0.64145078  1
  S2-  S142  1  0.24192846  0.89075913  0.16671702  1
  S2-  S143  1  0.26686331  0.82184171  0.64106391  1
  S2-  S144  1  0.40385414  0.10037732  0.15110509  1
  S2-  S145  1  0.51882302  0.15763655  0.66015812  1
  S2-  S146  1  0.60965227  0.36550141  0.14333988  1
  S2-  S147  1  0.51738200  0.37509972  0.65470690  1
  S2-  S148  1  0.44826248  0.53374437  0.16471174  1
  S2-  S149  1  0.49375379  0.64340902  0.65090778  1
  S2-  S150  1  0.49843228  0.77437747  0.13950722  1
  S2-  S151  1  0.52839547  0.88335984  0.64979409  1
  S2-  S152  1  0.83706466  0.10211295  0.14634744  1
  S2-  S153  1  0.73477247  0.14576882  0.65614260  1
  S2-  S154  1  0.86230500  0.38343044  0.14583104  1
  S2-  S155  1  0.73744766  0.39320637  0.67018456  1
  S2-  S156  1  0.66392129  0.61711167  0.13512887  1
  S2-  S157  1  0.75213840  0.65429337  0.66023419  1
  S2-  S158  1  0.83369151  0.84530228  0.14430442  1
  S2-  S159  1  0.79224459  0.88003419  0.65630590  1
  S2-  S160  1  0.07718007  -0.02564383  0.31499360  1
  S2-  S161  1  0.04742656  0.00553629  0.86347901  1
  S2-  S162  1  0.14712080  0.15676053  0.34179085  1
  S2-  S163  1  0.12367447  0.26620440  0.86513470  1
  S2-  S164  1  0.14496206  0.61850056  0.34765911  1
  S2-  S165  1  0.16997657  0.51074329  0.84203937  1
  S2-  S166  1  0.02476190  0.77499335  0.35008437  1
  S2-  S167  1  0.12680904  0.77113573  0.83751408  1
  S2-  S168  1  0.29880385  0.00633462  0.34795152  1
  S2-  S169  1  0.32322402  0.01914309  0.85390469  1
  S2-  S170  1  0.39772148  0.23491526  0.34388337  1
  S2-  S171  1  0.37663430  0.26690271  0.85214375  1
  S2-  S172  1  0.34307100  0.51156697  0.33197113  1
  S2-  S173  1  0.46420053  0.48732552  0.86533366  1
  S2-  S174  1  0.27883063  0.77806916  0.34839372  1
  S2-  S175  1  0.35151397  0.76561132  0.84337250  1
  S2-  S176  1  0.63515498  0.01621222  0.34430458  1
  S2-  S177  1  0.62339876  0.01105976  0.84211194  1
  S2-  S178  1  0.65446133  0.25517455  0.34592977  1
  S2-  S179  1  0.62044230  0.26440849  0.83875165  1
  S2-  S180  1  0.54519417  0.49450388  0.35666448  1
  S2-  S181  1  0.70595316  0.48144898  0.84970518  1
  S2-  S182  1  0.61692193  0.74940085  0.34307574  1
  S2-  S183  1  0.71702942  0.73174393  0.84730230  1
  S2-  S184  1  0.87227685  0.02595494  0.34311464  1
  S2-  S185  1  0.85447119  -0.10191701  0.85363811  1
  S2-  S186  1  0.96134304  0.25541355  0.36124246  1
  S2-  S187  1  0.86639732  0.32476547  0.86128631  1
  S2-  S188  1  0.96945301  0.50759823  0.36370155  1
  S2-  S189  1  0.92983399  0.51414676  0.82462191  1
  S2-  S190  1  0.82684630  0.77891259  0.33494540  1
  S2-  S191  1  0.92495804  0.72149445  0.81273163  1
  S2-  S192  1  0.01695564  0.12974114  0.45764414  1
  S2-  S193  1  -0.00974029  0.11759039  0.97191091  1
  S2-  S194  1  0.01440535  0.38269255  0.46300628  1
  S2-  S195  1  -0.01053359  0.36278237  0.96420761  1
  S2-  S196  1  0.01693268  0.63647538  0.46117942  1
  S2-  S197  1  -0.01626418  0.61213465  0.94175677  1
  S2-  S198  1  0.02161716  0.89308499  0.45094589  1
  S2-  S199  1  -0.01098999  0.86315321  0.95963019  1
  S2-  S200  1  0.26686687  0.13643706  0.45149738  1
  S2-  S201  1  0.23410207  0.11168291  0.97074587  1
  S2-  S202  1  0.26839625  0.38446340  0.44288233  1
  S2-  S203  1  0.23682247  0.36597658  0.96376321  1
  S2-  S204  1  0.27863786  0.63083062  0.44992090  1
  S2-  S205  1  0.23699728  0.61117923  0.95041768  1
  S2-  S206  1  0.27040222  0.88841085  0.44788292  1
  S2-  S207  1  0.23415926  0.86710602  0.95688795  1
  S2-  S208  1  0.52066363  0.13555946  0.45320638  1
  S2-  S209  1  0.48215571  0.11212435  0.95538799  1
  S2-  S210  1  0.51958820  0.37880009  0.45403269  1
  S2-  S211  1  0.48143559  0.35881045  0.96501153  1
  S2-  S212  1  0.52060173  0.63903529  0.44777567  1
  S2-  S213  1  0.48352840  0.61553430  0.96160219  1
  S2-  S214  1  0.51931312  0.88772998  0.44536701  1
  S2-  S215  1  0.48371355  0.86684087  0.94940353  1
  S2-  S216  1  0.76976413  0.13406914  0.45383339  1
  S2-  S217  1  0.73955951  0.11317520  0.95380713  1
  S2-  S218  1  0.77094152  0.38198049  0.46019946  1
  S2-  S219  1  0.73133793  0.36049816  0.95953782  1
  S2-  S220  1  0.76810385  0.63469454  0.45194170  1
  S2-  S221  1  0.73410531  0.61052190  0.94372001  1
  S2-  S222  1  0.76798585  0.88946507  0.45032888  1
  S2-  S223  1  0.73350364  0.86679057  0.95142139  1
  S2-  S224  1  0.11337414  -0.01018139  0.05945650  1
  S2-  S225  1  0.14793126  0.00609971  0.53756885  1
  S2-  S226  1  0.11288830  0.23334894  0.06517098  1
  S2-  S227  1  0.14479450  0.25988927  0.53114637  1
  S2-  S228  1  0.10975731  0.49412233  0.04192053  1
  S2-  S229  1  0.14473865  0.51455597  0.53473511  1
  S2-  S230  1  0.11230162  0.73824971  0.03890872  1
  S2-  S231  1  0.14740888  0.76393570  0.53418923  1
  S2-  S232  1  0.36264401  -0.01876654  0.05247346  1
  S2-  S233  1  0.39185560  0.01007440  0.53973646  1
  S2-  S234  1  0.36269224  0.23737711  0.05292918  1
  S2-  S235  1  0.39090673  0.26210470  0.54983809  1
  S2-  S236  1  0.36145351  0.49264050  0.04900668  1
  S2-  S237  1  0.39431134  0.50887089  0.54038358  1
  S2-  S238  1  0.36029443  0.73860610  0.04831418  1
  S2-  S239  1  0.39418989  0.76141065  0.53461704  1
  S2-  S240  1  0.60860076  -0.01235360  0.04205149  1
  S2-  S241  1  0.64368074  0.01114530  0.54842826  1
  S2-  S242  1  0.60836443  0.23505950  0.04621706  1
  S2-  S243  1  0.64293858  0.26076186  0.55028954  1
  S2-  S244  1  0.60567850  0.48819559  0.04022046  1
  S2-  S245  1  0.64290786  0.50841703  0.54852141  1
  S2-  S246  1  0.61209722  0.74233535  0.03286055  1
  S2-  S247  1  0.64181758  0.75957532  0.54687891  1
  S2-  S248  1  0.86381235  -0.01507745  0.04361128  1
  S2-  S249  1  0.88702391  0.01129557  0.54438824  1
  S2-  S250  1  0.86340920  0.23980255  0.05157780  1
  S2-  S251  1  0.89537300  0.25450047  0.55733241  1
  S2-  S252  1  0.85943740  0.49038052  0.03674274  1
  S2-  S253  1  0.89395932  0.50981924  0.55628252  1
  S2-  S254  1  0.85615191  0.73577501  0.03068526  1
  S2-  S255  1  0.89126848  0.76122787  0.54081181  1
