# generated using pymatgen
data_La12Ce14Pr13Nd13Sm12(BiS2)64
_symmetry_space_group_name_H-M   'P 1'
_cell_length_a   16.16873425
_cell_length_b   16.17813448
_cell_length_c   27.24982399
_cell_angle_alpha   89.91565001
_cell_angle_beta   90.03555498
_cell_angle_gamma   90.01751087
_symmetry_Int_Tables_number   1
_chemical_formula_structural   La12Ce14Pr13Nd13Sm12(BiS2)64
_chemical_formula_sum   'La12 Ce14 Pr13 Nd13 Sm12 Bi64 S128'
_cell_volume   7127.99836398
_cell_formula_units_Z   1
loop_
 _symmetry_equiv_pos_site_id
 _symmetry_equiv_pos_as_xyz
  1  'x, y, z'
loop_
 _atom_type_symbol
 _atom_type_oxidation_number
  La3+  3.0
  Ce3+  3.0
  Pr3+  3.0
  Nd3+  3.0
  Sm3+  3.0
  Bi2+  2.0
  S2-  -2.0
loop_
 _atom_site_type_symbol
 _atom_site_label
 _atom_site_symmetry_multiplicity
 _atom_site_fract_x
 _atom_site_fract_y
 _atom_site_fract_z
 _atom_site_occupancy
  La3+  La0  1  0.11715975  0.73261942  0.43719221  1
  La3+  La1  1  0.12540192  0.48218978  0.43118270  1
  La3+  La2  1  -0.00392398  0.60510020  0.56914443  1
  La3+  La3  1  0.50381508  0.10776804  0.58472979  1
  La3+  La4  1  0.50278085  0.36624801  0.59796459  1
  La3+  La5  1  0.51048138  0.13674752  0.07578105  1
  La3+  La6  1  0.23793442  0.63498039  0.11114158  1
  La3+  La7  1  0.50805374  0.88886657  0.07491662  1
  La3+  La8  1  0.25117357  0.60797665  0.56693082  1
  La3+  La9  1  0.87985721  -0.00771302  0.39511541  1
  La3+  La10  1  0.76195832  0.88353701  0.07978270  1
  La3+  La11  1  0.63243746  0.76862684  0.93499591  1
  Ce3+  Ce12  1  0.00724803  0.63840530  0.04967642  1
  Ce3+  Ce13  1  0.11820870  -0.01611770  0.44315201  1
  Ce3+  Ce14  1  0.00345801  0.88642366  0.06073718  1
  Ce3+  Ce15  1  0.51180848  0.38652091  0.06104760  1
  Ce3+  Ce16  1  0.13351069  0.51568740  0.92938349  1
  Ce3+  Ce17  1  0.25015768  0.35813002  0.56051538  1
  Ce3+  Ce18  1  0.24964031  0.86317596  0.55816891  1
  Ce3+  Ce19  1  0.25891705  0.14044744  0.05577465  1
  Ce3+  Ce20  1  0.50051656  0.86083678  0.55404060  1
  Ce3+  Ce21  1  0.62363163  -0.00985159  0.43174233  1
  Ce3+  Ce22  1  0.74650940  0.35679977  0.56089221  1
  Ce3+  Ce23  1  0.38062195  0.76107257  0.94832338  1
  Ce3+  Ce24  1  0.88089009  0.51464072  0.93657026  1
  Ce3+  Ce25  1  0.37755722  0.23503095  0.44443899  1
  Pr3+  Pr26  1  -0.00259468  0.36070378  0.57042827  1
  Pr3+  Pr27  1  0.62445014  0.23408493  0.43934098  1
  Pr3+  Pr28  1  0.74832299  0.86564581  0.55814525  1
  Pr3+  Pr29  1  0.01072474  0.39257620  0.04946607  1
  Pr3+  Pr30  1  0.00770070  0.14175256  0.05991917  1
  Pr3+  Pr31  1  0.50558767  0.64087004  0.07281599  1
  Pr3+  Pr32  1  0.25627729  0.88631841  0.06316356  1
  Pr3+  Pr33  1  -0.00171984  0.85520008  0.57520246  1
  Pr3+  Pr34  1  0.24870464  0.11155843  0.55738381  1
  Pr3+  Pr35  1  0.88450918  0.76977099  0.92577494  1
  Pr3+  Pr36  1  0.63332576  0.26224658  0.93430879  1
  Pr3+  Pr37  1  0.75452436  0.63768547  0.05694276  1
  Pr3+  Pr38  1  0.37595921  0.48581287  0.44238402  1
  Nd3+  Nd39  1  0.26022694  0.39382839  0.05257976  1
  Nd3+  Nd40  1  0.12210481  0.23677269  0.43865286  1
  Nd3+  Nd41  1  0.76379397  0.14743955  0.07261086  1
  Nd3+  Nd42  1  0.88230597  0.26115667  0.93295565  1
  Nd3+  Nd43  1  0.73992451  0.61207871  0.56484655  1
  Nd3+  Nd44  1  0.37317132  0.73868413  0.43944070  1
  Nd3+  Nd45  1  0.62480723  0.48736404  0.43810285  1
  Nd3+  Nd46  1  0.87533251  0.24435252  0.43352246  1
  Nd3+  Nd47  1  0.75564010  0.39067466  0.05572574  1
  Nd3+  Nd48  1  0.74766595  0.11152020  0.55560088  1
  Nd3+  Nd49  1  0.13381502  0.01434668  0.94327956  1
  Nd3+  Nd50  1  0.88166775  0.01363373  0.94085682  1
  Nd3+  Nd51  1  0.62838434  0.52094387  0.92734919  1
  Sm3+  Sm52  1  0.87149520  0.74195592  0.44265990  1
  Sm3+  Sm53  1  0.38437577  0.51492751  0.94030695  1
  Sm3+  Sm54  1  0.62555256  0.74074455  0.43668996  1
  Sm3+  Sm55  1  0.87148612  0.48675275  0.44655546  1
  Sm3+  Sm56  1  0.63463857  0.01035900  0.94724094  1
  Sm3+  Sm57  1  0.50096903  0.61334832  0.54969544  1
  Sm3+  Sm58  1  -0.00292531  0.11080575  0.55714535  1
  Sm3+  Sm59  1  0.37424929  -0.01294725  0.44240081  1
  Sm3+  Sm60  1  0.38355344  0.01364097  0.94623625  1
  Sm3+  Sm61  1  0.13450704  0.26315117  0.94017981  1
  Sm3+  Sm62  1  0.38716257  0.26298095  0.93890604  1
  Sm3+  Sm63  1  0.13483039  0.76294374  0.93896113  1
  Bi2+  Bi64  1  0.06005286  0.20488700  0.30703999  1
  Bi2+  Bi65  1  -0.01501779  0.13364743  0.80708230  1
  Bi2+  Bi66  1  0.00371110  0.39073323  0.28921139  1
  Bi2+  Bi67  1  -0.00400332  0.32564415  0.78247456  1
  Bi2+  Bi68  1  -0.03062413  0.60818165  0.28805500  1
  Bi2+  Bi69  1  0.01569387  0.60054562  0.79576513  1
  Bi2+  Bi70  1  0.01276002  0.88379320  0.28504556  1
  Bi2+  Bi71  1  -0.05961402  0.95859024  0.76852592  1
  Bi2+  Bi72  1  0.22084842  0.09894567  0.28711649  1
  Bi2+  Bi73  1  0.23761001  0.08135597  0.81718153  1
  Bi2+  Bi74  1  0.30499913  0.37506168  0.28473663  1
  Bi2+  Bi75  1  0.20449337  0.30956259  0.75407071  1
  Bi2+  Bi76  1  0.24207791  0.65581270  0.31926896  1
  Bi2+  Bi77  1  0.22196771  0.71036508  0.80060705  1
  Bi2+  Bi78  1  0.26206236  0.90044350  0.29841912  1
  Bi2+  Bi79  1  0.25785419  0.91026330  0.75359330  1
  Bi2+  Bi80  1  0.48482354  0.18466257  0.28660909  1
  Bi2+  Bi81  1  0.48325177  0.11564649  0.81565000  1
  Bi2+  Bi82  1  0.53043836  0.37312314  0.29243104  1
  Bi2+  Bi83  1  0.51083745  0.37528162  0.79985501  1
  Bi2+  Bi84  1  0.52275650  0.56267721  0.26665226  1
  Bi2+  Bi85  1  0.47839428  0.63584546  0.79935217  1
  Bi2+  Bi86  1  0.49973460  0.85288540  0.30610516  1
  Bi2+  Bi87  1  0.50294542  0.85992570  0.75678584  1
  Bi2+  Bi88  1  0.77021304  0.20588124  0.28147644  1
  Bi2+  Bi89  1  0.76102003  0.12382512  0.83469566  1
  Bi2+  Bi90  1  0.77867575  0.40237018  0.28406347  1
  Bi2+  Bi91  1  0.73465537  0.36957452  0.73854315  1
  Bi2+  Bi92  1  0.77718940  0.60370649  0.29474656  1
  Bi2+  Bi93  1  0.74438560  0.59424925  0.79729888  1
  Bi2+  Bi94  1  0.74619402  0.85788927  0.29172564  1
  Bi2+  Bi95  1  0.74613289  0.86409027  0.79964492  1
  Bi2+  Bi96  1  0.14488176  -0.03524322  0.21212352  1
  Bi2+  Bi97  1  0.14305430  0.06309656  0.71878507  1
  Bi2+  Bi98  1  0.18316301  0.26093687  0.22251515  1
  Bi2+  Bi99  1  0.06056495  0.25154857  0.68166071  1
  Bi2+  Bi100  1  0.11665148  0.48786272  0.20739762  1
  Bi2+  Bi101  1  0.15156440  0.48533562  0.71221623  1
  Bi2+  Bi102  1  0.06491525  0.74252841  0.21804486  1
  Bi2+  Bi103  1  0.10196448  0.79614046  0.71835501  1
  Bi2+  Bi104  1  0.34539828  -0.00750232  0.20982716  1
  Bi2+  Bi105  1  0.41379343  0.00952365  0.70517015  1
  Bi2+  Bi106  1  0.37753306  0.25075733  0.19768655  1
  Bi2+  Bi107  1  0.36408616  0.19456305  0.73439046  1
  Bi2+  Bi108  1  0.42552904  0.44540737  0.19692947  1
  Bi2+  Bi109  1  0.35509551  0.53503273  0.72906170  1
  Bi2+  Bi110  1  0.37417203  0.74049245  0.20995665  1
  Bi2+  Bi111  1  0.36605386  0.73009766  0.71940752  1
  Bi2+  Bi112  1  0.60630717  0.02874720  0.22586543  1
  Bi2+  Bi113  1  0.64215174  0.02183477  0.76355083  1
  Bi2+  Bi114  1  0.65193368  0.33534195  0.20145910  1
  Bi2+  Bi115  1  0.62747457  0.20235183  0.71331920  1
  Bi2+  Bi116  1  0.65250490  0.51761892  0.15384372  1
  Bi2+  Bi117  1  0.62070380  0.52936685  0.70383768  1
  Bi2+  Bi118  1  0.62560169  0.69137848  0.21085376  1
  Bi2+  Bi119  1  0.63408184  0.76702227  0.69729732  1
  Bi2+  Bi120  1  0.83942335  0.01810837  0.19380854  1
  Bi2+  Bi121  1  0.83469163  0.10877279  0.72803635  1
  Bi2+  Bi122  1  0.91754217  0.27438205  0.20211579  1
  Bi2+  Bi123  1  0.86316096  0.28128478  0.66762849  1
  Bi2+  Bi124  1  0.84113614  0.52647906  0.19462896  1
  Bi2+  Bi125  1  0.90211007  0.46351374  0.71863289  1
  Bi2+  Bi126  1  0.87301793  0.72388655  0.20977843  1
  Bi2+  Bi127  1  0.87154495  0.74334813  0.69966878  1
  S2-  S128  1  -0.03977932  0.13089428  0.15647861  1
  S2-  S129  1  0.02270425  0.08991249  0.65398563  1
  S2-  S130  1  0.02091296  0.38026814  0.14991465  1
  S2-  S131  1  0.01721732  0.48244947  0.64480205  1
  S2-  S132  1  0.06466541  0.62321699  0.14158458  1
  S2-  S133  1  0.01127434  0.70616801  0.65018759  1
  S2-  S134  1  -0.08931355  0.89452991  0.14311745  1
  S2-  S135  1  -0.02811139  0.88646320  0.67613749  1
  S2-  S136  1  0.28816219  0.11811473  0.15031032  1
  S2-  S137  1  0.28711205  0.10231440  0.65534360  1
  S2-  S138  1  0.23155652  0.46149560  0.14284496  1
  S2-  S139  1  0.25501829  0.36973711  0.65738105  1
  S2-  S140  1  0.23399734  0.63591815  0.22512099  1
  S2-  S141  1  0.22318767  0.60839856  0.66637789  1
  S2-  S142  1  0.26130911  0.80122175  0.15145745  1
  S2-  S143  1  0.22052258  0.85312336  0.65322740  1
  S2-  S144  1  0.49346412  0.01259591  0.15088812  1
  S2-  S145  1  0.48579753  0.22788948  0.65923176  1
  S2-  S146  1  0.52203975  0.27372717  0.13926216  1
  S2-  S147  1  0.47066626  0.43582980  0.69622538  1
  S2-  S148  1  0.39726004  0.60594015  0.15145442  1
  S2-  S149  1  0.54969782  0.63336689  0.64372583  1
  S2-  S150  1  0.51361360  0.77429315  0.15340656  1
  S2-  S151  1  0.52547722  0.88571304  0.64909189  1
  S2-  S152  1  0.69709272  0.11714542  0.16724839  1
  S2-  S153  1  0.65547986  0.09528037  0.64090821  1
  S2-  S154  1  0.78476287  0.29305810  0.13670286  1
  S2-  S155  1  0.66102106  0.38763696  0.64445480  1
  S2-  S156  1  0.75190813  0.73351823  0.14122793  1
  S2-  S157  1  0.79393455  0.61874764  0.66018117  1
  S2-  S158  1  0.69434884  0.91868799  0.17925305  1
  S2-  S159  1  0.75648889  0.85557180  0.66006531  1
  S2-  S160  1  0.04169853  -0.00694754  0.35546659  1
  S2-  S161  1  0.10358572  -0.00567490  0.84611604  1
  S2-  S162  1  0.11999077  0.35126458  0.36239472  1
  S2-  S163  1  0.13536354  0.24032253  0.84337545  1
  S2-  S164  1  0.09896734  0.60012919  0.35873199  1
  S2-  S165  1  0.13227042  0.50647493  0.82973278  1
  S2-  S166  1  0.14750069  0.80056077  0.34499471  1
  S2-  S167  1  0.07357993  0.75005310  0.84565075  1
  S2-  S168  1  0.40760591  -0.02542663  0.34593190  1
  S2-  S169  1  0.38931610  -0.00520124  0.84838589  1
  S2-  S170  1  0.35607788  0.23665199  0.34760795  1
  S2-  S171  1  0.39054659  0.26911411  0.84053746  1
  S2-  S172  1  0.31386689  0.50347772  0.34902535  1
  S2-  S173  1  0.40530139  0.49379470  0.84224153  1
  S2-  S174  1  0.39807307  0.73594988  0.33975726  1
  S2-  S175  1  0.37426601  0.74983298  0.85114269  1
  S2-  S176  1  0.62840090  -0.03853437  0.33370156  1
  S2-  S177  1  0.63124278  -0.09672636  0.86745691  1
  S2-  S178  1  0.63739271  0.18841459  0.34139592  1
  S2-  S179  1  0.60729032  0.24401073  0.83491960  1
  S2-  S180  1  0.63815650  0.50798407  0.33970181  1
  S2-  S181  1  0.64374657  0.45248034  0.83459294  1
  S2-  S182  1  0.62887670  0.75014194  0.33902817  1
  S2-  S183  1  0.61815908  0.65695576  0.85501116  1
  S2-  S184  1  0.82005145  0.00014451  0.29354778  1
  S2-  S185  1  0.87843849  -0.08821549  0.85955565  1
  S2-  S186  1  0.89411200  0.16402338  0.34622448  1
  S2-  S187  1  0.84982286  0.27151834  0.83564361  1
  S2-  S188  1  0.88465522  0.38919931  0.36566575  1
  S2-  S189  1  0.88353083  0.51260440  0.83821204  1
  S2-  S190  1  0.88145764  0.82181304  0.35448317  1
  S2-  S191  1  0.83240902  0.71749084  0.82789399  1
  S2-  S192  1  -0.00291618  0.11316745  0.45477528  1
  S2-  S193  1  0.00937712  0.13991755  0.95170962  1
  S2-  S194  1  -0.00272294  0.36380429  0.46497985  1
  S2-  S195  1  0.00874648  0.38539967  0.94178732  1
  S2-  S196  1  -0.01171871  0.61104483  0.46020031  1
  S2-  S197  1  0.00734529  0.64002946  0.94557449  1
  S2-  S198  1  -0.00558873  0.86131173  0.46292005  1
  S2-  S199  1  0.01274957  0.88838573  0.95601894  1
  S2-  S200  1  0.24723859  0.10959892  0.44998073  1
  S2-  S201  1  0.26036356  0.14093558  0.95030296  1
  S2-  S202  1  0.25404344  0.35852677  0.45669087  1
  S2-  S203  1  0.26056728  0.38598234  0.94463307  1
  S2-  S204  1  0.25167775  0.61368575  0.45853949  1
  S2-  S205  1  0.25665809  0.63649054  0.94277510  1
  S2-  S206  1  0.25090118  0.86393752  0.45289391  1
  S2-  S207  1  0.25633715  0.88977589  0.95378660  1
  S2-  S208  1  0.49789319  0.10934253  0.45282881  1
  S2-  S209  1  0.50869743  0.13534360  0.95825569  1
  S2-  S210  1  0.50182788  0.36208728  0.44304887  1
  S2-  S211  1  0.50799909  0.38772047  0.95090826  1
  S2-  S212  1  0.50157780  0.61482737  0.44544315  1
  S2-  S213  1  0.50315619  0.63768510  0.95857183  1
  S2-  S214  1  0.49936816  0.86165865  0.44882803  1
  S2-  S215  1  0.50185646  0.89194453  0.96424703  1
  S2-  S216  1  0.75521574  0.10820247  0.44895465  1
  S2-  S217  1  0.75719792  0.13650247  0.95931511  1
  S2-  S218  1  0.74486093  0.36237089  0.45432584  1
  S2-  S219  1  0.75780490  0.38759390  0.94811942  1
  S2-  S220  1  0.74881140  0.61439834  0.45348396  1
  S2-  S221  1  0.76068696  0.63957970  0.95049723  1
  S2-  S222  1  0.74778955  0.86484059  0.45087783  1
  S2-  S223  1  0.76161536  0.89042827  0.96538646  1
  S2-  S224  1  0.13155619  0.01341800  0.05096940  1
  S2-  S225  1  0.12141328  -0.01423717  0.55032718  1
  S2-  S226  1  0.13572254  0.26606893  0.04579813  1
  S2-  S227  1  0.12271047  0.23518736  0.54540544  1
  S2-  S228  1  0.13498582  0.51720554  0.03534201  1
  S2-  S229  1  0.12898630  0.48387828  0.54158908  1
  S2-  S230  1  0.13125288  0.76336241  0.04467182  1
  S2-  S231  1  0.12741849  0.73528571  0.54679061  1
  S2-  S232  1  0.37909879  0.01357700  0.04865754  1
  S2-  S233  1  0.37678518  -0.01208398  0.54776197  1
  S2-  S234  1  0.38182476  0.26467221  0.04361455  1
  S2-  S235  1  0.37854649  0.23641140  0.55088462  1
  S2-  S236  1  0.38808585  0.50854996  0.04311850  1
  S2-  S237  1  0.38250204  0.48415429  0.55175938  1
  S2-  S238  1  0.37723358  0.75929270  0.05048300  1
  S2-  S239  1  0.37612052  0.73510611  0.54802950  1
  S2-  S240  1  0.63904865  0.01491045  0.05045066  1
  S2-  S241  1  0.62132632  -0.01294928  0.53847492  1
  S2-  S242  1  0.63705980  0.26129490  0.04031464  1
  S2-  S243  1  0.61839507  0.23779535  0.54584587  1
  S2-  S244  1  0.63056154  0.51272673  0.03538086  1
  S2-  S245  1  0.61845828  0.48712684  0.54276400  1
  S2-  S246  1  0.62896071  0.76316406  0.04300353  1
  S2-  S247  1  0.62389051  0.73799397  0.54128576  1
  S2-  S248  1  0.88274450  0.01940658  0.04552161  1
  S2-  S249  1  0.87354566  -0.01045540  0.55932583  1
  S2-  S250  1  0.88718421  0.26634228  0.03768873  1
  S2-  S251  1  0.87395922  0.23398141  0.54226239  1
  S2-  S252  1  0.88165067  0.51312112  0.04412198  1
  S2-  S253  1  0.86385868  0.48502531  0.55012236  1
  S2-  S254  1  0.88586488  0.76033107  0.03778981  1
  S2-  S255  1  0.86794730  0.73558864  0.54725519  1
