# generated using pymatgen
data_La12Ce14Pr13Nd13Sm12(BiS2)64
_symmetry_space_group_name_H-M   'P 1'
_cell_length_a   16.08667901
_cell_length_b   16.06668052
_cell_length_c   27.30669958
_cell_angle_alpha   89.86002664
_cell_angle_beta   89.76945033
_cell_angle_gamma   90.05526172
_symmetry_Int_Tables_number   1
_chemical_formula_structural   La12Ce14Pr13Nd13Sm12(BiS2)64
_chemical_formula_sum   'La12 Ce14 Pr13 Nd13 Sm12 Bi64 S128'
_cell_volume   7057.59525503
_cell_formula_units_Z   1
loop_
 _symmetry_equiv_pos_site_id
 _symmetry_equiv_pos_as_xyz
  1  'x, y, z'
loop_
 _atom_type_symbol
 _atom_type_oxidation_number
  La3+  3.0
  Ce3+  3.0
  Pr3+  3.0
  Nd3+  3.0
  Sm3+  3.0
  Bi2+  2.0
  S2-  -2.0
loop_
 _atom_site_type_symbol
 _atom_site_label
 _atom_site_symmetry_multiplicity
 _atom_site_fract_x
 _atom_site_fract_y
 _atom_site_fract_z
 _atom_site_occupancy
  La3+  La0  1  -0.00299945  0.13102895  0.05834990  1
  La3+  La1  1  0.37171931  0.76242879  0.39561478  1
  La3+  La2  1  0.61095112  0.24908736  0.41378068  1
  La3+  La3  1  0.13309436  0.49221672  0.42501310  1
  La3+  La4  1  0.74019349  0.38155759  0.07501205  1
  La3+  La5  1  0.01141985  0.86900266  0.61637550  1
  La3+  La6  1  0.50811759  0.37843263  0.58636103  1
  La3+  La7  1  0.12323489  0.00161916  0.44013321  1
  La3+  La8  1  0.87765474  0.49371184  0.42349860  1
  La3+  La9  1  0.37216857  0.25566590  0.44654883  1
  La3+  La10  1  -0.00480999  0.62434710  0.07577724  1
  La3+  La11  1  0.13324309  -0.00681984  0.91300875  1
  Ce3+  Ce12  1  0.37923778  0.50448727  0.43825917  1
  Ce3+  Ce13  1  0.86996995  0.26231292  0.93247754  1
  Ce3+  Ce14  1  -0.00060007  0.87770393  0.05368233  1
  Ce3+  Ce15  1  0.87287616  0.00847552  0.93481566  1
  Ce3+  Ce16  1  0.87119581  0.75149506  0.94317745  1
  Ce3+  Ce17  1  0.74386807  0.37542678  0.54491070  1
  Ce3+  Ce18  1  0.87546053  0.75373952  0.43502968  1
  Ce3+  Ce19  1  0.74940856  0.62615915  0.54684511  1
  Ce3+  Ce20  1  0.61720933  0.01005453  0.93146902  1
  Ce3+  Ce21  1  0.49549037  0.12440667  0.06729295  1
  Ce3+  Ce22  1  -0.00571998  0.37365722  0.56282119  1
  Ce3+  Ce23  1  0.74134413  0.62776242  0.05259954  1
  Ce3+  Ce24  1  0.61418810  0.50425038  0.43320798  1
  Ce3+  Ce25  1  0.62042364  0.75516076  0.43960624  1
  Pr3+  Pr26  1  0.11891387  0.25582629  0.93474113  1
  Pr3+  Pr27  1  0.73895159  0.12982450  0.56311149  1
  Pr3+  Pr28  1  -0.00442512  0.62432102  0.56168044  1
  Pr3+  Pr29  1  0.50052238  0.87505663  0.57124253  1
  Pr3+  Pr30  1  0.24926382  0.37902265  0.05833960  1
  Pr3+  Pr31  1  0.24600024  0.12694491  0.57465581  1
  Pr3+  Pr32  1  0.62033759  -0.00046201  0.43092946  1
  Pr3+  Pr33  1  0.75087442  0.87786448  0.56286978  1
  Pr3+  Pr34  1  0.23277512  0.88382832  0.08552560  1
  Pr3+  Pr35  1  0.49610787  0.37915655  0.06495997  1
  Pr3+  Pr36  1  0.61646599  0.50026535  0.92505336  1
  Pr3+  Pr37  1  0.61909877  0.25475044  0.93758780  1
  Pr3+  Pr38  1  0.36963908  0.25073316  0.93345761  1
  Nd3+  Nd39  1  0.24665104  0.38762818  0.57517082  1
  Nd3+  Nd40  1  0.11449685  0.74965489  0.43524766  1
  Nd3+  Nd41  1  0.49599150  0.12742049  0.55695237  1
  Nd3+  Nd42  1  0.24541218  0.62715941  0.55398787  1
  Nd3+  Nd43  1  0.87317911  0.24666264  0.43130092  1
  Nd3+  Nd44  1  0.24736729  0.62262113  0.07016248  1
  Nd3+  Nd45  1  0.12234197  0.74317842  0.93852283  1
  Nd3+  Nd46  1  0.74439592  0.88083280  0.05396549  1
  Nd3+  Nd47  1  0.49632841  0.63540642  0.06564730  1
  Nd3+  Nd48  1  0.61990002  0.76072506  0.93419507  1
  Nd3+  Nd49  1  0.49752686  0.62600486  0.56118186  1
  Nd3+  Nd50  1  0.37027224  -0.00391080  0.44848931  1
  Nd3+  Nd51  1  -0.00690892  0.12711480  0.56935987  1
  Sm3+  Sm52  1  0.36868049  0.75400315  0.95000548  1
  Sm3+  Sm53  1  0.36687308  -0.00165260  0.94651990  1
  Sm3+  Sm54  1  0.12476702  0.24710986  0.44834409  1
  Sm3+  Sm55  1  0.86977763  0.00881115  0.44040211  1
  Sm3+  Sm56  1  0.11882453  0.50294165  0.94028083  1
  Sm3+  Sm57  1  0.37391599  0.50721529  0.93492118  1
  Sm3+  Sm58  1  0.74427503  0.12789497  0.05482105  1
  Sm3+  Sm59  1  0.24351137  0.87502475  0.56254130  1
  Sm3+  Sm60  1  0.24448433  0.12730534  0.05630272  1
  Sm3+  Sm61  1  -0.00956273  0.37545188  0.07320067  1
  Sm3+  Sm62  1  0.49093870  0.88264231  0.07239656  1
  Sm3+  Sm63  1  0.87077326  0.50092359  0.94223210  1
  Bi2+  Bi64  1  0.03180905  0.13916465  0.29246761  1
  Bi2+  Bi65  1  0.00146500  0.17981825  0.79333649  1
  Bi2+  Bi66  1  0.02853731  0.38912833  0.28668579  1
  Bi2+  Bi67  1  0.09018502  0.37280005  0.81946059  1
  Bi2+  Bi68  1  -0.02588891  0.65748012  0.27879243  1
  Bi2+  Bi69  1  -0.02004630  0.53184521  0.80685337  1
  Bi2+  Bi70  1  0.02108333  0.93867874  0.29166080  1
  Bi2+  Bi71  1  -0.01052313  0.86044014  0.81784376  1
  Bi2+  Bi72  1  0.29406860  0.15418607  0.22890248  1
  Bi2+  Bi73  1  0.30383781  0.14032818  0.80053954  1
  Bi2+  Bi74  1  0.26141962  0.35935009  0.29295556  1
  Bi2+  Bi75  1  0.26858862  0.38682217  0.76606293  1
  Bi2+  Bi76  1  0.21717383  0.62704946  0.29983130  1
  Bi2+  Bi77  1  0.25180009  0.56831305  0.80581681  1
  Bi2+  Bi78  1  0.22191364  0.95935516  0.30274597  1
  Bi2+  Bi79  1  0.23699955  0.77140785  0.77282145  1
  Bi2+  Bi80  1  0.46569619  0.12593904  0.28720141  1
  Bi2+  Bi81  1  0.48862983  0.09946948  0.78294294  1
  Bi2+  Bi82  1  0.52653898  0.36771654  0.28726510  1
  Bi2+  Bi83  1  0.50830707  0.37950074  0.78921081  1
  Bi2+  Bi84  1  0.53403917  0.62695581  0.29166718  1
  Bi2+  Bi85  1  0.52669771  0.61486689  0.77448545  1
  Bi2+  Bi86  1  0.60344565  0.89991823  0.28783238  1
  Bi2+  Bi87  1  0.40670626  0.85383989  0.79975728  1
  Bi2+  Bi88  1  0.75948803  0.03017145  0.30966657  1
  Bi2+  Bi89  1  0.73030228  0.06654631  0.80805702  1
  Bi2+  Bi90  1  0.78096259  0.41245773  0.28254153  1
  Bi2+  Bi91  1  0.76301683  0.38685188  0.78309036  1
  Bi2+  Bi92  1  0.72567805  0.64980338  0.28287083  1
  Bi2+  Bi93  1  0.72928854  0.58153885  0.80019471  1
  Bi2+  Bi94  1  0.78313893  0.83539912  0.32257415  1
  Bi2+  Bi95  1  0.75590841  0.77350387  0.78018532  1
  Bi2+  Bi96  1  0.07115181  0.04161342  0.19041892  1
  Bi2+  Bi97  1  0.13364540  -0.00444560  0.72225100  1
  Bi2+  Bi98  1  0.14448649  0.28707940  0.21449200  1
  Bi2+  Bi99  1  0.11318242  0.30285660  0.71023614  1
  Bi2+  Bi100  1  0.15083051  0.55202938  0.20807776  1
  Bi2+  Bi101  1  0.08102864  0.48481057  0.66809518  1
  Bi2+  Bi102  1  0.14323591  0.82813009  0.22942985  1
  Bi2+  Bi103  1  0.09934730  0.64100683  0.73628916  1
  Bi2+  Bi104  1  0.39837928  -0.04655705  0.24872619  1
  Bi2+  Bi105  1  0.40244345  -0.03134718  0.70643377  1
  Bi2+  Bi106  1  0.37508546  0.29272174  0.16225357  1
  Bi2+  Bi107  1  0.38981176  0.18590476  0.69167674  1
  Bi2+  Bi108  1  0.36783204  0.46612767  0.21778162  1
  Bi2+  Bi109  1  0.36610466  0.57607568  0.71046599  1
  Bi2+  Bi110  1  0.37548840  0.71791720  0.19267112  1
  Bi2+  Bi111  1  0.39161432  0.77203643  0.68498862  1
  Bi2+  Bi112  1  0.64582299  0.04315465  0.19684329  1
  Bi2+  Bi113  1  0.59623532  -0.05972631  0.73999693  1
  Bi2+  Bi114  1  0.54733248  0.22146603  0.19627889  1
  Bi2+  Bi115  1  0.64275970  0.22951224  0.69841770  1
  Bi2+  Bi116  1  0.63072320  0.49080236  0.21830888  1
  Bi2+  Bi117  1  0.64511611  0.50307844  0.69896033  1
  Bi2+  Bi118  1  0.65757718  0.77393135  0.20384471  1
  Bi2+  Bi119  1  0.58814562  0.75450439  0.69781785  1
  Bi2+  Bi120  1  0.88023057  0.02448151  0.21455921  1
  Bi2+  Bi121  1  0.86909576  -0.00470102  0.71133952  1
  Bi2+  Bi122  1  0.89279050  0.22662367  0.20740800  1
  Bi2+  Bi123  1  0.87539401  0.26297953  0.71971918  1
  Bi2+  Bi124  1  0.87763956  0.51936545  0.19499225  1
  Bi2+  Bi125  1  0.89409511  0.46082836  0.69990821  1
  Bi2+  Bi126  1  0.86385817  0.81922373  0.21562575  1
  Bi2+  Bi127  1  0.85668776  0.65729684  0.71026281  1
  S2-  S128  1  0.01526426  0.23892108  0.14026944  1
  S2-  S129  1  0.00397870  0.03939602  0.65687213  1
  S2-  S130  1  0.02259418  0.49234524  0.14639042  1
  S2-  S131  1  -0.02004936  0.25949713  0.63994376  1
  S2-  S132  1  -0.05766500  0.68578987  0.17216287  1
  S2-  S133  1  0.00395114  0.69868012  0.65300229  1
  S2-  S134  1  0.07904566  0.88342831  0.14131324  1
  S2-  S135  1  -0.00323011  0.87651249  0.72486457  1
  S2-  S136  1  0.22516998  0.06306032  0.14699457  1
  S2-  S137  1  0.22633697  0.10248831  0.67546067  1
  S2-  S138  1  0.24693425  0.48616801  0.13940488  1
  S2-  S139  1  0.27506854  0.31625927  0.66748652  1
  S2-  S140  1  0.21054193  0.70328954  0.15915147  1
  S2-  S141  1  0.24923397  0.53299312  0.63964644  1
  S2-  S142  1  0.34520571  0.87891751  0.16424679  1
  S2-  S143  1  0.17817565  0.87968165  0.65406564  1
  S2-  S144  1  0.51369693  0.01033219  0.14200114  1
  S2-  S145  1  0.55966677  0.12420983  0.64901281  1
  S2-  S146  1  0.60725308  0.37062769  0.14507592  1
  S2-  S147  1  0.49104982  0.32058509  0.68950419  1
  S2-  S148  1  0.45058219  0.57235325  0.15656301  1
  S2-  S149  1  0.50194743  0.52660649  0.64456366  1
  S2-  S150  1  0.51984175  0.76390785  0.14388582  1
  S2-  S151  1  0.62810669  0.89308231  0.64063346  1
  S2-  S152  1  0.75968484  0.16219492  0.15118606  1
  S2-  S153  1  0.77383393  0.12708611  0.66403898  1
  S2-  S154  1  0.85637557  0.36821409  0.15197187  1
  S2-  S155  1  0.67862870  0.36496211  0.63615786  1
  S2-  S156  1  0.73333155  0.56176424  0.14236919  1
  S2-  S157  1  0.72586250  0.63205250  0.64451243  1
  S2-  S158  1  0.73894414  0.90742995  0.15254326  1
  S2-  S159  1  0.84181325  0.87783490  0.64983769  1
  S2-  S160  1  0.15818547  0.10077465  0.35749867  1
  S2-  S161  1  0.05803693  0.02507270  0.82055234  1
  S2-  S162  1  0.13684158  0.33303172  0.36335631  1
  S2-  S163  1  0.16751116  0.20311348  0.84199207  1
  S2-  S164  1  0.05891967  0.53336982  0.33327827  1
  S2-  S165  1  0.10960941  0.61418464  0.86476337  1
  S2-  S166  1  0.20894151  0.76886257  0.35037407  1
  S2-  S167  1  0.14400793  0.83779807  0.85422782  1
  S2-  S168  1  0.37483185  -0.06796048  0.35542823  1
  S2-  S169  1  0.29431514  -0.00048013  0.85672773  1
  S2-  S170  1  0.44923994  0.26208427  0.35443089  1
  S2-  S171  1  0.38657061  0.30639171  0.83703086  1
  S2-  S172  1  0.27915109  0.49503845  0.35808285  1
  S2-  S173  1  0.48029308  0.50920429  0.85643598  1
  S2-  S174  1  0.37450276  0.69666787  0.29535325  1
  S2-  S175  1  0.35418066  0.71968485  0.85284764  1
  S2-  S176  1  0.60852760  0.10197625  0.34846543  1
  S2-  S177  1  0.62871588  -0.06985647  0.84566193  1
  S2-  S178  1  0.67938542  0.30593528  0.32297898  1
  S2-  S179  1  0.59610756  0.14034839  0.85969434  1
  S2-  S180  1  0.49980329  0.49901336  0.35863189  1
  S2-  S181  1  0.63196606  0.36387216  0.85602985  1
  S2-  S182  1  0.54042373  0.76777119  0.35350525  1
  S2-  S183  1  0.62061811  0.71144075  0.83945526  1
  S2-  S184  1  0.88925134  0.11784682  0.36068871  1
  S2-  S185  1  0.84794604  -0.03444010  0.83897900  1
  S2-  S186  1  0.89697053  0.35661908  0.35181252  1
  S2-  S187  1  0.85168570  0.17763021  0.84574890  1
  S2-  S188  1  0.84750808  0.56568362  0.33044059  1
  S2-  S189  1  0.87671932  0.40157506  0.86102125  1
  S2-  S190  1  0.98612801  0.74430447  0.35793481  1
  S2-  S191  1  0.88372463  0.72679588  0.84660847  1
  S2-  S192  1  0.00073347  0.12842764  0.46228287  1
  S2-  S193  1  -0.00085196  0.12848543  0.94878946  1
  S2-  S194  1  0.00016058  0.37022741  0.45849019  1
  S2-  S195  1  -0.00248650  0.38124817  0.96248341  1
  S2-  S196  1  -0.00333477  0.61883647  0.45439141  1
  S2-  S197  1  -0.00911103  0.62418984  0.96378142  1
  S2-  S198  1  -0.00785254  0.88538628  0.44693841  1
  S2-  S199  1  -0.00364648  0.87692399  0.94969006  1
  S2-  S200  1  0.25188514  0.12664809  0.46676111  1
  S2-  S201  1  0.24477489  0.12708283  0.95396497  1
  S2-  S202  1  0.25051701  0.37505994  0.46720943  1
  S2-  S203  1  0.24857533  0.38315702  0.94770034  1
  S2-  S204  1  0.25158492  0.63366059  0.45086896  1
  S2-  S205  1  0.25036028  0.62393109  0.96136898  1
  S2-  S206  1  0.24687303  0.87228488  0.45857664  1
  S2-  S207  1  0.24617028  0.87287164  0.96358802  1
  S2-  S208  1  0.49198958  0.12189856  0.45326634  1
  S2-  S209  1  0.48569809  0.12489666  0.96000644  1
  S2-  S210  1  0.50119368  0.37612724  0.46078375  1
  S2-  S211  1  0.48984170  0.37698830  0.95759324  1
  S2-  S212  1  0.49093880  0.63810418  0.45507140  1
  S2-  S213  1  0.49597589  0.63428065  0.95649196  1
  S2-  S214  1  0.49487147  0.87614512  0.46159098  1
  S2-  S215  1  0.49178716  0.87825942  0.95574524  1
  S2-  S216  1  0.74052315  0.13034848  0.45390916  1
  S2-  S217  1  0.74771758  0.12968108  0.95263301  1
  S2-  S218  1  0.74041724  0.37763291  0.44163407  1
  S2-  S219  1  0.74384735  0.38228938  0.96191836  1
  S2-  S220  1  0.74498822  0.62712552  0.44152555  1
  S2-  S221  1  0.74398765  0.62574208  0.94777069  1
  S2-  S222  1  0.74891043  0.88043031  0.45331066  1
  S2-  S223  1  0.74831285  0.87950826  0.94945759  1
  S2-  S224  1  0.12045170  0.00593690  0.03709947  1
  S2-  S225  1  0.12288698  0.00115117  0.54924097  1
  S2-  S226  1  0.12719220  0.25585298  0.04108793  1
  S2-  S227  1  0.12722091  0.25370923  0.55262431  1
  S2-  S228  1  0.12113232  0.50111051  0.04135914  1
  S2-  S229  1  0.12000956  0.50109937  0.53825458  1
  S2-  S230  1  0.11921984  0.74775215  0.04546072  1
  S2-  S231  1  0.12082029  0.75253190  0.54496790  1
  S2-  S232  1  0.36506769  0.00135912  0.04922944  1
  S2-  S233  1  0.37120983  -0.00157362  0.55610488  1
  S2-  S234  1  0.37065582  0.24963389  0.04137166  1
  S2-  S235  1  0.37426016  0.25491076  0.55605437  1
  S2-  S236  1  0.37549330  0.50420540  0.03890557  1
  S2-  S237  1  0.37625793  0.50050509  0.54351066  1
  S2-  S238  1  0.36662001  0.75712048  0.05289535  1
  S2-  S239  1  0.36989402  0.75167614  0.55818287  1
  S2-  S240  1  0.62079410  0.00277898  0.03873286  1
  S2-  S241  1  0.61954251  0.00355725  0.53834627  1
  S2-  S242  1  0.61855309  0.24746893  0.04433924  1
  S2-  S243  1  0.61561049  0.25215718  0.53793595  1
  S2-  S244  1  0.61479555  0.50741321  0.03859040  1
  S2-  S245  1  0.62237087  0.50443256  0.53766635  1
  S2-  S246  1  0.62110641  0.75803928  0.04072773  1
  S2-  S247  1  0.62231794  0.74974063  0.54410423  1
  S2-  S248  1  0.87174901  0.00460392  0.04596788  1
  S2-  S249  1  0.86743551  0.00991972  0.54334772  1
  S2-  S250  1  0.86745425  0.25230552  0.04034582  1
  S2-  S251  1  0.86593923  0.25095993  0.53893146  1
  S2-  S252  1  0.86935726  0.50271812  0.04529047  1
  S2-  S253  1  0.87079664  0.49820819  0.54181092  1
  S2-  S254  1  0.86862280  0.75417512  0.05017672  1
  S2-  S255  1  0.87349504  0.75053388  0.54170566  1
