# generated using pymatgen
data_La12Ce14Pr13Nd13Sm12(BiS2)64
_symmetry_space_group_name_H-M   'P 1'
_cell_length_a   16.11070550
_cell_length_b   16.04074992
_cell_length_c   27.37622929
_cell_angle_alpha   90.25185875
_cell_angle_beta   89.84897577
_cell_angle_gamma   90.11401535
_symmetry_Int_Tables_number   1
_chemical_formula_structural   La12Ce14Pr13Nd13Sm12(BiS2)64
_chemical_formula_sum   'La12 Ce14 Pr13 Nd13 Sm12 Bi64 S128'
_cell_volume   7074.67187954
_cell_formula_units_Z   1
loop_
 _symmetry_equiv_pos_site_id
 _symmetry_equiv_pos_as_xyz
  1  'x, y, z'
loop_
 _atom_type_symbol
 _atom_type_oxidation_number
  La3+  3.0
  Ce3+  3.0
  Pr3+  3.0
  Nd3+  3.0
  Sm3+  3.0
  Bi2+  2.0
  S2-  -2.0
loop_
 _atom_site_type_symbol
 _atom_site_label
 _atom_site_symmetry_multiplicity
 _atom_site_fract_x
 _atom_site_fract_y
 _atom_site_fract_z
 _atom_site_occupancy
  La3+  La0  1  0.15102578  0.21136940  0.93303845  1
  La3+  La1  1  0.52371935  0.33210364  0.06964038  1
  La3+  La2  1  0.89615991  0.70246691  0.90791736  1
  La3+  La3  1  0.22832670  0.40184577  0.59181087  1
  La3+  La4  1  0.10820345  0.26878176  0.43717789  1
  La3+  La5  1  0.10223197  0.77212484  0.41281267  1
  La3+  La6  1  0.61348726  0.51295646  0.41823127  1
  La3+  La7  1  0.89568995  0.21205491  0.92974012  1
  La3+  La8  1  0.48788789  0.13893301  0.60129380  1
  La3+  La9  1  0.27044615  0.83811329  0.06614268  1
  La3+  La10  1  0.27512515  0.34090265  0.07501732  1
  La3+  La11  1  0.86513929  0.51592618  0.42902894  1
  Ce3+  Ce12  1  0.27398601  0.08720519  0.06581462  1
  Ce3+  Ce13  1  0.36009987  0.26595815  0.45144865  1
  Ce3+  Ce14  1  0.23029038  0.64089170  0.55146557  1
  Ce3+  Ce15  1  0.76826525  0.58866309  0.05906989  1
  Ce3+  Ce16  1  0.89667017  0.46340768  0.94689782  1
  Ce3+  Ce17  1  0.02324495  0.83362240  0.05995038  1
  Ce3+  Ce18  1  0.14759483  -0.03648163  0.93575250  1
  Ce3+  Ce19  1  0.72908821  0.64266328  0.55514738  1
  Ce3+  Ce20  1  0.39427732  0.70911326  0.92907178  1
  Ce3+  Ce21  1  0.27043443  0.59009892  0.06216589  1
  Ce3+  Ce22  1  0.48313561  0.63591097  0.56287017  1
  Ce3+  Ce23  1  0.65237124  0.20862658  0.92640012  1
  Ce3+  Ce24  1  0.64305616  0.70997212  0.92816060  1
  Ce3+  Ce25  1  0.39267814  0.45296273  0.93486296  1
  Pr3+  Pr26  1  0.65997182  -0.04293308  0.93068442  1
  Pr3+  Pr27  1  0.60807523  0.26084529  0.43573418  1
  Pr3+  Pr28  1  0.52222557  0.83890959  0.05275017  1
  Pr3+  Pr29  1  0.39713077  -0.03644962  0.93204601  1
  Pr3+  Pr30  1  0.72883316  0.89144043  0.56542224  1
  Pr3+  Pr31  1  -0.01482562  0.88784751  0.57024605  1
  Pr3+  Pr32  1  0.10832112  0.51175530  0.42969208  1
  Pr3+  Pr33  1  0.72965543  0.39407370  0.55841353  1
  Pr3+  Pr34  1  0.35866959  0.76495148  0.44132491  1
  Pr3+  Pr35  1  0.74010632  0.14288505  0.57418731  1
  Pr3+  Pr36  1  0.85891719  0.01557972  0.44564098  1
  Pr3+  Pr37  1  0.76736750  0.33175711  0.07002512  1
  Pr3+  Pr38  1  0.02162819  0.33407922  0.06524281  1
  Nd3+  Nd39  1  0.02266069  0.09048947  0.06281431  1
  Nd3+  Nd40  1  -0.01403574  0.40171406  0.57097863  1
  Nd3+  Nd41  1  0.35787499  0.01581378  0.44389868  1
  Nd3+  Nd42  1  0.40540475  0.20947297  0.93045308  1
  Nd3+  Nd43  1  -0.00983429  0.14594107  0.57069722  1
  Nd3+  Nd44  1  0.02249512  0.58187062  0.06772458  1
  Nd3+  Nd45  1  0.89896669  -0.04265340  0.94500987  1
  Nd3+  Nd46  1  0.14676624  0.45900387  0.93495977  1
  Nd3+  Nd47  1  0.48471989  0.38917983  0.56692545  1
  Nd3+  Nd48  1  0.60720805  0.76646308  0.43022284  1
  Nd3+  Nd49  1  0.64590894  0.45877891  0.93777239  1
  Nd3+  Nd50  1  0.77112550  0.83578323  0.06097664  1
  Nd3+  Nd51  1  0.35951424  0.51288368  0.44188698  1
  Sm3+  Sm52  1  0.60859060  0.01667631  0.43802195  1
  Sm3+  Sm53  1  0.23394246  0.89134345  0.55892593  1
  Sm3+  Sm54  1  0.48245022  0.89414640  0.56113162  1
  Sm3+  Sm55  1  0.85941077  0.26433735  0.45169964  1
  Sm3+  Sm56  1  0.52360636  0.08898801  0.05414545  1
  Sm3+  Sm57  1  -0.01644495  0.64367123  0.56363459  1
  Sm3+  Sm58  1  0.77144744  0.08923968  0.06057811  1
  Sm3+  Sm59  1  0.23300050  0.14368205  0.57036612  1
  Sm3+  Sm60  1  0.14800964  0.70873087  0.93256542  1
  Sm3+  Sm61  1  0.10740636  0.01350361  0.44558133  1
  Sm3+  Sm62  1  0.86036199  0.76743903  0.44303839  1
  Sm3+  Sm63  1  0.51858701  0.58795999  0.05138733  1
  Bi2+  Bi64  1  -0.08179721  0.15993896  0.27567286  1
  Bi2+  Bi65  1  -0.00046206  0.15837106  0.81370087  1
  Bi2+  Bi66  1  -0.00988851  0.39704957  0.29470379  1
  Bi2+  Bi67  1  0.01263371  0.41653451  0.81588169  1
  Bi2+  Bi68  1  -0.03578163  0.66909987  0.28308311  1
  Bi2+  Bi69  1  -0.01443885  0.66952357  0.76375228  1
  Bi2+  Bi70  1  0.00400626  0.94060421  0.28050119  1
  Bi2+  Bi71  1  0.09669077  0.88976998  0.80902976  1
  Bi2+  Bi72  1  0.19597133  0.16902227  0.25904505  1
  Bi2+  Bi73  1  0.26446107  0.09398919  0.78183932  1
  Bi2+  Bi74  1  0.25462704  0.35274933  0.28756258  1
  Bi2+  Bi75  1  0.25540906  0.42276352  0.80088815  1
  Bi2+  Bi76  1  0.30010677  0.64300262  0.27982225  1
  Bi2+  Bi77  1  0.26702559  0.68396514  0.76114639  1
  Bi2+  Bi78  1  0.26200908  0.86933328  0.31077796  1
  Bi2+  Bi79  1  0.29624819  0.88587200  0.81765762  1
  Bi2+  Bi80  1  0.51469669  0.13067356  0.29046057  1
  Bi2+  Bi81  1  0.51707262  0.10766858  0.78669387  1
  Bi2+  Bi82  1  0.45670770  0.39612791  0.29514067  1
  Bi2+  Bi83  1  0.49743112  0.39079883  0.80871483  1
  Bi2+  Bi84  1  0.54067738  0.65119446  0.25848029  1
  Bi2+  Bi85  1  0.51942710  0.63942290  0.76567479  1
  Bi2+  Bi86  1  0.50009651  0.92747307  0.28663144  1
  Bi2+  Bi87  1  0.49106155  0.85828564  0.78817658  1
  Bi2+  Bi88  1  0.71206061  0.08264450  0.26902132  1
  Bi2+  Bi89  1  0.78667592  0.10568628  0.72767613  1
  Bi2+  Bi90  1  0.74531714  0.34961897  0.30643713  1
  Bi2+  Bi91  1  0.75272880  0.34791393  0.79610813  1
  Bi2+  Bi92  1  0.74591207  0.71125056  0.29826269  1
  Bi2+  Bi93  1  0.72853041  0.65048076  0.75542302  1
  Bi2+  Bi94  1  0.76822925  0.90589484  0.31149185  1
  Bi2+  Bi95  1  0.68876326  0.87638377  0.80344810  1
  Bi2+  Bi96  1  0.06076639  0.06139858  0.19693141  1
  Bi2+  Bi97  1  0.09337450  0.02138769  0.71941662  1
  Bi2+  Bi98  1  0.10423626  0.32082723  0.20389517  1
  Bi2+  Bi99  1  0.10144524  0.24001644  0.72858218  1
  Bi2+  Bi100  1  0.11697028  0.52161177  0.20935433  1
  Bi2+  Bi101  1  0.08559623  0.51130864  0.70544223  1
  Bi2+  Bi102  1  0.14342499  0.76912099  0.20141266  1
  Bi2+  Bi103  1  0.12448548  0.78205139  0.71107520  1
  Bi2+  Bi104  1  0.34995250  0.02999809  0.22358402  1
  Bi2+  Bi105  1  0.34610915  -0.04903754  0.71411613  1
  Bi2+  Bi106  1  0.38164733  0.23938705  0.21142639  1
  Bi2+  Bi107  1  0.37869530  0.23391813  0.72577253  1
  Bi2+  Bi108  1  0.38835505  0.50632630  0.20611337  1
  Bi2+  Bi109  1  0.35334818  0.53141739  0.70514527  1
  Bi2+  Bi110  1  0.36331538  0.82854202  0.20104195  1
  Bi2+  Bi111  1  0.40699131  0.74271309  0.68801950  1
  Bi2+  Bi112  1  0.55200352  0.02832291  0.19161701  1
  Bi2+  Bi113  1  0.62034154  -0.09841645  0.69740448  1
  Bi2+  Bi114  1  0.64981776  0.24747742  0.20950386  1
  Bi2+  Bi115  1  0.63832440  0.27866350  0.71108689  1
  Bi2+  Bi116  1  0.64085373  0.50965191  0.20875554  1
  Bi2+  Bi117  1  0.62227731  0.49903685  0.70442679  1
  Bi2+  Bi118  1  0.65618249  0.78341375  0.20686171  1
  Bi2+  Bi119  1  0.60380528  0.71531064  0.66418517  1
  Bi2+  Bi120  1  0.86147859  0.03225258  0.19360899  1
  Bi2+  Bi121  1  0.92555122  -0.01568152  0.77712042  1
  Bi2+  Bi122  1  0.84519973  0.31231039  0.21271958  1
  Bi2+  Bi123  1  0.90373479  0.26412733  0.73198576  1
  Bi2+  Bi124  1  0.82646562  0.54189540  0.24596917  1
  Bi2+  Bi125  1  0.87370258  0.50460447  0.75563547  1
  Bi2+  Bi126  1  0.87626616  0.82232640  0.22412153  1
  Bi2+  Bi127  1  0.86056933  0.79032079  0.70870386  1
  S2-  S128  1  0.02010757  0.20741342  0.13970607  1
  S2-  S129  1  0.11073151  0.14168729  0.64548257  1
  S2-  S130  1  0.01685618  0.45195897  0.14479309  1
  S2-  S131  1  0.08791320  0.36544014  0.65341339  1
  S2-  S132  1  0.04341611  0.66092256  0.16058310  1
  S2-  S133  1  -0.03259594  0.53241093  0.64047462  1
  S2-  S134  1  0.06493782  0.88286153  0.15143629  1
  S2-  S135  1  -0.00701960  0.76389843  0.64114732  1
  S2-  S136  1  0.26954094  0.20197579  0.14008584  1
  S2-  S137  1  0.33211483  0.14025001  0.65377758  1
  S2-  S138  1  0.24730928  0.48905020  0.14399012  1
  S2-  S139  1  0.29738393  0.37855151  0.68896159  1
  S2-  S140  1  0.27378684  0.71298145  0.13995543  1
  S2-  S141  1  0.21620491  0.57036012  0.64109290  1
  S2-  S142  1  0.28328363  0.96247138  0.14063809  1
  S2-  S143  1  0.20337995  0.91118815  0.65520448  1
  S2-  S144  1  0.53228053  0.17810171  0.13950865  1
  S2-  S145  1  0.64327846  0.13237836  0.65969026  1
  S2-  S146  1  0.41240111  0.36378933  0.14864238  1
  S2-  S147  1  0.49562280  0.29305125  0.65469739  1
  S2-  S148  1  0.50697327  0.58549556  0.15126369  1
  S2-  S149  1  0.49211025  0.51701692  0.63770933  1
  S2-  S150  1  0.50956132  0.82363761  0.15279716  1
  S2-  S151  1  0.48478090  0.97528909  0.64871612  1
  S2-  S152  1  0.77547976  0.19504241  0.14009014  1
  S2-  S153  1  0.87290948  0.14549335  0.64903552  1
  S2-  S154  1  0.64558349  0.37615869  0.14389557  1
  S2-  S155  1  0.73643150  0.39921056  0.65922515  1
  S2-  S156  1  0.76472912  0.59986177  0.15726963  1
  S2-  S157  1  0.77244202  0.66315856  0.64948789  1
  S2-  S158  1  0.75729006  0.89757080  0.15467720  1
  S2-  S159  1  0.79278283  0.91292957  0.65891665  1
  S2-  S160  1  0.11390910  -0.06575711  0.35737676  1
  S2-  S161  1  0.15133858  0.08247356  0.85915304  1
  S2-  S162  1  0.12152490  0.37605277  0.35707702  1
  S2-  S163  1  0.14690279  0.32943527  0.85581046  1
  S2-  S164  1  -0.01189728  0.53566299  0.35313375  1
  S2-  S165  1  0.14122972  0.52746394  0.83978360  1
  S2-  S166  1  0.16153562  0.71456176  0.31693030  1
  S2-  S167  1  0.03968335  0.73176667  0.85224029  1
  S2-  S168  1  0.35303713  -0.00659961  0.34471383  1
  S2-  S169  1  0.39129047  0.08330409  0.85521439  1
  S2-  S170  1  0.36473587  0.27671558  0.35233693  1
  S2-  S171  1  0.36234819  0.32120629  0.85576829  1
  S2-  S172  1  0.35173339  0.52161396  0.34147801  1
  S2-  S173  1  0.38955545  0.51456139  0.83979719  1
  S2-  S174  1  0.38127537  0.76297940  0.34124411  1
  S2-  S175  1  0.27223182  0.72054146  0.85882927  1
  S2-  S176  1  0.60840479  -0.10193992  0.36100434  1
  S2-  S177  1  0.62583136  0.03255790  0.84037127  1
  S2-  S178  1  0.63508237  0.13345140  0.36282339  1
  S2-  S179  1  0.54904047  0.23668802  0.84849697  1
  S2-  S180  1  0.58951870  0.37122544  0.35342387  1
  S2-  S181  1  0.63973974  0.47024052  0.83734665  1
  S2-  S182  1  0.59378791  0.65020713  0.35182861  1
  S2-  S183  1  0.51650619  0.71780901  0.85448542  1
  S2-  S184  1  0.89090681  0.02374854  0.34692650  1
  S2-  S185  1  0.81652315  -0.05171262  0.85782219  1
  S2-  S186  1  0.89410899  0.28010452  0.35559023  1
  S2-  S187  1  0.77851177  0.21513723  0.85407092  1
  S2-  S188  1  0.75934091  0.49896058  0.34745706  1
  S2-  S189  1  0.89607996  0.53635913  0.85793832  1
  S2-  S190  1  0.94823644  0.77103118  0.35789484  1
  S2-  S191  1  0.75064549  0.72219102  0.84877720  1
  S2-  S192  1  -0.01404577  0.14002592  0.45936204  1
  S2-  S193  1  0.01784212  0.08535658  0.95685202  1
  S2-  S194  1  -0.01818286  0.38898353  0.46212447  1
  S2-  S195  1  0.01761911  0.33693374  0.95636095  1
  S2-  S196  1  -0.01292911  0.64655072  0.45840669  1
  S2-  S197  1  0.02070560  0.58952433  0.95855985  1
  S2-  S198  1  -0.01580575  0.89214669  0.46268543  1
  S2-  S199  1  0.02124601  0.83497384  0.95501203  1
  S2-  S200  1  0.23025771  0.13808209  0.45476424  1
  S2-  S201  1  0.27427066  0.08526189  0.95886878  1
  S2-  S202  1  0.23680970  0.39125207  0.45725983  1
  S2-  S203  1  0.27070962  0.33659653  0.96360340  1
  S2-  S204  1  0.23081034  0.64120378  0.44478250  1
  S2-  S205  1  0.27003302  0.58401010  0.95481165  1
  S2-  S206  1  0.23200102  0.88913542  0.45546882  1
  S2-  S207  1  0.26983368  0.84140358  0.95718671  1
  S2-  S208  1  0.48112427  0.13733550  0.45292924  1
  S2-  S209  1  0.53044156  0.08174178  0.95240249  1
  S2-  S210  1  0.48376179  0.39130370  0.45938008  1
  S2-  S211  1  0.52458669  0.33639597  0.95775630  1
  S2-  S212  1  0.48273453  0.63947500  0.45565571  1
  S2-  S213  1  0.52031675  0.58190222  0.94884291  1
  S2-  S214  1  0.48176602  0.89270816  0.45718120  1
  S2-  S215  1  0.52425181  0.84239047  0.94840521  1
  S2-  S216  1  0.73842648  0.14075886  0.46596295  1
  S2-  S217  1  0.77570508  0.08399565  0.95756772  1
  S2-  S218  1  0.73705349  0.38528012  0.45371030  1
  S2-  S219  1  0.77176448  0.33976535  0.95709018  1
  S2-  S220  1  0.73700626  0.64554187  0.44963160  1
  S2-  S221  1  0.76914685  0.58799866  0.95427760  1
  S2-  S222  1  0.73572672  0.88964680  0.45832660  1
  S2-  S223  1  0.77843343  0.82668320  0.95740992  1
  S2-  S224  1  0.14245965  -0.03422188  0.04117286  1
  S2-  S225  1  0.10978760  0.01364902  0.54766569  1
  S2-  S226  1  0.14670845  0.21115224  0.04015517  1
  S2-  S227  1  0.11177831  0.26907802  0.54498081  1
  S2-  S228  1  0.14397210  0.46127020  0.04108985  1
  S2-  S229  1  0.10789887  0.51782120  0.53803390  1
  S2-  S230  1  0.14304866  0.71039734  0.03946160  1
  S2-  S231  1  0.11298242  0.76815890  0.54200948  1
  S2-  S232  1  0.40244253  -0.03485268  0.04017687  1
  S2-  S233  1  0.35510655  0.01663923  0.54850812  1
  S2-  S234  1  0.39987172  0.20820833  0.03819210  1
  S2-  S235  1  0.34992640  0.27215011  0.55538483  1
  S2-  S236  1  0.39830963  0.46691247  0.04149783  1
  S2-  S237  1  0.35412027  0.51413296  0.54574887  1
  S2-  S238  1  0.39943046  0.71320643  0.03723480  1
  S2-  S239  1  0.35856617  0.76782490  0.54871758  1
  S2-  S240  1  0.64986221  -0.03510318  0.04355699  1
  S2-  S241  1  0.60673576  0.01657867  0.54459638  1
  S2-  S242  1  0.65004739  0.20844852  0.03536446  1
  S2-  S243  1  0.60883131  0.26300068  0.54682146  1
  S2-  S244  1  0.64445947  0.46688816  0.04205626  1
  S2-  S245  1  0.60935533  0.51774846  0.53611522  1
  S2-  S246  1  0.64482406  0.71243852  0.04306770  1
  S2-  S247  1  0.60337398  0.76917026  0.54003291  1
  S2-  S248  1  0.89612544  -0.03677314  0.05041703  1
  S2-  S249  1  0.86341075  0.01373828  0.55084894  1
  S2-  S250  1  0.89417747  0.21128944  0.03830459  1
  S2-  S251  1  0.86350916  0.27386356  0.55436048  1
  S2-  S252  1  0.88903611  0.46043792  0.05072399  1
  S2-  S253  1  0.85434431  0.52001488  0.53921359  1
  S2-  S254  1  0.89558751  0.71198138  0.05766641  1
  S2-  S255  1  0.85642959  0.76763239  0.54499585  1
