# generated using pymatgen
data_La12Ce14Pr13Nd13Sm12(BiS2)64
_symmetry_space_group_name_H-M   'P 1'
_cell_length_a   16.13356615
_cell_length_b   16.12099168
_cell_length_c   27.37916652
_cell_angle_alpha   90.32245728
_cell_angle_beta   89.84090188
_cell_angle_gamma   89.91189415
_symmetry_Int_Tables_number   1
_chemical_formula_structural   La12Ce14Pr13Nd13Sm12(BiS2)64
_chemical_formula_sum   'La12 Ce14 Pr13 Nd13 Sm12 Bi64 S128'
_cell_volume   7120.87356831
_cell_formula_units_Z   1
loop_
 _symmetry_equiv_pos_site_id
 _symmetry_equiv_pos_as_xyz
  1  'x, y, z'
loop_
 _atom_type_symbol
 _atom_type_oxidation_number
  La3+  3.0
  Ce3+  3.0
  Pr3+  3.0
  Nd3+  3.0
  Sm3+  3.0
  Bi2+  2.0
  S2-  -2.0
loop_
 _atom_site_type_symbol
 _atom_site_label
 _atom_site_symmetry_multiplicity
 _atom_site_fract_x
 _atom_site_fract_y
 _atom_site_fract_z
 _atom_site_occupancy
  La3+  La0  1  0.89699013  0.74817969  0.92805893  1
  La3+  La1  1  0.26445687  0.13863794  0.56347150  1
  La3+  La2  1  0.89462685  0.76234380  0.39739279  1
  La3+  La3  1  0.64671118  0.74564943  0.91977899  1
  La3+  La4  1  0.89636108  0.00063435  0.93417231  1
  La3+  La5  1  0.64020585  0.75820989  0.43369766  1
  La3+  La6  1  0.26144522  0.63923228  0.56606961  1
  La3+  La7  1  0.75337243  0.13977732  0.59271609  1
  La3+  La8  1  0.64198877  0.26184909  0.42509459  1
  La3+  La9  1  0.39106051  0.00170623  0.93753222  1
  La3+  La10  1  0.01669271  0.39712754  0.57348554  1
  La3+  La11  1  0.14969345  0.75995172  0.39677957  1
  Ce3+  Ce12  1  0.76415273  0.12688885  0.06152210  1
  Ce3+  Ce13  1  0.01674055  0.63349879  0.06560836  1
  Ce3+  Ce14  1  0.01331719  0.64514101  0.55060423  1
  Ce3+  Ce15  1  0.64336899  0.50476008  0.94737890  1
  Ce3+  Ce16  1  0.64629038  -0.00021157  0.93507837  1
  Ce3+  Ce17  1  0.77142021  0.38397062  0.56735160  1
  Ce3+  Ce18  1  0.51748220  0.87495314  0.05126034  1
  Ce3+  Ce19  1  0.51548932  0.37854087  0.05424040  1
  Ce3+  Ce20  1  0.38930314  0.50494599  0.94660329  1
  Ce3+  Ce21  1  0.01581097  0.12600896  0.06354688  1
  Ce3+  Ce22  1  0.14308236  0.25189579  0.94303091  1
  Ce3+  Ce23  1  0.38493327  0.75900043  0.44405602  1
  Ce3+  Ce24  1  0.26228232  0.88897065  0.55754119  1
  Ce3+  Ce25  1  0.38707697  0.01044610  0.44252312  1
  Pr3+  Pr26  1  0.01133677  0.89224928  0.56421984  1
  Pr3+  Pr27  1  0.64371397  0.51180922  0.44349461  1
  Pr3+  Pr28  1  0.76619660  0.37179911  0.06741159  1
  Pr3+  Pr29  1  0.38923439  0.25854972  0.42732411  1
  Pr3+  Pr30  1  0.26332477  0.38549951  0.56789381  1
  Pr3+  Pr31  1  0.77173605  0.63270167  0.07104651  1
  Pr3+  Pr32  1  0.89205523  0.25338184  0.93610500  1
  Pr3+  Pr33  1  0.13812245  0.51003648  0.43357753  1
  Pr3+  Pr34  1  0.76665063  0.88078145  0.06709604  1
  Pr3+  Pr35  1  0.64148524  0.00962173  0.44077725  1
  Pr3+  Pr36  1  0.26659313  0.87791152  0.07315908  1
  Pr3+  Pr37  1  0.51792869  0.12915578  0.05477671  1
  Pr3+  Pr38  1  0.88711459  0.25862933  0.43979792  1
  Nd3+  Nd39  1  0.14506583  0.75366673  0.93807399  1
  Nd3+  Nd40  1  0.89050975  0.50295673  0.93985104  1
  Nd3+  Nd41  1  0.76708169  0.64026248  0.56021236  1
  Nd3+  Nd42  1  0.26240667  0.63069016  0.07473217  1
  Nd3+  Nd43  1  0.01731960  0.88403314  0.08199663  1
  Nd3+  Nd44  1  0.51861083  0.38484545  0.55331002  1
  Nd3+  Nd45  1  0.51685175  0.63753824  0.56032134  1
  Nd3+  Nd46  1  0.51312113  0.14181605  0.55949553  1
  Nd3+  Nd47  1  0.13612755  0.01140592  0.43493100  1
  Nd3+  Nd48  1  0.89326100  0.51001305  0.43580213  1
  Nd3+  Nd49  1  0.88955788  0.00643041  0.44488046  1
  Nd3+  Nd50  1  0.01674388  0.37812329  0.05544163  1
  Nd3+  Nd51  1  0.64390891  0.25308891  0.92979179  1
  Sm3+  Sm52  1  0.76385040  0.88656771  0.55757681  1
  Sm3+  Sm53  1  0.26790255  0.37826723  0.05814424  1
  Sm3+  Sm54  1  0.51949334  0.63060629  0.05800964  1
  Sm3+  Sm55  1  0.14213493  0.25724898  0.43391307  1
  Sm3+  Sm56  1  0.01256917  0.13809615  0.56366773  1
  Sm3+  Sm57  1  0.14140092  0.00136569  0.94890039  1
  Sm3+  Sm58  1  0.39137787  0.25345407  0.94210455  1
  Sm3+  Sm59  1  0.38581106  0.51110527  0.44960678  1
  Sm3+  Sm60  1  0.51624368  0.88825355  0.55535731  1
  Sm3+  Sm61  1  0.14421582  0.50486762  0.94699400  1
  Sm3+  Sm62  1  0.38909861  0.75054551  0.94292795  1
  Sm3+  Sm63  1  0.26816866  0.12864274  0.05857805  1
  Bi2+  Bi64  1  -0.02506939  0.14943891  0.29740960  1
  Bi2+  Bi65  1  0.00856805  0.10386045  0.72812785  1
  Bi2+  Bi66  1  -0.00787287  0.37430583  0.34731303  1
  Bi2+  Bi67  1  -0.02131019  0.32287324  0.80459026  1
  Bi2+  Bi68  1  0.00246007  0.54341393  0.28567469  1
  Bi2+  Bi69  1  0.03170140  0.53608133  0.79035144  1
  Bi2+  Bi70  1  0.00299569  0.92037930  0.28971678  1
  Bi2+  Bi71  1  -0.01670604  0.90543699  0.79693713  1
  Bi2+  Bi72  1  0.24868168  0.14385968  0.29992689  1
  Bi2+  Bi73  1  0.20572742  0.10423907  0.80855987  1
  Bi2+  Bi74  1  0.16408592  0.37872428  0.29280148  1
  Bi2+  Bi75  1  0.29215004  0.32356586  0.76597827  1
  Bi2+  Bi76  1  0.26815069  0.64229885  0.28154276  1
  Bi2+  Bi77  1  0.26637706  0.60124560  0.80477051  1
  Bi2+  Bi78  1  0.25972003  0.87379787  0.27871364  1
  Bi2+  Bi79  1  0.27007618  0.86158550  0.78983533  1
  Bi2+  Bi80  1  0.44712310  0.15704658  0.28293575  1
  Bi2+  Bi81  1  0.42313710  0.12691105  0.77748336  1
  Bi2+  Bi82  1  0.43539160  0.41005480  0.27540044  1
  Bi2+  Bi83  1  0.48865780  0.40017685  0.78489815  1
  Bi2+  Bi84  1  0.48970180  0.59750354  0.29331985  1
  Bi2+  Bi85  1  0.53193626  0.59482479  0.78910956  1
  Bi2+  Bi86  1  0.44056483  0.88760839  0.23781130  1
  Bi2+  Bi87  1  0.45345263  0.83959678  0.75231705  1
  Bi2+  Bi88  1  0.67996501  0.14487622  0.28857908  1
  Bi2+  Bi89  1  0.75094572  0.10305270  0.79355912  1
  Bi2+  Bi90  1  0.80553215  0.37666217  0.29671289  1
  Bi2+  Bi91  1  0.76903552  0.35489666  0.81941279  1
  Bi2+  Bi92  1  0.70292653  0.61856262  0.31577380  1
  Bi2+  Bi93  1  0.77914312  0.63022977  0.79331898  1
  Bi2+  Bi94  1  0.71730152  0.89038646  0.29935970  1
  Bi2+  Bi95  1  0.67587032  0.86561678  0.78797606  1
  Bi2+  Bi96  1  0.10278778  0.05834614  0.22084713  1
  Bi2+  Bi97  1  0.12937575  -0.09259747  0.71569632  1
  Bi2+  Bi98  1  0.07764577  0.25570202  0.21661458  1
  Bi2+  Bi99  1  0.10513433  0.27051914  0.71882220  1
  Bi2+  Bi100  1  0.15378675  0.50931600  0.20982490  1
  Bi2+  Bi101  1  0.17746801  0.51248038  0.70931240  1
  Bi2+  Bi102  1  0.08154838  0.76324424  0.21259865  1
  Bi2+  Bi103  1  0.11154190  0.73217377  0.77265870  1
  Bi2+  Bi104  1  0.29549086  -0.00505197  0.19100566  1
  Bi2+  Bi105  1  0.31730699  0.03485752  0.69356937  1
  Bi2+  Bi106  1  0.36441752  0.27605183  0.20290194  1
  Bi2+  Bi107  1  0.36460727  0.22038329  0.67579993  1
  Bi2+  Bi108  1  0.35477077  0.53818320  0.19636826  1
  Bi2+  Bi109  1  0.37302164  0.45226132  0.69415959  1
  Bi2+  Bi110  1  0.33069961  0.74198330  0.18815709  1
  Bi2+  Bi111  1  0.39630927  0.65692881  0.71282280  1
  Bi2+  Bi112  1  0.61643005  0.01308720  0.20286240  1
  Bi2+  Bi113  1  0.53373938  0.00497582  0.71563648  1
  Bi2+  Bi114  1  0.61587817  0.26313272  0.20397899  1
  Bi2+  Bi115  1  0.59944443  0.26123692  0.71034860  1
  Bi2+  Bi116  1  0.62238448  0.47394457  0.24963694  1
  Bi2+  Bi117  1  0.66303350  0.46344624  0.74452977  1
  Bi2+  Bi118  1  0.60184654  0.74065731  0.19920989  1
  Bi2+  Bi119  1  0.64931507  0.74368618  0.69094390  1
  Bi2+  Bi120  1  0.83010076  0.05862435  0.23281227  1
  Bi2+  Bi121  1  0.88286210  -0.06383772  0.70182510  1
  Bi2+  Bi122  1  0.87756008  0.24698660  0.21000011  1
  Bi2+  Bi123  1  0.87623243  0.24850842  0.70040505  1
  Bi2+  Bi124  1  0.87790709  0.46431504  0.20819045  1
  Bi2+  Bi125  1  0.87161763  0.45897048  0.73855096  1
  Bi2+  Bi126  1  0.83535978  0.70340938  0.20620605  1
  Bi2+  Bi127  1  0.93945255  0.67842229  0.70307619  1
  S2-  S128  1  0.00210844  0.03265430  0.14358589  1
  S2-  S129  1  0.00998482  0.02549403  0.63937059  1
  S2-  S130  1  -0.00538845  0.37388046  0.15343155  1
  S2-  S131  1  -0.10695318  0.39355655  0.64432733  1
  S2-  S132  1  -0.09408594  0.60442207  0.14039068  1
  S2-  S133  1  0.01708539  0.57529590  0.63951312  1
  S2-  S134  1  -0.05304262  0.81965802  0.17066018  1
  S2-  S135  1  -0.00492136  0.80909256  0.65755377  1
  S2-  S136  1  0.27815109  0.15633614  0.15490195  1
  S2-  S137  1  0.19780594  0.15329631  0.65631244  1
  S2-  S138  1  0.25627133  0.38635982  0.15537184  1
  S2-  S139  1  0.14525093  0.38182217  0.64375832  1
  S2-  S140  1  0.12944183  0.63660993  0.14348460  1
  S2-  S141  1  0.24139401  0.64936984  0.66599413  1
  S2-  S142  1  0.15086145  0.86396283  0.15116664  1
  S2-  S143  1  0.26720358  0.88117064  0.65488388  1
  S2-  S144  1  0.53415236  0.12873376  0.15567381  1
  S2-  S145  1  0.59346917  0.12989148  0.64740595  1
  S2-  S146  1  0.51067391  0.35805827  0.15034170  1
  S2-  S147  1  0.51447172  0.37405884  0.65169116  1
  S2-  S148  1  0.47401289  0.64523489  0.15212230  1
  S2-  S149  1  0.54829882  0.62824790  0.65744272  1
  S2-  S150  1  0.52429949  0.88829244  0.14801068  1
  S2-  S151  1  0.52199879  0.86811166  0.65285849  1
  S2-  S152  1  0.75575650  0.01934000  0.14002721  1
  S2-  S153  1  0.79921352  0.09024056  0.69107000  1
  S2-  S154  1  0.75234015  0.24884580  0.13877330  1
  S2-  S155  1  0.72785819  0.28853481  0.64880496  1
  S2-  S156  1  0.69333627  0.61981950  0.16463948  1
  S2-  S157  1  0.77510560  0.64788082  0.66058460  1
  S2-  S158  1  0.73357788  0.81141841  0.16159533  1
  S2-  S159  1  0.74985460  0.88259925  0.65632804  1
  S2-  S160  1  0.14547628  -0.07802458  0.34792998  1
  S2-  S161  1  0.10072746  0.00665430  0.85300643  1
  S2-  S162  1  0.11658829  0.13613986  0.36135527  1
  S2-  S163  1  0.12415268  0.23520039  0.84703818  1
  S2-  S164  1  0.14648836  0.59951221  0.34665379  1
  S2-  S165  1  0.16366620  0.48955744  0.84934952  1
  S2-  S166  1  0.02109281  0.76921620  0.32451788  1
  S2-  S167  1  0.03297010  0.77065109  0.86090577  1
  S2-  S168  1  0.37004544  0.04139281  0.34722473  1
  S2-  S169  1  0.34309105  0.00216865  0.84156984  1
  S2-  S170  1  0.26342351  0.28339208  0.35776585  1
  S2-  S171  1  0.36756195  0.24715423  0.84621069  1
  S2-  S172  1  0.37723301  0.50831969  0.35230721  1
  S2-  S173  1  0.40200878  0.52290905  0.84993569  1
  S2-  S174  1  0.31837898  0.76336472  0.35470202  1
  S2-  S175  1  0.28054978  0.75049853  0.86753417  1
  S2-  S176  1  0.61512207  0.01375109  0.34111872  1
  S2-  S177  1  0.62472907  0.00746365  0.83731072  1
  S2-  S178  1  0.51294645  0.25299688  0.35160814  1
  S2-  S179  1  0.64714476  0.23167048  0.82972756  1
  S2-  S180  1  0.65954607  0.44868611  0.35025582  1
  S2-  S181  1  0.65348306  0.58563545  0.86194361  1
  S2-  S182  1  0.60875063  0.76622703  0.33470198  1
  S2-  S183  1  0.54959048  0.78331349  0.83377256  1
  S2-  S184  1  0.86670734  -0.05983708  0.35169984  1
  S2-  S185  1  0.84423970  -0.01587041  0.83807725  1
  S2-  S186  1  0.77582881  0.24531801  0.35723781  1
  S2-  S187  1  0.87697821  0.19407649  0.84167399  1
  S2-  S188  1  0.87099035  0.58881558  0.34769133  1
  S2-  S189  1  0.89912763  0.59628883  0.85638545  1
  S2-  S190  1  0.80491609  0.75583744  0.30717396  1
  S2-  S191  1  0.77748216  0.77079367  0.84986683  1
  S2-  S192  1  0.00987189  0.13463656  0.46104927  1
  S2-  S193  1  0.01849520  0.12860379  0.95644510  1
  S2-  S194  1  0.01746661  0.38262608  0.46172451  1
  S2-  S195  1  0.01919311  0.38055820  0.94978200  1
  S2-  S196  1  0.01514716  0.64152431  0.44575104  1
  S2-  S197  1  0.02125930  0.62272713  0.95915788  1
  S2-  S198  1  0.01319009  0.88216250  0.45281407  1
  S2-  S199  1  0.02083976  0.88163996  0.96374549  1
  S2-  S200  1  0.26486761  0.13589289  0.45631902  1
  S2-  S201  1  0.26704407  0.12837168  0.95423670  1
  S2-  S202  1  0.26393204  0.38879829  0.46092858  1
  S2-  S203  1  0.26756144  0.37738154  0.95328450  1
  S2-  S204  1  0.26267338  0.63616544  0.45762410  1
  S2-  S205  1  0.26682528  0.62615767  0.96653136  1
  S2-  S206  1  0.26250668  0.88548331  0.45387817  1
  S2-  S207  1  0.26716882  0.88124880  0.96388350  1
  S2-  S208  1  0.51435614  0.13278024  0.45476243  1
  S2-  S209  1  0.51669352  0.13055277  0.94595839  1
  S2-  S210  1  0.51210501  0.39100546  0.44965883  1
  S2-  S211  1  0.51617350  0.37740709  0.94689635  1
  S2-  S212  1  0.51192884  0.63353232  0.45340471  1
  S2-  S213  1  0.51345098  0.63023262  0.95485034  1
  S2-  S214  1  0.51170555  0.88400283  0.45009810  1
  S2-  S215  1  0.51459340  0.87427076  0.94653153  1
  S2-  S216  1  0.76482639  0.13001303  0.45335788  1
  S2-  S217  1  0.76556874  0.12879580  0.95067260  1
  S2-  S218  1  0.76914942  0.38856342  0.45905298  1
  S2-  S219  1  0.76589959  0.37729073  0.95736432  1
  S2-  S220  1  0.76862057  0.64005199  0.45295848  1
  S2-  S221  1  0.76980153  0.62592325  0.96321204  1
  S2-  S222  1  0.76472148  0.88002311  0.45298696  1
  S2-  S223  1  0.76699034  0.87742713  0.95647146  1
  S2-  S224  1  0.14671755  0.00704633  0.05155023  1
  S2-  S225  1  0.13963414  0.01391020  0.54250682  1
  S2-  S226  1  0.14441954  0.25362268  0.05065143  1
  S2-  S227  1  0.13565356  0.25889791  0.54122763  1
  S2-  S228  1  0.14385207  0.49992471  0.04995767  1
  S2-  S229  1  0.14276319  0.51464212  0.54055228  1
  S2-  S230  1  0.14359380  0.75612060  0.04342825  1
  S2-  S231  1  0.13897303  0.76614054  0.55413565  1
  S2-  S232  1  0.39116378  0.00402556  0.04685813  1
  S2-  S233  1  0.39349720  0.01193889  0.55049774  1
  S2-  S234  1  0.39020514  0.25394085  0.04617055  1
  S2-  S235  1  0.39000546  0.26500996  0.54025982  1
  S2-  S236  1  0.39016803  0.50604210  0.05183867  1
  S2-  S237  1  0.39125500  0.51169642  0.55400602  1
  S2-  S238  1  0.39017219  0.75174016  0.04641715  1
  S2-  S239  1  0.39272770  0.76290135  0.55086650  1
  S2-  S240  1  0.63689460  0.00134290  0.03978347  1
  S2-  S241  1  0.63950257  0.01057311  0.54770919  1
  S2-  S242  1  0.63893818  0.25387813  0.03706666  1
  S2-  S243  1  0.63971017  0.26051349  0.53760867  1
  S2-  S244  1  0.64192285  0.50210093  0.05358265  1
  S2-  S245  1  0.64290090  0.51119503  0.55039886  1
  S2-  S246  1  0.64084202  0.75138925  0.04325246  1
  S2-  S247  1  0.63871120  0.76292733  0.54305901  1
  S2-  S248  1  0.89207823  0.00311699  0.04183570  1
  S2-  S249  1  0.87784183  0.01687593  0.54924020  1
  S2-  S250  1  0.89394144  0.25133264  0.04361384  1
  S2-  S251  1  0.88779113  0.25346362  0.54783444  1
  S2-  S252  1  0.88823036  0.49465232  0.04376977  1
  S2-  S253  1  0.88834427  0.51701557  0.54050855  1
  S2-  S254  1  0.89470533  0.75921633  0.04491939  1
  S2-  S255  1  0.88541257  0.76580501  0.54968438  1
