# generated using pymatgen
data_La12Ce14Pr13Nd13Sm12(BiS2)64
_symmetry_space_group_name_H-M   'P 1'
_cell_length_a   16.16849906
_cell_length_b   16.16693462
_cell_length_c   27.13375347
_cell_angle_alpha   89.94879618
_cell_angle_beta   90.00770343
_cell_angle_gamma   90.06917704
_symmetry_Int_Tables_number   1
_chemical_formula_structural   La12Ce14Pr13Nd13Sm12(BiS2)64
_chemical_formula_sum   'La12 Ce14 Pr13 Nd13 Sm12 Bi64 S128'
_cell_volume   7092.62124672
_cell_formula_units_Z   1
loop_
 _symmetry_equiv_pos_site_id
 _symmetry_equiv_pos_as_xyz
  1  'x, y, z'
loop_
 _atom_type_symbol
 _atom_type_oxidation_number
  La3+  3.0
  Ce3+  3.0
  Pr3+  3.0
  Nd3+  3.0
  Sm3+  3.0
  Bi2+  2.0
  S2-  -2.0
loop_
 _atom_site_type_symbol
 _atom_site_label
 _atom_site_symmetry_multiplicity
 _atom_site_fract_x
 _atom_site_fract_y
 _atom_site_fract_z
 _atom_site_occupancy
  La3+  La0  1  0.36147225  -0.00321485  0.92394618  1
  La3+  La1  1  0.00043976  0.60930587  0.57515502  1
  La3+  La2  1  0.48812206  0.60877547  0.58577058  1
  La3+  La3  1  0.25966226  0.86299767  0.07886016  1
  La3+  La4  1  0.25192474  0.11494828  0.07720397  1
  La3+  La5  1  0.11041822  0.73457186  0.41532288  1
  La3+  La6  1  0.37635505  -0.02255851  0.42082475  1
  La3+  La7  1  0.88794147  0.49420340  0.89719396  1
  La3+  La8  1  0.62145214  0.48695167  0.92312749  1
  La3+  La9  1  0.24635402  0.37028641  0.07052346  1
  La3+  La10  1  0.62596941  0.50520640  0.40138512  1
  La3+  La11  1  0.74708182  0.86498281  0.05519585  1
  Ce3+  Ce12  1  0.74908342  0.61283470  0.04296614  1
  Ce3+  Ce13  1  0.37244521  0.24347464  0.43560303  1
  Ce3+  Ce14  1  0.86904651  0.48938956  0.44595839  1
  Ce3+  Ce15  1  0.11674727  0.49146320  0.44133634  1
  Ce3+  Ce16  1  0.24958363  0.11510837  0.55030864  1
  Ce3+  Ce17  1  0.49405127  0.11404894  0.55189881  1
  Ce3+  Ce18  1  0.49852733  0.86301697  0.04963472  1
  Ce3+  Ce19  1  0.74350968  0.86824163  0.55944280  1
  Ce3+  Ce20  1  0.12057614  0.24316300  0.43405406  1
  Ce3+  Ce21  1  0.61855758  -0.01251571  0.43735479  1
  Ce3+  Ce22  1  0.25156050  0.62274964  0.05540866  1
  Ce3+  Ce23  1  -0.00365539  0.62107639  0.06018392  1
  Ce3+  Ce24  1  0.49820895  0.36961181  0.55537919  1
  Ce3+  Ce25  1  0.87493633  0.74513340  0.93203455  1
  Pr3+  Pr26  1  0.87308666  -0.01103985  0.43905123  1
  Pr3+  Pr27  1  0.75106722  0.36721385  0.06181828  1
  Pr3+  Pr28  1  0.37382650  0.73116156  0.43481839  1
  Pr3+  Pr29  1  0.49642712  0.11566212  0.05844666  1
  Pr3+  Pr30  1  0.12402036  -0.01042907  0.95487157  1
  Pr3+  Pr31  1  -0.00867356  0.86021668  0.08776446  1
  Pr3+  Pr32  1  0.87047699  0.73801960  0.45080094  1
  Pr3+  Pr33  1  0.12192866  0.24581334  0.94678935  1
  Pr3+  Pr34  1  0.00241033  0.86743566  0.56850373  1
  Pr3+  Pr35  1  0.48784254  0.87604829  0.58599743  1
  Pr3+  Pr36  1  0.36892258  0.24454679  0.93436082  1
  Pr3+  Pr37  1  -0.00205178  0.11893744  0.56631412  1
  Pr3+  Pr38  1  0.61767108  0.73270800  0.91390777  1
  Nd3+  Nd39  1  0.12073941  0.74395574  0.94628171  1
  Nd3+  Nd40  1  0.24787551  0.61983028  0.56188950  1
  Nd3+  Nd41  1  0.00008910  0.36954750  0.07112987  1
  Nd3+  Nd42  1  0.62343968  0.24852073  0.43683334  1
  Nd3+  Nd43  1  0.37485730  0.49531114  0.94018995  1
  Nd3+  Nd44  1  0.37201329  0.74808556  0.93043782  1
  Nd3+  Nd45  1  0.74512391  0.61666204  0.56987751  1
  Nd3+  Nd46  1  0.51395107  0.61225473  0.06965154  1
  Nd3+  Nd47  1  0.74501439  0.36545192  0.57037367  1
  Nd3+  Nd48  1  -0.00046241  0.36076035  0.56916360  1
  Nd3+  Nd49  1  0.62377811  0.24839231  0.93915302  1
  Nd3+  Nd50  1  0.87723791  0.23787606  0.93287777  1
  Nd3+  Nd51  1  0.49334571  0.36807158  0.06834190  1
  Sm3+  Sm52  1  0.12356226  -0.00915041  0.43511231  1
  Sm3+  Sm53  1  0.61644941  0.73631164  0.45768321  1
  Sm3+  Sm54  1  0.87154975  0.24260037  0.44573684  1
  Sm3+  Sm55  1  0.74856706  0.11863665  0.05015118  1
  Sm3+  Sm56  1  0.37346651  0.49327620  0.43667669  1
  Sm3+  Sm57  1  0.62101072  -0.00708663  0.93677381  1
  Sm3+  Sm58  1  0.24571982  0.86557604  0.55769057  1
  Sm3+  Sm59  1  0.24800917  0.36547664  0.55110934  1
  Sm3+  Sm60  1  0.74428967  0.11523950  0.55121349  1
  Sm3+  Sm61  1  0.87634396  -0.00616057  0.93810169  1
  Sm3+  Sm62  1  -0.00169381  0.11527943  0.06374046  1
  Sm3+  Sm63  1  0.12181554  0.49284205  0.94443116  1
  Bi2+  Bi64  1  -0.10943072  0.17624970  0.26211625  1
  Bi2+  Bi65  1  0.01170952  0.08388484  0.79343278  1
  Bi2+  Bi66  1  0.00998203  0.41294546  0.31674377  1
  Bi2+  Bi67  1  0.02075379  0.35259922  0.78737660  1
  Bi2+  Bi68  1  -0.02335965  0.60704238  0.29617087  1
  Bi2+  Bi69  1  0.07807490  0.63493155  0.79920690  1
  Bi2+  Bi70  1  -0.01089072  0.87232102  0.29737977  1
  Bi2+  Bi71  1  -0.04337097  0.90641347  0.83010878  1
  Bi2+  Bi72  1  0.27110632  0.17690697  0.28312221  1
  Bi2+  Bi73  1  0.24628905  0.20322586  0.79563036  1
  Bi2+  Bi74  1  0.19836149  0.35607085  0.30538651  1
  Bi2+  Bi75  1  0.29069574  0.38461629  0.82951386  1
  Bi2+  Bi76  1  0.25586242  0.53083992  0.27050822  1
  Bi2+  Bi77  1  0.27429452  0.57313606  0.78777135  1
  Bi2+  Bi78  1  0.24400802  0.90448136  0.29310337  1
  Bi2+  Bi79  1  0.21906026  0.89181215  0.79396980  1
  Bi2+  Bi80  1  0.51641261  0.12380750  0.29321989  1
  Bi2+  Bi81  1  0.50172806  0.11904218  0.78855656  1
  Bi2+  Bi82  1  0.52455003  0.34268494  0.28589715  1
  Bi2+  Bi83  1  0.49153304  0.33250620  0.80251621  1
  Bi2+  Bi84  1  0.48090390  0.65886364  0.29819953  1
  Bi2+  Bi85  1  0.50532740  0.59773381  0.78377546  1
  Bi2+  Bi86  1  0.50456390  0.85271409  0.28329420  1
  Bi2+  Bi87  1  0.50407248  0.85861133  0.79495555  1
  Bi2+  Bi88  1  0.71080863  0.12195877  0.29724414  1
  Bi2+  Bi89  1  0.71860349  0.15679366  0.78088160  1
  Bi2+  Bi90  1  0.79388108  0.39046614  0.29616032  1
  Bi2+  Bi91  1  0.76046538  0.35263619  0.77786319  1
  Bi2+  Bi92  1  0.71443254  0.69795851  0.27629795  1
  Bi2+  Bi93  1  0.77034065  0.67231623  0.79146305  1
  Bi2+  Bi94  1  0.71641474  0.91735448  0.28955801  1
  Bi2+  Bi95  1  0.80813078  0.93906011  0.75732268  1
  Bi2+  Bi96  1  0.08779983  0.05080477  0.22171199  1
  Bi2+  Bi97  1  0.14189803  0.00430922  0.71134725  1
  Bi2+  Bi98  1  0.05546717  0.28148410  0.21878558  1
  Bi2+  Bi99  1  0.13310453  0.27081379  0.70922345  1
  Bi2+  Bi100  1  0.07944340  0.50520678  0.21698917  1
  Bi2+  Bi101  1  0.14631377  0.46877242  0.72180739  1
  Bi2+  Bi102  1  0.11891224  0.75904684  0.20918896  1
  Bi2+  Bi103  1  0.13123520  0.72931740  0.70162867  1
  Bi2+  Bi104  1  0.42618579  -0.00781839  0.21481458  1
  Bi2+  Bi105  1  0.36739671  0.00405105  0.70210148  1
  Bi2+  Bi106  1  0.42197897  0.23518169  0.21178338  1
  Bi2+  Bi107  1  0.38795821  0.21434112  0.70849671  1
  Bi2+  Bi108  1  0.39659027  0.50131227  0.20059773  1
  Bi2+  Bi109  1  0.37162410  0.41626750  0.72054353  1
  Bi2+  Bi110  1  0.34701510  0.75354847  0.20214646  1
  Bi2+  Bi111  1  0.32046355  0.72979762  0.71737877  1
  Bi2+  Bi112  1  0.61436497  0.01816702  0.19088313  1
  Bi2+  Bi113  1  0.65314363  0.02735431  0.70199646  1
  Bi2+  Bi114  1  0.62967111  0.22592328  0.20651346  1
  Bi2+  Bi115  1  0.58611575  0.24502082  0.70995232  1
  Bi2+  Bi116  1  0.65781160  0.53174766  0.20775194  1
  Bi2+  Bi117  1  0.64140482  0.49485181  0.68982508  1
  Bi2+  Bi118  1  0.63840864  0.81838134  0.19529197  1
  Bi2+  Bi119  1  0.66350780  0.76271152  0.70961457  1
  Bi2+  Bi120  1  0.83523000  0.00691553  0.21195747  1
  Bi2+  Bi121  1  0.95718665  -0.00076459  0.67572930  1
  Bi2+  Bi122  1  0.87927010  0.33131135  0.18343834  1
  Bi2+  Bi123  1  0.88335270  0.16680151  0.71463758  1
  Bi2+  Bi124  1  0.86503628  0.52256410  0.21195534  1
  Bi2+  Bi125  1  0.89382585  0.52183549  0.70432869  1
  Bi2+  Bi126  1  0.85065174  0.73579770  0.20416812  1
  Bi2+  Bi127  1  0.95529054  0.81601774  0.72906610  1
  S2-  S128  1  -0.03178622  0.09305229  0.16040445  1
  S2-  S129  1  0.00229004  0.23710230  0.64394937  1
  S2-  S130  1  0.12349437  0.37909586  0.14684517  1
  S2-  S131  1  0.01219269  0.46969988  0.64820923  1
  S2-  S132  1  -0.00990100  0.70458261  0.14696200  1
  S2-  S133  1  -0.02981330  0.67072632  0.66960546  1
  S2-  S134  1  0.03214718  0.89486978  0.18938208  1
  S2-  S135  1  0.13145958  0.86729429  0.63795779  1
  S2-  S136  1  0.18064872  0.14643678  0.17227445  1
  S2-  S137  1  0.24593224  0.09837254  0.64857149  1
  S2-  S138  1  0.36186767  0.36151756  0.14636527  1
  S2-  S139  1  0.24192209  0.37513196  0.64964973  1
  S2-  S140  1  0.23409714  0.65944521  0.15165315  1
  S2-  S141  1  0.34085676  0.62085890  0.64724438  1
  S2-  S142  1  0.23007498  0.88739219  0.18237182  1
  S2-  S143  1  0.34092209  0.87209042  0.64460348  1
  S2-  S144  1  0.39269646  0.10558012  0.14102464  1
  S2-  S145  1  0.49871073  0.03467713  0.63969938  1
  S2-  S146  1  0.53328467  0.47594158  0.14563095  1
  S2-  S147  1  0.49441434  0.44063667  0.64569852  1
  S2-  S148  1  0.45672665  0.65511927  0.16544661  1
  S2-  S149  1  0.55326771  0.63110478  0.68256111  1
  S2-  S150  1  0.41940860  0.87113463  0.13661727  1
  S2-  S151  1  0.53061109  0.84144175  0.68985496  1
  S2-  S152  1  0.74355859  0.11080473  0.14831200  1
  S2-  S153  1  0.74599784  0.13945671  0.64834088  1
  S2-  S154  1  0.70756229  0.35831050  0.16147035  1
  S2-  S155  1  0.78444000  0.39110763  0.66872548  1
  S2-  S156  1  0.68043290  0.62898204  0.13313698  1
  S2-  S157  1  0.76006499  0.61987697  0.67104883  1
  S2-  S158  1  0.83761741  0.87192506  0.14195027  1
  S2-  S159  1  0.74464469  0.88997486  0.65715306  1
  S2-  S160  1  0.09207122  -0.01914960  0.33648487  1
  S2-  S161  1  0.19406088  0.00006139  0.86256784  1
  S2-  S162  1  0.12847025  0.20168341  0.33843076  1
  S2-  S163  1  0.09012543  0.22691003  0.84779582  1
  S2-  S164  1  0.11282417  0.58304499  0.35939921  1
  S2-  S165  1  0.04972853  0.48227808  0.85449634  1
  S2-  S166  1  0.15229286  0.77591529  0.31403316  1
  S2-  S167  1  0.16202432  0.75113847  0.84918739  1
  S2-  S168  1  0.31103315  0.04803340  0.33396982  1
  S2-  S169  1  0.36517771  -0.12572163  0.85003290  1
  S2-  S170  1  0.37927113  0.30562749  0.34410723  1
  S2-  S171  1  0.36657974  0.13156068  0.85625274  1
  S2-  S172  1  0.36037170  0.60043530  0.35788671  1
  S2-  S173  1  0.47355640  0.48410914  0.85724207  1
  S2-  S174  1  0.36232072  0.83456325  0.35069985  1
  S2-  S175  1  0.47405356  0.71421548  0.84877392  1
  S2-  S176  1  0.52497719  -0.02155591  0.35599962  1
  S2-  S177  1  0.57684690  -0.00739040  0.84112090  1
  S2-  S178  1  0.65117870  0.34119202  0.35329493  1
  S2-  S179  1  0.64039388  0.34683810  0.85601698  1
  S2-  S180  1  0.54448623  0.50878892  0.30759395  1
  S2-  S181  1  0.64285343  0.59688224  0.84104433  1
  S2-  S182  1  0.61862253  0.68277462  0.36330358  1
  S2-  S183  1  0.66902034  0.80080530  0.82073334  1
  S2-  S184  1  0.87081916  -0.04174222  0.33972154  1
  S2-  S185  1  0.88520471  0.10413638  0.86123517  1
  S2-  S186  1  0.89323277  0.26721634  0.34867608  1
  S2-  S187  1  0.88340321  0.33273738  0.84921167  1
  S2-  S188  1  0.78937451  0.51506870  0.35861632  1
  S2-  S189  1  0.81683571  0.50105199  0.79918529  1
  S2-  S190  1  0.94875474  0.74120295  0.36111446  1
  S2-  S191  1  0.91347938  0.66736986  0.84660219  1
  S2-  S192  1  -0.00461809  0.11694481  0.45291856  1
  S2-  S193  1  0.00212471  0.11592240  0.96020519  1
  S2-  S194  1  -0.00517579  0.36408298  0.46046391  1
  S2-  S195  1  -0.00216479  0.37134121  0.96349884  1
  S2-  S196  1  -0.00774018  0.61180186  0.46542770  1
  S2-  S197  1  -0.00142460  0.61529184  0.95603950  1
  S2-  S198  1  -0.00106845  0.86829444  0.45945978  1
  S2-  S199  1  -0.00432037  0.86807756  0.96154171  1
  S2-  S200  1  0.24587126  0.11768364  0.44598773  1
  S2-  S201  1  0.24398249  0.12260229  0.96596121  1
  S2-  S202  1  0.24722773  0.37001416  0.44658985  1
  S2-  S203  1  0.24603136  0.37191067  0.96064849  1
  S2-  S204  1  0.24293366  0.61400198  0.45734448  1
  S2-  S205  1  0.24645203  0.61755358  0.94804243  1
  S2-  S206  1  0.23676852  0.86175362  0.45024155  1
  S2-  S207  1  0.24695752  0.86252311  0.96550711  1
  S2-  S208  1  0.49845341  0.12186928  0.44710584  1
  S2-  S209  1  0.50266334  0.12054322  0.95179439  1
  S2-  S210  1  0.50091573  0.37476647  0.44940057  1
  S2-  S211  1  0.49348172  0.36317704  0.96057403  1
  S2-  S212  1  0.49980409  0.60830882  0.46192392  1
  S2-  S213  1  0.49693816  0.61738953  0.95768986  1
  S2-  S214  1  0.49998362  0.85913534  0.45999204  1
  S2-  S215  1  0.50270727  0.86869638  0.94648143  1
  S2-  S216  1  0.74631268  0.11777367  0.44586189  1
  S2-  S217  1  0.74279855  0.11869736  0.94733511  1
  S2-  S218  1  0.74970954  0.36439797  0.46234729  1
  S2-  S219  1  0.75889372  0.36673266  0.95524780  1
  S2-  S220  1  0.74360561  0.61575670  0.46462189  1
  S2-  S221  1  0.75869924  0.61259474  0.94014176  1
  S2-  S222  1  0.74319898  0.86168414  0.45105440  1
  S2-  S223  1  0.74923573  0.87305993  0.94483369  1
  S2-  S224  1  0.12079864  -0.01173447  0.06274856  1
  S2-  S225  1  0.12145128  -0.00333321  0.54075678  1
  S2-  S226  1  0.11958818  0.23941077  0.05327793  1
  S2-  S227  1  0.12610598  0.24159144  0.54176506  1
  S2-  S228  1  0.12205495  0.50008872  0.04847189  1
  S2-  S229  1  0.12828235  0.48854382  0.54697044  1
  S2-  S230  1  0.12340245  0.74796928  0.05186741  1
  S2-  S231  1  0.12151815  0.73684584  0.54450175  1
  S2-  S232  1  0.37447645  -0.01033795  0.03617715  1
  S2-  S233  1  0.36982189  -0.00979517  0.53399455  1
  S2-  S234  1  0.37233922  0.24232946  0.04249374  1
  S2-  S235  1  0.37298301  0.24415544  0.54419145  1
  S2-  S236  1  0.37486135  0.49937864  0.04616238  1
  S2-  S237  1  0.36838839  0.48884365  0.54140502  1
  S2-  S238  1  0.37891315  0.73735784  0.03992140  1
  S2-  S239  1  0.37173831  0.74316247  0.54352773  1
  S2-  S240  1  0.62411199  -0.00667729  0.04283237  1
  S2-  S241  1  0.62162788  -0.00870603  0.54277732  1
  S2-  S242  1  0.62234093  0.24203008  0.04664037  1
  S2-  S243  1  0.62129766  0.24035133  0.54521536  1
  S2-  S244  1  0.62641457  0.48638334  0.03459843  1
  S2-  S245  1  0.62545566  0.49229916  0.55697309  1
  S2-  S246  1  0.62483640  0.74193517  0.03181340  1
  S2-  S247  1  0.61637622  0.74218414  0.56230772  1
  S2-  S248  1  0.87212751  -0.00297466  0.04280899  1
  S2-  S249  1  0.87046363  -0.00617158  0.54627821  1
  S2-  S250  1  0.87591299  0.23851270  0.04604354  1
  S2-  S251  1  0.86714153  0.23929952  0.54898013  1
  S2-  S252  1  0.87541299  0.49435178  0.06232794  1
  S2-  S253  1  0.86780852  0.48896052  0.55303872  1
  S2-  S254  1  0.87090880  0.74070898  0.03927587  1
  S2-  S255  1  0.87211819  0.74466173  0.55747763  1
