# generated using pymatgen
data_La12Ce14Pr13Nd13Sm12(BiS2)64
_symmetry_space_group_name_H-M   'P 1'
_cell_length_a   16.17402936
_cell_length_b   16.12952436
_cell_length_c   27.20084247
_cell_angle_alpha   90.03210324
_cell_angle_beta   89.99379775
_cell_angle_gamma   90.05398372
_symmetry_Int_Tables_number   1
_chemical_formula_structural   La12Ce14Pr13Nd13Sm12(BiS2)64
_chemical_formula_sum   'La12 Ce14 Pr13 Nd13 Sm12 Bi64 S128'
_cell_volume   7096.13517007
_cell_formula_units_Z   1
loop_
 _symmetry_equiv_pos_site_id
 _symmetry_equiv_pos_as_xyz
  1  'x, y, z'
loop_
 _atom_type_symbol
 _atom_type_oxidation_number
  La3+  3.0
  Ce3+  3.0
  Pr3+  3.0
  Nd3+  3.0
  Sm3+  3.0
  Bi2+  2.0
  S2-  -2.0
loop_
 _atom_site_type_symbol
 _atom_site_label
 _atom_site_symmetry_multiplicity
 _atom_site_fract_x
 _atom_site_fract_y
 _atom_site_fract_z
 _atom_site_occupancy
  La3+  La0  1  0.63692270  0.49497408  0.41173834  1
  La3+  La1  1  0.51315071  0.12734126  0.57384008  1
  La3+  La2  1  0.37885030  0.75922567  0.88171800  1
  La3+  La3  1  0.11548106  0.74723817  0.91100137  1
  La3+  La4  1  0.62145928  0.50085419  0.94850884  1
  La3+  La5  1  0.24084156  0.11656334  0.07397778  1
  La3+  La6  1  0.00186286  0.61704766  0.56718316  1
  La3+  La7  1  0.62209722  0.76069369  0.41110118  1
  La3+  La8  1  0.49821944  0.62950994  0.07670097  1
  La3+  La9  1  0.01340675  0.62607952  0.09334529  1
  La3+  La10  1  0.37729627  0.50056516  0.93349328  1
  La3+  La11  1  0.24876321  0.88922195  0.60261104  1
  Ce3+  Ce12  1  0.87069818  0.25053082  0.94685705  1
  Ce3+  Ce13  1  0.37270242  0.25186065  0.94019441  1
  Ce3+  Ce14  1  0.13230829  0.50536321  0.43261248  1
  Ce3+  Ce15  1  0.00373767  0.12790203  0.56471684  1
  Ce3+  Ce16  1  0.25650746  0.13082981  0.56893604  1
  Ce3+  Ce17  1  0.75510142  0.87663912  0.55645827  1
  Ce3+  Ce18  1  0.24896038  0.37745939  0.05953191  1
  Ce3+  Ce19  1  0.13277505  0.24547353  0.43720047  1
  Ce3+  Ce20  1  -0.00487902  0.38168557  0.05827382  1
  Ce3+  Ce21  1  0.38277220  0.75741444  0.44448703  1
  Ce3+  Ce22  1  0.74486784  0.12571984  0.06069088  1
  Ce3+  Ce23  1  0.75416459  0.62561394  0.53911552  1
  Ce3+  Ce24  1  -0.00284670  0.12642997  0.06852890  1
  Ce3+  Ce25  1  0.36932478  0.00139758  0.93769351  1
  Pr3+  Pr26  1  0.38257064  0.50370242  0.43565307  1
  Pr3+  Pr27  1  0.76235529  0.13789134  0.57484360  1
  Pr3+  Pr28  1  0.51317006  0.87595459  0.56891110  1
  Pr3+  Pr29  1  0.63324350  0.25271755  0.43659868  1
  Pr3+  Pr30  1  0.87161125  0.74997023  0.94031363  1
  Pr3+  Pr31  1  0.50768996  0.38164598  0.56154615  1
  Pr3+  Pr32  1  0.12223614  0.00963447  0.92991944  1
  Pr3+  Pr33  1  0.75969503  0.38894043  0.56177891  1
  Pr3+  Pr34  1  0.61786146  0.75099922  0.94683043  1
  Pr3+  Pr35  1  0.49382432  0.87421146  0.06612909  1
  Pr3+  Pr36  1  0.63289415  0.00776402  0.43830829  1
  Pr3+  Pr37  1  0.88142474  0.00666332  0.43211972  1
  Pr3+  Pr38  1  0.61752186  -0.00131499  0.94155263  1
  Nd3+  Nd39  1  0.88066277  0.25133732  0.43519611  1
  Nd3+  Nd40  1  0.38022192  0.25167664  0.44133024  1
  Nd3+  Nd41  1  0.87191103  0.50445578  0.94583351  1
  Nd3+  Nd42  1  0.13136617  0.75637671  0.44519990  1
  Nd3+  Nd43  1  0.88239968  0.75902755  0.43052246  1
  Nd3+  Nd44  1  0.50773611  0.62863903  0.55181791  1
  Nd3+  Nd45  1  0.25537938  0.63005455  0.55828564  1
  Nd3+  Nd46  1  0.38060476  0.00380082  0.45014457  1
  Nd3+  Nd47  1  0.89191596  0.51519042  0.41189421  1
  Nd3+  Nd48  1  0.50259601  0.36576248  0.07161021  1
  Nd3+  Nd49  1  0.24278584  0.87057978  0.04754075  1
  Nd3+  Nd50  1  0.61910042  0.24145886  0.93103576  1
  Nd3+  Nd51  1  0.74709000  0.87615556  0.06695820  1
  Sm3+  Sm52  1  0.75833153  0.63396176  0.09628531  1
  Sm3+  Sm53  1  0.24859739  0.62640459  0.04987686  1
  Sm3+  Sm54  1  0.00737637  0.37939411  0.54445041  1
  Sm3+  Sm55  1  -0.00213328  0.86860911  0.05661045  1
  Sm3+  Sm56  1  0.87223075  -0.00010372  0.94998730  1
  Sm3+  Sm57  1  0.00538195  0.87576820  0.56285972  1
  Sm3+  Sm58  1  0.13301005  0.00230639  0.44832719  1
  Sm3+  Sm59  1  0.48767407  0.12602913  0.06916396  1
  Sm3+  Sm60  1  0.25514720  0.37807845  0.55256091  1
  Sm3+  Sm61  1  0.12084977  0.25035270  0.94517342  1
  Sm3+  Sm62  1  0.12105622  0.50467440  0.93955652  1
  Sm3+  Sm63  1  0.74670509  0.37827724  0.06175619  1
  Bi2+  Bi64  1  0.00070026  0.09267397  0.28800282  1
  Bi2+  Bi65  1  0.00131683  0.12024200  0.79388252  1
  Bi2+  Bi66  1  -0.04755183  0.33849864  0.27821013  1
  Bi2+  Bi67  1  0.00057144  0.38966252  0.77948162  1
  Bi2+  Bi68  1  0.02624638  0.65121204  0.28583208  1
  Bi2+  Bi69  1  -0.03293512  0.60355179  0.79385120  1
  Bi2+  Bi70  1  0.03006652  0.88025265  0.29359720  1
  Bi2+  Bi71  1  -0.01693599  0.86745169  0.77094855  1
  Bi2+  Bi72  1  0.26420906  0.13395543  0.31031995  1
  Bi2+  Bi73  1  0.28378083  0.10376280  0.82319086  1
  Bi2+  Bi74  1  0.23327166  0.35898311  0.26335720  1
  Bi2+  Bi75  1  0.19145920  0.35711032  0.79774180  1
  Bi2+  Bi76  1  0.25965024  0.62619463  0.27874268  1
  Bi2+  Bi77  1  0.22653372  0.54824992  0.78055616  1
  Bi2+  Bi78  1  0.28094899  0.91290889  0.28102637  1
  Bi2+  Bi79  1  0.23847049  0.91179731  0.79624264  1
  Bi2+  Bi80  1  0.53558169  0.08715727  0.25450187  1
  Bi2+  Bi81  1  0.46813587  0.16501530  0.81998262  1
  Bi2+  Bi82  1  0.45775938  0.39080130  0.30951185  1
  Bi2+  Bi83  1  0.51088881  0.38208073  0.79963665  1
  Bi2+  Bi84  1  0.45683127  0.64619237  0.27857378  1
  Bi2+  Bi85  1  0.49847699  0.61912464  0.78692454  1
  Bi2+  Bi86  1  0.48849886  0.90162027  0.29528470  1
  Bi2+  Bi87  1  0.62020411  0.89864895  0.81890624  1
  Bi2+  Bi88  1  0.68760267  0.13026371  0.32700062  1
  Bi2+  Bi89  1  0.80775235  0.10947516  0.78114428  1
  Bi2+  Bi90  1  0.76548091  0.31008705  0.31133969  1
  Bi2+  Bi91  1  0.78520690  0.36271168  0.79195142  1
  Bi2+  Bi92  1  0.77813797  0.61324196  0.27371426  1
  Bi2+  Bi93  1  0.76097428  0.62989842  0.77779624  1
  Bi2+  Bi94  1  0.76635577  0.95501240  0.29390146  1
  Bi2+  Bi95  1  0.79963463  0.83124783  0.81745753  1
  Bi2+  Bi96  1  0.13466635  -0.02655040  0.21317083  1
  Bi2+  Bi97  1  0.10777151  0.09961629  0.70155193  1
  Bi2+  Bi98  1  0.09788382  0.23392569  0.21890277  1
  Bi2+  Bi99  1  0.13475289  0.29294691  0.68965009  1
  Bi2+  Bi100  1  0.08877129  0.48496209  0.24585387  1
  Bi2+  Bi101  1  0.08220362  0.50889877  0.69513437  1
  Bi2+  Bi102  1  0.16233263  0.74753835  0.20419186  1
  Bi2+  Bi103  1  0.13329616  0.74280428  0.70752946  1
  Bi2+  Bi104  1  0.40042389  -0.02450262  0.19154430  1
  Bi2+  Bi105  1  0.42694623  0.04539475  0.72784597  1
  Bi2+  Bi106  1  0.41509302  0.24323219  0.21079446  1
  Bi2+  Bi107  1  0.33557097  0.23759545  0.74107283  1
  Bi2+  Bi108  1  0.32029547  0.50640900  0.19039809  1
  Bi2+  Bi109  1  0.35706281  0.43774814  0.73076829  1
  Bi2+  Bi110  1  0.35844145  0.77955187  0.20836408  1
  Bi2+  Bi111  1  0.39440379  0.73986428  0.67974364  1
  Bi2+  Bi112  1  0.67120363  -0.01967043  0.19258646  1
  Bi2+  Bi113  1  0.60694077  -0.03175626  0.71633778  1
  Bi2+  Bi114  1  0.65810783  0.24431990  0.22188121  1
  Bi2+  Bi115  1  0.62820386  0.23999279  0.70059258  1
  Bi2+  Bi116  1  0.59068460  0.47793995  0.21010297  1
  Bi2+  Bi117  1  0.62769243  0.50588047  0.69531165  1
  Bi2+  Bi118  1  0.63126745  0.79277503  0.21952056  1
  Bi2+  Bi119  1  0.65034225  0.76727705  0.72318429  1
  Bi2+  Bi120  1  0.88408461  0.00398078  0.20139932  1
  Bi2+  Bi121  1  0.85521285  -0.03170073  0.70859522  1
  Bi2+  Bi122  1  0.90976074  0.20157419  0.19541173  1
  Bi2+  Bi123  1  0.94458491  0.23921103  0.70725736  1
  Bi2+  Bi124  1  0.87081997  0.45245850  0.19639579  1
  Bi2+  Bi125  1  0.83607496  0.48554277  0.71056796  1
  Bi2+  Bi126  1  0.89881461  0.81478906  0.21719023  1
  Bi2+  Bi127  1  0.84646188  0.77129749  0.70302012  1
  S2-  S128  1  0.10879217  0.11589965  0.14434067  1
  S2-  S129  1  -0.10326403  0.10998462  0.64226113  1
  S2-  S130  1  0.01822773  0.45100130  0.14699150  1
  S2-  S131  1  -0.02913293  0.45690879  0.62904977  1
  S2-  S132  1  -0.11418611  0.60772116  0.16374426  1
  S2-  S133  1  0.00208534  0.65756473  0.66626452  1
  S2-  S134  1  0.01797331  0.78920991  0.14472892  1
  S2-  S135  1  0.08413266  0.86983138  0.65069108  1
  S2-  S136  1  0.35950224  0.13345964  0.14834719  1
  S2-  S137  1  0.24530809  0.04828209  0.65439651  1
  S2-  S138  1  0.23789972  0.35565811  0.15603403  1
  S2-  S139  1  0.26574271  0.39169359  0.64996164  1
  S2-  S140  1  0.17658428  0.61959933  0.14127079  1
  S2-  S141  1  0.25214622  0.64300832  0.65770926  1
  S2-  S142  1  0.24456710  0.94541132  0.13900799  1
  S2-  S143  1  0.26461485  0.84255489  0.70142029  1
  S2-  S144  1  0.54233600  0.22781107  0.14304765  1
  S2-  S145  1  0.44444589  0.17483095  0.66455178  1
  S2-  S146  1  0.44913997  0.39439083  0.16813361  1
  S2-  S147  1  0.54270934  0.37778255  0.66201658  1
  S2-  S148  1  0.46249495  0.58386476  0.17415388  1
  S2-  S149  1  0.51747471  0.61348397  0.65225575  1
  S2-  S150  1  0.51372532  0.78131791  0.15217633  1
  S2-  S151  1  0.43986480  0.90441272  0.66013888  1
  S2-  S152  1  0.75259000  0.13803262  0.15900038  1
  S2-  S153  1  0.64360976  0.10347664  0.64939949  1
  S2-  S154  1  0.71560530  0.38344156  0.16012624  1
  S2-  S155  1  0.74904959  0.28651973  0.64717376  1
  S2-  S156  1  0.67272600  0.60397113  0.18357149  1
  S2-  S157  1  0.75601871  0.53796332  0.62481918  1
  S2-  S158  1  0.76354893  0.78614857  0.15210821  1
  S2-  S159  1  0.65260181  0.85560396  0.63610318  1
  S2-  S160  1  0.13930190  0.06213582  0.35548405  1
  S2-  S161  1  0.08991923  -0.08030555  0.84354562  1
  S2-  S162  1  0.17115622  0.26890821  0.34287379  1
  S2-  S163  1  0.12319475  0.15290486  0.86276450  1
  S2-  S164  1  0.04305567  0.51041899  0.34957516  1
  S2-  S165  1  0.10699847  0.58044656  0.85056107  1
  S2-  S166  1  0.12146601  0.76107379  0.34525922  1
  S2-  S167  1  0.22356140  0.76173805  0.83138743  1
  S2-  S168  1  0.37584038  0.01626176  0.34958021  1
  S2-  S169  1  0.38783949  -0.06840553  0.84842480  1
  S2-  S170  1  0.39885234  0.24409530  0.34118454  1
  S2-  S171  1  0.38458804  0.36345426  0.86444500  1
  S2-  S172  1  0.32263476  0.49527310  0.34024278  1
  S2-  S173  1  0.36779391  0.59048776  0.84484842  1
  S2-  S174  1  0.45953540  0.75916570  0.35631785  1
  S2-  S175  1  0.41375007  0.75692875  0.77280805  1
  S2-  S176  1  0.62277041  -0.08835682  0.35414818  1
  S2-  S177  1  0.60725163  0.10281119  0.85999430  1
  S2-  S178  1  0.59920162  0.34533785  0.35100800  1
  S2-  S179  1  0.64838348  0.31012942  0.83805160  1
  S2-  S180  1  0.55745884  0.53998475  0.31920035  1
  S2-  S181  1  0.58031550  0.50928716  0.85005754  1
  S2-  S182  1  0.68825997  0.72243484  0.31336889  1
  S2-  S183  1  0.55485788  0.74201917  0.85340476  1
  S2-  S184  1  0.88672519  -0.11357238  0.35587506  1
  S2-  S185  1  0.84612919  -0.00667932  0.85251189  1
  S2-  S186  1  0.89538119  0.13459663  0.35970754  1
  S2-  S187  1  0.86186377  0.24108572  0.84917726  1
  S2-  S188  1  0.77326028  0.48438899  0.33930219  1
  S2-  S189  1  0.84035090  0.51043767  0.84671380  1
  S2-  S190  1  0.89263008  0.65998332  0.34648019  1
  S2-  S191  1  0.96299513  0.73957661  0.85183864  1
  S2-  S192  1  0.00939204  0.12675925  0.46003052  1
  S2-  S193  1  -0.00791962  0.12685460  0.96093420  1
  S2-  S194  1  0.00880975  0.37366565  0.44153369  1
  S2-  S195  1  -0.00191037  0.37702892  0.94916628  1
  S2-  S196  1  0.01035880  0.63300078  0.45582371  1
  S2-  S197  1  -0.00387479  0.62266119  0.95804309  1
  S2-  S198  1  0.00982958  0.88109597  0.45783287  1
  S2-  S199  1  -0.00580947  0.87823322  0.95357659  1
  S2-  S200  1  0.25650937  0.12735822  0.46164998  1
  S2-  S201  1  0.24747744  0.13039361  0.96384845  1
  S2-  S202  1  0.25545715  0.37710196  0.44848507  1
  S2-  S203  1  0.24012807  0.37599733  0.95324882  1
  S2-  S204  1  0.25716370  0.63151557  0.45014256  1
  S2-  S205  1  0.24643056  0.62552764  0.94827502  1
  S2-  S206  1  0.25598367  0.88068067  0.44785998  1
  S2-  S207  1  0.24501889  0.87699162  0.94422032  1
  S2-  S208  1  0.50554077  0.12976229  0.45809871  1
  S2-  S209  1  0.49206671  0.12491589  0.96384481  1
  S2-  S210  1  0.50208518  0.37735762  0.45435643  1
  S2-  S211  1  0.50293921  0.36852724  0.96347179  1
  S2-  S212  1  0.50714036  0.62587187  0.44601930  1
  S2-  S213  1  0.49681505  0.62571698  0.96464604  1
  S2-  S214  1  0.50491637  0.88269210  0.46059112  1
  S2-  S215  1  0.49187478  0.87434300  0.95928225  1
  S2-  S216  1  0.75777486  0.13051885  0.46266973  1
  S2-  S217  1  0.74870057  0.12232369  0.95574308  1
  S2-  S218  1  0.75970219  0.37543485  0.45087782  1
  S2-  S219  1  0.74780268  0.37461533  0.95589398  1
  S2-  S220  1  0.75183166  0.63453198  0.43732792  1
  S2-  S221  1  0.74598888  0.62727375  0.94854811  1
  S2-  S222  1  0.75545273  0.87863698  0.45285781  1
  S2-  S223  1  0.74652909  0.87756461  0.96043165  1
  S2-  S224  1  0.11439395  -0.00423502  0.03846203  1
  S2-  S225  1  0.12807630  0.00210850  0.55079674  1
  S2-  S226  1  0.11834208  0.25568211  0.04835709  1
  S2-  S227  1  0.12992129  0.25533288  0.54645597  1
  S2-  S228  1  0.12384752  0.50053223  0.04209724  1
  S2-  S229  1  0.13499690  0.50164959  0.54012584  1
  S2-  S230  1  0.12187901  0.74809677  0.03678842  1
  S2-  S231  1  0.13082283  0.75333407  0.55028014  1
  S2-  S232  1  0.37236733  -0.00264048  0.04378385  1
  S2-  S233  1  0.37945744  0.00443964  0.55466051  1
  S2-  S234  1  0.37071839  0.25260148  0.04733669  1
  S2-  S235  1  0.38080043  0.25622295  0.54896725  1
  S2-  S236  1  0.37351617  0.50009948  0.04741255  1
  S2-  S237  1  0.37880843  0.50334481  0.54474779  1
  S2-  S238  1  0.36669033  0.74979048  0.05699042  1
  S2-  S239  1  0.37860084  0.75627662  0.55092811  1
  S2-  S240  1  0.61787695  0.00127548  0.05163684  1
  S2-  S241  1  0.63548482  0.00370480  0.54384852  1
  S2-  S242  1  0.62903213  0.25036751  0.03976576  1
  S2-  S243  1  0.63081373  0.25764109  0.54381083  1
  S2-  S244  1  0.62554038  0.50268427  0.05791538  1
  S2-  S245  1  0.62707580  0.50305644  0.53002710  1
  S2-  S246  1  0.63107889  0.74630914  0.05270603  1
  S2-  S247  1  0.63078481  0.74827885  0.53243919  1
  S2-  S248  1  0.87484297  -0.00238313  0.05541117  1
  S2-  S249  1  0.88252550  -0.00310334  0.54215963  1
  S2-  S250  1  0.87104855  0.25432620  0.05362898  1
  S2-  S251  1  0.88619903  0.25905432  0.54177392  1
  S2-  S252  1  0.86593573  0.50519880  0.05138135  1
  S2-  S253  1  0.88187603  0.50392137  0.52117408  1
  S2-  S254  1  0.87185650  0.74822225  0.04708483  1
  S2-  S255  1  0.88218572  0.75185317  0.54509287  1
