# generated using pymatgen
data_La12Ce14Pr13Nd13Sm12(BiS2)64
_symmetry_space_group_name_H-M   'P 1'
_cell_length_a   16.13592281
_cell_length_b   16.09589473
_cell_length_c   27.22375216
_cell_angle_alpha   90.12437315
_cell_angle_beta   90.10044385
_cell_angle_gamma   90.01427311
_symmetry_Int_Tables_number   1
_chemical_formula_structural   La12Ce14Pr13Nd13Sm12(BiS2)64
_chemical_formula_sum   'La12 Ce14 Pr13 Nd13 Sm12 Bi64 S128'
_cell_volume   7070.58273642
_cell_formula_units_Z   1
loop_
 _symmetry_equiv_pos_site_id
 _symmetry_equiv_pos_as_xyz
  1  'x, y, z'
loop_
 _atom_type_symbol
 _atom_type_oxidation_number
  La3+  3.0
  Ce3+  3.0
  Pr3+  3.0
  Nd3+  3.0
  Sm3+  3.0
  Bi2+  2.0
  S2-  -2.0
loop_
 _atom_site_type_symbol
 _atom_site_label
 _atom_site_symmetry_multiplicity
 _atom_site_fract_x
 _atom_site_fract_y
 _atom_site_fract_z
 _atom_site_occupancy
  La3+  La0  1  0.48615876  0.62529294  0.08517452  1
  La3+  La1  1  0.13606634  0.26860237  0.44068131  1
  La3+  La2  1  0.61174568  -0.00374037  0.91946714  1
  La3+  La3  1  0.72110776  0.12377811  0.09292403  1
  La3+  La4  1  0.37445518  0.51142457  0.39318037  1
  La3+  La5  1  -0.01305000  0.62541900  0.05502744  1
  La3+  La6  1  0.35343585  0.74540006  0.92915375  1
  La3+  La7  1  0.63771001  0.51971399  0.41905194  1
  La3+  La8  1  -0.01321190  0.88191198  0.07354333  1
  La3+  La9  1  0.61722721  0.25853177  0.89178022  1
  La3+  La10  1  0.73969471  0.87619648  0.07140732  1
  La3+  La11  1  0.73821555  0.37872860  0.07150499  1
  Ce3+  Ce12  1  0.62869138  0.76076241  0.43808587  1
  Ce3+  Ce13  1  0.73181154  0.62405808  0.06764630  1
  Ce3+  Ce14  1  0.48859060  0.37606520  0.05999771  1
  Ce3+  Ce15  1  0.13414933  0.76786101  0.44397364  1
  Ce3+  Ce16  1  0.61075498  0.75019046  0.94603705  1
  Ce3+  Ce17  1  0.23877103  0.12820430  0.05624672  1
  Ce3+  Ce18  1  0.00638153  0.89244339  0.56165665  1
  Ce3+  Ce19  1  0.50532083  0.63808059  0.55188728  1
  Ce3+  Ce20  1  0.38034306  0.76630322  0.43646026  1
  Ce3+  Ce21  1  0.00648979  0.39404278  0.55696808  1
  Ce3+  Ce22  1  0.88175992  0.76916293  0.44669330  1
  Ce3+  Ce23  1  0.13440681  0.51969560  0.44100322  1
  Ce3+  Ce24  1  0.00807315  0.64169509  0.55823837  1
  Ce3+  Ce25  1  0.11142068  0.24941951  0.93368252  1
  Pr3+  Pr26  1  0.87821171  0.00852783  0.42580181  1
  Pr3+  Pr27  1  0.36284449  -0.00022874  0.92409695  1
  Pr3+  Pr28  1  0.88186829  0.26369237  0.43462075  1
  Pr3+  Pr29  1  0.11647677  0.50419440  0.93466154  1
  Pr3+  Pr30  1  0.75516511  0.63805977  0.56607841  1
  Pr3+  Pr31  1  0.10865045  0.00549943  0.93823575  1
  Pr3+  Pr32  1  0.85799035  0.75385805  0.93521569  1
  Pr3+  Pr33  1  0.48675829  0.88001442  0.05756614  1
  Pr3+  Pr34  1  0.64025001  0.27174303  0.42290682  1
  Pr3+  Pr35  1  -0.01947101  0.13402639  0.07910385  1
  Pr3+  Pr36  1  0.75578213  0.89527680  0.56363498  1
  Pr3+  Pr37  1  0.38242130  0.01333460  0.43131467  1
  Pr3+  Pr38  1  0.10802081  0.75655307  0.94575215  1
  Nd3+  Nd39  1  0.88493650  0.51875814  0.43460525  1
  Nd3+  Nd40  1  0.23988677  0.62183531  0.07617122  1
  Nd3+  Nd41  1  0.50980912  0.39394902  0.55103558  1
  Nd3+  Nd42  1  0.86319214  0.24719711  0.93679673  1
  Nd3+  Nd43  1  0.38636142  0.26688779  0.43834415  1
  Nd3+  Nd44  1  0.25934852  0.14249900  0.55827672  1
  Nd3+  Nd45  1  0.63432645  0.01945795  0.43737955  1
  Nd3+  Nd46  1  -0.01464484  0.37164171  0.05122403  1
  Nd3+  Nd47  1  0.50774941  0.89401299  0.56226877  1
  Nd3+  Nd48  1  0.00565583  0.14229450  0.56253206  1
  Nd3+  Nd49  1  0.25952021  0.64170208  0.56246870  1
  Nd3+  Nd50  1  0.61198378  0.49947350  0.94054182  1
  Nd3+  Nd51  1  0.76166017  0.14850652  0.57107385  1
  Sm3+  Sm52  1  0.75735903  0.39375277  0.56086629  1
  Sm3+  Sm53  1  0.48985546  0.12759142  0.04790123  1
  Sm3+  Sm54  1  0.23742441  0.37761339  0.05795983  1
  Sm3+  Sm55  1  0.85711222  0.49829371  0.93702885  1
  Sm3+  Sm56  1  0.51154166  0.14515094  0.55816484  1
  Sm3+  Sm57  1  0.36680311  0.25386605  0.93646755  1
  Sm3+  Sm58  1  0.26010898  0.39240968  0.56096963  1
  Sm3+  Sm59  1  0.36499892  0.50372308  0.94324632  1
  Sm3+  Sm60  1  0.24091144  0.88030931  0.05792073  1
  Sm3+  Sm61  1  0.85758820  0.00762897  0.94744936  1
  Sm3+  Sm62  1  0.12943915  0.01826785  0.44529163  1
  Sm3+  Sm63  1  0.25918668  0.89396537  0.56025308  1
  Bi2+  Bi64  1  0.07992438  0.12864569  0.27059165  1
  Bi2+  Bi65  1  0.02153879  0.07327737  0.79579621  1
  Bi2+  Bi66  1  -0.01505300  0.38457814  0.29394160  1
  Bi2+  Bi67  1  0.02170908  0.29792891  0.77352307  1
  Bi2+  Bi68  1  0.01338810  0.57699214  0.31771018  1
  Bi2+  Bi69  1  0.01039811  0.58745410  0.76054450  1
  Bi2+  Bi70  1  0.03365329  0.91985270  0.31779348  1
  Bi2+  Bi71  1  -0.03484446  0.81860177  0.73994795  1
  Bi2+  Bi72  1  0.34192373  0.14022849  0.29632131  1
  Bi2+  Bi73  1  0.21229069  0.10087385  0.82872559  1
  Bi2+  Bi74  1  0.20324737  0.36070511  0.28693928  1
  Bi2+  Bi75  1  0.21543925  0.29926813  0.81815869  1
  Bi2+  Bi76  1  0.22266027  0.64860122  0.29269031  1
  Bi2+  Bi77  1  0.24529103  0.59470595  0.79643799  1
  Bi2+  Bi78  1  0.29804845  0.93985009  0.28435373  1
  Bi2+  Bi79  1  0.20811323  0.84194812  0.79080708  1
  Bi2+  Bi80  1  0.50659806  0.03468904  0.31748685  1
  Bi2+  Bi81  1  0.39261429  0.12190934  0.78677322  1
  Bi2+  Bi82  1  0.48875546  0.33209047  0.28791396  1
  Bi2+  Bi83  1  0.38318453  0.40334408  0.80060567  1
  Bi2+  Bi84  1  0.49661088  0.66392378  0.28078411  1
  Bi2+  Bi85  1  0.53043005  0.56006471  0.80976753  1
  Bi2+  Bi86  1  0.58258277  0.84582310  0.31921636  1
  Bi2+  Bi87  1  0.48658910  0.86450838  0.79661757  1
  Bi2+  Bi88  1  0.69765752  0.13024315  0.28759006  1
  Bi2+  Bi89  1  0.77698867  0.13199418  0.79237494  1
  Bi2+  Bi90  1  0.74595558  0.37214822  0.28584096  1
  Bi2+  Bi91  1  0.75080592  0.40122976  0.78057992  1
  Bi2+  Bi92  1  0.83133553  0.61727104  0.27982696  1
  Bi2+  Bi93  1  0.80633679  0.63765604  0.80612601  1
  Bi2+  Bi94  1  0.76983136  0.88636164  0.28886109  1
  Bi2+  Bi95  1  0.77596802  0.87853322  0.81197902  1
  Bi2+  Bi96  1  0.14918737  -0.03513189  0.20694406  1
  Bi2+  Bi97  1  0.17852587  -0.00136687  0.71619337  1
  Bi2+  Bi98  1  0.19755692  0.23087623  0.20022082  1
  Bi2+  Bi99  1  0.09428263  0.16857124  0.69739921  1
  Bi2+  Bi100  1  0.10273415  0.50573507  0.21983352  1
  Bi2+  Bi101  1  0.13544677  0.44299172  0.73119290  1
  Bi2+  Bi102  1  0.13058865  0.76902100  0.22396963  1
  Bi2+  Bi103  1  0.12860684  0.72141708  0.71015669  1
  Bi2+  Bi104  1  0.40736092  0.04892048  0.20173708  1
  Bi2+  Bi105  1  0.37337198  -0.03360339  0.71411797  1
  Bi2+  Bi106  1  0.39013822  0.25738752  0.19827607  1
  Bi2+  Bi107  1  0.32621723  0.27029618  0.72005281  1
  Bi2+  Bi108  1  0.35048862  0.49626641  0.20354821  1
  Bi2+  Bi109  1  0.36834824  0.52542093  0.70366406  1
  Bi2+  Bi110  1  0.38070795  0.78680119  0.21838785  1
  Bi2+  Bi111  1  0.43995826  0.69841324  0.74233580  1
  Bi2+  Bi112  1  0.59452313  -0.05243539  0.21834018  1
  Bi2+  Bi113  1  0.59518426  -0.00516619  0.70973491  1
  Bi2+  Bi114  1  0.59661416  0.22234172  0.20996974  1
  Bi2+  Bi115  1  0.59939050  0.23827061  0.69856392  1
  Bi2+  Bi116  1  0.63941117  0.49170012  0.19930062  1
  Bi2+  Bi117  1  0.58714144  0.48923467  0.70115423  1
  Bi2+  Bi118  1  0.68381887  0.73125698  0.23758401  1
  Bi2+  Bi119  1  0.64495363  0.67892474  0.74588372  1
  Bi2+  Bi120  1  0.87575589  -0.01840502  0.20453978  1
  Bi2+  Bi121  1  0.85077989  -0.01143302  0.69146849  1
  Bi2+  Bi122  1  0.92828027  0.23260433  0.22981687  1
  Bi2+  Bi123  1  0.86328762  0.26878924  0.70499432  1
  Bi2+  Bi124  1  0.91460182  0.45725924  0.19220407  1
  Bi2+  Bi125  1  0.85643913  0.50741820  0.70362014  1
  Bi2+  Bi126  1  0.94435295  0.73841485  0.22249599  1
  Bi2+  Bi127  1  0.81485541  0.72064202  0.69220403  1
  S2-  S128  1  0.01372731  0.00401602  0.14839619  1
  S2-  S129  1  -0.09583052  0.13311649  0.64288791  1
  S2-  S130  1  -0.00863891  0.31683206  0.14683509  1
  S2-  S131  1  -0.04415861  0.38757108  0.64970516  1
  S2-  S132  1  -0.00411781  0.60656007  0.15524064  1
  S2-  S133  1  0.01197223  0.62499378  0.65429837  1
  S2-  S134  1  -0.12605779  0.83645476  0.14789837  1
  S2-  S135  1  -0.00146384  0.91741302  0.65820720  1
  S2-  S136  1  0.25565672  0.07138043  0.14810627  1
  S2-  S137  1  0.25878346  0.15186082  0.65714444  1
  S2-  S138  1  0.22022390  0.47625140  0.13959740  1
  S2-  S139  1  0.24339553  0.39365807  0.65970407  1
  S2-  S140  1  0.35594515  0.63808655  0.15500894  1
  S2-  S141  1  0.26023182  0.63287249  0.66260905  1
  S2-  S142  1  0.24235585  0.83405601  0.15363843  1
  S2-  S143  1  0.26039073  0.87686246  0.65785024  1
  S2-  S144  1  0.54926158  0.10184095  0.14072959  1
  S2-  S145  1  0.50477179  0.11799024  0.65640858  1
  S2-  S146  1  0.49151216  0.45848399  0.14867743  1
  S2-  S147  1  0.50802820  0.36782293  0.65139342  1
  S2-  S148  1  0.62014607  0.63980804  0.15357348  1
  S2-  S149  1  0.50721670  0.62789799  0.65044059  1
  S2-  S150  1  0.49310400  0.84241590  0.15753820  1
  S2-  S151  1  0.50588788  0.88040062  0.66219333  1
  S2-  S152  1  0.85585029  0.13832127  0.15907049  1
  S2-  S153  1  0.71066301  0.07245641  0.66063806  1
  S2-  S154  1  0.71084123  0.32778817  0.17289217  1
  S2-  S155  1  0.73696977  0.28504728  0.63869406  1
  S2-  S156  1  0.77308686  0.51548842  0.14209083  1
  S2-  S157  1  0.73134483  0.51101979  0.63601052  1
  S2-  S158  1  0.72212130  0.97876219  0.15419243  1
  S2-  S159  1  0.73554675  0.86823140  0.66413890  1
  S2-  S160  1  0.17082932  0.01113139  0.35046373  1
  S2-  S161  1  0.09537763  -0.06688208  0.84602025  1
  S2-  S162  1  0.09678956  0.26045573  0.34324198  1
  S2-  S163  1  -0.00631969  0.21726608  0.86324626  1
  S2-  S164  1  0.21065259  0.50578414  0.35226269  1
  S2-  S165  1  0.10532239  0.50041120  0.83415005  1
  S2-  S166  1  0.13729704  0.77851730  0.34575444  1
  S2-  S167  1  0.18127993  0.71719094  0.85829136  1
  S2-  S168  1  0.38401738  -0.11607348  0.36186543  1
  S2-  S169  1  0.48094166  0.01583474  0.84728704  1
  S2-  S170  1  0.35134301  0.33992947  0.35029788  1
  S2-  S171  1  0.44777070  0.26301681  0.84954395  1
  S2-  S172  1  0.44302933  0.50737946  0.29341056  1
  S2-  S173  1  0.36330371  0.60663437  0.86282329  1
  S2-  S174  1  0.36426381  0.67475055  0.35054271  1
  S2-  S175  1  0.34629705  0.86454154  0.85239804  1
  S2-  S176  1  0.74310087  0.02415314  0.35691973  1
  S2-  S177  1  0.67832932  0.00638131  0.81970285  1
  S2-  S178  1  0.56041871  0.19585187  0.34270473  1
  S2-  S179  1  0.62191702  0.20089398  0.78894719  1
  S2-  S180  1  0.61733742  0.39740744  0.34451884  1
  S2-  S181  1  0.62131182  0.42249678  0.84945570  1
  S2-  S182  1  0.62687162  0.66165823  0.35497193  1
  S2-  S183  1  0.62886509  0.81468703  0.85549844  1
  S2-  S184  1  0.96058125  0.06033592  0.33933290  1
  S2-  S185  1  0.87819269  0.00985290  0.84759720  1
  S2-  S186  1  0.78512433  0.25465125  0.34951406  1
  S2-  S187  1  0.78330023  0.27193773  0.84782083  1
  S2-  S188  1  0.78816538  0.50327403  0.35241444  1
  S2-  S189  1  0.86439922  0.48074204  0.83862837  1
  S2-  S190  1  0.89174525  0.84014215  0.35758714  1
  S2-  S191  1  0.91466720  0.77177634  0.84039091  1
  S2-  S192  1  0.00804472  0.14145928  0.45627832  1
  S2-  S193  1  -0.01466204  0.12407367  0.96757721  1
  S2-  S194  1  0.00753235  0.39351044  0.44892753  1
  S2-  S195  1  -0.01229298  0.38039308  0.94611891  1
  S2-  S196  1  0.00799067  0.64451252  0.45265094  1
  S2-  S197  1  -0.01477743  0.62455610  0.94589494  1
  S2-  S198  1  0.01049497  0.89353156  0.45734070  1
  S2-  S199  1  -0.01818943  0.87939430  0.96195701  1
  S2-  S200  1  0.25929225  0.13975812  0.45170765  1
  S2-  S201  1  0.24180184  0.12954419  0.95079704  1
  S2-  S202  1  0.26009550  0.39414211  0.45767550  1
  S2-  S203  1  0.24154584  0.37751955  0.95294593  1
  S2-  S204  1  0.25644994  0.64136157  0.45650004  1
  S2-  S205  1  0.23431461  0.62381674  0.96757253  1
  S2-  S206  1  0.25346079  0.89517299  0.45751523  1
  S2-  S207  1  0.23396856  0.88039369  0.95546175  1
  S2-  S208  1  0.50510774  0.13959408  0.45450261  1
  S2-  S209  1  0.49240852  0.13418827  0.94719248  1
  S2-  S210  1  0.50070422  0.39709508  0.44590762  1
  S2-  S211  1  0.48597045  0.37891048  0.95434394  1
  S2-  S212  1  0.49838999  0.63566313  0.44864106  1
  S2-  S213  1  0.48920335  0.62533475  0.96135602  1
  S2-  S214  1  0.51231256  0.89257104  0.45750490  1
  S2-  S215  1  0.48427561  0.87245168  0.95223517  1
  S2-  S216  1  0.75804845  0.14224104  0.46013792  1
  S2-  S217  1  0.73270146  0.12793580  0.93959506  1
  S2-  S218  1  0.76282119  0.39194604  0.45629312  1
  S2-  S219  1  0.73697610  0.37643766  0.95740604  1
  S2-  S220  1  0.76247077  0.64436046  0.45738414  1
  S2-  S221  1  0.73671782  0.62449916  0.95334850  1
  S2-  S222  1  0.75094429  0.88692359  0.45649831  1
  S2-  S223  1  0.73905596  0.87928809  0.95865340  1
  S2-  S224  1  0.11684430  0.00239541  0.04542734  1
  S2-  S225  1  0.13356389  0.01824140  0.55200226  1
  S2-  S226  1  0.11545204  0.25236586  0.04301835  1
  S2-  S227  1  0.13347808  0.26786618  0.54939655  1
  S2-  S228  1  0.10896995  0.49648895  0.04141494  1
  S2-  S229  1  0.13497572  0.51557803  0.54940817  1
  S2-  S230  1  0.11453733  0.75309668  0.05314002  1
  S2-  S231  1  0.13463306  0.76858726  0.55215482  1
  S2-  S232  1  0.36375556  0.00415791  0.03877677  1
  S2-  S233  1  0.38351657  0.01822966  0.54592660  1
  S2-  S234  1  0.36247048  0.25309221  0.04492745  1
  S2-  S235  1  0.38316889  0.26663062  0.54640553  1
  S2-  S236  1  0.36253762  0.50025168  0.04540487  1
  S2-  S237  1  0.38011180  0.51419420  0.55372692  1
  S2-  S238  1  0.36031269  0.75314643  0.04487052  1
  S2-  S239  1  0.38130936  0.76936475  0.54792286  1
  S2-  S240  1  0.61241594  0.00256639  0.03677096  1
  S2-  S241  1  0.63025015  0.01946031  0.54529888  1
  S2-  S242  1  0.61086886  0.25174101  0.05392533  1
  S2-  S243  1  0.62938092  0.26742885  0.53540134  1
  S2-  S244  1  0.61066385  0.50179720  0.04566661  1
  S2-  S245  1  0.63053837  0.51696778  0.53236289  1
  S2-  S246  1  0.61190203  0.75444084  0.05040594  1
  S2-  S247  1  0.63118715  0.76536886  0.54832096  1
  S2-  S248  1  0.85666863  0.00816201  0.05043069  1
  S2-  S249  1  0.88245163  0.01392522  0.53985792  1
  S2-  S250  1  0.85444091  0.24943914  0.04599774  1
  S2-  S251  1  0.88532190  0.27018336  0.54072588  1
  S2-  S252  1  0.86536262  0.49943363  0.03936323  1
  S2-  S253  1  0.88337705  0.51811278  0.54127334  1
  S2-  S254  1  0.85918577  0.74556240  0.04272896  1
  S2-  S255  1  0.88139095  0.76593237  0.55297661  1
