# generated using pymatgen
data_La12Ce14Pr13Nd13Sm12(BiS2)64
_symmetry_space_group_name_H-M   'P 1'
_cell_length_a   16.20550935
_cell_length_b   16.20420056
_cell_length_c   27.14996155
_cell_angle_alpha   90.13478824
_cell_angle_beta   89.99860024
_cell_angle_gamma   89.94721048
_symmetry_Int_Tables_number   1
_chemical_formula_structural   La12Ce14Pr13Nd13Sm12(BiS2)64
_chemical_formula_sum   'La12 Ce14 Pr13 Nd13 Sm12 Bi64 S128'
_cell_volume   7129.48448449
_cell_formula_units_Z   1
loop_
 _symmetry_equiv_pos_site_id
 _symmetry_equiv_pos_as_xyz
  1  'x, y, z'
loop_
 _atom_type_symbol
 _atom_type_oxidation_number
  La3+  3.0
  Ce3+  3.0
  Pr3+  3.0
  Nd3+  3.0
  Sm3+  3.0
  Bi2+  2.0
  S2-  -2.0
loop_
 _atom_site_type_symbol
 _atom_site_label
 _atom_site_symmetry_multiplicity
 _atom_site_fract_x
 _atom_site_fract_y
 _atom_site_fract_z
 _atom_site_occupancy
  La3+  La0  1  0.26069265  0.86637654  0.08652209  1
  La3+  La1  1  -0.00286084  0.36537348  0.56038708  1
  La3+  La2  1  0.48967382  0.36795693  0.56311412  1
  La3+  La3  1  0.38369778  -0.01506975  0.41840531  1
  La3+  La4  1  0.11849869  0.74358443  0.39874215  1
  La3+  La5  1  0.48464583  0.87545783  0.58059611  1
  La3+  La6  1  0.36549115  0.74199910  0.91172250  1
  La3+  La7  1  0.86880533  0.73316460  0.42787313  1
  La3+  La8  1  0.75572755  0.86191424  0.58399779  1
  La3+  La9  1  0.61924672  0.24348057  0.43811043  1
  La3+  La10  1  -0.00307039  0.12639120  0.07276922  1
  La3+  La11  1  0.62173358  0.74118184  0.44633945  1
  Ce3+  Ce12  1  0.11964810  0.49603273  0.43723684  1
  Ce3+  Ce13  1  0.25112267  0.37859903  0.06687035  1
  Ce3+  Ce14  1  0.49552206  0.87332344  0.04703530  1
  Ce3+  Ce15  1  0.12528861  -0.00202697  0.95216289  1
  Ce3+  Ce16  1  -0.01084850  0.87421395  0.07477025  1
  Ce3+  Ce17  1  0.37418922  0.25324040  0.94129824  1
  Ce3+  Ce18  1  0.12208222  0.25012609  0.94709348  1
  Ce3+  Ce19  1  -0.00306002  0.37459028  0.06392292  1
  Ce3+  Ce20  1  0.37064087  0.73817384  0.43650823  1
  Ce3+  Ce21  1  0.36938249  0.24004863  0.44143155  1
  Ce3+  Ce22  1  0.61918859  0.49445531  0.45106470  1
  Ce3+  Ce23  1  0.25135547  0.12328773  0.05884820  1
  Ce3+  Ce24  1  0.49451294  0.11413170  0.56058948  1
  Ce3+  Ce25  1  0.87104441  -0.01084070  0.43719541  1
  Pr3+  Pr26  1  0.63234891  0.25204349  0.93183138  1
  Pr3+  Pr27  1  -0.00339665  0.62922798  0.06437442  1
  Pr3+  Pr28  1  0.49067535  0.62953703  0.58155578  1
  Pr3+  Pr29  1  0.74593709  0.11896685  0.55712693  1
  Pr3+  Pr30  1  0.36911518  0.49921967  0.43693846  1
  Pr3+  Pr31  1  -0.00453516  0.86764571  0.55386182  1
  Pr3+  Pr32  1  0.87108647  0.24311104  0.43102506  1
  Pr3+  Pr33  1  -0.00247567  0.11609976  0.55589781  1
  Pr3+  Pr34  1  0.24102770  0.62092933  0.56524510  1
  Pr3+  Pr35  1  0.24509327  0.11317740  0.55194058  1
  Pr3+  Pr36  1  0.74636141  0.36564552  0.55958738  1
  Pr3+  Pr37  1  0.87749893  0.75212383  0.93290182  1
  Pr3+  Pr38  1  0.73974026  0.61899257  0.57718214  1
  Nd3+  Nd39  1  0.12119560  0.24373765  0.43015375  1
  Nd3+  Nd40  1  0.37101888  -0.00190429  0.93463831  1
  Nd3+  Nd41  1  0.12601198  0.75070461  0.94783192  1
  Nd3+  Nd42  1  0.88609304  0.25634758  0.92857173  1
  Nd3+  Nd43  1  0.24436504  0.36862622  0.55446648  1
  Nd3+  Nd44  1  0.74810484  0.37244003  0.06194776  1
  Nd3+  Nd45  1  0.74654793  0.62905189  0.05539701  1
  Nd3+  Nd46  1  0.49861486  0.62773293  0.04727368  1
  Nd3+  Nd47  1  0.37290510  0.49246502  0.93067057  1
  Nd3+  Nd48  1  0.11615192  -0.00091718  0.41704711  1
  Nd3+  Nd49  1  0.24430803  0.86975503  0.54526604  1
  Nd3+  Nd50  1  -0.00172628  0.62336247  0.56597060  1
  Nd3+  Nd51  1  0.62500808  -0.00034988  0.93694114  1
  Sm3+  Sm52  1  0.87652067  0.50157837  0.94727005  1
  Sm3+  Sm53  1  0.74569975  0.87508977  0.06089331  1
  Sm3+  Sm54  1  0.12555052  0.50085449  0.94806538  1
  Sm3+  Sm55  1  0.63068851  0.75339942  0.92225450  1
  Sm3+  Sm56  1  0.62189466  -0.01142525  0.44918969  1
  Sm3+  Sm57  1  0.74663855  0.12723361  0.05045684  1
  Sm3+  Sm58  1  0.49959614  0.12502799  0.04964009  1
  Sm3+  Sm59  1  0.87182614  0.49630798  0.45363926  1
  Sm3+  Sm60  1  0.87665000  0.00027406  0.94700594  1
  Sm3+  Sm61  1  0.25264728  0.62075913  0.06467992  1
  Sm3+  Sm62  1  0.50108217  0.37550287  0.05533590  1
  Sm3+  Sm63  1  0.62763379  0.50068024  0.94320883  1
  Bi2+  Bi64  1  -0.02782318  0.13983494  0.28957603  1
  Bi2+  Bi65  1  0.08560276  0.13168620  0.78734997  1
  Bi2+  Bi66  1  0.02561623  0.35345396  0.29889719  1
  Bi2+  Bi67  1  0.01725745  0.38485289  0.80144636  1
  Bi2+  Bi68  1  -0.02301047  0.61961393  0.28801909  1
  Bi2+  Bi69  1  -0.04037866  0.66070941  0.81840235  1
  Bi2+  Bi70  1  -0.00958343  0.89153047  0.27627648  1
  Bi2+  Bi71  1  0.00957287  0.84078268  0.79018755  1
  Bi2+  Bi72  1  0.25772733  0.17048193  0.29055235  1
  Bi2+  Bi73  1  0.27711375  0.17831993  0.77896755  1
  Bi2+  Bi74  1  0.21179055  0.39170684  0.31851822  1
  Bi2+  Bi75  1  0.24479575  0.37007220  0.78982941  1
  Bi2+  Bi76  1  0.25714693  0.58110877  0.29145784  1
  Bi2+  Bi77  1  0.21577714  0.62289833  0.79475433  1
  Bi2+  Bi78  1  0.28247174  0.87934064  0.28705450  1
  Bi2+  Bi79  1  0.25042654  0.90982809  0.80877813  1
  Bi2+  Bi80  1  0.50519459  0.11313230  0.29311393  1
  Bi2+  Bi81  1  0.49933759  0.15748691  0.76821984  1
  Bi2+  Bi82  1  0.47850257  0.37414160  0.28822561  1
  Bi2+  Bi83  1  0.50287868  0.37312186  0.79323272  1
  Bi2+  Bi84  1  0.52268047  0.64076824  0.29691211  1
  Bi2+  Bi85  1  0.46783672  0.56099418  0.77064990  1
  Bi2+  Bi86  1  0.53706029  0.84906626  0.29133652  1
  Bi2+  Bi87  1  0.51032564  0.89128733  0.80004790  1
  Bi2+  Bi88  1  0.70278675  0.13055134  0.28020921  1
  Bi2+  Bi89  1  0.80389512  0.09140656  0.77917981  1
  Bi2+  Bi90  1  0.68084711  0.40215243  0.29049849  1
  Bi2+  Bi91  1  0.74985560  0.36505705  0.80105825  1
  Bi2+  Bi92  1  0.71989082  0.63459565  0.28647967  1
  Bi2+  Bi93  1  0.77550483  0.63271328  0.79047258  1
  Bi2+  Bi94  1  0.73660171  0.85916512  0.28359155  1
  Bi2+  Bi95  1  0.78084490  0.89834385  0.79038192  1
  Bi2+  Bi96  1  0.13633569  0.02652586  0.20134128  1
  Bi2+  Bi97  1  0.13501524  -0.03656782  0.71044175  1
  Bi2+  Bi98  1  0.15717415  0.29265565  0.21281299  1
  Bi2+  Bi99  1  0.12687689  0.27579045  0.71285067  1
  Bi2+  Bi100  1  0.13676777  0.48435321  0.21896467  1
  Bi2+  Bi101  1  0.06193795  0.55928162  0.73361178  1
  Bi2+  Bi102  1  0.13126781  0.74885608  0.20082389  1
  Bi2+  Bi103  1  0.13249308  0.76508439  0.70543216  1
  Bi2+  Bi104  1  0.42284751  0.02410656  0.20082165  1
  Bi2+  Bi105  1  0.33257436  0.00789327  0.70178407  1
  Bi2+  Bi106  1  0.35388062  0.28777560  0.21395719  1
  Bi2+  Bi107  1  0.39406488  0.26133139  0.69500051  1
  Bi2+  Bi108  1  0.37288081  0.48400347  0.21542947  1
  Bi2+  Bi109  1  0.34542860  0.46287861  0.70371493  1
  Bi2+  Bi110  1  0.45147071  0.74328860  0.20742653  1
  Bi2+  Bi111  1  0.35325307  0.75129723  0.70845720  1
  Bi2+  Bi112  1  0.61487164  -0.03472204  0.20398989  1
  Bi2+  Bi113  1  0.61127469  0.02404504  0.71455403  1
  Bi2+  Bi114  1  0.63091374  0.23946162  0.19025566  1
  Bi2+  Bi115  1  0.64827411  0.23504789  0.70290287  1
  Bi2+  Bi116  1  0.57430911  0.49905443  0.21213719  1
  Bi2+  Bi117  1  0.65003625  0.50752818  0.73783449  1
  Bi2+  Bi118  1  0.65384179  0.76661355  0.18642925  1
  Bi2+  Bi119  1  0.63851531  0.73809167  0.71428859  1
  Bi2+  Bi120  1  0.80619065  0.00154891  0.21584520  1
  Bi2+  Bi121  1  0.94058234  -0.00573969  0.71854275  1
  Bi2+  Bi122  1  0.87313939  0.25555972  0.19319432  1
  Bi2+  Bi123  1  0.89287713  0.25167829  0.70515722  1
  Bi2+  Bi124  1  0.86547469  0.46534261  0.27864573  1
  Bi2+  Bi125  1  0.87585652  0.49157824  0.73946176  1
  Bi2+  Bi126  1  0.85632284  0.73039358  0.20154129  1
  Bi2+  Bi127  1  0.93720990  0.73979507  0.69692773  1
  S2-  S128  1  -0.00271339  0.12697677  0.17488479  1
  S2-  S129  1  -0.03152264  0.13673979  0.65500292  1
  S2-  S130  1  -0.02302900  0.36633209  0.16034591  1
  S2-  S131  1  -0.00750992  0.35821370  0.66138551  1
  S2-  S132  1  -0.00348976  0.64580192  0.16522031  1
  S2-  S133  1  0.11441799  0.61622740  0.64238237  1
  S2-  S134  1  0.03750616  0.89080352  0.17168218  1
  S2-  S135  1  -0.09235558  0.88608205  0.64195486  1
  S2-  S136  1  0.26986225  0.09139482  0.15451427  1
  S2-  S137  1  0.21296711  0.08939953  0.65002709  1
  S2-  S138  1  0.25396171  0.49684093  0.13900247  1
  S2-  S139  1  0.22018080  0.38671055  0.65206965  1
  S2-  S140  1  0.25725055  0.71559070  0.14665106  1
  S2-  S141  1  0.35138545  0.61815765  0.64630654  1
  S2-  S142  1  0.22858730  0.89460856  0.18907090  1
  S2-  S143  1  0.31865540  0.87464827  0.63789799  1
  S2-  S144  1  0.50965706  0.13048293  0.14838838  1
  S2-  S145  1  0.47978239  0.02421563  0.64372352  1
  S2-  S146  1  0.53843793  0.35563819  0.15067589  1
  S2-  S147  1  0.50438663  0.37639315  0.66371818  1
  S2-  S148  1  0.48625633  0.61220467  0.14649288  1
  S2-  S149  1  0.61436056  0.59770917  0.65347631  1
  S2-  S150  1  0.42547150  0.87704950  0.13702004  1
  S2-  S151  1  0.49524101  0.76839272  0.66313258  1
  S2-  S152  1  0.76632597  0.13507650  0.14799290  1
  S2-  S153  1  0.73471589  0.10942490  0.65834539  1
  S2-  S154  1  0.75411009  0.35513408  0.16139558  1
  S2-  S155  1  0.75512795  0.33519875  0.65897536  1
  S2-  S156  1  0.75196279  0.62498540  0.15495975  1
  S2-  S157  1  0.78249241  0.71976100  0.65674820  1
  S2-  S158  1  0.84521017  0.87556154  0.14069750  1
  S2-  S159  1  0.67533384  0.89127705  0.67556901  1
  S2-  S160  1  0.12577673  -0.07986983  0.32658810  1
  S2-  S161  1  0.13335163  0.00874661  0.85385513  1
  S2-  S162  1  0.11242633  0.13977024  0.34965043  1
  S2-  S163  1  0.02882179  0.24665646  0.86312075  1
  S2-  S164  1  0.09919514  0.57960654  0.35351900  1
  S2-  S165  1  0.14845459  0.48224007  0.85043651  1
  S2-  S166  1  0.19654122  0.73853739  0.30246989  1
  S2-  S167  1  0.20014575  0.74775202  0.85721555  1
  S2-  S168  1  0.32690796  0.03176282  0.32344414  1
  S2-  S169  1  0.38680338  0.00366749  0.83524936  1
  S2-  S170  1  0.39779340  0.23434984  0.34514713  1
  S2-  S171  1  0.37307561  0.35746358  0.86236561  1
  S2-  S172  1  0.38561647  0.61522706  0.36186685  1
  S2-  S173  1  0.36489024  0.59384087  0.84948883  1
  S2-  S174  1  0.39659261  0.83676397  0.35656101  1
  S2-  S175  1  0.38054607  0.79814631  0.81114448  1
  S2-  S176  1  0.54850648  0.00338919  0.35915781  1
  S2-  S177  1  0.64774462  -0.01274062  0.83862681  1
  S2-  S178  1  0.62296333  0.25435035  0.33774733  1
  S2-  S179  1  0.59800794  0.24775154  0.83336825  1
  S2-  S180  1  0.62572865  0.53082722  0.35644779  1
  S2-  S181  1  0.62910881  0.47853744  0.84618030  1
  S2-  S182  1  0.72764531  0.74374300  0.36361685  1
  S2-  S183  1  0.57244816  0.75113137  0.82668442  1
  S2-  S184  1  0.92245093  -0.00133548  0.34308357  1
  S2-  S185  1  0.88955664  -0.00205460  0.84897893  1
  S2-  S186  1  0.84724236  0.21102767  0.33160998  1
  S2-  S187  1  0.81030839  0.23002577  0.83923315  1
  S2-  S188  1  0.86468751  0.56831777  0.36495967  1
  S2-  S189  1  0.88104052  0.43332248  0.85688837  1
  S2-  S190  1  0.96923488  0.75960381  0.34313458  1
  S2-  S191  1  0.76688239  0.77514097  0.85560083  1
  S2-  S192  1  -0.00677616  0.11983400  0.45009943  1
  S2-  S193  1  -0.00100702  0.12255895  0.96321334  1
  S2-  S194  1  -0.00607185  0.36903346  0.44964699  1
  S2-  S195  1  0.00227269  0.38067187  0.95991632  1
  S2-  S196  1  -0.00303027  0.61741688  0.46131939  1
  S2-  S197  1  0.00084749  0.62391387  0.95621804  1
  S2-  S198  1  -0.00193767  0.86889241  0.44778434  1
  S2-  S199  1  -0.00108349  0.87496827  0.95925225  1
  S2-  S200  1  0.24648509  0.11656015  0.44546763  1
  S2-  S201  1  0.25004486  0.12727854  0.95103020  1
  S2-  S202  1  0.24643342  0.36768356  0.44856427  1
  S2-  S203  1  0.24447593  0.37466603  0.96115741  1
  S2-  S204  1  0.23874759  0.62115689  0.45484423  1
  S2-  S205  1  0.24695385  0.62068159  0.95919463  1
  S2-  S206  1  0.23735408  0.86677334  0.44024763  1
  S2-  S207  1  0.25096520  0.87537647  0.95593421  1
  S2-  S208  1  0.49722860  0.11884901  0.45591195  1
  S2-  S209  1  0.49960944  0.12619853  0.94391458  1
  S2-  S210  1  0.49181739  0.37023983  0.45226271  1
  S2-  S211  1  0.50720967  0.37538215  0.95247444  1
  S2-  S212  1  0.49777639  0.61708374  0.46803482  1
  S2-  S213  1  0.50798640  0.62621571  0.94189712  1
  S2-  S214  1  0.50130939  0.86633087  0.46340763  1
  S2-  S215  1  0.49938204  0.87259780  0.94075734  1
  S2-  S216  1  0.74425044  0.11585844  0.44792074  1
  S2-  S217  1  0.75298539  0.12292661  0.94687456  1
  S2-  S218  1  0.74862245  0.37057862  0.45104146  1
  S2-  S219  1  0.75261733  0.37738980  0.95502348  1
  S2-  S220  1  0.74443242  0.61268643  0.46966759  1
  S2-  S221  1  0.75144160  0.62291607  0.94853419  1
  S2-  S222  1  0.74726544  0.87101611  0.46069693  1
  S2-  S223  1  0.75073995  0.88021630  0.95683618  1
  S2-  S224  1  0.12508935  -0.00285501  0.05805604  1
  S2-  S225  1  0.11849922  -0.00784697  0.53598485  1
  S2-  S226  1  0.12617737  0.25096444  0.05557017  1
  S2-  S227  1  0.12202835  0.24206322  0.54037365  1
  S2-  S228  1  0.11803073  0.50186295  0.05136326  1
  S2-  S229  1  0.11886081  0.49034434  0.54363502  1
  S2-  S230  1  0.12267336  0.75265967  0.05280666  1
  S2-  S231  1  0.12046181  0.74825744  0.54577841  1
  S2-  S232  1  0.37609753  0.00313057  0.04073230  1
  S2-  S233  1  0.36943153  -0.00519270  0.53216238  1
  S2-  S234  1  0.37771234  0.25144200  0.04899546  1
  S2-  S235  1  0.36740149  0.24039657  0.54907710  1
  S2-  S236  1  0.38052876  0.49785992  0.03831045  1
  S2-  S237  1  0.36693810  0.49243834  0.54442714  1
  S2-  S238  1  0.37382907  0.74583207  0.03512898  1
  S2-  S239  1  0.36681795  0.74503351  0.54154504  1
  S2-  S240  1  0.62414386  0.00104156  0.04484929  1
  S2-  S241  1  0.62460515  -0.00785476  0.55177241  1
  S2-  S242  1  0.62309897  0.24945407  0.03994398  1
  S2-  S243  1  0.61873231  0.24287675  0.54724691  1
  S2-  S244  1  0.62487786  0.50000642  0.04860132  1
  S2-  S245  1  0.61928785  0.48641112  0.55484911  1
  S2-  S246  1  0.62471356  0.75267877  0.03597845  1
  S2-  S247  1  0.62006415  0.74962668  0.55481497  1
  S2-  S248  1  0.86962741  0.00498215  0.05006235  1
  S2-  S249  1  0.86970097  -0.00312416  0.54339682  1
  S2-  S250  1  0.87220177  0.24987973  0.04251876  1
  S2-  S251  1  0.87108600  0.24232856  0.54044833  1
  S2-  S252  1  0.87070376  0.50159911  0.05256313  1
  S2-  S253  1  0.87193630  0.49502468  0.56012030  1
  S2-  S254  1  0.86977912  0.75023963  0.04069836  1
  S2-  S255  1  0.87363106  0.73949644  0.54174300  1
