# generated using pymatgen
data_La12Ce14Pr13Nd13Sm12(BiS2)64
_symmetry_space_group_name_H-M   'P 1'
_cell_length_a   16.15889154
_cell_length_b   16.17888787
_cell_length_c   27.13344998
_cell_angle_alpha   89.84498030
_cell_angle_beta   89.82456014
_cell_angle_gamma   90.07917823
_symmetry_Int_Tables_number   1
_chemical_formula_structural   La12Ce14Pr13Nd13Sm12(BiS2)64
_chemical_formula_sum   'La12 Ce14 Pr13 Nd13 Sm12 Bi64 S128'
_cell_volume   7093.51029188
_cell_formula_units_Z   1
loop_
 _symmetry_equiv_pos_site_id
 _symmetry_equiv_pos_as_xyz
  1  'x, y, z'
loop_
 _atom_type_symbol
 _atom_type_oxidation_number
  La3+  3.0
  Ce3+  3.0
  Pr3+  3.0
  Nd3+  3.0
  Sm3+  3.0
  Bi2+  2.0
  S2-  -2.0
loop_
 _atom_site_type_symbol
 _atom_site_label
 _atom_site_symmetry_multiplicity
 _atom_site_fract_x
 _atom_site_fract_y
 _atom_site_fract_z
 _atom_site_occupancy
  La3+  La0  1  0.48944972  0.62196992  0.07493010  1
  La3+  La1  1  0.47781568  0.36918481  0.07034846  1
  La3+  La2  1  0.50078340  0.87159371  0.07145385  1
  La3+  La3  1  0.24538182  0.87201444  0.08667522  1
  La3+  La4  1  0.24013845  0.12464815  0.07303697  1
  La3+  La5  1  0.11576191  0.50435977  0.90690998  1
  La3+  La6  1  0.74670839  0.36597548  0.08107440  1
  La3+  La7  1  0.61758494  0.49588156  0.38935701  1
  La3+  La8  1  0.26290268  0.63159012  0.58529208  1
  La3+  La9  1  0.62175322  0.73858977  0.91927340  1
  La3+  La10  1  0.12497749  0.26719286  0.42120030  1
  La3+  La11  1  0.12037253  0.23432281  0.89304528  1
  Ce3+  Ce12  1  0.88246956  0.00632369  0.44380437  1
  Ce3+  Ce13  1  0.13409980  0.50548853  0.44623527  1
  Ce3+  Ce14  1  0.74489260  0.62082048  0.06065603  1
  Ce3+  Ce15  1  0.38301857  0.75364631  0.44503784  1
  Ce3+  Ce16  1  0.63017750  0.25686625  0.44129927  1
  Ce3+  Ce17  1  0.62139744  0.49547658  0.95221488  1
  Ce3+  Ce18  1  0.61659850  0.25204181  0.93893178  1
  Ce3+  Ce19  1  0.23984991  0.37247621  0.03974453  1
  Ce3+  Ce20  1  0.87021592  0.51113872  0.43982004  1
  Ce3+  Ce21  1  0.11716534  0.75069003  0.94088444  1
  Ce3+  Ce22  1  0.13340709  0.75414314  0.44462936  1
  Ce3+  Ce23  1  0.25794854  0.88464704  0.55693322  1
  Ce3+  Ce24  1  0.36642965  0.74915967  0.95033875  1
  Ce3+  Ce25  1  0.25466047  0.13430618  0.55965579  1
  Pr3+  Pr26  1  0.37244091  0.24907575  0.92749103  1
  Pr3+  Pr27  1  -0.00508931  0.12576572  0.07141291  1
  Pr3+  Pr28  1  0.73828918  0.12138691  0.06237201  1
  Pr3+  Pr29  1  0.86986559  0.49148814  0.93549858  1
  Pr3+  Pr30  1  0.61980173  -0.00322783  0.93452625  1
  Pr3+  Pr31  1  0.36670650  -0.00232006  0.94275753  1
  Pr3+  Pr32  1  0.24186015  0.61786757  0.06618663  1
  Pr3+  Pr33  1  0.00942733  0.88202125  0.55474377  1
  Pr3+  Pr34  1  0.51052469  0.12853408  0.56656625  1
  Pr3+  Pr35  1  0.37320406  0.50627901  0.92711872  1
  Pr3+  Pr36  1  0.50783901  0.88626544  0.56748990  1
  Pr3+  Pr37  1  0.00862179  0.13506837  0.55892636  1
  Pr3+  Pr38  1  0.75370951  0.63165058  0.56947853  1
  Nd3+  Nd39  1  0.37966650  0.00726997  0.43835643  1
  Nd3+  Nd40  1  0.75361910  0.38389738  0.55773006  1
  Nd3+  Nd41  1  0.50732546  0.38378812  0.56587630  1
  Nd3+  Nd42  1  0.38255592  0.25898262  0.44435296  1
  Nd3+  Nd43  1  -0.00561285  0.62003625  0.05768054  1
  Nd3+  Nd44  1  0.38398230  0.50759904  0.45300903  1
  Nd3+  Nd45  1  0.74345620  0.86813034  0.06362100  1
  Nd3+  Nd46  1  0.62926658  0.75631749  0.43595977  1
  Nd3+  Nd47  1  0.48685456  0.12254288  0.06235571  1
  Nd3+  Nd48  1  0.51284174  0.64023294  0.57537105  1
  Nd3+  Nd49  1  0.75637842  0.88417328  0.56232436  1
  Nd3+  Nd50  1  0.25031358  0.37172720  0.57606662  1
  Nd3+  Nd51  1  0.63171263  0.00421237  0.43103989  1
  Sm3+  Sm52  1  0.75856577  0.13340964  0.55506610  1
  Sm3+  Sm53  1  0.86905258  0.74886580  0.93938772  1
  Sm3+  Sm54  1  0.88166600  0.75612862  0.44912924  1
  Sm3+  Sm55  1  0.00662820  0.63035686  0.55992045  1
  Sm3+  Sm56  1  0.13351320  0.01258676  0.43433294  1
  Sm3+  Sm57  1  -0.00433070  0.87014074  0.06784201  1
  Sm3+  Sm58  1  0.11682565  -0.00010745  0.94619900  1
  Sm3+  Sm59  1  0.86916721  -0.00011269  0.94735559  1
  Sm3+  Sm60  1  0.00572431  0.38314362  0.55884000  1
  Sm3+  Sm61  1  0.87215093  0.24589530  0.93916740  1
  Sm3+  Sm62  1  0.87957222  0.25879614  0.44226795  1
  Sm3+  Sm63  1  -0.00451983  0.36848979  0.05002482  1
  Bi2+  Bi64  1  -0.02067206  0.06575561  0.27278654  1
  Bi2+  Bi65  1  -0.02307614  0.09508810  0.79576179  1
  Bi2+  Bi66  1  0.01332363  0.39617849  0.28847969  1
  Bi2+  Bi67  1  -0.08929622  0.37310825  0.78310430  1
  Bi2+  Bi68  1  0.02629796  0.67303702  0.31081523  1
  Bi2+  Bi69  1  -0.02477556  0.65448168  0.80441458  1
  Bi2+  Bi70  1  -0.04319977  0.84426156  0.27381816  1
  Bi2+  Bi71  1  0.03570961  0.84218626  0.82472328  1
  Bi2+  Bi72  1  0.27278984  0.09597158  0.30156003  1
  Bi2+  Bi73  1  0.24736296  0.08715810  0.78129082  1
  Bi2+  Bi74  1  0.22537646  0.30840055  0.28943324  1
  Bi2+  Bi75  1  0.26578693  0.35367110  0.77908571  1
  Bi2+  Bi76  1  0.20873589  0.59472975  0.28514309  1
  Bi2+  Bi77  1  0.24901066  0.67559724  0.78218358  1
  Bi2+  Bi78  1  0.22881251  0.85314053  0.27427733  1
  Bi2+  Bi79  1  0.21311662  0.87895089  0.77915948  1
  Bi2+  Bi80  1  0.53770833  0.13818523  0.25072793  1
  Bi2+  Bi81  1  0.53448531  0.11758436  0.79612950  1
  Bi2+  Bi82  1  0.47182906  0.37227758  0.30091189  1
  Bi2+  Bi83  1  0.58178734  0.37748106  0.79615998  1
  Bi2+  Bi84  1  0.49229632  0.63619926  0.29190417  1
  Bi2+  Bi85  1  0.48651372  0.62137988  0.80318253  1
  Bi2+  Bi86  1  0.48922375  0.88637499  0.29131620  1
  Bi2+  Bi87  1  0.47420967  0.90677409  0.78940434  1
  Bi2+  Bi88  1  0.70232883  0.10992053  0.30929208  1
  Bi2+  Bi89  1  0.72227167  0.17912548  0.79945957  1
  Bi2+  Bi90  1  0.81560216  0.26986538  0.29088133  1
  Bi2+  Bi91  1  0.75054843  0.36009801  0.85012691  1
  Bi2+  Bi92  1  0.77586347  0.63959166  0.29399864  1
  Bi2+  Bi93  1  0.77528345  0.60268232  0.80311593  1
  Bi2+  Bi94  1  0.74990492  0.91609876  0.29240233  1
  Bi2+  Bi95  1  0.84995276  0.86121641  0.78825804  1
  Bi2+  Bi96  1  0.11936504  -0.01298507  0.21224249  1
  Bi2+  Bi97  1  0.11215862  0.00996584  0.70746298  1
  Bi2+  Bi98  1  0.09783326  0.28761176  0.20207546  1
  Bi2+  Bi99  1  0.08871724  0.23945146  0.69471573  1
  Bi2+  Bi100  1  0.12104368  0.49212479  0.19710436  1
  Bi2+  Bi101  1  0.11050276  0.50892830  0.71228809  1
  Bi2+  Bi102  1  0.14850221  0.69856784  0.18880256  1
  Bi2+  Bi103  1  0.06813354  0.76252304  0.71645122  1
  Bi2+  Bi104  1  0.40463239  0.01639694  0.19984524  1
  Bi2+  Bi105  1  0.30439858  -0.00322480  0.68120689  1
  Bi2+  Bi106  1  0.39302176  0.27964315  0.20620363  1
  Bi2+  Bi107  1  0.44044831  0.13767227  0.69453368  1
  Bi2+  Bi108  1  0.31767397  0.47540249  0.21698638  1
  Bi2+  Bi109  1  0.39545908  0.48525563  0.72008414  1
  Bi2+  Bi110  1  0.33654259  0.73179917  0.21617712  1
  Bi2+  Bi111  1  0.37763101  0.74935867  0.71357091  1
  Bi2+  Bi112  1  0.70290350  0.01642333  0.20035431  1
  Bi2+  Bi113  1  0.66070300  0.01569889  0.71226721  1
  Bi2+  Bi114  1  0.66207535  0.28912617  0.21908304  1
  Bi2+  Bi115  1  0.59133517  0.26232995  0.70433965  1
  Bi2+  Bi116  1  0.63700565  0.52465092  0.18857693  1
  Bi2+  Bi117  1  0.63652528  0.53112024  0.73228594  1
  Bi2+  Bi118  1  0.65396938  0.76575523  0.21860863  1
  Bi2+  Bi119  1  0.63391104  0.76680314  0.71743341  1
  Bi2+  Bi120  1  0.90225200  -0.01633984  0.17347633  1
  Bi2+  Bi121  1  0.90503237  -0.00208917  0.71086289  1
  Bi2+  Bi122  1  0.89987974  0.18783427  0.19690994  1
  Bi2+  Bi123  1  0.81250764  0.25261432  0.71116951  1
  Bi2+  Bi124  1  0.93561202  0.55152168  0.24032729  1
  Bi2+  Bi125  1  0.82987086  0.50169736  0.70763695  1
  Bi2+  Bi126  1  0.85554393  0.79132805  0.18554490  1
  Bi2+  Bi127  1  0.85897505  0.70112176  0.71044761  1
  S2-  S128  1  0.11053108  0.14003575  0.14978553  1
  S2-  S129  1  -0.04428226  0.14418549  0.65570031  1
  S2-  S130  1  -0.04002547  0.32925365  0.14470507  1
  S2-  S131  1  0.02668389  0.38065277  0.65703860  1
  S2-  S132  1  -0.01535787  0.65299681  0.15569305  1
  S2-  S133  1  -0.01006801  0.61878975  0.65772057  1
  S2-  S134  1  0.10132212  0.85401224  0.14724260  1
  S2-  S135  1  0.00471509  0.88728787  0.65551085  1
  S2-  S136  1  0.37317955  0.16262514  0.14052698  1
  S2-  S137  1  0.22679601  0.23121719  0.63963081  1
  S2-  S138  1  0.31265711  0.37028259  0.13095450  1
  S2-  S139  1  0.25018857  0.44255629  0.67030428  1
  S2-  S140  1  0.35263730  0.59870163  0.14591910  1
  S2-  S141  1  0.19042216  0.63988088  0.67983075  1
  S2-  S142  1  0.25648611  1.00283727  0.15560863  1
  S2-  S143  1  0.26805327  0.83570774  0.64949396  1
  S2-  S144  1  0.55960649  0.07847498  0.15246217  1
  S2-  S145  1  0.52712669  0.01011480  0.64320182  1
  S2-  S146  1  0.53906973  0.38305943  0.16557591  1
  S2-  S147  1  0.47242484  0.36896419  0.66441057  1
  S2-  S148  1  0.54268572  0.67526851  0.17034063  1
  S2-  S149  1  0.40429291  0.61219408  0.65412440  1
  S2-  S150  1  0.39860529  0.86337814  0.15616081  1
  S2-  S151  1  0.51125692  0.79296397  0.65573673  1
  S2-  S152  1  0.74515596  0.22322293  0.14438170  1
  S2-  S153  1  0.72267455  0.12306331  0.65168401  1
  S2-  S154  1  0.76271269  0.43040383  0.17637269  1
  S2-  S155  1  0.73711948  0.37914373  0.65747441  1
  S2-  S156  1  0.75372936  0.65141980  0.15779837  1
  S2-  S157  1  0.64238034  0.63833596  0.64909824  1
  S2-  S158  1  0.63607653  0.87527443  0.14371716  1
  S2-  S159  1  0.72545020  0.88074324  0.66147808  1
  S2-  S160  1  0.17929175  -0.03070440  0.34182732  1
  S2-  S161  1  0.11697877  0.06853387  0.85407845  1
  S2-  S162  1  0.14377049  0.16896378  0.33689743  1
  S2-  S163  1  0.12022707  0.28583166  0.78848440  1
  S2-  S164  1  0.14517897  0.41608149  0.36142195  1
  S2-  S165  1  0.17777390  0.48022328  0.80642592  1
  S2-  S166  1  0.17677175  0.73968368  0.34952625  1
  S2-  S167  1  0.13134944  0.66215930  0.85635998  1
  S2-  S168  1  0.41500682  0.00604234  0.33908430  1
  S2-  S169  1  0.37335478  -0.00159740  0.84058464  1
  S2-  S170  1  0.36520801  0.24752659  0.34448540  1
  S2-  S171  1  0.28327153  0.22105717  0.84223806  1
  S2-  S172  1  0.42966593  0.50896035  0.35557292  1
  S2-  S173  1  0.38949473  0.46321061  0.82701972  1
  S2-  S174  1  0.41552732  0.76141480  0.34701004  1
  S2-  S175  1  0.36541379  0.71332917  0.85440336  1
  S2-  S176  1  0.62216807  -0.11846615  0.35936720  1
  S2-  S177  1  0.61345294  -0.02750615  0.83361179  1
  S2-  S178  1  0.60632970  0.32671483  0.35269192  1
  S2-  S179  1  0.50809320  0.25625725  0.85879084  1
  S2-  S180  1  0.58921221  0.49607824  0.28147779  1
  S2-  S181  1  0.59781452  0.57719960  0.86773960  1
  S2-  S182  1  0.62455968  0.66133918  0.35031458  1
  S2-  S183  1  0.56960773  0.76963896  0.81723152  1
  S2-  S184  1  0.87653645  0.01144772  0.34609714  1
  S2-  S185  1  0.85497740  0.00128898  0.84924190  1
  S2-  S186  1  0.95072642  0.26919344  0.35284549  1
  S2-  S187  1  0.95373778  0.22853212  0.85111264  1
  S2-  S188  1  0.78788282  0.50938437  0.35270875  1
  S2-  S189  1  0.96738755  0.49211117  0.84860889  1
  S2-  S190  1  0.86463857  0.74928449  0.35072248  1
  S2-  S191  1  0.77054053  0.75441201  0.85853607  1
  S2-  S192  1  0.00578926  0.13208002  0.45061451  1
  S2-  S193  1  -0.00812725  0.12057130  0.96053601  1
  S2-  S194  1  -0.00266680  0.38927663  0.45491672  1
  S2-  S195  1  0.00038836  0.36774788  0.94637607  1
  S2-  S196  1  0.00440969  0.63021934  0.45445330  1
  S2-  S197  1  -0.00940137  0.62357621  0.95249419  1
  S2-  S198  1  0.00927489  0.88132062  0.44659377  1
  S2-  S199  1  -0.01003164  0.87484612  0.96089297  1
  S2-  S200  1  0.25538451  0.13353795  0.45206787  1
  S2-  S201  1  0.24055282  0.12060898  0.95569887  1
  S2-  S202  1  0.26034603  0.38145089  0.46263467  1
  S2-  S203  1  0.24069729  0.37797208  0.93380707  1
  S2-  S204  1  0.25734204  0.62946289  0.46083012  1
  S2-  S205  1  0.24201090  0.61973474  0.95718167  1
  S2-  S206  1  0.25623069  0.88241772  0.45123203  1
  S2-  S207  1  0.23943538  0.87476663  0.95291576  1
  S2-  S208  1  0.50784521  0.12957792  0.45132255  1
  S2-  S209  1  0.49535184  0.11917177  0.95479708  1
  S2-  S210  1  0.50776078  0.38315809  0.45922238  1
  S2-  S211  1  0.49243191  0.38056046  0.95755186  1
  S2-  S212  1  0.50628217  0.63186446  0.46363099  1
  S2-  S213  1  0.49144497  0.62636618  0.96395632  1
  S2-  S214  1  0.50304234  0.88415084  0.45926337  1
  S2-  S215  1  0.49599721  0.87008794  0.95300462  1
  S2-  S216  1  0.75792679  0.13255398  0.45007519  1
  S2-  S217  1  0.74437591  0.12449544  0.95343889  1
  S2-  S218  1  0.75490323  0.37904994  0.45208083  1
  S2-  S219  1  0.74544784  0.36977912  0.96690819  1
  S2-  S220  1  0.75779926  0.63960128  0.46234730  1
  S2-  S221  1  0.75092821  0.61863481  0.95627425  1
  S2-  S222  1  0.76030557  0.88094987  0.45552458  1
  S2-  S223  1  0.74638956  0.87503869  0.95700597  1
  S2-  S224  1  0.11390292  -0.00576860  0.04890024  1
  S2-  S225  1  0.13164892  0.00886165  0.54299979  1
  S2-  S226  1  0.11828589  0.25095687  0.04427396  1
  S2-  S227  1  0.12491961  0.26120243  0.53493366  1
  S2-  S228  1  0.11588124  0.49494342  0.04763009  1
  S2-  S229  1  0.13053451  0.50721743  0.55285935  1
  S2-  S230  1  0.11927214  0.74506008  0.04494494  1
  S2-  S231  1  0.13090836  0.75276073  0.55191913  1
  S2-  S232  1  0.36852320  -0.00752194  0.04763496  1
  S2-  S233  1  0.37967044  0.01081280  0.54459963  1
  S2-  S234  1  0.36394968  0.24695145  0.03220785  1
  S2-  S235  1  0.38610096  0.25360788  0.55052540  1
  S2-  S236  1  0.36589424  0.49833197  0.03555163  1
  S2-  S237  1  0.37676220  0.49886032  0.55632837  1
  S2-  S238  1  0.36456083  0.74908833  0.05312640  1
  S2-  S239  1  0.38112044  0.75808492  0.54955741  1
  S2-  S240  1  0.61959360  -0.00258723  0.04072366  1
  S2-  S241  1  0.63851353  0.00965522  0.53758970  1
  S2-  S242  1  0.61077501  0.24847575  0.04766179  1
  S2-  S243  1  0.63225760  0.25549783  0.54883226  1
  S2-  S244  1  0.61724132  0.49472781  0.05739126  1
  S2-  S245  1  0.62955287  0.50528738  0.55494930  1
  S2-  S246  1  0.62165267  0.74312240  0.04264622  1
  S2-  S247  1  0.63417258  0.76344648  0.54468006  1
  S2-  S248  1  0.86780275  -0.00353109  0.05197484  1
  S2-  S249  1  0.88174350  0.00849577  0.55029151  1
  S2-  S250  1  0.87013492  0.24338018  0.04174231  1
  S2-  S251  1  0.88023060  0.25974432  0.54766604  1
  S2-  S252  1  0.87187773  0.49427428  0.04778041  1
  S2-  S253  1  0.88063950  0.50735337  0.54970106  1
  S2-  S254  1  0.87066709  0.74796348  0.04481258  1
  S2-  S255  1  0.88226819  0.75637326  0.55470065  1
