# generated using pymatgen
data_La12Ce14Pr13Nd13Sm12(BiS2)64
_symmetry_space_group_name_H-M   'P 1'
_cell_length_a   16.09246637
_cell_length_b   16.12208342
_cell_length_c   27.22662170
_cell_angle_alpha   89.96478161
_cell_angle_beta   89.83350406
_cell_angle_gamma   90.10720121
_symmetry_Int_Tables_number   1
_chemical_formula_structural   La12Ce14Pr13Nd13Sm12(BiS2)64
_chemical_formula_sum   'La12 Ce14 Pr13 Nd13 Sm12 Bi64 S128'
_cell_volume   7063.74241846
_cell_formula_units_Z   1
loop_
 _symmetry_equiv_pos_site_id
 _symmetry_equiv_pos_as_xyz
  1  'x, y, z'
loop_
 _atom_type_symbol
 _atom_type_oxidation_number
  La3+  3.0
  Ce3+  3.0
  Pr3+  3.0
  Nd3+  3.0
  Sm3+  3.0
  Bi2+  2.0
  S2-  -2.0
loop_
 _atom_site_type_symbol
 _atom_site_label
 _atom_site_symmetry_multiplicity
 _atom_site_fract_x
 _atom_site_fract_y
 _atom_site_fract_z
 _atom_site_occupancy
  La3+  La0  1  0.88475702  -0.01122915  0.40698733  1
  La3+  La1  1  0.37203703  0.50244469  0.41254403  1
  La3+  La2  1  -0.01394944  0.37869855  0.06280604  1
  La3+  La3  1  0.37658748  0.24554079  0.43436130  1
  La3+  La4  1  0.72952222  0.37898285  0.06818654  1
  La3+  La5  1  0.62151272  -0.01084230  0.38530325  1
  La3+  La6  1  0.24827775  0.36632685  0.59197141  1
  La3+  La7  1  0.21582054  0.61224024  0.06825061  1
  La3+  La8  1  -0.00423770  0.62739360  0.59116588  1
  La3+  La9  1  -0.02157580  0.12443904  0.09067513  1
  La3+  La10  1  0.47337605  0.87336044  0.07003681  1
  La3+  La11  1  0.09100342  0.24052689  0.90816456  1
  Ce3+  Ce12  1  0.37727049  0.74189684  0.44298813  1
  Ce3+  Ce13  1  0.84868800  0.75580735  0.94967262  1
  Ce3+  Ce14  1  -0.00376567  0.36863305  0.57190015  1
  Ce3+  Ce15  1  0.00184759  0.87467757  0.56133825  1
  Ce3+  Ce16  1  0.87863707  0.24446384  0.43470690  1
  Ce3+  Ce17  1  0.62844272  0.49709101  0.43205819  1
  Ce3+  Ce18  1  0.47327575  0.37585965  0.04594239  1
  Ce3+  Ce19  1  0.85631674  0.49999231  0.93912722  1
  Ce3+  Ce20  1  0.74988384  0.61853621  0.56480990  1
  Ce3+  Ce21  1  -0.00084944  0.12099582  0.55782623  1
  Ce3+  Ce22  1  0.22828997  0.87487411  0.06710112  1
  Ce3+  Ce23  1  0.23207228  0.13013421  0.06448315  1
  Ce3+  Ce24  1  0.60778112  0.24988568  0.94033018  1
  Ce3+  Ce25  1  0.34855763  0.00245650  0.94519284  1
  Pr3+  Pr26  1  0.12910383  0.24723460  0.44286141  1
  Pr3+  Pr27  1  0.35164675  0.24719371  0.92813684  1
  Pr3+  Pr28  1  0.72321653  0.13033334  0.08442520  1
  Pr3+  Pr29  1  0.47640687  0.13074850  0.07072689  1
  Pr3+  Pr30  1  -0.02624199  0.63092458  0.06631207  1
  Pr3+  Pr31  1  0.50540653  0.87094031  0.56006038  1
  Pr3+  Pr32  1  0.34494778  0.50458115  0.92622183  1
  Pr3+  Pr33  1  0.09173052  0.75601355  0.93595089  1
  Pr3+  Pr34  1  0.09552787  0.51139886  0.91582064  1
  Pr3+  Pr35  1  0.60220975  0.00124235  0.94365822  1
  Pr3+  Pr36  1  0.63053450  0.24465091  0.43531570  1
  Pr3+  Pr37  1  0.12566672  0.49603841  0.44799813  1
  Pr3+  Pr38  1  0.63013259  0.74424665  0.43403165  1
  Nd3+  Nd39  1  0.26277080  0.61697857  0.57581081  1
  Nd3+  Nd40  1  0.85176164  0.00520615  0.95708388  1
  Nd3+  Nd41  1  0.60292030  0.50293502  0.93596637  1
  Nd3+  Nd42  1  0.37695524  -0.00745787  0.43600838  1
  Nd3+  Nd43  1  -0.02507400  0.87792104  0.07575023  1
  Nd3+  Nd44  1  0.12672533  -0.00484473  0.43457207  1
  Nd3+  Nd45  1  0.71803371  0.87672850  0.07892377  1
  Nd3+  Nd46  1  0.60141817  0.75157237  0.94385601  1
  Nd3+  Nd47  1  0.88360829  0.49619133  0.44257904  1
  Nd3+  Nd48  1  0.25300738  0.87128092  0.56021725  1
  Nd3+  Nd49  1  0.50419001  0.61317811  0.56227585  1
  Nd3+  Nd50  1  0.47109873  0.62230897  0.05530920  1
  Nd3+  Nd51  1  0.88041067  0.74409114  0.43933164  1
  Sm3+  Sm52  1  0.34749578  0.75221019  0.94381535  1
  Sm3+  Sm53  1  0.50454253  0.11901334  0.54683642  1
  Sm3+  Sm54  1  0.72382050  0.62131867  0.06266495  1
  Sm3+  Sm55  1  0.25450492  0.12147243  0.56332463  1
  Sm3+  Sm56  1  0.49915676  0.36856690  0.55240112  1
  Sm3+  Sm57  1  0.22333937  0.37212472  0.03572553  1
  Sm3+  Sm58  1  0.12800359  0.74049125  0.45392468  1
  Sm3+  Sm59  1  0.75203104  0.87252715  0.55045960  1
  Sm3+  Sm60  1  0.09899379  0.00418688  0.94986652  1
  Sm3+  Sm61  1  0.74959813  0.11671540  0.54671459  1
  Sm3+  Sm62  1  0.75552113  0.36901150  0.55900576  1
  Sm3+  Sm63  1  0.84792543  0.24876607  0.94314175  1
  Bi2+  Bi64  1  0.04883182  0.15395065  0.28739749  1
  Bi2+  Bi65  1  -0.03638197  0.09158670  0.79731049  1
  Bi2+  Bi66  1  -0.03193967  0.42304354  0.27096392  1
  Bi2+  Bi67  1  -0.05105866  0.36238808  0.78961821  1
  Bi2+  Bi68  1  -0.02064355  0.63334287  0.31579702  1
  Bi2+  Bi69  1  -0.02608096  0.65232710  0.79976632  1
  Bi2+  Bi70  1  0.02063135  0.85874323  0.28320486  1
  Bi2+  Bi71  1  0.00209927  0.88322561  0.76146044  1
  Bi2+  Bi72  1  0.24109119  0.05266201  0.32343526  1
  Bi2+  Bi73  1  0.26105170  0.09253741  0.79690294  1
  Bi2+  Bi74  1  0.22238184  0.34105182  0.27611581  1
  Bi2+  Bi75  1  0.28734000  0.36975803  0.78797622  1
  Bi2+  Bi76  1  0.23909158  0.61271198  0.30147286  1
  Bi2+  Bi77  1  0.27204449  0.62233817  0.80105050  1
  Bi2+  Bi78  1  0.26154993  0.86627171  0.28952160  1
  Bi2+  Bi79  1  0.17508219  0.91133361  0.81539034  1
  Bi2+  Bi80  1  0.42629821  0.11656562  0.30255611  1
  Bi2+  Bi81  1  0.54367902  0.17331632  0.78298565  1
  Bi2+  Bi82  1  0.47209799  0.36540675  0.29068428  1
  Bi2+  Bi83  1  0.56134164  0.36838121  0.77679201  1
  Bi2+  Bi84  1  0.59507792  0.63840254  0.30967722  1
  Bi2+  Bi85  1  0.53290975  0.69022226  0.80007900  1
  Bi2+  Bi86  1  0.55693918  0.79376823  0.24213703  1
  Bi2+  Bi87  1  0.49258677  0.97617189  0.77456046  1
  Bi2+  Bi88  1  0.74655762  0.16908720  0.30375196  1
  Bi2+  Bi89  1  0.74094059  0.15184713  0.77811127  1
  Bi2+  Bi90  1  0.77573154  0.43098838  0.29142274  1
  Bi2+  Bi91  1  0.75158575  0.38221520  0.80340660  1
  Bi2+  Bi92  1  0.78004457  0.60477666  0.34758800  1
  Bi2+  Bi93  1  0.73791324  0.62526832  0.79368164  1
  Bi2+  Bi94  1  0.76210885  0.77719763  0.28692287  1
  Bi2+  Bi95  1  0.74452264  0.90792751  0.79931427  1
  Bi2+  Bi96  1  0.16509844  -0.05625008  0.19557016  1
  Bi2+  Bi97  1  0.13362120  0.01527490  0.71434420  1
  Bi2+  Bi98  1  0.20494300  0.15182329  0.21792032  1
  Bi2+  Bi99  1  0.12302325  0.22819424  0.71373825  1
  Bi2+  Bi100  1  0.11986130  0.44986583  0.20187766  1
  Bi2+  Bi101  1  0.12798628  0.49896385  0.71816078  1
  Bi2+  Bi102  1  0.15316307  0.74788581  0.20975644  1
  Bi2+  Bi103  1  0.13151138  0.75823837  0.70574010  1
  Bi2+  Bi104  1  0.35857796  -0.00986850  0.21873462  1
  Bi2+  Bi105  1  0.32511539  0.00689265  0.69154656  1
  Bi2+  Bi106  1  0.44987557  0.23204621  0.20719327  1
  Bi2+  Bi107  1  0.41516792  0.21860120  0.70200858  1
  Bi2+  Bi108  1  0.37287516  0.48953547  0.17242265  1
  Bi2+  Bi109  1  0.44448087  0.49762771  0.70446408  1
  Bi2+  Bi110  1  0.38378961  0.73698313  0.21114059  1
  Bi2+  Bi111  1  0.33966216  0.84834749  0.75913085  1
  Bi2+  Bi112  1  0.65820188  -0.00129103  0.20945878  1
  Bi2+  Bi113  1  0.62972851  0.01095066  0.68043123  1
  Bi2+  Bi114  1  0.64908870  0.29450444  0.23236457  1
  Bi2+  Bi115  1  0.67621290  0.28482328  0.69806221  1
  Bi2+  Bi116  1  0.62432303  0.49542302  0.22576264  1
  Bi2+  Bi117  1  0.62623529  0.55573536  0.67269812  1
  Bi2+  Bi118  1  0.70458132  0.67039343  0.19441019  1
  Bi2+  Bi119  1  0.60196361  0.74294716  0.70172377  1
  Bi2+  Bi120  1  0.88644523  -0.01549919  0.22976980  1
  Bi2+  Bi121  1  0.85418626  -0.00676632  0.71904151  1
  Bi2+  Bi122  1  0.88581481  0.25681474  0.20384509  1
  Bi2+  Bi123  1  0.87716070  0.24629928  0.70915030  1
  Bi2+  Bi124  1  0.88532778  0.59017244  0.21846603  1
  Bi2+  Bi125  1  0.79999084  0.49905909  0.71235180  1
  Bi2+  Bi126  1  0.96672321  0.75395960  0.18419132  1
  Bi2+  Bi127  1  0.79590115  0.76230344  0.71875301  1
  S2-  S128  1  0.04826631  0.19790884  0.18074226  1
  S2-  S129  1  -0.00287488  0.14911173  0.65518191  1
  S2-  S130  1  -0.07252857  0.39097432  0.15848883  1
  S2-  S131  1  0.09443246  0.36495229  0.65557573  1
  S2-  S132  1  0.07675531  0.55879751  0.13402708  1
  S2-  S133  1  0.02065433  0.61835055  0.69816051  1
  S2-  S134  1  0.00575260  0.97963894  0.15666858  1
  S2-  S135  1  0.00029267  0.83265302  0.65580445  1
  S2-  S136  1  0.34161047  0.14280632  0.14173882  1
  S2-  S137  1  0.25943892  0.21292247  0.64805714  1
  S2-  S138  1  0.23762392  0.40064954  0.13366025  1
  S2-  S139  1  0.28535861  0.43015668  0.68844679  1
  S2-  S140  1  0.27302807  0.63555621  0.16473721  1
  S2-  S141  1  0.20928663  0.62633587  0.67281274  1
  S2-  S142  1  0.34607878  0.87137852  0.14324173  1
  S2-  S143  1  0.27109219  0.84507166  0.65857320  1
  S2-  S144  1  0.58358411  0.10566171  0.15356340  1
  S2-  S145  1  0.50497950  0.11047258  0.64476607  1
  S2-  S146  1  0.48622024  0.36175084  0.14365623  1
  S2-  S147  1  0.47575043  0.34546872  0.65014114  1
  S2-  S148  1  0.47997819  0.62706931  0.15520035  1
  S2-  S149  1  0.40786964  0.62001795  0.64523912  1
  S2-  S150  1  0.58435059  0.87842337  0.15020692  1
  S2-  S151  1  0.51884341  0.87433215  0.66040277  1
  S2-  S152  1  0.84145755  0.10626803  0.16334751  1
  S2-  S153  1  0.72808360  0.13293539  0.64472492  1
  S2-  S154  1  0.73493920  0.27430488  0.14925996  1
  S2-  S155  1  0.86385462  0.37238742  0.63860340  1
  S2-  S156  1  0.71592030  0.51038834  0.13945497  1
  S2-  S157  1  0.84072814  0.63673645  0.64678088  1
  S2-  S158  1  0.79263279  0.89331390  0.17272824  1
  S2-  S159  1  0.75982394  0.89554135  0.64967293  1
  S2-  S160  1  0.03287084  0.00307761  0.34799232  1
  S2-  S161  1  0.10197475  0.07890436  0.86015610  1
  S2-  S162  1  0.10775603  0.27592188  0.34228849  1
  S2-  S163  1  0.13745604  0.28792346  0.80749524  1
  S2-  S164  1  0.22032247  0.49078210  0.36048014  1
  S2-  S165  1  0.17786958  0.49245492  0.82309977  1
  S2-  S166  1  0.11888183  0.70449189  0.35772879  1
  S2-  S167  1  0.12183734  0.67304576  0.84802327  1
  S2-  S168  1  0.45166146  -0.03366653  0.34805137  1
  S2-  S169  1  0.38567879  0.01884286  0.85059331  1
  S2-  S170  1  0.33736708  0.29087361  0.33872084  1
  S2-  S171  1  0.35521475  0.23795421  0.82710897  1
  S2-  S172  1  0.35189842  0.48829463  0.26615643  1
  S2-  S173  1  0.38031649  0.50814567  0.82673228  1
  S2-  S174  1  0.36647829  0.66225434  0.35671452  1
  S2-  S175  1  0.37669756  0.74839499  0.84610615  1
  S2-  S176  1  0.59625099  0.07146941  0.29314567  1
  S2-  S177  1  0.62546912  0.00073293  0.84316969  1
  S2-  S178  1  0.61509917  0.28250325  0.33773470  1
  S2-  S179  1  0.72261295  0.23857442  0.86703403  1
  S2-  S180  1  0.52283232  0.49162170  0.35360416  1
  S2-  S181  1  0.60078863  0.55016014  0.83970581  1
  S2-  S182  1  0.62359905  0.82840245  0.34274116  1
  S2-  S183  1  0.66032657  0.77447097  0.85133819  1
  S2-  S184  1  0.77994807  0.01009230  0.32673206  1
  S2-  S185  1  0.86210579  -0.00516613  0.85666616  1
  S2-  S186  1  0.89480813  0.21529383  0.33702034  1
  S2-  S187  1  0.93735678  0.23548868  0.85642066  1
  S2-  S188  1  1.00290091  0.48665465  0.36686834  1
  S2-  S189  1  0.95068550  0.50584815  0.85377769  1
  S2-  S190  1  0.89139571  0.82931029  0.35035679  1
  S2-  S191  1  0.93326072  0.76460429  0.86430126  1
  S2-  S192  1  0.00163537  0.11898490  0.45179141  1
  S2-  S193  1  -0.02254502  0.12519936  0.96616595  1
  S2-  S194  1  0.00058295  0.36559798  0.46401775  1
  S2-  S195  1  -0.02258253  0.37012517  0.95232709  1
  S2-  S196  1  0.00164735  0.62443561  0.46932998  1
  S2-  S197  1  -0.02726594  0.63049306  0.96054436  1
  S2-  S198  1  0.00746040  0.86896282  0.45579267  1
  S2-  S199  1  -0.02286004  0.88193282  0.96863717  1
  S2-  S200  1  0.25206385  0.11821845  0.45694175  1
  S2-  S201  1  0.22444820  0.12909470  0.95616421  1
  S2-  S202  1  0.25320799  0.36942187  0.45823017  1
  S2-  S203  1  0.22168178  0.37083035  0.93214216  1
  S2-  S204  1  0.25306550  0.62090213  0.46724642  1
  S2-  S205  1  0.22536491  0.63067846  0.95389610  1
  S2-  S206  1  0.25010488  0.86914346  0.45218645  1
  S2-  S207  1  0.22347320  0.87656392  0.95704482  1
  S2-  S208  1  0.50688883  0.11662770  0.44167820  1
  S2-  S209  1  0.47805081  0.12821766  0.95453354  1
  S2-  S210  1  0.50173226  0.36918875  0.44980158  1
  S2-  S211  1  0.47715760  0.37676666  0.93764468  1
  S2-  S212  1  0.50432230  0.62022061  0.45666722  1
  S2-  S213  1  0.47381517  0.62728219  0.94874159  1
  S2-  S214  1  0.50356463  0.86766126  0.45298153  1
  S2-  S215  1  0.47525012  0.87422346  0.95648554  1
  S2-  S216  1  0.75305364  0.11449000  0.44167021  1
  S2-  S217  1  0.72582642  0.12472602  0.96807034  1
  S2-  S218  1  0.75624341  0.37158035  0.45218157  1
  S2-  S219  1  0.72808829  0.38125246  0.95781195  1
  S2-  S220  1  0.75394403  0.62056017  0.46063573  1
  S2-  S221  1  0.72738634  0.62569447  0.95685759  1
  S2-  S222  1  0.75289788  0.87448868  0.44668787  1
  S2-  S223  1  0.72463363  0.87729598  0.96656955  1
  S2-  S224  1  0.10728327  0.00349773  0.05277096  1
  S2-  S225  1  0.13005741  -0.00192606  0.54742432  1
  S2-  S226  1  0.10622713  0.24938305  0.05339794  1
  S2-  S227  1  0.12766424  0.24185577  0.54835971  1
  S2-  S228  1  0.10277664  0.49596004  0.02410475  1
  S2-  S229  1  0.12379962  0.50080984  0.55908198  1
  S2-  S230  1  0.10152606  0.75439277  0.04988778  1
  S2-  S231  1  0.12843707  0.74502690  0.55792639  1
  S2-  S232  1  0.35302289  0.00270900  0.04721210  1
  S2-  S233  1  0.37777219  -0.00270511  0.54382933  1
  S2-  S234  1  0.35097208  0.25338120  0.03513203  1
  S2-  S235  1  0.37935376  0.24089914  0.54222508  1
  S2-  S236  1  0.34790272  0.49860948  0.03362275  1
  S2-  S237  1  0.37576838  0.48576167  0.55017892  1
  S2-  S238  1  0.34577667  0.74343944  0.04639414  1
  S2-  S239  1  0.37882585  0.74757435  0.54821487  1
  S2-  S240  1  0.59924030  0.00221026  0.04880095  1
  S2-  S241  1  0.62742250  -0.00443547  0.54278919  1
  S2-  S242  1  0.59996371  0.25297059  0.04502263  1
  S2-  S243  1  0.62793412  0.24608252  0.54201343  1
  S2-  S244  1  0.59679143  0.50140117  0.04080729  1
  S2-  S245  1  0.62860081  0.48762148  0.54157736  1
  S2-  S246  1  0.59996604  0.74393731  0.05028146  1
  S2-  S247  1  0.62914293  0.74487596  0.54542606  1
  S2-  S248  1  0.84717986  -0.00251498  0.05995504  1
  S2-  S249  1  0.87539186  -0.00344554  0.54615650  1
  S2-  S250  1  0.85902356  0.24973055  0.04855812  1
  S2-  S251  1  0.87119961  0.24033389  0.54115001  1
  S2-  S252  1  0.85664064  0.50466857  0.04488675  1
  S2-  S253  1  0.87599816  0.49942818  0.54658262  1
  S2-  S254  1  0.84379839  0.75191584  0.05695819  1
  S2-  S255  1  0.87650521  0.75156112  0.54576331  1
