# generated using pymatgen
data_La12Ce14Pr13Nd13Sm12(BiS2)64
_symmetry_space_group_name_H-M   'P 1'
_cell_length_a   16.17672408
_cell_length_b   16.16291262
_cell_length_c   27.21484561
_cell_angle_alpha   89.75649538
_cell_angle_beta   89.99593213
_cell_angle_gamma   89.99798037
_symmetry_Int_Tables_number   1
_chemical_formula_structural   La12Ce14Pr13Nd13Sm12(BiS2)64
_chemical_formula_sum   'La12 Ce14 Pr13 Nd13 Sm12 Bi64 S128'
_cell_volume   7115.61029007
_cell_formula_units_Z   1
loop_
 _symmetry_equiv_pos_site_id
 _symmetry_equiv_pos_as_xyz
  1  'x, y, z'
loop_
 _atom_type_symbol
 _atom_type_oxidation_number
  La3+  3.0
  Ce3+  3.0
  Pr3+  3.0
  Nd3+  3.0
  Sm3+  3.0
  Bi2+  2.0
  S2-  -2.0
loop_
 _atom_site_type_symbol
 _atom_site_label
 _atom_site_symmetry_multiplicity
 _atom_site_fract_x
 _atom_site_fract_y
 _atom_site_fract_z
 _atom_site_occupancy
  La3+  La0  1  0.50608096  0.10711452  0.57286004  1
  La3+  La1  1  0.13877428  0.48532414  0.43042306  1
  La3+  La2  1  0.11776383  0.27419564  0.90915645  1
  La3+  La3  1  -0.00512165  0.10062536  0.59363090  1
  La3+  La4  1  0.00488318  0.13623738  0.06018649  1
  La3+  La5  1  0.75636597  0.62799531  0.08410489  1
  La3+  La6  1  0.10944279  0.23073494  0.38871795  1
  La3+  La7  1  0.37801526  0.51504257  0.93346698  1
  La3+  La8  1  0.87498858  0.51656834  0.93516855  1
  La3+  La9  1  0.74630881  0.89605177  0.10855657  1
  La3+  La10  1  0.25064215  0.85969346  0.57850782  1
  La3+  La11  1  0.38217342  0.26589056  0.89951892  1
  Ce3+  Ce12  1  0.25382322  0.14111492  0.03949930  1
  Ce3+  Ce13  1  0.50569023  0.88889287  0.06268933  1
  Ce3+  Ce14  1  0.50216962  0.63688978  0.06475105  1
  Ce3+  Ce15  1  0.62700644  -0.01487211  0.43104982  1
  Ce3+  Ce16  1  0.12966358  -0.00857373  0.44398438  1
  Ce3+  Ce17  1  0.74967887  0.13457437  0.05575454  1
  Ce3+  Ce18  1  0.87680741  0.26591989  0.94176934  1
  Ce3+  Ce19  1  0.36859738  0.23831104  0.44614978  1
  Ce3+  Ce20  1  0.37875966  0.75939574  0.94137036  1
  Ce3+  Ce21  1  0.25340917  0.60711695  0.56036226  1
  Ce3+  Ce22  1  0.62911854  0.48673824  0.44005216  1
  Ce3+  Ce23  1  0.62527949  0.26506279  0.93543650  1
  Ce3+  Ce24  1  0.13195677  0.73688994  0.43718981  1
  Ce3+  Ce25  1  0.75690429  0.36115775  0.55751357  1
  Pr3+  Pr26  1  0.37806641  0.74133658  0.44343066  1
  Pr3+  Pr27  1  0.63176590  0.76249475  0.95134196  1
  Pr3+  Pr28  1  0.00279572  0.88675381  0.05915717  1
  Pr3+  Pr29  1  0.88376991  0.48192184  0.43439256  1
  Pr3+  Pr30  1  0.88195440  0.73680115  0.43296495  1
  Pr3+  Pr31  1  0.01186092  0.38693185  0.06898943  1
  Pr3+  Pr32  1  0.25374546  0.63532517  0.06659062  1
  Pr3+  Pr33  1  0.37802017  0.01200090  0.93035230  1
  Pr3+  Pr34  1  0.50318368  0.36637660  0.56939961  1
  Pr3+  Pr35  1  0.37785339  -0.01326076  0.44658019  1
  Pr3+  Pr36  1  0.25071958  0.10913176  0.57093743  1
  Pr3+  Pr37  1  0.12400972  0.01290814  0.92856968  1
  Pr3+  Pr38  1  0.75750828  0.61123345  0.56010528  1
  Nd3+  Nd39  1  0.75432418  0.86060240  0.55219481  1
  Nd3+  Nd40  1  0.25373260  0.88857938  0.05375773  1
  Nd3+  Nd41  1  0.62573741  0.23601397  0.44698726  1
  Nd3+  Nd42  1  0.24811948  0.35126422  0.57623692  1
  Nd3+  Nd43  1  0.50653879  0.85921949  0.56341458  1
  Nd3+  Nd44  1  0.75213342  0.38134357  0.06537427  1
  Nd3+  Nd45  1  0.87792931  0.01251008  0.93921986  1
  Nd3+  Nd46  1  0.49715804  0.38099900  0.06199745  1
  Nd3+  Nd47  1  0.00638657  0.60851836  0.55728214  1
  Nd3+  Nd48  1  0.25694633  0.38035077  0.05954794  1
  Nd3+  Nd49  1  0.63072077  0.72797427  0.42619971  1
  Nd3+  Nd50  1  0.87574155  0.75938580  0.94747954  1
  Nd3+  Nd51  1  0.37866654  0.48614504  0.44232239  1
  Sm3+  Sm52  1  0.88364033  0.23509034  0.44594313  1
  Sm3+  Sm53  1  0.62939330  0.01037142  0.93926200  1
  Sm3+  Sm54  1  0.12763120  0.76057585  0.94732980  1
  Sm3+  Sm55  1  0.00539268  0.35817314  0.55943502  1
  Sm3+  Sm56  1  0.75684363  0.10897902  0.55342134  1
  Sm3+  Sm57  1  0.88187981  -0.00904438  0.43498514  1
  Sm3+  Sm58  1  0.00216075  0.63509002  0.05957074  1
  Sm3+  Sm59  1  0.50108901  0.13515686  0.04921099  1
  Sm3+  Sm60  1  0.00191425  0.86120087  0.55236958  1
  Sm3+  Sm61  1  0.12876205  0.50973893  0.94138184  1
  Sm3+  Sm62  1  0.50493270  0.61192004  0.56137068  1
  Sm3+  Sm63  1  0.62872653  0.51343679  0.95183350  1
  Bi2+  Bi64  1  -0.00228819  0.09880670  0.29027315  1
  Bi2+  Bi65  1  0.01174248  0.12248545  0.79539507  1
  Bi2+  Bi66  1  -0.02997836  0.36999470  0.28695258  1
  Bi2+  Bi67  1  -0.02355071  0.39597864  0.79205333  1
  Bi2+  Bi68  1  0.03224281  0.64177350  0.27467730  1
  Bi2+  Bi69  1  -0.01285556  0.66584407  0.79022293  1
  Bi2+  Bi70  1  0.03090215  0.83288544  0.29563588  1
  Bi2+  Bi71  1  -0.02160961  0.86614376  0.78684583  1
  Bi2+  Bi72  1  0.31195570  0.08005152  0.25562138  1
  Bi2+  Bi73  1  0.25951490  0.12070412  0.77718392  1
  Bi2+  Bi74  1  0.24308012  0.36270427  0.29395613  1
  Bi2+  Bi75  1  0.25749606  0.42135038  0.78312481  1
  Bi2+  Bi76  1  0.26793416  0.63619076  0.30119750  1
  Bi2+  Bi77  1  0.23108542  0.65650429  0.79455324  1
  Bi2+  Bi78  1  0.21864779  0.83860291  0.33290293  1
  Bi2+  Bi79  1  0.26528963  0.84975398  0.77191796  1
  Bi2+  Bi80  1  0.47941693  0.16235867  0.29809413  1
  Bi2+  Bi81  1  0.53694139  0.11641662  0.78853934  1
  Bi2+  Bi82  1  0.48803567  0.35924973  0.29141550  1
  Bi2+  Bi83  1  0.53279805  0.40871568  0.78556969  1
  Bi2+  Bi84  1  0.50064391  0.55970679  0.29766897  1
  Bi2+  Bi85  1  0.50119780  0.66860148  0.80049468  1
  Bi2+  Bi86  1  0.41026441  0.87555344  0.30585613  1
  Bi2+  Bi87  1  0.45782201  0.86213474  0.79161105  1
  Bi2+  Bi88  1  0.71711978  0.11255249  0.24570055  1
  Bi2+  Bi89  1  0.76865939  0.14349388  0.77859082  1
  Bi2+  Bi90  1  0.69738362  0.36091536  0.28919649  1
  Bi2+  Bi91  1  0.71643898  0.32938542  0.78058350  1
  Bi2+  Bi92  1  0.75414403  0.61387915  0.28128170  1
  Bi2+  Bi93  1  0.74246377  0.58155336  0.81013170  1
  Bi2+  Bi94  1  0.75753831  0.87626067  0.31127009  1
  Bi2+  Bi95  1  0.70087300  0.85389566  0.79842503  1
  Bi2+  Bi96  1  0.15535807  -0.03513768  0.24515243  1
  Bi2+  Bi97  1  0.11556471  -0.03115535  0.71004255  1
  Bi2+  Bi98  1  0.11433822  0.24019280  0.18184656  1
  Bi2+  Bi99  1  0.12810351  0.28915478  0.70202946  1
  Bi2+  Bi100  1  0.12368979  0.51656213  0.20818528  1
  Bi2+  Bi101  1  0.09994021  0.57358405  0.71439358  1
  Bi2+  Bi102  1  0.17730554  0.77348166  0.21429569  1
  Bi2+  Bi103  1  0.12066186  0.77489509  0.70389168  1
  Bi2+  Bi104  1  0.41857400  -0.02107795  0.17596802  1
  Bi2+  Bi105  1  0.40402534  -0.00682404  0.70754854  1
  Bi2+  Bi106  1  0.37626095  0.23656154  0.19881539  1
  Bi2+  Bi107  1  0.38809343  0.29204085  0.69932369  1
  Bi2+  Bi108  1  0.39617534  0.50588962  0.20504582  1
  Bi2+  Bi109  1  0.37108031  0.61028289  0.71623577  1
  Bi2+  Bi110  1  0.37680234  0.79212765  0.20519449  1
  Bi2+  Bi111  1  0.39082688  0.79935791  0.67980696  1
  Bi2+  Bi112  1  0.56435442  -0.00588855  0.24934540  1
  Bi2+  Bi113  1  0.66611854  -0.03869002  0.70415254  1
  Bi2+  Bi114  1  0.64149077  0.26542167  0.18180079  1
  Bi2+  Bi115  1  0.62907839  0.20194706  0.70514924  1
  Bi2+  Bi116  1  0.59974185  0.45161737  0.20454163  1
  Bi2+  Bi117  1  0.61355161  0.57343249  0.72034916  1
  Bi2+  Bi118  1  0.54506463  0.73330489  0.24753262  1
  Bi2+  Bi119  1  0.58247474  0.77160478  0.70540486  1
  Bi2+  Bi120  1  0.89321329  0.00303033  0.20824891  1
  Bi2+  Bi121  1  0.85941767  -0.01647019  0.70841236  1
  Bi2+  Bi122  1  0.82706609  0.26792500  0.21895608  1
  Bi2+  Bi123  1  0.87471784  0.28053011  0.71967535  1
  Bi2+  Bi124  1  0.87394009  0.49419274  0.21274197  1
  Bi2+  Bi125  1  0.87407217  0.50343295  0.69294913  1
  Bi2+  Bi126  1  0.89639527  0.74577614  0.20662611  1
  Bi2+  Bi127  1  0.83803856  0.76172186  0.73852370  1
  S2-  S128  1  0.00647255  0.11903161  0.16083368  1
  S2-  S129  1  0.04777575  0.14107691  0.69114924  1
  S2-  S130  1  -0.05473037  0.36127260  0.16298674  1
  S2-  S131  1  0.00768029  0.38892463  0.65764544  1
  S2-  S132  1  -0.00566084  0.61024431  0.15703917  1
  S2-  S133  1  -0.03293763  0.63030586  0.65287977  1
  S2-  S134  1  -0.03425147  0.88262778  0.15679560  1
  S2-  S135  1  -0.00870647  0.93558040  0.64129162  1
  S2-  S136  1  0.24595221  0.16339396  0.13697357  1
  S2-  S137  1  0.25115245  0.21696171  0.65358285  1
  S2-  S138  1  0.15184193  0.39520804  0.14176520  1
  S2-  S139  1  0.25705342  0.41018148  0.67507045  1
  S2-  S140  1  0.25902639  0.58630165  0.16388914  1
  S2-  S141  1  0.22033887  0.64662368  0.65280406  1
  S2-  S142  1  0.20376461  0.90453720  0.14807654  1
  S2-  S143  1  0.24917225  0.98927523  0.64956757  1
  S2-  S144  1  0.49108567  0.13908076  0.14766135  1
  S2-  S145  1  0.45025272  0.14770259  0.66893310  1
  S2-  S146  1  0.37971597  0.37661994  0.13688957  1
  S2-  S147  1  0.54005832  0.34171221  0.66797332  1
  S2-  S148  1  0.50416810  0.64125263  0.16293027  1
  S2-  S149  1  0.48227030  0.54385290  0.65052428  1
  S2-  S150  1  0.58322040  0.90429408  0.15075221  1
  S2-  S151  1  0.53587717  0.96867822  0.63987208  1
  S2-  S152  1  0.76080858  0.06152956  0.14520747  1
  S2-  S153  1  0.83353526  0.10283383  0.64181629  1
  S2-  S154  1  0.75608529  0.48100272  0.14751126  1
  S2-  S155  1  0.77708940  0.37687073  0.65404701  1
  S2-  S156  1  0.75161282  0.68558559  0.18100369  1
  S2-  S157  1  0.75527562  0.60189506  0.66077247  1
  S2-  S158  1  0.78014818  0.87508516  0.21119220  1
  S2-  S159  1  0.77755188  0.84824552  0.65051185  1
  S2-  S160  1  0.12331209  0.06422337  0.35504126  1
  S2-  S161  1  0.14173764  0.02147605  0.82816325  1
  S2-  S162  1  0.12387331  0.23419834  0.27749490  1
  S2-  S163  1  0.13992533  0.22906798  0.80814567  1
  S2-  S164  1  0.09442078  0.39873530  0.34632833  1
  S2-  S165  1  0.12433462  0.43560117  0.85076276  1
  S2-  S166  1  0.12614171  0.62442518  0.35996443  1
  S2-  S167  1  0.11165957  0.74742335  0.85069967  1
  S2-  S168  1  0.38876961  0.03259913  0.34906156  1
  S2-  S169  1  0.38831263  0.07859722  0.83769878  1
  S2-  S170  1  0.28252206  0.25243345  0.36123475  1
  S2-  S171  1  0.32925335  0.26362841  0.79859292  1
  S2-  S172  1  0.29105853  0.48260648  0.35493241  1
  S2-  S173  1  0.38135560  0.43154344  0.84428773  1
  S2-  S174  1  0.40308732  0.67768987  0.35029993  1
  S2-  S175  1  0.36760256  0.65321618  0.86405256  1
  S2-  S176  1  0.66688069  0.02071074  0.33701245  1
  S2-  S177  1  0.63178341  0.00916444  0.84071486  1
  S2-  S178  1  0.61452317  0.24578837  0.34770062  1
  S2-  S179  1  0.53767321  0.26493386  0.84966215  1
  S2-  S180  1  0.64196052  0.58792077  0.35932876  1
  S2-  S181  1  0.61223300  0.49309126  0.85371660  1
  S2-  S182  1  0.61522728  0.81156479  0.33829575  1
  S2-  S183  1  0.65346194  0.71627388  0.85432440  1
  S2-  S184  1  0.89696542  -0.01621171  0.33583412  1
  S2-  S185  1  0.91712647  0.00056213  0.84192189  1
  S2-  S186  1  0.93485771  0.23094304  0.35166335  1
  S2-  S187  1  0.95739008  0.25604225  0.85485385  1
  S2-  S188  1  0.87236579  0.48629170  0.33336039  1
  S2-  S189  1  0.84665016  0.44493901  0.84199979  1
  S2-  S190  1  0.82951082  0.72162215  0.33606155  1
  S2-  S191  1  0.86576071  0.65630900  0.86755183  1
  S2-  S192  1  0.00074932  0.11179960  0.45566215  1
  S2-  S193  1  0.00267611  0.13697962  0.95167845  1
  S2-  S194  1  0.00711247  0.35684898  0.45520544  1
  S2-  S195  1  0.00039107  0.39179407  0.95757666  1
  S2-  S196  1  0.00203992  0.60981861  0.45163578  1
  S2-  S197  1  0.00863568  0.63626681  0.95649005  1
  S2-  S198  1  0.00390545  0.86397503  0.44728646  1
  S2-  S199  1  0.00190768  0.88343761  0.95142649  1
  S2-  S200  1  0.25419144  0.11007786  0.46396865  1
  S2-  S201  1  0.24951015  0.14189651  0.93383440  1
  S2-  S202  1  0.25559178  0.36572512  0.46848908  1
  S2-  S203  1  0.25167498  0.38506929  0.94981252  1
  S2-  S204  1  0.25856178  0.61560433  0.45815625  1
  S2-  S205  1  0.24652207  0.63686274  0.95960172  1
  S2-  S206  1  0.25322576  0.86269490  0.46626441  1
  S2-  S207  1  0.25121162  0.88529753  0.94520477  1
  S2-  S208  1  0.50260118  0.11306473  0.45939773  1
  S2-  S209  1  0.50573023  0.13302751  0.94600603  1
  S2-  S210  1  0.50263877  0.36183450  0.45795974  1
  S2-  S211  1  0.50514804  0.38907718  0.95612695  1
  S2-  S212  1  0.50371773  0.61066234  0.45803532  1
  S2-  S213  1  0.50762543  0.63721601  0.95921406  1
  S2-  S214  1  0.50716325  0.86048041  0.45573550  1
  S2-  S215  1  0.50412942  0.88750707  0.95100579  1
  S2-  S216  1  0.75636882  0.11385676  0.44854798  1
  S2-  S217  1  0.75190512  0.13642109  0.94688702  1
  S2-  S218  1  0.75517664  0.35879486  0.44935222  1
  S2-  S219  1  0.74940050  0.38712165  0.95847755  1
  S2-  S220  1  0.76085492  0.60980149  0.45390138  1
  S2-  S221  1  0.74995905  0.63462972  0.97219277  1
  S2-  S222  1  0.75561600  0.86170763  0.44578012  1
  S2-  S223  1  0.75562061  0.88779687  0.94511663  1
  S2-  S224  1  0.12897964  0.01108808  0.03683691  1
  S2-  S225  1  0.12333884  -0.01506073  0.54854098  1
  S2-  S226  1  0.12748580  0.26199526  0.03502726  1
  S2-  S227  1  0.11655749  0.23074291  0.56258078  1
  S2-  S228  1  0.12883553  0.51554232  0.04470756  1
  S2-  S229  1  0.12787832  0.48332202  0.54869732  1
  S2-  S230  1  0.12732425  0.76016696  0.05253465  1
  S2-  S231  1  0.12533147  0.73813821  0.54605630  1
  S2-  S232  1  0.37784230  0.01186167  0.03767513  1
  S2-  S233  1  0.38014931  -0.01852112  0.55153118  1
  S2-  S234  1  0.38112595  0.25737215  0.03125162  1
  S2-  S235  1  0.38201004  0.23786815  0.55230996  1
  S2-  S236  1  0.37781107  0.51377424  0.04347700  1
  S2-  S237  1  0.37662076  0.48516737  0.54943839  1
  S2-  S238  1  0.37746397  0.76323936  0.04878741  1
  S2-  S239  1  0.38045375  0.73497716  0.55120447  1
  S2-  S240  1  0.62752124  0.01155210  0.04353808  1
  S2-  S241  1  0.63594056  -0.01317691  0.53812241  1
  S2-  S242  1  0.62451550  0.25980356  0.04248019  1
  S2-  S243  1  0.63251820  0.23416509  0.55325003  1
  S2-  S244  1  0.62157640  0.50685645  0.05479157  1
  S2-  S245  1  0.62996387  0.48835894  0.54816593  1
  S2-  S246  1  0.63388156  0.76298827  0.05890944  1
  S2-  S247  1  0.62940475  0.73387193  0.54338077  1
  S2-  S248  1  0.87463606  0.00701740  0.04576509  1
  S2-  S249  1  0.87723354  -0.01597072  0.53838225  1
  S2-  S250  1  0.87565288  0.25907070  0.04896716  1
  S2-  S251  1  0.88095709  0.23565649  0.54983821  1
  S2-  S252  1  0.88276895  0.50897841  0.04731913  1
  S2-  S253  1  0.88160007  0.48475478  0.54253201  1
  S2-  S254  1  0.87750605  0.75982675  0.05375874  1
  S2-  S255  1  0.88129167  0.73731008  0.54145966  1
