# generated using pymatgen
data_La12Ce14Pr13Nd13Sm12(BiS2)64
_symmetry_space_group_name_H-M   'P 1'
_cell_length_a   16.17622470
_cell_length_b   16.15926373
_cell_length_c   27.23937571
_cell_angle_alpha   89.95066612
_cell_angle_beta   89.85488066
_cell_angle_gamma   89.94043624
_symmetry_Int_Tables_number   1
_chemical_formula_structural   La12Ce14Pr13Nd13Sm12(BiS2)64
_chemical_formula_sum   'La12 Ce14 Pr13 Nd13 Sm12 Bi64 S128'
_cell_volume   7120.23130372
_cell_formula_units_Z   1
loop_
 _symmetry_equiv_pos_site_id
 _symmetry_equiv_pos_as_xyz
  1  'x, y, z'
loop_
 _atom_type_symbol
 _atom_type_oxidation_number
  La3+  3.0
  Ce3+  3.0
  Pr3+  3.0
  Nd3+  3.0
  Sm3+  3.0
  Bi2+  2.0
  S2-  -2.0
loop_
 _atom_site_type_symbol
 _atom_site_label
 _atom_site_symmetry_multiplicity
 _atom_site_fract_x
 _atom_site_fract_y
 _atom_site_fract_z
 _atom_site_occupancy
  La3+  La0  1  0.63646288  0.22948596  0.91131289  1
  La3+  La1  1  0.63881434  0.48486986  0.92780850  1
  La3+  La2  1  0.12015418  0.76295781  0.42030406  1
  La3+  La3  1  0.50679995  0.60572055  0.05795357  1
  La3+  La4  1  0.49449427  0.12667948  0.59703253  1
  La3+  La5  1  0.74806597  0.60489986  0.08319743  1
  La3+  La6  1  0.48568986  0.63513630  0.59869251  1
  La3+  La7  1  0.11903110  0.50575238  0.42495381  1
  La3+  La8  1  0.63943199  0.73668040  0.93045502  1
  La3+  La9  1  0.01510800  0.61746143  0.10902644  1
  La3+  La10  1  0.37069216  0.22798996  0.90389505  1
  La3+  La11  1  0.25366405  0.85913792  0.06460295  1
  Ce3+  Ce12  1  0.75259531  0.11836890  0.06542010  1
  Ce3+  Ce13  1  0.38156966  0.73709281  0.94072304  1
  Ce3+  Ce14  1  0.38063277  0.48916632  0.92763544  1
  Ce3+  Ce15  1  0.73713834  0.38455001  0.56420197  1
  Ce3+  Ce16  1  0.86534993  0.50764318  0.43964407  1
  Ce3+  Ce17  1  0.00452053  0.86022000  0.06072390  1
  Ce3+  Ce18  1  0.61742355  0.00554526  0.43987586  1
  Ce3+  Ce19  1  0.24130511  0.12641711  0.56453075  1
  Ce3+  Ce20  1  -0.00054561  0.38244667  0.55779063  1
  Ce3+  Ce21  1  0.25354781  0.36192218  0.04790007  1
  Ce3+  Ce22  1  0.00615246  0.11878290  0.06734645  1
  Ce3+  Ce23  1  0.23984828  0.37981850  0.56568163  1
  Ce3+  Ce24  1  0.25023785  0.60809288  0.05686965  1
  Ce3+  Ce25  1  0.37869750  -0.01252016  0.94002245  1
  Pr3+  Pr26  1  0.11658219  0.25335417  0.43789151  1
  Pr3+  Pr27  1  -0.00234564  0.12578364  0.56913850  1
  Pr3+  Pr28  1  0.87816501  0.73553605  0.95266742  1
  Pr3+  Pr29  1  0.73959802  0.87311836  0.55965330  1
  Pr3+  Pr30  1  0.74404189  0.13069813  0.56729232  1
  Pr3+  Pr31  1  0.37080552  0.25570848  0.44755910  1
  Pr3+  Pr32  1  -0.00355378  0.87512924  0.56271929  1
  Pr3+  Pr33  1  0.12508674  0.48489708  0.93844781  1
  Pr3+  Pr34  1  0.61252254  0.75894460  0.42217271  1
  Pr3+  Pr35  1  0.73634100  0.62724242  0.54785506  1
  Pr3+  Pr36  1  0.50741239  0.86264229  0.05385454  1
  Pr3+  Pr37  1  0.23607739  0.63343317  0.57137290  1
  Pr3+  Pr38  1  0.60899755  0.49433177  0.40784504  1
  Nd3+  Nd39  1  0.88011651  0.48618016  0.94901781  1
  Nd3+  Nd40  1  0.86666183  0.00675350  0.44700140  1
  Nd3+  Nd41  1  0.37220095  0.50624743  0.44695663  1
  Nd3+  Nd42  1  0.75518152  0.85893756  0.06844489  1
  Nd3+  Nd43  1  0.86531696  0.76220809  0.42764991  1
  Nd3+  Nd44  1  0.12577487  0.23744291  0.93312381  1
  Nd3+  Nd45  1  0.12907456  -0.01445859  0.94369912  1
  Nd3+  Nd46  1  0.48262877  0.38252986  0.57783094  1
  Nd3+  Nd47  1  0.50370908  0.35642190  0.03776642  1
  Nd3+  Nd48  1  0.49308577  0.87568219  0.55920414  1
  Nd3+  Nd49  1  0.88182868  0.23743994  0.93971586  1
  Nd3+  Nd50  1  0.13055036  0.73303013  0.93510931  1
  Nd3+  Nd51  1  0.75167277  0.35911267  0.06687960  1
  Sm3+  Sm52  1  0.61676713  0.25680370  0.45253145  1
  Sm3+  Sm53  1  0.86709451  0.25648647  0.45045048  1
  Sm3+  Sm54  1  0.25461891  0.11374353  0.05370137  1
  Sm3+  Sm55  1  0.63183279  -0.00700912  0.94240629  1
  Sm3+  Sm56  1  0.88019560  -0.01139487  0.95309157  1
  Sm3+  Sm57  1  0.37135616  0.00752590  0.44525690  1
  Sm3+  Sm58  1  -0.00372210  0.63395882  0.55325395  1
  Sm3+  Sm59  1  0.00798280  0.36491734  0.07251492  1
  Sm3+  Sm60  1  0.24590405  0.87734471  0.55135828  1
  Sm3+  Sm61  1  0.50289493  0.11526696  0.05313906  1
  Sm3+  Sm62  1  0.37291290  0.74989838  0.44206521  1
  Sm3+  Sm63  1  0.11832447  0.00484722  0.43782560  1
  Bi2+  Bi64  1  -0.02065218  0.11466296  0.29307905  1
  Bi2+  Bi65  1  -0.00412083  0.17928790  0.79686303  1
  Bi2+  Bi66  1  0.01210381  0.31483411  0.28935983  1
  Bi2+  Bi67  1  0.00031449  0.36124121  0.85012529  1
  Bi2+  Bi68  1  0.00210994  0.60562680  0.30420532  1
  Bi2+  Bi69  1  -0.00622389  0.58482687  0.80348122  1
  Bi2+  Bi70  1  -0.00488031  0.90479994  0.28603609  1
  Bi2+  Bi71  1  -0.04881219  0.92241254  0.77581186  1
  Bi2+  Bi72  1  0.18503065  0.09636596  0.27927922  1
  Bi2+  Bi73  1  0.23715773  0.09568098  0.78982554  1
  Bi2+  Bi74  1  0.28508197  0.34651793  0.28114530  1
  Bi2+  Bi75  1  0.16979073  0.38147628  0.78910402  1
  Bi2+  Bi76  1  0.29750681  0.64425236  0.28567244  1
  Bi2+  Bi77  1  0.21164777  0.67113066  0.78423413  1
  Bi2+  Bi78  1  0.25399647  0.91474038  0.28188611  1
  Bi2+  Bi79  1  0.23235200  0.87871326  0.80501379  1
  Bi2+  Bi80  1  0.47821870  0.11475026  0.30714433  1
  Bi2+  Bi81  1  0.50814622  0.12410930  0.79210038  1
  Bi2+  Bi82  1  0.49728661  0.36027642  0.29771427  1
  Bi2+  Bi83  1  0.49889732  0.39508522  0.77343663  1
  Bi2+  Bi84  1  0.51261501  0.62892576  0.29646398  1
  Bi2+  Bi85  1  0.46547062  0.63396391  0.79490373  1
  Bi2+  Bi86  1  0.49224520  0.92166915  0.28143078  1
  Bi2+  Bi87  1  0.49443849  0.91622709  0.76726499  1
  Bi2+  Bi88  1  0.67730457  0.13149590  0.30668788  1
  Bi2+  Bi89  1  0.80824694  0.11888539  0.78821555  1
  Bi2+  Bi90  1  0.76796084  0.31137696  0.29127860  1
  Bi2+  Bi91  1  0.84027902  0.39513655  0.78687633  1
  Bi2+  Bi92  1  0.77158822  0.62250646  0.28392532  1
  Bi2+  Bi93  1  0.71058992  0.61983068  0.80674651  1
  Bi2+  Bi94  1  0.73910762  0.94755444  0.29024236  1
  Bi2+  Bi95  1  0.76824424  0.86206239  0.79237705  1
  Bi2+  Bi96  1  0.05862656  0.02137377  0.19868047  1
  Bi2+  Bi97  1  0.06499839  -0.02722291  0.68926750  1
  Bi2+  Bi98  1  0.15826726  0.25080928  0.20456669  1
  Bi2+  Bi99  1  0.11605157  0.24942109  0.71067544  1
  Bi2+  Bi100  1  0.15897451  0.48708270  0.21460183  1
  Bi2+  Bi101  1  0.08007918  0.50306324  0.71018048  1
  Bi2+  Bi102  1  0.15348688  0.75269119  0.21805350  1
  Bi2+  Bi103  1  0.10003312  0.76930107  0.69705153  1
  Bi2+  Bi104  1  0.35794538  0.07179098  0.21825763  1
  Bi2+  Bi105  1  0.33206970  -0.02310096  0.71721105  1
  Bi2+  Bi106  1  0.41635045  0.29272792  0.19996601  1
  Bi2+  Bi107  1  0.33759464  0.25194953  0.70720664  1
  Bi2+  Bi108  1  0.36743395  0.49844907  0.22272802  1
  Bi2+  Bi109  1  0.28974740  0.50977960  0.72474928  1
  Bi2+  Bi110  1  0.37629603  0.78450664  0.21938706  1
  Bi2+  Bi111  1  0.37167811  0.78354409  0.71203720  1
  Bi2+  Bi112  1  0.60616914  0.03636686  0.21086432  1
  Bi2+  Bi113  1  0.66197416  -0.01469650  0.72898837  1
  Bi2+  Bi114  1  0.62391486  0.26579942  0.21787704  1
  Bi2+  Bi115  1  0.65475788  0.25192894  0.71064586  1
  Bi2+  Bi116  1  0.61418463  0.48289504  0.19983717  1
  Bi2+  Bi117  1  0.67797396  0.50046085  0.69015027  1
  Bi2+  Bi118  1  0.62361792  0.77324242  0.19825295  1
  Bi2+  Bi119  1  0.64878039  0.74431666  0.70139310  1
  Bi2+  Bi120  1  0.86451338  0.02378594  0.20590901  1
  Bi2+  Bi121  1  0.90292886  0.07774611  0.68748488  1
  Bi2+  Bi122  1  0.87576218  0.22204001  0.20023853  1
  Bi2+  Bi123  1  0.92157720  0.27717906  0.70445211  1
  Bi2+  Bi124  1  0.88733128  0.41490728  0.22133475  1
  Bi2+  Bi125  1  0.88113694  0.54255930  0.71141874  1
  Bi2+  Bi126  1  0.89193664  0.78729737  0.21432709  1
  Bi2+  Bi127  1  0.90936448  0.73347029  0.74670905  1
  S2-  S128  1  0.02204965  0.23470456  0.14035918  1
  S2-  S129  1  0.12196088  0.11931351  0.64112491  1
  S2-  S130  1  0.01889488  0.45921357  0.15795214  1
  S2-  S131  1  0.11011695  0.38486202  0.63326977  1
  S2-  S132  1  -0.04561828  0.63669941  0.20906389  1
  S2-  S133  1  0.09617679  0.63148653  0.63461048  1
  S2-  S134  1  0.02766393  0.79356661  0.14982283  1
  S2-  S135  1  -0.04668341  0.79803593  0.64899633  1
  S2-  S136  1  0.24158398  0.12183277  0.15152366  1
  S2-  S137  1  0.33586411  0.11138535  0.64672118  1
  S2-  S138  1  0.22793188  0.37957329  0.14447741  1
  S2-  S139  1  0.34222854  0.38571529  0.64796806  1
  S2-  S140  1  0.18135133  0.62322405  0.14841263  1
  S2-  S141  1  0.33455694  0.62197183  0.65819340  1
  S2-  S142  1  0.24151503  0.86338237  0.16545890  1
  S2-  S143  1  0.24062338  0.83513303  0.64612982  1
  S2-  S144  1  0.49389943  0.11289764  0.15148664  1
  S2-  S145  1  0.49094585  0.19596905  0.69255138  1
  S2-  S146  1  0.51068507  0.38655714  0.13662127  1
  S2-  S147  1  0.56292447  0.38539872  0.66938268  1
  S2-  S148  1  0.58146631  0.62117287  0.14831627  1
  S2-  S149  1  0.54671118  0.59558321  0.69506847  1
  S2-  S150  1  0.48601195  0.84838877  0.15340831  1
  S2-  S151  1  0.50394717  0.79290602  0.64692581  1
  S2-  S152  1  0.72687574  0.23354886  0.13868604  1
  S2-  S153  1  0.65545653  0.11327817  0.65281052  1
  S2-  S154  1  0.75274887  0.46610156  0.15038420  1
  S2-  S155  1  0.77018167  0.34283799  0.65762670  1
  S2-  S156  1  0.76778328  0.69705686  0.17356907  1
  S2-  S157  1  0.75194051  0.64719123  0.64856417  1
  S2-  S158  1  0.69930685  0.89792287  0.16014826  1
  S2-  S159  1  0.72674713  0.87380227  0.65997468  1
  S2-  S160  1  0.11893845  -0.09169520  0.35629432  1
  S2-  S161  1  0.12941157  0.00249667  0.84429268  1
  S2-  S162  1  0.15062964  0.27340249  0.34021918  1
  S2-  S163  1  0.21576525  0.23344705  0.84733559  1
  S2-  S164  1  0.11017923  0.48800875  0.32376961  1
  S2-  S165  1  0.15008598  0.55477045  0.84622451  1
  S2-  S166  1  0.13949934  0.70066585  0.32499832  1
  S2-  S167  1  0.11006396  0.78200870  0.83958556  1
  S2-  S168  1  0.36465989  -0.01542340  0.34758434  1
  S2-  S169  1  0.37941396  0.06697830  0.85241451  1
  S2-  S170  1  0.38414332  0.24487803  0.34714951  1
  S2-  S171  1  0.40386893  0.27595460  0.80537890  1
  S2-  S172  1  0.45314553  0.49363303  0.35851336  1
  S2-  S173  1  0.37273464  0.49624673  0.82810931  1
  S2-  S174  1  0.40709312  0.74262915  0.34578443  1
  S2-  S175  1  0.34984674  0.73579643  0.84459519  1
  S2-  S176  1  0.60811665  -0.09286042  0.35784286  1
  S2-  S177  1  0.62226148  0.07774263  0.85598767  1
  S2-  S178  1  0.62164496  0.33258163  0.36453621  1
  S2-  S179  1  0.60427485  0.29161931  0.81080136  1
  S2-  S180  1  0.65010606  0.52008550  0.30569784  1
  S2-  S181  1  0.58006457  0.51685013  0.83213368  1
  S2-  S182  1  0.64431232  0.71526361  0.32140719  1
  S2-  S183  1  0.58120579  0.73004746  0.83220706  1
  S2-  S184  1  0.86384292  -0.06272466  0.35634704  1
  S2-  S185  1  0.84970093  -0.01719987  0.85610049  1
  S2-  S186  1  0.88799629  0.23409175  0.35414356  1
  S2-  S187  1  0.78995126  0.23658597  0.85481437  1
  S2-  S188  1  0.86660263  0.50949856  0.34168880  1
  S2-  S189  1  0.78511363  0.49481994  0.86321171  1
  S2-  S190  1  0.88039271  0.73003136  0.33007087  1
  S2-  S191  1  0.78701669  0.73322094  0.86693213  1
  S2-  S192  1  -0.00655823  0.12688244  0.45782670  1
  S2-  S193  1  0.00529631  0.11077587  0.95612320  1
  S2-  S194  1  -0.00853607  0.37973517  0.44912206  1
  S2-  S195  1  0.00475480  0.35995987  0.96643962  1
  S2-  S196  1  -0.00707740  0.63409122  0.44617640  1
  S2-  S197  1  0.00253363  0.61352041  0.94779484  1
  S2-  S198  1  -0.00871049  0.88205957  0.45549910  1
  S2-  S199  1  0.00300754  0.86215682  0.95339786  1
  S2-  S200  1  0.24306166  0.12651173  0.45136780  1
  S2-  S201  1  0.25103985  0.11025940  0.95117709  1
  S2-  S202  1  0.24414957  0.38078727  0.45288156  1
  S2-  S203  1  0.25597943  0.36342100  0.94268825  1
  S2-  S204  1  0.24614604  0.63094090  0.44492047  1
  S2-  S205  1  0.25652481  0.61227275  0.95176993  1
  S2-  S206  1  0.25239647  0.88051330  0.44866866  1
  S2-  S207  1  0.25398282  0.86097579  0.95485327  1
  S2-  S208  1  0.49647123  0.13019638  0.45448633  1
  S2-  S209  1  0.50029886  0.11343245  0.95129532  1
  S2-  S210  1  0.49495274  0.38017263  0.46758194  1
  S2-  S211  1  0.50231070  0.35629244  0.93264575  1
  S2-  S212  1  0.49834850  0.62873837  0.44938357  1
  S2-  S213  1  0.50655039  0.61321897  0.94928369  1
  S2-  S214  1  0.48797166  0.87976030  0.45510341  1
  S2-  S215  1  0.50894879  0.86611418  0.94588963  1
  S2-  S216  1  0.74300648  0.13309483  0.45888607  1
  S2-  S217  1  0.75886330  0.10997954  0.95967944  1
  S2-  S218  1  0.74380757  0.38178083  0.45869866  1
  S2-  S219  1  0.75729329  0.35760828  0.95902299  1
  S2-  S220  1  0.73698139  0.62905302  0.44112515  1
  S2-  S221  1  0.75581851  0.60959139  0.96939109  1
  S2-  S222  1  0.74087765  0.87917623  0.45463630  1
  S2-  S223  1  0.75439588  0.87023695  0.96154768  1
  S2-  S224  1  0.12919982  -0.01151280  0.05073876  1
  S2-  S225  1  0.12079730  -0.00274353  0.54063778  1
  S2-  S226  1  0.13342528  0.23652012  0.03869691  1
  S2-  S227  1  0.11735844  0.25131546  0.54195418  1
  S2-  S228  1  0.12566914  0.48860293  0.04485504  1
  S2-  S229  1  0.11808364  0.50946724  0.53298036  1
  S2-  S230  1  0.12782775  0.73400829  0.04261981  1
  S2-  S231  1  0.12095509  0.75670570  0.53236227  1
  S2-  S232  1  0.37863640  -0.01141903  0.04790442  1
  S2-  S233  1  0.37157705  0.00077216  0.54875371  1
  S2-  S234  1  0.37717098  0.23456815  0.04210526  1
  S2-  S235  1  0.37111752  0.24898450  0.55230037  1
  S2-  S236  1  0.37874200  0.48519735  0.03747150  1
  S2-  S237  1  0.36596139  0.51251773  0.55028404  1
  S2-  S238  1  0.37989760  0.73414261  0.04907998  1
  S2-  S239  1  0.36768123  0.75108665  0.54563658  1
  S2-  S240  1  0.62939142  -0.00812547  0.04724084  1
  S2-  S241  1  0.61497465  0.00327931  0.54856842  1
  S2-  S242  1  0.62512950  0.23347829  0.03270145  1
  S2-  S243  1  0.61372897  0.25477848  0.55614632  1
  S2-  S244  1  0.62806253  0.47990039  0.03786188  1
  S2-  S245  1  0.60904314  0.50911109  0.56153467  1
  S2-  S246  1  0.63194902  0.73940481  0.04318572  1
  S2-  S247  1  0.61400535  0.75161199  0.53935851  1
  S2-  S248  1  0.87986703  -0.01131529  0.05813051  1
  S2-  S249  1  0.86744770  0.00036142  0.55293442  1
  S2-  S250  1  0.88109595  0.23771520  0.04593587  1
  S2-  S251  1  0.87215547  0.25393615  0.55355248  1
  S2-  S252  1  0.88538433  0.48726383  0.05448983  1
  S2-  S253  1  0.87233531  0.50786280  0.54799907  1
  S2-  S254  1  0.88086610  0.73342610  0.05821735  1
  S2-  S255  1  0.86646598  0.75067617  0.53611710  1
