# generated using pymatgen
data_La12Ce14Pr13Nd13Sm12(BiS2)64
_symmetry_space_group_name_H-M   'P 1'
_cell_length_a   15.99631441
_cell_length_b   16.11929258
_cell_length_c   27.39706629
_cell_angle_alpha   90.29251087
_cell_angle_beta   89.72516883
_cell_angle_gamma   90.24829550
_symmetry_Int_Tables_number   1
_chemical_formula_structural   La12Ce14Pr13Nd13Sm12(BiS2)64
_chemical_formula_sum   'La12 Ce14 Pr13 Nd13 Sm12 Bi64 S128'
_cell_volume   7064.07468799
_cell_formula_units_Z   1
loop_
 _symmetry_equiv_pos_site_id
 _symmetry_equiv_pos_as_xyz
  1  'x, y, z'
loop_
 _atom_type_symbol
 _atom_type_oxidation_number
  La3+  3.0
  Ce3+  3.0
  Pr3+  3.0
  Nd3+  3.0
  Sm3+  3.0
  Bi2+  2.0
  S2-  -2.0
loop_
 _atom_site_type_symbol
 _atom_site_label
 _atom_site_symmetry_multiplicity
 _atom_site_fract_x
 _atom_site_fract_y
 _atom_site_fract_z
 _atom_site_occupancy
  La3+  La0  1  0.61713406  0.75207846  0.42656407  1
  La3+  La1  1  0.51665498  0.12015195  0.08248467  1
  La3+  La2  1  0.88139139  0.24268223  0.91554481  1
  La3+  La3  1  0.73933409  0.87999464  0.56080732  1
  La3+  La4  1  0.25775714  0.12179638  0.07336518  1
  La3+  La5  1  0.73057276  0.37972805  0.56972832  1
  La3+  La6  1  0.62927914  -0.00110429  0.37706345  1
  La3+  La7  1  0.86672052  0.50652634  0.43629951  1
  La3+  La8  1  0.63122991  0.24308063  0.92936939  1
  La3+  La9  1  0.12076662  0.75755308  0.44640940  1
  La3+  La10  1  0.50072596  0.86268060  0.07959004  1
  La3+  La11  1  0.25147234  0.88304073  0.60681036  1
  Ce3+  Ce12  1  0.00480373  0.61761340  0.05994640  1
  Ce3+  Ce13  1  0.13704229  0.74776279  0.94981313  1
  Ce3+  Ce14  1  0.38862588  0.49622498  0.95047850  1
  Ce3+  Ce15  1  0.11925137  0.00598764  0.44537086  1
  Ce3+  Ce16  1  -0.00876095  0.63537365  0.56446804  1
  Ce3+  Ce17  1  0.75327593  0.87111673  0.06649097  1
  Ce3+  Ce18  1  0.14284295  -0.00535387  0.93681474  1
  Ce3+  Ce19  1  0.25954980  0.36481365  0.06983346  1
  Ce3+  Ce20  1  0.61625525  0.24949359  0.43082549  1
  Ce3+  Ce21  1  0.39132327  0.24116403  0.94646029  1
  Ce3+  Ce22  1  0.25889601  0.87669990  0.07057621  1
  Ce3+  Ce23  1  0.61780518  0.50336197  0.42948282  1
  Ce3+  Ce24  1  0.63003435  -0.01110965  0.94180941  1
  Ce3+  Ce25  1  0.75825029  0.11859199  0.04980001  1
  Pr3+  Pr26  1  0.36442594  0.01142030  0.41572489  1
  Pr3+  Pr27  1  0.11380681  0.25457525  0.43753858  1
  Pr3+  Pr28  1  0.89476583  -0.01681891  0.90137960  1
  Pr3+  Pr29  1  0.52096147  0.36831761  0.07228153  1
  Pr3+  Pr30  1  0.35945486  0.25581470  0.43015353  1
  Pr3+  Pr31  1  0.48504656  0.12761138  0.55410031  1
  Pr3+  Pr32  1  0.39386456  0.73601297  0.93405418  1
  Pr3+  Pr33  1  0.13625335  0.49327967  0.94513191  1
  Pr3+  Pr34  1  0.36757328  0.75754990  0.43552250  1
  Pr3+  Pr35  1  -0.01122430  0.87677870  0.57998645  1
  Pr3+  Pr36  1  0.25921010  0.61829602  0.06902628  1
  Pr3+  Pr37  1  0.13845387  0.24125509  0.93923222  1
  Pr3+  Pr38  1  0.23591894  0.13244926  0.56509069  1
  Nd3+  Nd39  1  0.86741881  0.75475021  0.43272022  1
  Nd3+  Nd40  1  0.38726548  -0.01313866  0.93554572  1
  Nd3+  Nd41  1  0.49309048  0.63266238  0.56113547  1
  Nd3+  Nd42  1  0.86958085  0.25837907  0.42982718  1
  Nd3+  Nd43  1  0.00663783  0.87264241  0.06108154  1
  Nd3+  Nd44  1  -0.01404918  0.38131053  0.56451016  1
  Nd3+  Nd45  1  0.36468634  0.50486876  0.44189655  1
  Nd3+  Nd46  1  0.00406738  0.12044600  0.05123285  1
  Nd3+  Nd47  1  -0.01908449  0.13140042  0.57028684  1
  Nd3+  Nd48  1  0.88730123  0.49215239  0.92581251  1
  Nd3+  Nd49  1  0.24018395  0.37945722  0.57132110  1
  Nd3+  Nd50  1  0.51867296  0.61524187  0.07478178  1
  Nd3+  Nd51  1  0.76784092  0.62314253  0.07277967  1
  Sm3+  Sm52  1  0.63878980  0.49605845  0.94341792  1
  Sm3+  Sm53  1  0.88420911  0.74489147  0.93877729  1
  Sm3+  Sm54  1  0.11944703  0.50661744  0.45276669  1
  Sm3+  Sm55  1  0.24828259  0.63583519  0.57370264  1
  Sm3+  Sm56  1  0.00228742  0.36813551  0.05853198  1
  Sm3+  Sm57  1  0.63721509  0.74537691  0.94868450  1
  Sm3+  Sm58  1  0.48515622  0.88505479  0.54570445  1
  Sm3+  Sm59  1  0.49137446  0.37866230  0.54985522  1
  Sm3+  Sm60  1  0.86786639  0.00344836  0.43774458  1
  Sm3+  Sm61  1  0.76418458  0.36858210  0.05885139  1
  Sm3+  Sm62  1  0.74021221  0.13024138  0.54984210  1
  Sm3+  Sm63  1  0.73570808  0.63320149  0.55982484  1
  Bi2+  Bi64  1  0.05197433  0.06336722  0.32123242  1
  Bi2+  Bi65  1  0.03006449  0.11649293  0.78813674  1
  Bi2+  Bi66  1  -0.03174852  0.33299420  0.28414233  1
  Bi2+  Bi67  1  0.01029560  0.45757689  0.77574743  1
  Bi2+  Bi68  1  -0.01428107  0.59685468  0.28662595  1
  Bi2+  Bi69  1  -0.00621446  0.73007888  0.78992966  1
  Bi2+  Bi70  1  -0.01475416  0.86213181  0.30369539  1
  Bi2+  Bi71  1  0.00103205  0.90708776  0.74228411  1
  Bi2+  Bi72  1  0.22643565  0.15383991  0.29809437  1
  Bi2+  Bi73  1  0.27495153  0.16734660  0.79981162  1
  Bi2+  Bi74  1  0.21042847  0.41847822  0.29072126  1
  Bi2+  Bi75  1  0.29818306  0.36616514  0.79403314  1
  Bi2+  Bi76  1  0.23360828  0.64040125  0.31988546  1
  Bi2+  Bi77  1  0.25751250  0.56792411  0.79543729  1
  Bi2+  Bi78  1  0.16508906  0.80824442  0.24788575  1
  Bi2+  Bi79  1  0.20391363  0.88405242  0.81805237  1
  Bi2+  Bi80  1  0.49386353  0.11551214  0.27685951  1
  Bi2+  Bi81  1  0.49184215  0.11589063  0.78927692  1
  Bi2+  Bi82  1  0.50172844  0.37388296  0.28962190  1
  Bi2+  Bi83  1  0.50118110  0.37407497  0.79402015  1
  Bi2+  Bi84  1  0.48882753  0.57343221  0.28920529  1
  Bi2+  Bi85  1  0.45587475  0.58568878  0.76825653  1
  Bi2+  Bi86  1  0.54353562  0.88407610  0.25403226  1
  Bi2+  Bi87  1  0.49934324  0.85664993  0.80369043  1
  Bi2+  Bi88  1  0.79090782  0.23528499  0.27334531  1
  Bi2+  Bi89  1  0.68886824  0.14520487  0.77354911  1
  Bi2+  Bi90  1  0.69279425  0.39507392  0.31727339  1
  Bi2+  Bi91  1  0.76596288  0.41332940  0.80385334  1
  Bi2+  Bi92  1  0.75090012  0.57052930  0.28485373  1
  Bi2+  Bi93  1  0.69371438  0.74594895  0.80258374  1
  Bi2+  Bi94  1  0.79710172  0.83158937  0.30185986  1
  Bi2+  Bi95  1  0.73997874  0.93913563  0.80672539  1
  Bi2+  Bi96  1  0.08727918  -0.02252234  0.21226957  1
  Bi2+  Bi97  1  0.15691296  0.05602827  0.71328070  1
  Bi2+  Bi98  1  0.09871126  0.24488300  0.21383031  1
  Bi2+  Bi99  1  0.14677909  0.32226238  0.71841588  1
  Bi2+  Bi100  1  0.11151174  0.43653200  0.18820684  1
  Bi2+  Bi101  1  0.23090383  0.49085659  0.68896491  1
  Bi2+  Bi102  1  0.11074835  0.63907526  0.19867534  1
  Bi2+  Bi103  1  0.08633567  0.63241146  0.70498329  1
  Bi2+  Bi104  1  0.33534445  -0.02314432  0.22044158  1
  Bi2+  Bi105  1  0.41210713  -0.01225361  0.71265747  1
  Bi2+  Bi106  1  0.36260981  0.28028560  0.22204558  1
  Bi2+  Bi107  1  0.38948982  0.23100966  0.70612079  1
  Bi2+  Bi108  1  0.31252491  0.45755211  0.18991306  1
  Bi2+  Bi109  1  0.42773835  0.42574757  0.69225705  1
  Bi2+  Bi110  1  0.38260030  0.73487885  0.22657830  1
  Bi2+  Bi111  1  0.36440349  0.73398631  0.70818580  1
  Bi2+  Bi112  1  0.74886044  -0.01397952  0.19130532  1
  Bi2+  Bi113  1  0.63041011  -0.02132000  0.71384239  1
  Bi2+  Bi114  1  0.63550123  0.25823942  0.20423619  1
  Bi2+  Bi115  1  0.64568684  0.26732507  0.69249174  1
  Bi2+  Bi116  1  0.52965128  0.48360062  0.19433376  1
  Bi2+  Bi117  1  0.64610777  0.59144068  0.73301636  1
  Bi2+  Bi118  1  0.64892109  0.72989941  0.20467485  1
  Bi2+  Bi119  1  0.61200269  0.77935182  0.69709449  1
  Bi2+  Bi120  1  0.88963080  0.06047739  0.25359211  1
  Bi2+  Bi121  1  0.84275445  0.01582400  0.71890059  1
  Bi2+  Bi122  1  0.89044481  0.20811556  0.17349357  1
  Bi2+  Bi123  1  0.89889894  0.25724024  0.69601666  1
  Bi2+  Bi124  1  0.88164145  0.48321795  0.21503219  1
  Bi2+  Bi125  1  0.87128528  0.58561518  0.74064767  1
  Bi2+  Bi126  1  0.90736285  0.74635863  0.21670200  1
  Bi2+  Bi127  1  0.80625212  0.74736434  0.68837013  1
  S2-  S128  1  0.04163061  0.12483855  0.14950966  1
  S2-  S129  1  0.03422373  0.15231297  0.66651615  1
  S2-  S130  1  -0.11392447  0.36666926  0.13358801  1
  S2-  S131  1  0.00726716  0.38222275  0.66370066  1
  S2-  S132  1  -0.09655694  0.60037075  0.13894587  1
  S2-  S133  1  -0.02588517  0.72564991  0.64585986  1
  S2-  S134  1  0.00584704  0.86002336  0.16073270  1
  S2-  S135  1  0.09417936  0.91629041  0.65979268  1
  S2-  S136  1  0.23014691  0.00447498  0.14786001  1
  S2-  S137  1  0.28530231  0.04378822  0.64794044  1
  S2-  S138  1  0.25084672  0.24875560  0.14644318  1
  S2-  S139  1  0.24382105  0.25886072  0.64358621  1
  S2-  S140  1  0.28549937  0.63048224  0.16917610  1
  S2-  S141  1  0.21557797  0.72983048  0.65693940  1
  S2-  S142  1  0.35685488  0.85226196  0.15199677  1
  S2-  S143  1  0.27823818  0.88717903  0.73309416  1
  S2-  S144  1  0.45379336  0.05427013  0.17716265  1
  S2-  S145  1  0.51987955  0.16329135  0.65285523  1
  S2-  S146  1  0.48987858  0.25611732  0.15072323  1
  S2-  S147  1  0.57968260  0.38740311  0.63518772  1
  S2-  S148  1  0.49618712  0.71856389  0.15570179  1
  S2-  S149  1  0.38598755  0.62444862  0.64046504  1
  S2-  S150  1  0.62029632  0.89399909  0.15295499  1
  S2-  S151  1  0.42711552  0.86827509  0.64009200  1
  S2-  S152  1  0.68072634  0.12252244  0.13957686  1
  S2-  S153  1  0.82482588  0.13923592  0.63670027  1
  S2-  S154  1  0.66033183  0.37831826  0.14204904  1
  S2-  S155  1  0.78895117  0.36505435  0.66622281  1
  S2-  S156  1  0.65471924  0.59625354  0.15018991  1
  S2-  S157  1  0.62060571  0.62609509  0.63533616  1
  S2-  S158  1  0.78521718  0.77649722  0.14734058  1
  S2-  S159  1  0.84300901  0.89821208  0.64291764  1
  S2-  S160  1  0.20897099  0.00850102  0.35627343  1
  S2-  S161  1  0.05526268  -0.02513816  0.84917775  1
  S2-  S162  1  0.22680117  0.29385033  0.35961430  1
  S2-  S163  1  0.12240343  0.23562798  0.83893558  1
  S2-  S164  1  0.10587565  0.52063345  0.35478427  1
  S2-  S165  1  0.11499979  0.49574467  0.84487862  1
  S2-  S166  1  0.11327607  0.76584546  0.34503324  1
  S2-  S167  1  0.14038833  0.73487698  0.85218798  1
  S2-  S168  1  0.46333764  -0.02830421  0.32979547  1
  S2-  S169  1  0.26616952  0.03013307  0.86261560  1
  S2-  S170  1  0.37536483  0.15272825  0.34636245  1
  S2-  S171  1  0.49004333  0.24242969  0.86308602  1
  S2-  S172  1  0.34251651  0.51405410  0.34295545  1
  S2-  S173  1  0.38203620  0.58810228  0.86693106  1
  S2-  S174  1  0.36001298  0.74758176  0.33373125  1
  S2-  S175  1  0.36139277  0.84501158  0.85716850  1
  S2-  S176  1  0.63947675  0.01687325  0.26641996  1
  S2-  S177  1  0.52031560  -0.00295367  0.86439637  1
  S2-  S178  1  0.60903642  0.16784295  0.34513593  1
  S2-  S179  1  0.73263090  0.26544445  0.84628737  1
  S2-  S180  1  0.61888245  0.61434260  0.35314600  1
  S2-  S181  1  0.61961404  0.46773248  0.84578984  1
  S2-  S182  1  0.63006200  0.83123450  0.33588886  1
  S2-  S183  1  0.54974148  0.73273750  0.86397378  1
  S2-  S184  1  0.80218636  -0.00809019  0.34691138  1
  S2-  S185  1  0.89393445  0.12246116  0.83926355  1
  S2-  S186  1  0.99846590  0.22524186  0.36027701  1
  S2-  S187  1  0.91535248  0.37384596  0.84677472  1
  S2-  S188  1  0.86038506  0.39043958  0.35927594  1
  S2-  S189  1  0.83239351  0.56613730  0.83957417  1
  S2-  S190  1  0.86528375  0.63041702  0.35838600  1
  S2-  S191  1  0.88707691  0.82337156  0.85120120  1
  S2-  S192  1  -0.01229317  0.12725217  0.46257284  1
  S2-  S193  1  0.01031537  0.11504391  0.94766952  1
  S2-  S194  1  -0.00569100  0.38523306  0.45924554  1
  S2-  S195  1  0.01238075  0.36724831  0.95482361  1
  S2-  S196  1  -0.00570818  0.63019042  0.45954918  1
  S2-  S197  1  0.00911077  0.62144728  0.95186176  1
  S2-  S198  1  -0.01068900  0.88039525  0.45169933  1
  S2-  S199  1  0.00730053  0.87061555  0.95624824  1
  S2-  S200  1  0.23904464  0.13258830  0.45838863  1
  S2-  S201  1  0.26459653  0.12338555  0.96515796  1
  S2-  S202  1  0.23934789  0.38412149  0.46534742  1
  S2-  S203  1  0.26341983  0.36888990  0.95716294  1
  S2-  S204  1  0.24431122  0.62924055  0.46247854  1
  S2-  S205  1  0.25755888  0.61890529  0.96324114  1
  S2-  S206  1  0.24583311  0.88136984  0.44661866  1
  S2-  S207  1  0.26102671  0.86783388  0.96509282  1
  S2-  S208  1  0.48970779  0.13001281  0.44957854  1
  S2-  S209  1  0.51019107  0.11638918  0.96644664  1
  S2-  S210  1  0.49039360  0.37898935  0.44489612  1
  S2-  S211  1  0.51304609  0.37485428  0.96173032  1
  S2-  S212  1  0.48854481  0.62809637  0.45371740  1
  S2-  S213  1  0.51788245  0.61533848  0.96738970  1
  S2-  S214  1  0.49494960  0.88418402  0.44347534  1
  S2-  S215  1  0.51069845  0.86433535  0.96696799  1
  S2-  S216  1  0.74707800  0.13043384  0.44677991  1
  S2-  S217  1  0.76052719  0.10831432  0.94441154  1
  S2-  S218  1  0.73678221  0.37925789  0.45832274  1
  S2-  S219  1  0.76067067  0.37392139  0.95295838  1
  S2-  S220  1  0.74006485  0.63039422  0.45805930  1
  S2-  S221  1  0.76006941  0.62311080  0.95581835  1
  S2-  S222  1  0.74369546  0.87959233  0.45132646  1
  S2-  S223  1  0.76203882  0.87009976  0.95600359  1
  S2-  S224  1  0.12878276  -0.00360890  0.04272711  1
  S2-  S225  1  0.10882452  0.00669437  0.55006046  1
  S2-  S226  1  0.12729588  0.24830543  0.04511850  1
  S2-  S227  1  0.10809993  0.25851318  0.54668912  1
  S2-  S228  1  0.13089601  0.49099437  0.05206163  1
  S2-  S229  1  0.11734607  0.50924637  0.55737325  1
  S2-  S230  1  0.13277134  0.74536207  0.05716625  1
  S2-  S231  1  0.11936302  0.75998703  0.55111848  1
  S2-  S232  1  0.38652596  -0.00308269  0.05021525  1
  S2-  S233  1  0.36187202  0.00312072  0.53781317  1
  S2-  S234  1  0.38707143  0.24790066  0.04833784  1
  S2-  S235  1  0.36668160  0.25918290  0.54086808  1
  S2-  S236  1  0.38750608  0.49186401  0.05582863  1
  S2-  S237  1  0.36693014  0.50006888  0.54632105  1
  S2-  S238  1  0.38322070  0.73646140  0.04545287  1
  S2-  S239  1  0.36374120  0.75846577  0.54126968  1
  S2-  S240  1  0.63199219  -0.00735078  0.04456785  1
  S2-  S241  1  0.61594185  0.00643265  0.55474742  1
  S2-  S242  1  0.63946975  0.24583062  0.03782002  1
  S2-  S243  1  0.61455867  0.25039655  0.53711580  1
  S2-  S244  1  0.64429455  0.49620337  0.04417558  1
  S2-  S245  1  0.61351252  0.50674173  0.53443372  1
  S2-  S246  1  0.63684223  0.74194853  0.04977577  1
  S2-  S247  1  0.61207815  0.76031537  0.53792314  1
  S2-  S248  1  0.88148098  -0.00517650  0.06117122  1
  S2-  S249  1  0.86463000  0.00528661  0.54048354  1
  S2-  S250  1  0.88290664  0.24333813  0.03013308  1
  S2-  S251  1  0.86287211  0.26032824  0.53880657  1
  S2-  S252  1  0.88548066  0.49367211  0.03359874  1
  S2-  S253  1  0.86025817  0.50982990  0.55306556  1
  S2-  S254  1  0.88656166  0.74726298  0.04134317  1
  S2-  S255  1  0.86260184  0.75244239  0.53862261  1
