# generated using pymatgen
data_La12Ce14Pr13Nd13Sm12(BiS2)64
_symmetry_space_group_name_H-M   'P 1'
_cell_length_a   16.06529913
_cell_length_b   16.13370589
_cell_length_c   27.23500674
_cell_angle_alpha   89.93852916
_cell_angle_beta   90.31837109
_cell_angle_gamma   90.01033507
_symmetry_Int_Tables_number   1
_chemical_formula_structural   La12Ce14Pr13Nd13Sm12(BiS2)64
_chemical_formula_sum   'La12 Ce14 Pr13 Nd13 Sm12 Bi64 S128'
_cell_volume   7059.00481197
_cell_formula_units_Z   1
loop_
 _symmetry_equiv_pos_site_id
 _symmetry_equiv_pos_as_xyz
  1  'x, y, z'
loop_
 _atom_type_symbol
 _atom_type_oxidation_number
  La3+  3.0
  Ce3+  3.0
  Pr3+  3.0
  Nd3+  3.0
  Sm3+  3.0
  Bi2+  2.0
  S2-  -2.0
loop_
 _atom_site_type_symbol
 _atom_site_label
 _atom_site_symmetry_multiplicity
 _atom_site_fract_x
 _atom_site_fract_y
 _atom_site_fract_z
 _atom_site_occupancy
  La3+  La0  1  0.73711522  0.88781920  0.07704014  1
  La3+  La1  1  0.11389787  0.24572275  0.40731148  1
  La3+  La2  1  0.85491132  0.75366019  0.94609699  1
  La3+  La3  1  0.60983062  0.50272924  0.92539280  1
  La3+  La4  1  0.74338036  0.87831955  0.56641070  1
  La3+  La5  1  0.12252986  0.26051025  0.89643335  1
  La3+  La6  1  0.36975475  0.25724208  0.40650697  1
  La3+  La7  1  0.25091281  0.62684138  0.56546553  1
  La3+  La8  1  0.73453539  0.63206578  0.07727077  1
  La3+  La9  1  0.24934908  0.87724804  0.57396303  1
  La3+  La10  1  0.48524194  0.12377411  0.11211726  1
  La3+  La11  1  0.74252333  0.14025254  0.08014409  1
  Ce3+  Ce12  1  0.62301708  0.50299260  0.43442056  1
  Ce3+  Ce13  1  0.23695632  0.38190801  0.05967242  1
  Ce3+  Ce14  1  -0.01631691  0.87834010  0.06962292  1
  Ce3+  Ce15  1  0.00526180  0.12858330  0.57192348  1
  Ce3+  Ce16  1  -0.00064773  0.87444141  0.55189611  1
  Ce3+  Ce17  1  0.12543070  0.00475096  0.44402345  1
  Ce3+  Ce18  1  0.36636373  0.75214759  0.43947591  1
  Ce3+  Ce19  1  0.86443523  0.75345843  0.43341801  1
  Ce3+  Ce20  1  0.36523196  0.50666573  0.94397600  1
  Ce3+  Ce21  1  0.60660758  0.25717201  0.94728753  1
  Ce3+  Ce22  1  0.73057301  0.38147203  0.06104308  1
  Ce3+  Ce23  1  0.35887018  0.75750953  0.94008142  1
  Ce3+  Ce24  1  0.36893220  0.50186418  0.43549970  1
  Ce3+  Ce25  1  0.74911858  0.12376444  0.56651566  1
  Pr3+  Pr26  1  0.09993312  0.75570249  0.93528998  1
  Pr3+  Pr27  1  -0.00381747  0.62155559  0.08468927  1
  Pr3+  Pr28  1  0.11354621  0.50182173  0.42492366  1
  Pr3+  Pr29  1  0.12280772  0.75095839  0.41860447  1
  Pr3+  Pr30  1  0.74475091  0.37775934  0.56559635  1
  Pr3+  Pr31  1  0.10352803  0.50675381  0.92808174  1
  Pr3+  Pr32  1  0.25239319  0.13867354  0.57229842  1
  Pr3+  Pr33  1  0.23408665  0.13228825  0.06673917  1
  Pr3+  Pr34  1  0.87668962  0.00527944  0.44105457  1
  Pr3+  Pr35  1  0.77920164  0.62075217  0.62724513  1
  Pr3+  Pr36  1  0.85723884  0.25511789  0.93406876  1
  Pr3+  Pr37  1  0.48239583  0.37962593  0.07458485  1
  Pr3+  Pr38  1  0.85185417  0.00614911  0.93475674  1
  Nd3+  Nd39  1  0.10241472  0.00571084  0.93473494  1
  Nd3+  Nd40  1  0.63023691  0.00901460  0.41822453  1
  Nd3+  Nd41  1  0.23387622  0.88315617  0.06043358  1
  Nd3+  Nd42  1  0.48629670  0.63897527  0.07207098  1
  Nd3+  Nd43  1  -0.01441876  0.13370034  0.05348799  1
  Nd3+  Nd44  1  0.62416925  0.24929802  0.43859502  1
  Nd3+  Nd45  1  0.62366835  0.75658398  0.43293416  1
  Nd3+  Nd46  1  0.36611664  0.00545719  0.43665187  1
  Nd3+  Nd47  1  0.35621263  0.01031696  0.94350785  1
  Nd3+  Nd48  1  0.24635492  0.37749761  0.54947762  1
  Nd3+  Nd49  1  0.85746798  0.50702162  0.94017296  1
  Nd3+  Nd50  1  0.86437655  0.50652754  0.44431708  1
  Nd3+  Nd51  1  0.49561327  0.37414271  0.55148866  1
  Sm3+  Sm52  1  0.23302106  0.63036110  0.05004795  1
  Sm3+  Sm53  1  0.87566610  0.25383089  0.44843677  1
  Sm3+  Sm54  1  0.61246404  0.75642595  0.94382818  1
  Sm3+  Sm55  1  -0.00319500  0.62969085  0.55470425  1
  Sm3+  Sm56  1  0.36002372  0.25420632  0.94744753  1
  Sm3+  Sm57  1  0.61100759  0.00955682  0.94877725  1
  Sm3+  Sm58  1  0.49260586  0.12759413  0.55118307  1
  Sm3+  Sm59  1  0.48409846  0.88157383  0.05719104  1
  Sm3+  Sm60  1  -0.00059001  0.37903094  0.55928508  1
  Sm3+  Sm61  1  0.49736702  0.88221169  0.54426434  1
  Sm3+  Sm62  1  0.51069125  0.62742712  0.55443332  1
  Sm3+  Sm63  1  -0.01204773  0.38364255  0.05039216  1
  Bi2+  Bi64  1  -0.01153626  0.08012150  0.26855561  1
  Bi2+  Bi65  1  -0.06894230  0.19323265  0.75785231  1
  Bi2+  Bi66  1  0.05345396  0.29219144  0.26663034  1
  Bi2+  Bi67  1  0.02142216  0.45884367  0.77552378  1
  Bi2+  Bi68  1  0.00970574  0.58965598  0.27553239  1
  Bi2+  Bi69  1  0.07957532  0.62885848  0.73176069  1
  Bi2+  Bi70  1  -0.02763871  0.88373952  0.28663346  1
  Bi2+  Bi71  1  0.03265552  0.86517186  0.80824173  1
  Bi2+  Bi72  1  0.23121677  0.09429408  0.28753538  1
  Bi2+  Bi73  1  0.25402789  0.11637870  0.79697664  1
  Bi2+  Bi74  1  0.25061634  0.44616720  0.28556513  1
  Bi2+  Bi75  1  0.28812318  0.41890773  0.77765807  1
  Bi2+  Bi76  1  0.26011139  0.64374755  0.28341379  1
  Bi2+  Bi77  1  0.28982258  0.61092278  0.77502172  1
  Bi2+  Bi78  1  0.16493149  0.89454514  0.31669098  1
  Bi2+  Bi79  1  0.28414525  0.87668043  0.80517085  1
  Bi2+  Bi80  1  0.51212748  0.08743437  0.28956960  1
  Bi2+  Bi81  1  0.48322238  0.16350398  0.78951690  1
  Bi2+  Bi82  1  0.57796928  0.42005322  0.30414005  1
  Bi2+  Bi83  1  0.47767998  0.38761739  0.79599516  1
  Bi2+  Bi84  1  0.48343892  0.59608004  0.29705792  1
  Bi2+  Bi85  1  0.49198522  0.64180596  0.78608906  1
  Bi2+  Bi86  1  0.46640731  0.77866516  0.25276405  1
  Bi2+  Bi87  1  0.56505737  0.87967289  0.79548911  1
  Bi2+  Bi88  1  0.77950934  0.14695753  0.29883995  1
  Bi2+  Bi89  1  0.67790310  0.14218595  0.80479058  1
  Bi2+  Bi90  1  0.83355146  0.33957862  0.30700333  1
  Bi2+  Bi91  1  0.74259630  0.32640785  0.79082608  1
  Bi2+  Bi92  1  0.82650001  0.62195175  0.31149733  1
  Bi2+  Bi93  1  0.84323281  0.63529030  0.81752929  1
  Bi2+  Bi94  1  0.72525116  0.88870601  0.28856731  1
  Bi2+  Bi95  1  0.76085700  0.87415037  0.79955457  1
  Bi2+  Bi96  1  0.09696989  -0.02588499  0.19411210  1
  Bi2+  Bi97  1  0.08538886  0.01353535  0.70149033  1
  Bi2+  Bi98  1  0.13728218  0.16774195  0.19075509  1
  Bi2+  Bi99  1  0.13590193  0.28131591  0.70829364  1
  Bi2+  Bi100  1  0.14049043  0.48152273  0.19551902  1
  Bi2+  Bi101  1  0.22411176  0.51528826  0.68076519  1
  Bi2+  Bi102  1  0.13231344  0.78195847  0.22246150  1
  Bi2+  Bi103  1  0.15670221  0.80642845  0.70567221  1
  Bi2+  Bi104  1  0.32966657  -0.07963483  0.24830306  1
  Bi2+  Bi105  1  0.43354871  0.01501674  0.71018146  1
  Bi2+  Bi106  1  0.36386822  0.26743353  0.21905207  1
  Bi2+  Bi107  1  0.38154489  0.26342580  0.70564371  1
  Bi2+  Bi108  1  0.46935050  0.46277177  0.20389497  1
  Bi2+  Bi109  1  0.41139552  0.58826283  0.68004094  1
  Bi2+  Bi110  1  0.37416751  0.63068349  0.19113865  1
  Bi2+  Bi111  1  0.43578137  0.81514768  0.71785898  1
  Bi2+  Bi112  1  0.58532288  -0.08003083  0.19090489  1
  Bi2+  Bi113  1  0.63301938  0.01342822  0.71737311  1
  Bi2+  Bi114  1  0.67549975  0.28585364  0.24140767  1
  Bi2+  Bi115  1  0.59335655  0.22981755  0.70091987  1
  Bi2+  Bi116  1  0.67508491  0.47922220  0.20368841  1
  Bi2+  Bi117  1  0.57054377  0.48932062  0.71280783  1
  Bi2+  Bi118  1  0.64113883  0.67578839  0.23651429  1
  Bi2+  Bi119  1  0.64513017  0.74322487  0.72060118  1
  Bi2+  Bi120  1  0.80609389  0.03543983  0.20718003  1
  Bi2+  Bi121  1  0.88354132  0.00621368  0.75273948  1
  Bi2+  Bi122  1  0.89422061  0.27959237  0.19962812  1
  Bi2+  Bi123  1  0.78079156  0.24649419  0.68096386  1
  Bi2+  Bi124  1  0.87460088  0.48490547  0.21676816  1
  Bi2+  Bi125  1  0.86822433  0.41397274  0.70985605  1
  Bi2+  Bi126  1  0.87336276  0.76646936  0.20204315  1
  Bi2+  Bi127  1  0.91559232  0.76992278  0.70888824  1
  S2-  S128  1  -0.10424389  0.13812490  0.14054693  1
  S2-  S129  1  -0.06441733  0.09821543  0.66417623  1
  S2-  S130  1  -0.00056188  0.45744570  0.14007911  1
  S2-  S131  1  0.02358871  0.36706237  0.65881516  1
  S2-  S132  1  0.01474119  0.76540726  0.14720597  1
  S2-  S133  1  -0.04597777  0.62924831  0.65134980  1
  S2-  S134  1  -0.12717418  0.91525712  0.14672600  1
  S2-  S135  1  0.00356540  0.87517542  0.65121680  1
  S2-  S136  1  0.31386013  0.14609581  0.15761282  1
  S2-  S137  1  0.13143698  0.14368852  0.64864999  1
  S2-  S138  1  0.27324137  0.37870815  0.15633894  1
  S2-  S139  1  0.26214231  0.29960961  0.63925619  1
  S2-  S140  1  0.16147213  0.61403195  0.13856237  1
  S2-  S141  1  0.26067509  0.74347874  0.64246989  1
  S2-  S142  1  0.24396130  0.87940583  0.16085108  1
  S2-  S143  1  0.22754149  0.95525666  0.66831888  1
  S2-  S144  1  0.45553094  0.01829381  0.19555361  1
  S2-  S145  1  0.39968084  0.12755319  0.63744301  1
  S2-  S146  1  0.49382793  0.27849190  0.16085486  1
  S2-  S147  1  0.50108216  0.36743494  0.65224416  1
  S2-  S148  1  0.60366545  0.61414669  0.14716706  1
  S2-  S149  1  0.59975193  0.63684403  0.63995076  1
  S2-  S150  1  0.47965995  0.80461467  0.14503132  1
  S2-  S151  1  0.51107497  0.89621772  0.64230559  1
  S2-  S152  1  0.64974943  0.07737095  0.16047832  1
  S2-  S153  1  0.73031595  0.00978909  0.63767707  1
  S2-  S154  1  0.74170469  0.29156286  0.14569134  1
  S2-  S155  1  0.72707198  0.45769795  0.65446261  1
  S2-  S156  1  0.85756599  0.62419657  0.15321808  1
  S2-  S157  1  0.77080094  0.62335974  0.73425246  1
  S2-  S158  1  0.70814255  0.79301919  0.16616602  1
  S2-  S159  1  0.77434650  0.79263806  0.65489462  1
  S2-  S160  1  0.09611305  0.07579960  0.35502359  1
  S2-  S161  1  0.15841539  -0.00888605  0.83929312  1
  S2-  S162  1  0.24293621  0.23140878  0.33641447  1
  S2-  S163  1  0.09770657  0.19703719  0.79973432  1
  S2-  S164  1  0.11512275  0.39110652  0.34201972  1
  S2-  S165  1  0.14212996  0.41193054  0.84248530  1
  S2-  S166  1  0.12598643  0.61975293  0.34902903  1
  S2-  S167  1  0.17029321  0.77083986  0.84116542  1
  S2-  S168  1  0.37424592  0.01716507  0.33681498  1
  S2-  S169  1  0.37383620  0.01084060  0.84383244  1
  S2-  S170  1  0.44966147  0.22719356  0.31070183  1
  S2-  S171  1  0.28908472  0.23582862  0.85661073  1
  S2-  S172  1  0.37015768  0.41971916  0.34957049  1
  S2-  S173  1  0.46565199  0.52323015  0.86236408  1
  S2-  S174  1  0.27816005  0.76984262  0.35578203  1
  S2-  S175  1  0.39692896  0.76370244  0.84560111  1
  S2-  S176  1  0.58445998  -0.06749337  0.32791397  1
  S2-  S177  1  0.71253702  0.00820986  0.86686195  1
  S2-  S178  1  0.63143581  0.15214656  0.35565097  1
  S2-  S179  1  0.60592515  0.34615635  0.86089894  1
  S2-  S180  1  0.70718092  0.50993396  0.34960951  1
  S2-  S181  1  0.74713844  0.52220492  0.85857019  1
  S2-  S182  1  0.73378560  0.75580815  0.35426618  1
  S2-  S183  1  0.72785451  0.74999053  0.86726742  1
  S2-  S184  1  0.78655811  -0.00402071  0.35442088  1
  S2-  S185  1  0.94693867  0.00167764  0.84898845  1
  S2-  S186  1  0.94767332  0.24511033  0.35849858  1
  S2-  S187  1  0.89635514  0.28741747  0.83641319  1
  S2-  S188  1  0.93478556  0.50387747  0.35280141  1
  S2-  S189  1  0.96669751  0.52800454  0.85972707  1
  S2-  S190  1  0.95278200  0.75046184  0.34682333  1
  S2-  S191  1  0.96326458  0.75128409  0.86262730  1
  S2-  S192  1  -0.00198134  0.12934108  0.46274571  1
  S2-  S193  1  -0.00836758  0.13959356  0.94700792  1
  S2-  S194  1  -0.00695947  0.38044792  0.45676416  1
  S2-  S195  1  -0.00929543  0.37199875  0.94779894  1
  S2-  S196  1  -0.00578096  0.62976627  0.45319155  1
  S2-  S197  1  -0.01506244  0.62830595  0.96967253  1
  S2-  S198  1  0.00055468  0.87698218  0.44697727  1
  S2-  S199  1  -0.01733915  0.88513540  0.96095511  1
  S2-  S200  1  0.24663174  0.13101325  0.45233572  1
  S2-  S201  1  0.22876985  0.13228980  0.95791820  1
  S2-  S202  1  0.24220785  0.37827840  0.44678230  1
  S2-  S203  1  0.23907491  0.38051539  0.95364260  1
  S2-  S204  1  0.24686493  0.62530349  0.45567628  1
  S2-  S205  1  0.23564368  0.62913865  0.94451199  1
  S2-  S206  1  0.24626733  0.87703623  0.46089227  1
  S2-  S207  1  0.23369424  0.88288599  0.95404467  1
  S2-  S208  1  0.49156072  0.12912577  0.44725959  1
  S2-  S209  1  0.48447991  0.13084405  0.94584553  1
  S2-  S210  1  0.50005572  0.37482885  0.44567151  1
  S2-  S211  1  0.48060223  0.37879947  0.96386116  1
  S2-  S212  1  0.49771641  0.62910227  0.44660203  1
  S2-  S213  1  0.48687059  0.63772691  0.96320399  1
  S2-  S214  1  0.49251754  0.87837898  0.44019030  1
  S2-  S215  1  0.48771136  0.88405872  0.95240351  1
  S2-  S216  1  0.75377459  0.13104375  0.45946745  1
  S2-  S217  1  0.73241276  0.13591012  0.96498407  1
  S2-  S218  1  0.74761794  0.37358178  0.45591985  1
  S2-  S219  1  0.73601821  0.37912654  0.95747525  1
  S2-  S220  1  0.74202325  0.62873606  0.45398356  1
  S2-  S221  1  0.72744834  0.62801773  0.96813714  1
  S2-  S222  1  0.74452067  0.88267371  0.45678243  1
  S2-  S223  1  0.72933898  0.88309962  0.96731474  1
  S2-  S224  1  0.10873560  0.00699028  0.04605757  1
  S2-  S225  1  0.12493303  0.00234226  0.54841297  1
  S2-  S226  1  0.10940914  0.25941442  0.05726874  1
  S2-  S227  1  0.12006455  0.25797081  0.54131276  1
  S2-  S228  1  0.11618883  0.50146966  0.03505434  1
  S2-  S229  1  0.12002429  0.50356071  0.54399404  1
  S2-  S230  1  0.11614815  0.75819176  0.04225077  1
  S2-  S231  1  0.12192910  0.74905008  0.54266657  1
  S2-  S232  1  0.36409516  0.00809264  0.05171368  1
  S2-  S233  1  0.36964287  0.00314233  0.54201385  1
  S2-  S234  1  0.36187082  0.25321855  0.04965323  1
  S2-  S235  1  0.37330373  0.25405023  0.53167654  1
  S2-  S236  1  0.36181514  0.51099670  0.05076341  1
  S2-  S237  1  0.37664979  0.50286705  0.54268988  1
  S2-  S238  1  0.35542197  0.75635209  0.04633621  1
  S2-  S239  1  0.38242896  0.75007008  0.54342204  1
  S2-  S240  1  0.60149822  0.00807867  0.05170532  1
  S2-  S241  1  0.61522041  0.00878952  0.53174402  1
  S2-  S242  1  0.60249682  0.25057059  0.05185011  1
  S2-  S243  1  0.62047197  0.24839494  0.54531576  1
  S2-  S244  1  0.60427113  0.50138467  0.04665319  1
  S2-  S245  1  0.61807466  0.49542918  0.53919013  1
  S2-  S246  1  0.60954538  0.76141069  0.04653630  1
  S2-  S247  1  0.61640579  0.76117985  0.53707408  1
  S2-  S248  1  0.86020312  0.01147254  0.04079501  1
  S2-  S249  1  0.87767986  0.00203048  0.54612490  1
  S2-  S250  1  0.86510331  0.26352456  0.04037520  1
  S2-  S251  1  0.87556781  0.25401651  0.55279793  1
  S2-  S252  1  0.85723367  0.50014080  0.04707485  1
  S2-  S253  1  0.87238069  0.50279432  0.55236123  1
  S2-  S254  1  0.85887996  0.75721556  0.05221584  1
  S2-  S255  1  0.87417796  0.75115991  0.54304000  1
