# generated using pymatgen
data_La12Ce14Pr13Nd13Sm12(BiS2)64
_symmetry_space_group_name_H-M   'P 1'
_cell_length_a   16.13002596
_cell_length_b   16.07572561
_cell_length_c   27.38401793
_cell_angle_alpha   90.11379356
_cell_angle_beta   90.20559531
_cell_angle_gamma   89.94891873
_symmetry_Int_Tables_number   1
_chemical_formula_structural   La12Ce14Pr13Nd13Sm12(BiS2)64
_chemical_formula_sum   'La12 Ce14 Pr13 Nd13 Sm12 Bi64 S128'
_cell_volume   7100.66459952
_cell_formula_units_Z   1
loop_
 _symmetry_equiv_pos_site_id
 _symmetry_equiv_pos_as_xyz
  1  'x, y, z'
loop_
 _atom_type_symbol
 _atom_type_oxidation_number
  La3+  3.0
  Ce3+  3.0
  Pr3+  3.0
  Nd3+  3.0
  Sm3+  3.0
  Bi2+  2.0
  S2-  -2.0
loop_
 _atom_site_type_symbol
 _atom_site_label
 _atom_site_symmetry_multiplicity
 _atom_site_fract_x
 _atom_site_fract_y
 _atom_site_fract_z
 _atom_site_occupancy
  La3+  La0  1  0.11640370  -0.00245249  0.41419177  1
  La3+  La1  1  0.52124834  0.13685283  0.07371873  1
  La3+  La2  1  0.87064739  0.25545159  0.43591348  1
  La3+  La3  1  0.26792552  0.38660864  0.07119897  1
  La3+  La4  1  0.37214836  0.01325246  0.39625408  1
  La3+  La5  1  0.76734525  0.62738551  0.08560645  1
  La3+  La6  1  0.62023733  0.50770738  0.42828635  1
  La3+  La7  1  0.89269756  0.76113940  0.94021181  1
  La3+  La8  1  0.64265611  0.52014280  0.92253139  1
  La3+  La9  1  0.38031404  0.51057988  0.89455159  1
  La3+  La10  1  0.22990009  0.36744156  0.60675426  1
  La3+  La11  1  0.51552586  0.88246859  0.07438679  1
  Ce3+  Ce12  1  0.26507932  0.13883736  0.06714854  1
  Ce3+  Ce13  1  0.76574809  0.13693762  0.06149976  1
  Ce3+  Ce14  1  0.49393263  0.62975602  0.55611949  1
  Ce3+  Ce15  1  0.24401285  0.12603255  0.55780883  1
  Ce3+  Ce16  1  0.86670250  0.75576186  0.43595154  1
  Ce3+  Ce17  1  0.14439391  0.76077657  0.94775417  1
  Ce3+  Ce18  1  0.36458443  0.75985522  0.43931222  1
  Ce3+  Ce19  1  0.27116280  0.63115083  0.06183551  1
  Ce3+  Ce20  1  0.74419566  0.62995977  0.56205565  1
  Ce3+  Ce21  1  0.87190666  -0.00059176  0.43422011  1
  Ce3+  Ce22  1  0.39286400  0.00434292  0.94367558  1
  Ce3+  Ce23  1  0.76550181  0.38845789  0.05595879  1
  Ce3+  Ce24  1  0.61862848  0.76785968  0.43405242  1
  Ce3+  Ce25  1  0.74256068  0.38418361  0.56588300  1
  Pr3+  Pr26  1  0.89160968  0.25908199  0.93833739  1
  Pr3+  Pr27  1  0.74656167  0.13139902  0.56924116  1
  Pr3+  Pr28  1  0.89006846  0.51172049  0.92898561  1
  Pr3+  Pr29  1  0.14762100  0.26054673  0.93072344  1
  Pr3+  Pr30  1  0.01442854  0.63289521  0.06311847  1
  Pr3+  Pr31  1  0.76738233  0.88572794  0.07372176  1
  Pr3+  Pr32  1  -0.00200537  0.13146212  0.56245875  1
  Pr3+  Pr33  1  0.39168040  0.25999443  0.94350831  1
  Pr3+  Pr34  1  0.87146263  0.50547872  0.39947463  1
  Pr3+  Pr35  1  0.63868041  0.26138568  0.93637313  1
  Pr3+  Pr36  1  0.12348041  0.50623314  0.43509326  1
  Pr3+  Pr37  1  0.38840209  0.76321911  0.93420064  1
  Pr3+  Pr38  1  0.24452067  0.62847085  0.57238232  1
  Nd3+  Nd39  1  0.49096143  0.13081099  0.56140495  1
  Nd3+  Nd40  1  0.24602636  0.87675821  0.56551851  1
  Nd3+  Nd41  1  0.89336761  0.00992030  0.94283647  1
  Nd3+  Nd42  1  0.64082702  0.76055934  0.94646350  1
  Nd3+  Nd43  1  0.26591395  0.89146297  0.07961514  1
  Nd3+  Nd44  1  0.51601667  0.63339214  0.05414715  1
  Nd3+  Nd45  1  0.01661790  0.38489738  0.04833099  1
  Nd3+  Nd46  1  0.37232952  0.50652771  0.43811602  1
  Nd3+  Nd47  1  -0.00753700  0.87876502  0.56298813  1
  Nd3+  Nd48  1  0.62105954  0.00707661  0.44275058  1
  Nd3+  Nd49  1  0.74471437  0.87700572  0.57136384  1
  Nd3+  Nd50  1  0.01605220  0.88530728  0.07095630  1
  Nd3+  Nd51  1  0.12291673  0.25490630  0.44129601  1
  Sm3+  Sm52  1  0.61908578  0.25379932  0.44544930  1
  Sm3+  Sm53  1  0.51862187  0.39199563  0.04999855  1
  Sm3+  Sm54  1  0.36671573  0.25193200  0.44810742  1
  Sm3+  Sm55  1  0.49432555  0.88134049  0.55472600  1
  Sm3+  Sm56  1  -0.00474489  0.38336476  0.55715638  1
  Sm3+  Sm57  1  0.12226330  0.75573953  0.44421406  1
  Sm3+  Sm58  1  0.64135400  0.00838205  0.94427114  1
  Sm3+  Sm59  1  -0.00530608  0.62605077  0.55131067  1
  Sm3+  Sm60  1  0.49143721  0.38170136  0.55744636  1
  Sm3+  Sm61  1  0.01753323  0.13708403  0.05384904  1
  Sm3+  Sm62  1  0.14266097  0.00810507  0.94352393  1
  Sm3+  Sm63  1  0.14482810  0.51225720  0.94036320  1
  Bi2+  Bi64  1  -0.10866497  0.16194449  0.29686155  1
  Bi2+  Bi65  1  -0.02206485  0.08708511  0.80151062  1
  Bi2+  Bi66  1  0.02196246  0.34092427  0.29287393  1
  Bi2+  Bi67  1  -0.02699414  0.36548450  0.78899067  1
  Bi2+  Bi68  1  0.02285276  0.63492471  0.29183654  1
  Bi2+  Bi69  1  -0.02819505  0.56082483  0.79712120  1
  Bi2+  Bi70  1  -0.01566993  0.90786609  0.29219585  1
  Bi2+  Bi71  1  0.01224445  0.83986650  0.79892924  1
  Bi2+  Bi72  1  0.16572089  0.12146298  0.26752804  1
  Bi2+  Bi73  1  0.26762623  0.11624538  0.79581487  1
  Bi2+  Bi74  1  0.24638424  0.44388697  0.29670368  1
  Bi2+  Bi75  1  0.24610723  0.35797924  0.78979528  1
  Bi2+  Bi76  1  0.27009903  0.62207954  0.34355054  1
  Bi2+  Bi77  1  0.23624952  0.64748961  0.79184615  1
  Bi2+  Bi78  1  0.22784065  0.85463659  0.28933897  1
  Bi2+  Bi79  1  0.27397759  0.84991388  0.78441644  1
  Bi2+  Bi80  1  0.53806467  0.16896726  0.31619228  1
  Bi2+  Bi81  1  0.45886867  0.05414487  0.78146496  1
  Bi2+  Bi82  1  0.49724616  0.36319373  0.28768621  1
  Bi2+  Bi83  1  0.50314779  0.33788337  0.79503923  1
  Bi2+  Bi84  1  0.46169332  0.62448649  0.29685577  1
  Bi2+  Bi85  1  0.53486926  0.64239052  0.78864510  1
  Bi2+  Bi86  1  0.51730209  0.85759132  0.29652305  1
  Bi2+  Bi87  1  0.51807050  0.86088955  0.79851693  1
  Bi2+  Bi88  1  0.71833363  0.05933287  0.30172489  1
  Bi2+  Bi89  1  0.76099398  0.08216660  0.73746683  1
  Bi2+  Bi90  1  0.78888456  0.41132203  0.26386169  1
  Bi2+  Bi91  1  0.74802138  0.36153703  0.78895219  1
  Bi2+  Bi92  1  0.74107404  0.64303625  0.28677599  1
  Bi2+  Bi93  1  0.78303403  0.64278466  0.79374550  1
  Bi2+  Bi94  1  0.79006849  0.88526155  0.26473999  1
  Bi2+  Bi95  1  0.72228426  0.91273320  0.79834280  1
  Bi2+  Bi96  1  0.09015782  -0.00878836  0.20250867  1
  Bi2+  Bi97  1  0.13694039  -0.00029777  0.73939770  1
  Bi2+  Bi98  1  0.10910747  0.26310544  0.19564667  1
  Bi2+  Bi99  1  0.09336759  0.20894806  0.71398071  1
  Bi2+  Bi100  1  0.13574572  0.50107356  0.20609349  1
  Bi2+  Bi101  1  0.09394812  0.49674343  0.71300651  1
  Bi2+  Bi102  1  0.12685551  0.70465490  0.20454161  1
  Bi2+  Bi103  1  0.13150232  0.76598740  0.71876031  1
  Bi2+  Bi104  1  0.36271714  -0.00577960  0.20999901  1
  Bi2+  Bi105  1  0.31981777  -0.02110774  0.69845199  1
  Bi2+  Bi106  1  0.32438587  0.26834642  0.26682224  1
  Bi2+  Bi107  1  0.37020411  0.17472907  0.70259555  1
  Bi2+  Bi108  1  0.37412206  0.42892285  0.20604871  1
  Bi2+  Bi109  1  0.39478983  0.50021157  0.69679134  1
  Bi2+  Bi110  1  0.31565088  0.70052308  0.24000809  1
  Bi2+  Bi111  1  0.39565490  0.76649130  0.70330034  1
  Bi2+  Bi112  1  0.59890681  0.03526831  0.20474543  1
  Bi2+  Bi113  1  0.59340847  -0.00559524  0.70249584  1
  Bi2+  Bi114  1  0.65342359  0.27206964  0.24076557  1
  Bi2+  Bi115  1  0.61140751  0.28766422  0.70694259  1
  Bi2+  Bi116  1  0.60583687  0.51717693  0.18754914  1
  Bi2+  Bi117  1  0.66315677  0.50661460  0.72816456  1
  Bi2+  Bi118  1  0.56629825  0.76317842  0.20198882  1
  Bi2+  Bi119  1  0.65157447  0.78448720  0.72182320  1
  Bi2+  Bi120  1  0.84755361  0.04766692  0.20576178  1
  Bi2+  Bi121  1  0.86901256  -0.07888138  0.71408588  1
  Bi2+  Bi122  1  0.83502251  0.24908817  0.19857696  1
  Bi2+  Bi123  1  0.87357433  0.24040463  0.71028550  1
  Bi2+  Bi124  1  0.93695709  0.50804539  0.21739441  1
  Bi2+  Bi125  1  0.86138263  0.46034502  0.70591019  1
  Bi2+  Bi126  1  0.93199708  0.76659274  0.21560252  1
  Bi2+  Bi127  1  0.88846384  0.66880439  0.70098924  1
  S2-  S128  1  0.01984878  0.12860489  0.15140616  1
  S2-  S129  1  -0.02615575  0.12678047  0.66256655  1
  S2-  S130  1  0.01975668  0.39738577  0.14699005  1
  S2-  S131  1  0.06722516  0.37251907  0.64890813  1
  S2-  S132  1  -0.08574121  0.63038463  0.14532979  1
  S2-  S133  1  0.02030284  0.61968268  0.64899246  1
  S2-  S134  1  -0.10463293  0.89063516  0.14598515  1
  S2-  S135  1  -0.00637278  0.86314961  0.66346720  1
  S2-  S136  1  0.25058161  0.03468373  0.14556370  1
  S2-  S137  1  0.20648976  0.18833021  0.64683560  1
  S2-  S138  1  0.24931678  0.26009120  0.14153913  1
  S2-  S139  1  0.31626800  0.34223594  0.69599953  1
  S2-  S140  1  0.27039841  0.52148909  0.14110394  1
  S2-  S141  1  0.24041588  0.52593970  0.65454117  1
  S2-  S142  1  0.13317777  0.85971556  0.14762861  1
  S2-  S143  1  0.24572443  0.76224663  0.64355514  1
  S2-  S144  1  0.45923283  0.11390283  0.16906244  1
  S2-  S145  1  0.53047096  0.14831585  0.65750463  1
  S2-  S146  1  0.52167307  0.38784935  0.14917643  1
  S2-  S147  1  0.51806868  0.39697681  0.65453536  1
  S2-  S148  1  0.48910269  0.63548914  0.15392648  1
  S2-  S149  1  0.47268568  0.63983663  0.65421888  1
  S2-  S150  1  0.39538776  0.87099757  0.15109633  1
  S2-  S151  1  0.50978963  0.86852079  0.65284274  1
  S2-  S152  1  0.66462932  0.13901404  0.14107016  1
  S2-  S153  1  0.75708431  0.00386464  0.64253717  1
  S2-  S154  1  0.74300159  0.47229095  0.13977255  1
  S2-  S155  1  0.74474990  0.26377378  0.63941487  1
  S2-  S156  1  0.70261742  0.67126664  0.18258439  1
  S2-  S157  1  0.73002685  0.51260261  0.63849475  1
  S2-  S158  1  0.64208126  0.89166610  0.14822450  1
  S2-  S159  1  0.75221856  0.74734729  0.64332749  1
  S2-  S160  1  0.22806938  0.01512202  0.33656914  1
  S2-  S161  1  0.09357447  -0.01864225  0.84962648  1
  S2-  S162  1  0.11555843  0.23825186  0.34200269  1
  S2-  S163  1  0.14534151  0.22742132  0.83193015  1
  S2-  S164  1  0.02852896  0.49346613  0.34945969  1
  S2-  S165  1  0.20608331  0.49713458  0.84955221  1
  S2-  S166  1  0.10998710  0.83546350  0.35627827  1
  S2-  S167  1  0.12241590  0.73308368  0.85233274  1
  S2-  S168  1  0.45073863  0.01076584  0.30240542  1
  S2-  S169  1  0.37686382  -0.10252310  0.86557185  1
  S2-  S170  1  0.37012446  0.19076163  0.35678194  1
  S2-  S171  1  0.36967587  0.26936345  0.84378388  1
  S2-  S172  1  0.48447983  0.49347828  0.35851609  1
  S2-  S173  1  0.37122316  0.46349936  0.79037186  1
  S2-  S174  1  0.36828607  0.84289924  0.35346964  1
  S2-  S175  1  0.37813564  0.66653183  0.84631850  1
  S2-  S176  1  0.62917893  -0.09472401  0.36239596  1
  S2-  S177  1  0.59228024  0.00299075  0.85012350  1
  S2-  S178  1  0.64321172  0.28618032  0.34996922  1
  S2-  S179  1  0.62958112  0.25016940  0.83651262  1
  S2-  S180  1  0.72048698  0.50873292  0.34320744  1
  S2-  S181  1  0.53763193  0.49444990  0.84262095  1
  S2-  S182  1  0.60466138  0.69846205  0.34160373  1
  S2-  S183  1  0.64477711  0.68380903  0.85564277  1
  S2-  S184  1  0.97736219  0.04381729  0.35465932  1
  S2-  S185  1  0.85970431  0.00522617  0.84588293  1
  S2-  S186  1  0.87056163  0.34574509  0.34969707  1
  S2-  S187  1  0.90168545  0.22990136  0.84018584  1
  S2-  S188  1  0.86562797  0.66108029  0.34809391  1
  S2-  S189  1  0.77427398  0.49562918  0.85280123  1
  S2-  S190  1  0.85483575  0.87432324  0.36281188  1
  S2-  S191  1  0.88384465  0.77128830  0.84009519  1
  S2-  S192  1  0.00010522  0.13048012  0.45745942  1
  S2-  S193  1  0.01973482  0.13467958  0.94934730  1
  S2-  S194  1  -0.00252768  0.38067620  0.45437861  1
  S2-  S195  1  0.01906381  0.38667496  0.94212713  1
  S2-  S196  1  -0.00213927  0.63197781  0.44884794  1
  S2-  S197  1  0.01780291  0.63227269  0.95429152  1
  S2-  S198  1  -0.00169548  0.87894008  0.45910954  1
  S2-  S199  1  0.01780681  0.88654021  0.96132773  1
  S2-  S200  1  0.24351967  0.12376310  0.45323068  1
  S2-  S201  1  0.26645684  0.13133677  0.95400436  1
  S2-  S202  1  0.24960997  0.37881384  0.44075260  1
  S2-  S203  1  0.26800921  0.38762782  0.95439610  1
  S2-  S204  1  0.24484021  0.63159820  0.46339419  1
  S2-  S205  1  0.26683082  0.63266233  0.95563043  1
  S2-  S206  1  0.24088456  0.88376599  0.46010999  1
  S2-  S207  1  0.26191227  0.88705084  0.96623396  1
  S2-  S208  1  0.49265666  0.12791893  0.45544230  1
  S2-  S209  1  0.51731379  0.13272663  0.95619341  1
  S2-  S210  1  0.49175170  0.37150409  0.45406939  1
  S2-  S211  1  0.51304228  0.38783481  0.94659443  1
  S2-  S212  1  0.49226059  0.63870496  0.45220511  1
  S2-  S213  1  0.51095281  0.63755795  0.95046089  1
  S2-  S214  1  0.48626787  0.89137725  0.45322405  1
  S2-  S215  1  0.51979641  0.88453409  0.96302202  1
  S2-  S216  1  0.74552983  0.13038944  0.45485393  1
  S2-  S217  1  0.76469303  0.13382084  0.95234804  1
  S2-  S218  1  0.74264801  0.37862527  0.45696765  1
  S2-  S219  1  0.76704346  0.38224867  0.95145392  1
  S2-  S220  1  0.74243684  0.63416915  0.45471538  1
  S2-  S221  1  0.77064785  0.63794240  0.95715224  1
  S2-  S222  1  0.74436363  0.88258129  0.46686766  1
  S2-  S223  1  0.76525162  0.88700700  0.95798335  1
  S2-  S224  1  0.13590795  0.01201301  0.04563985  1
  S2-  S225  1  0.12017915  0.00109078  0.56239587  1
  S2-  S226  1  0.13840999  0.26018664  0.03715519  1
  S2-  S227  1  0.12103808  0.25945058  0.54449437  1
  S2-  S228  1  0.13922741  0.50986234  0.04347161  1
  S2-  S229  1  0.12095533  0.50221884  0.54256320  1
  S2-  S230  1  0.14270752  0.75402812  0.05001548  1
  S2-  S231  1  0.11601976  0.75345144  0.54690293  1
  S2-  S232  1  0.39339086  0.01319851  0.04738419  1
  S2-  S233  1  0.36971488  0.00321025  0.55892335  1
  S2-  S234  1  0.39822911  0.26305674  0.04875375  1
  S2-  S235  1  0.36492945  0.25953253  0.55315960  1
  S2-  S236  1  0.39464582  0.50855429  0.04361363  1
  S2-  S237  1  0.36897088  0.50247971  0.54438394  1
  S2-  S238  1  0.38865457  0.75796393  0.04492076  1
  S2-  S239  1  0.37252996  0.75664910  0.54474211  1
  S2-  S240  1  0.64389651  0.00903035  0.04540925  1
  S2-  S241  1  0.61654051  0.00698295  0.54749505  1
  S2-  S242  1  0.64167556  0.26593067  0.04271630  1
  S2-  S243  1  0.61439282  0.25536399  0.54680925  1
  S2-  S244  1  0.64148083  0.51290990  0.03519607  1
  S2-  S245  1  0.61282354  0.50415416  0.53771373  1
  S2-  S246  1  0.64630994  0.75473464  0.05044453  1
  S2-  S247  1  0.61605628  0.75734028  0.54326659  1
  S2-  S248  1  0.89194319  0.01532222  0.04732277  1
  S2-  S249  1  0.87322962  0.00632596  0.54368743  1
  S2-  S250  1  0.89187199  0.26020658  0.04552043  1
  S2-  S251  1  0.87456607  0.25714214  0.54436459  1
  S2-  S252  1  0.89209337  0.50839455  0.03728320  1
  S2-  S253  1  0.87385313  0.50489153  0.54801995  1
  S2-  S254  1  0.89004993  0.75945565  0.04705583  1
  S2-  S255  1  0.87398492  0.75263099  0.54391893  1
