# generated using pymatgen
data_La12Ce14Pr13Nd13Sm12(BiS2)64
_symmetry_space_group_name_H-M   'P 1'
_cell_length_a   16.13447474
_cell_length_b   16.15314297
_cell_length_c   27.23841784
_cell_angle_alpha   89.91799172
_cell_angle_beta   90.12832966
_cell_angle_gamma   90.02094637
_symmetry_Int_Tables_number   1
_chemical_formula_structural   La12Ce14Pr13Nd13Sm12(BiS2)64
_chemical_formula_sum   'La12 Ce14 Pr13 Nd13 Sm12 Bi64 S128'
_cell_volume   7098.91839104
_cell_formula_units_Z   1
loop_
 _symmetry_equiv_pos_site_id
 _symmetry_equiv_pos_as_xyz
  1  'x, y, z'
loop_
 _atom_type_symbol
 _atom_type_oxidation_number
  La3+  3.0
  Ce3+  3.0
  Pr3+  3.0
  Nd3+  3.0
  Sm3+  3.0
  Bi2+  2.0
  S2-  -2.0
loop_
 _atom_site_type_symbol
 _atom_site_label
 _atom_site_symmetry_multiplicity
 _atom_site_fract_x
 _atom_site_fract_y
 _atom_site_fract_z
 _atom_site_occupancy
  La3+  La0  1  -0.01011805  0.13339019  0.56773351  1
  La3+  La1  1  0.14138611  0.25564662  0.38432558  1
  La3+  La2  1  0.36720460  0.73754236  0.93491463  1
  La3+  La3  1  0.86323693  0.51027418  0.43538193  1
  La3+  La4  1  0.36841798  0.48473460  0.92555476  1
  La3+  La5  1  0.60705774  0.75851289  0.42963345  1
  La3+  La6  1  0.10982250  0.51001728  0.41779816  1
  La3+  La7  1  -0.00786914  0.38631652  0.56175085  1
  La3+  La8  1  0.86738185  0.73016336  0.92618588  1
  La3+  La9  1  0.36031288  -0.00066108  0.89047372  1
  La3+  La10  1  0.49163205  0.10526988  0.05608285  1
  La3+  La11  1  0.10735488  0.00753789  0.43372794  1
  Ce3+  Ce12  1  0.11477234  0.75200884  0.45025351  1
  Ce3+  Ce13  1  0.86873103  -0.01982083  0.92288129  1
  Ce3+  Ce14  1  0.74586240  0.10696691  0.05189989  1
  Ce3+  Ce15  1  -0.00812152  0.60403470  0.06049130  1
  Ce3+  Ce16  1  -0.01724006  0.35918537  0.07608452  1
  Ce3+  Ce17  1  -0.01043089  0.88065403  0.56700194  1
  Ce3+  Ce18  1  0.24236329  0.10365152  0.06383966  1
  Ce3+  Ce19  1  0.61708785  -0.01738349  0.93774749  1
  Ce3+  Ce20  1  0.49286020  0.35837348  0.05861388  1
  Ce3+  Ce21  1  0.74378010  0.35780797  0.05883790  1
  Ce3+  Ce22  1  0.24221827  0.86533170  0.06160410  1
  Ce3+  Ce23  1  0.36473131  0.25439018  0.44672107  1
  Ce3+  Ce24  1  0.24231937  0.62765027  0.56186020  1
  Ce3+  Ce25  1  0.62130255  0.25531206  0.43961886  1
  Pr3+  Pr26  1  0.73085666  0.87720129  0.56377869  1
  Pr3+  Pr27  1  0.49043906  0.37847317  0.55931959  1
  Pr3+  Pr28  1  -0.00989560  0.85785194  0.06007711  1
  Pr3+  Pr29  1  0.60789229  0.00402106  0.42635808  1
  Pr3+  Pr30  1  0.87453198  0.48290452  0.92653817  1
  Pr3+  Pr31  1  0.61670475  0.73176502  0.93930628  1
  Pr3+  Pr32  1  0.23657957  0.38140219  0.55386405  1
  Pr3+  Pr33  1  0.73000690  0.63080995  0.57202217  1
  Pr3+  Pr34  1  0.73966036  0.38083879  0.56219607  1
  Pr3+  Pr35  1  0.11643670  -0.01493445  0.92974082  1
  Pr3+  Pr36  1  0.86429950  0.00309801  0.43858579  1
  Pr3+  Pr37  1  0.36204380  0.75481296  0.44061457  1
  Pr3+  Pr38  1  0.11814575  0.47791527  0.94472549  1
  Nd3+  Nd39  1  0.24317208  0.60362684  0.05922579  1
  Nd3+  Nd40  1  0.49105614  0.12768616  0.56255307  1
  Nd3+  Nd41  1  0.48345288  0.62312058  0.57443267  1
  Nd3+  Nd42  1  0.35938155  0.00854284  0.43871290  1
  Nd3+  Nd43  1  0.23387131  0.13068813  0.57011806  1
  Nd3+  Nd44  1  0.11845787  0.73586442  0.94741463  1
  Nd3+  Nd45  1  0.74275548  0.85765809  0.05873730  1
  Nd3+  Nd46  1  0.36706334  0.50166011  0.43303964  1
  Nd3+  Nd47  1  0.86857694  0.25686596  0.43420917  1
  Nd3+  Nd48  1  0.49311311  0.85600772  0.06112941  1
  Nd3+  Nd49  1  0.74365575  0.12622847  0.56386151  1
  Nd3+  Nd50  1  0.61791110  0.51164838  0.43122442  1
  Nd3+  Nd51  1  0.23698011  0.88514146  0.57449150  1
  Sm3+  Sm52  1  0.36507401  0.23306582  0.93849151  1
  Sm3+  Sm53  1  -0.01399107  0.62813352  0.56812996  1
  Sm3+  Sm54  1  0.86165611  0.75366245  0.45257957  1
  Sm3+  Sm55  1  0.25521403  0.35207047  0.07725014  1
  Sm3+  Sm56  1  0.11782744  0.23367502  0.95085121  1
  Sm3+  Sm57  1  -0.00915702  0.10624816  0.05978182  1
  Sm3+  Sm58  1  0.74418800  0.60810367  0.05863419  1
  Sm3+  Sm59  1  0.61667145  0.48222057  0.95015832  1
  Sm3+  Sm60  1  0.61658137  0.23255537  0.94233689  1
  Sm3+  Sm61  1  0.87058203  0.23645160  0.93708245  1
  Sm3+  Sm62  1  0.48435148  0.87888466  0.56131119  1
  Sm3+  Sm63  1  0.48912000  0.60695960  0.06227065  1
  Bi2+  Bi64  1  0.01307878  0.11378942  0.29169183  1
  Bi2+  Bi65  1  0.00030198  0.12425809  0.77912195  1
  Bi2+  Bi66  1  0.00381635  0.37161152  0.28357868  1
  Bi2+  Bi67  1  -0.00455298  0.34519782  0.79757429  1
  Bi2+  Bi68  1  -0.00894772  0.63148195  0.29170039  1
  Bi2+  Bi69  1  -0.01105051  0.60375962  0.79021249  1
  Bi2+  Bi70  1  0.04188783  0.86185968  0.30198043  1
  Bi2+  Bi71  1  -0.01304319  0.85788065  0.79324708  1
  Bi2+  Bi72  1  0.33018364  0.08974998  0.30727134  1
  Bi2+  Bi73  1  0.23925829  0.25204082  0.79116336  1
  Bi2+  Bi74  1  0.34682339  0.39756243  0.28646300  1
  Bi2+  Bi75  1  0.21884715  0.44215610  0.82461661  1
  Bi2+  Bi76  1  0.24069500  0.66475488  0.28869159  1
  Bi2+  Bi77  1  0.26196694  0.62263750  0.78172693  1
  Bi2+  Bi78  1  0.24026496  0.90635266  0.30968603  1
  Bi2+  Bi79  1  0.22999940  0.84232463  0.79244085  1
  Bi2+  Bi80  1  0.55445811  0.17526739  0.27559216  1
  Bi2+  Bi81  1  0.54878277  0.14814590  0.77512089  1
  Bi2+  Bi82  1  0.52448891  0.43187308  0.31952590  1
  Bi2+  Bi83  1  0.40019500  0.38124461  0.80638582  1
  Bi2+  Bi84  1  0.49087326  0.62304495  0.29233847  1
  Bi2+  Bi85  1  0.50948333  0.61757859  0.78594925  1
  Bi2+  Bi86  1  0.50269003  0.88749656  0.29189103  1
  Bi2+  Bi87  1  0.52643009  0.86699910  0.80104089  1
  Bi2+  Bi88  1  0.74260146  0.11833949  0.29742703  1
  Bi2+  Bi89  1  0.81763592  0.13047719  0.81734380  1
  Bi2+  Bi90  1  0.73845954  0.37469120  0.28367784  1
  Bi2+  Bi91  1  0.72864712  0.30778431  0.79423428  1
  Bi2+  Bi92  1  0.74897834  0.61623374  0.29086356  1
  Bi2+  Bi93  1  0.77715097  0.72901966  0.78557263  1
  Bi2+  Bi94  1  0.75777047  0.92902135  0.28101288  1
  Bi2+  Bi95  1  0.73864010  0.98788471  0.75285073  1
  Bi2+  Bi96  1  0.12312286  -0.01896945  0.21693573  1
  Bi2+  Bi97  1  0.13771729  0.02964289  0.71706320  1
  Bi2+  Bi98  1  0.12117365  0.24388730  0.17977643  1
  Bi2+  Bi99  1  0.09635159  0.29531847  0.70530169  1
  Bi2+  Bi100  1  0.12294588  0.52421537  0.19438369  1
  Bi2+  Bi101  1  0.12224739  0.51370911  0.71704214  1
  Bi2+  Bi102  1  0.15059136  0.78499326  0.21343684  1
  Bi2+  Bi103  1  0.12608654  0.71741782  0.71873129  1
  Bi2+  Bi104  1  0.36285788  -0.00568298  0.21207501  1
  Bi2+  Bi105  1  0.39780030  -0.03560995  0.69617641  1
  Bi2+  Bi106  1  0.41025468  0.25899267  0.21273485  1
  Bi2+  Bi107  1  0.39470433  0.25079044  0.71695656  1
  Bi2+  Bi108  1  0.40763302  0.53386587  0.20056287  1
  Bi2+  Bi109  1  0.36217309  0.47015847  0.70377877  1
  Bi2+  Bi110  1  0.34770735  0.80071263  0.22944756  1
  Bi2+  Bi111  1  0.41523809  0.72193535  0.70952484  1
  Bi2+  Bi112  1  0.60861498  0.01734270  0.20917038  1
  Bi2+  Bi113  1  0.65339099  0.12795371  0.68275416  1
  Bi2+  Bi114  1  0.60584913  0.29239417  0.18650661  1
  Bi2+  Bi115  1  0.57062895  0.31384386  0.68233990  1
  Bi2+  Bi116  1  0.60884115  0.48152636  0.21929943  1
  Bi2+  Bi117  1  0.60965218  0.45263392  0.76160066  1
  Bi2+  Bi118  1  0.64462420  0.75318543  0.19158606  1
  Bi2+  Bi119  1  0.65031196  0.77879506  0.70122283  1
  Bi2+  Bi120  1  0.88039683  0.01386642  0.19608678  1
  Bi2+  Bi121  1  0.91752122  -0.02809594  0.70366838  1
  Bi2+  Bi122  1  0.79445376  0.23826635  0.20829252  1
  Bi2+  Bi123  1  0.83009630  0.22347243  0.71018848  1
  Bi2+  Bi124  1  0.86750439  0.52013286  0.19604933  1
  Bi2+  Bi125  1  0.86987609  0.46553451  0.69594523  1
  Bi2+  Bi126  1  0.87587743  0.77821225  0.25999917  1
  Bi2+  Bi127  1  0.92685762  0.72465421  0.70615926  1
  S2-  S128  1  -0.02348502  0.14165534  0.15692383  1
  S2-  S129  1  0.10716775  0.15135751  0.64939860  1
  S2-  S130  1  0.01360157  0.38735350  0.17659989  1
  S2-  S131  1  -0.05541862  0.31873519  0.65524778  1
  S2-  S132  1  -0.01495323  0.62512488  0.15855744  1
  S2-  S133  1  0.00886387  0.51297951  0.63995312  1
  S2-  S134  1  -0.01027296  0.91720680  0.15541903  1
  S2-  S135  1  0.06214724  0.91211415  0.65435306  1
  S2-  S136  1  0.26686458  0.20252837  0.14427974  1
  S2-  S137  1  0.25273791  0.01488914  0.64761930  1
  S2-  S138  1  0.20694345  0.39531283  0.17048927  1
  S2-  S139  1  0.22158493  0.39406624  0.65567588  1
  S2-  S140  1  0.25604366  0.60377525  0.15874111  1
  S2-  S141  1  0.34166925  0.61361923  0.64289964  1
  S2-  S142  1  0.23488360  0.97939268  0.13802129  1
  S2-  S143  1  0.31379654  0.82678894  0.66301519  1
  S2-  S144  1  0.47995824  0.08704252  0.15667669  1
  S2-  S145  1  0.43333721  0.11597815  0.65628006  1
  S2-  S146  1  0.40555604  0.38010566  0.14084273  1
  S2-  S147  1  0.49406810  0.46837139  0.64529889  1
  S2-  S148  1  0.50644909  0.65166445  0.15700236  1
  S2-  S149  1  0.60539292  0.65322446  0.64526987  1
  S2-  S150  1  0.55168001  0.87022466  0.15619300  1
  S2-  S151  1  0.54019791  0.89450361  0.65573737  1
  S2-  S152  1  0.73848779  0.09134760  0.14962385  1
  S2-  S153  1  0.86583579  0.10684920  0.64006180  1
  S2-  S154  1  0.83029554  0.37121638  0.14184341  1
  S2-  S155  1  0.72808530  0.40974751  0.66193547  1
  S2-  S156  1  0.74952386  0.61389680  0.15802938  1
  S2-  S157  1  0.81863856  0.60933859  0.66349851  1
  S2-  S158  1  0.76753277  0.83922589  0.15700434  1
  S2-  S159  1  0.77414537  0.88052491  0.66239732  1
  S2-  S160  1  0.15964148  0.08846822  0.34877470  1
  S2-  S161  1  0.20845737  -0.01831593  0.83977143  1
  S2-  S162  1  0.12514265  0.24261792  0.27444602  1
  S2-  S163  1  0.08463708  0.22574128  0.85353075  1
  S2-  S164  1  0.13380607  0.41054783  0.33420316  1
  S2-  S165  1  0.02344698  0.48341453  0.85916794  1
  S2-  S166  1  0.11084991  0.67143875  0.36178338  1
  S2-  S167  1  0.10426432  0.75707113  0.84897978  1
  S2-  S168  1  0.46556549  0.01607359  0.35764967  1
  S2-  S169  1  0.44170689  0.00511659  0.79383811  1
  S2-  S170  1  0.31955844  0.25251117  0.35159279  1
  S2-  S171  1  0.34391781  0.16658908  0.84941962  1
  S2-  S172  1  0.30415862  0.54359882  0.34168607  1
  S2-  S173  1  0.38220076  0.61783292  0.85630062  1
  S2-  S174  1  0.44592827  0.75803482  0.35136913  1
  S2-  S175  1  0.37267972  0.83582685  0.84943488  1
  S2-  S176  1  0.63614099  -0.12022447  0.35279276  1
  S2-  S177  1  0.64305613  -0.03300183  0.84054716  1
  S2-  S178  1  0.73203437  0.25664155  0.36261301  1
  S2-  S179  1  0.58681751  0.24873866  0.84554544  1
  S2-  S180  1  0.74708311  0.49301551  0.35769498  1
  S2-  S181  1  0.58806614  0.50164627  0.85464328  1
  S2-  S182  1  0.62270576  0.64250541  0.35412053  1
  S2-  S183  1  0.62235935  0.72848127  0.83819212  1
  S2-  S184  1  0.96738555  -0.00772778  0.35656998  1
  S2-  S185  1  0.99446540  -0.00529982  0.85433453  1
  S2-  S186  1  0.96630734  0.24436969  0.34918088  1
  S2-  S187  1  0.86296588  0.34892427  0.85994752  1
  S2-  S188  1  0.96184521  0.50325408  0.34748873  1
  S2-  S189  1  0.84705433  0.60918713  0.85171425  1
  S2-  S190  1  0.85545478  0.71115109  0.35677283  1
  S2-  S191  1  0.84713154  0.84858275  0.84948478  1
  S2-  S192  1  -0.01556106  0.12903334  0.45884505  1
  S2-  S193  1  -0.01027158  0.11396118  0.95549388  1
  S2-  S194  1  -0.01229878  0.38428659  0.45364432  1
  S2-  S195  1  -0.00683316  0.35372904  0.96545617  1
  S2-  S196  1  -0.01251154  0.63453034  0.46407149  1
  S2-  S197  1  -0.00457845  0.61046085  0.95629535  1
  S2-  S198  1  -0.01191563  0.87278850  0.46044736  1
  S2-  S199  1  -0.00879287  0.85632113  0.95441134  1
  S2-  S200  1  0.23940419  0.13371699  0.46051654  1
  S2-  S201  1  0.24075221  0.10985866  0.95598752  1
  S2-  S202  1  0.23933820  0.37941369  0.44735246  1
  S2-  S203  1  0.24479850  0.35454440  0.95805703  1
  S2-  S204  1  0.24254343  0.62839056  0.45737400  1
  S2-  S205  1  0.23941661  0.60775159  0.95309696  1
  S2-  S206  1  0.23745288  0.88178012  0.45834639  1
  S2-  S207  1  0.24097031  0.86155061  0.95580222  1
  S2-  S208  1  0.49137637  0.13371723  0.45559064  1
  S2-  S209  1  0.49067754  0.10775135  0.94630812  1
  S2-  S210  1  0.49294901  0.37805902  0.45164560  1
  S2-  S211  1  0.49179621  0.35672054  0.95225281  1
  S2-  S212  1  0.48487035  0.62676255  0.45782268  1
  S2-  S213  1  0.49436898  0.60725184  0.95908329  1
  S2-  S214  1  0.48357765  0.88424522  0.45760023  1
  S2-  S215  1  0.49543377  0.85982277  0.95387321  1
  S2-  S216  1  0.73628839  0.12107679  0.45710312  1
  S2-  S217  1  0.74282495  0.11104360  0.94683972  1
  S2-  S218  1  0.73845490  0.38123150  0.45804726  1
  S2-  S219  1  0.73688067  0.35758010  0.95466955  1
  S2-  S220  1  0.73732427  0.63525129  0.46351252  1
  S2-  S221  1  0.73861467  0.60419271  0.95447274  1
  S2-  S222  1  0.74019648  0.87881752  0.45623078  1
  S2-  S223  1  0.74066744  0.85738170  0.95280681  1
  S2-  S224  1  0.11021334  -0.01580802  0.03925372  1
  S2-  S225  1  0.11301590  0.00373428  0.54319068  1
  S2-  S226  1  0.11453737  0.23497767  0.05438642  1
  S2-  S227  1  0.11451130  0.25977452  0.54949277  1
  S2-  S228  1  0.11934026  0.47768801  0.05233102  1
  S2-  S229  1  0.11835693  0.51193815  0.53749320  1
  S2-  S230  1  0.11963606  0.73361164  0.05442977  1
  S2-  S231  1  0.11562261  0.75245289  0.55790436  1
  S2-  S232  1  0.37153607  -0.02096199  0.04576884  1
  S2-  S233  1  0.36496599  0.00533392  0.54373121  1
  S2-  S234  1  0.37058821  0.23283223  0.04230876  1
  S2-  S235  1  0.36358403  0.25386917  0.55369325  1
  S2-  S236  1  0.36786196  0.48469268  0.03844684  1
  S2-  S237  1  0.36480965  0.50148569  0.53858856  1
  S2-  S238  1  0.36664250  0.73308664  0.04887545  1
  S2-  S239  1  0.36350091  0.75721505  0.54659365  1
  S2-  S240  1  0.61924457  -0.01880303  0.04467148  1
  S2-  S241  1  0.61196089  0.00426982  0.54290229  1
  S2-  S242  1  0.61899825  0.23227298  0.04658550  1
  S2-  S243  1  0.61726319  0.25110274  0.54673463  1
  S2-  S244  1  0.61715975  0.48579098  0.05562020  1
  S2-  S245  1  0.61362883  0.50410406  0.54080308  1
  S2-  S246  1  0.61813477  0.72912425  0.04685075  1
  S2-  S247  1  0.60446122  0.75891317  0.54105373  1
  S2-  S248  1  0.86808768  -0.01729968  0.03933457  1
  S2-  S249  1  0.86189763  -0.00442953  0.54377246  1
  S2-  S250  1  0.86778525  0.23134761  0.04264513  1
  S2-  S251  1  0.85951873  0.25517341  0.54183810  1
  S2-  S252  1  0.86540648  0.48629554  0.03934071  1
  S2-  S253  1  0.85987369  0.51021221  0.54652097  1
  S2-  S254  1  0.86632130  0.73067574  0.04334778  1
  S2-  S255  1  0.86388450  0.75387879  0.55698822  1
