# generated using pymatgen
data_La12Ce14Pr13Nd13Sm12(BiS2)64
_symmetry_space_group_name_H-M   'P 1'
_cell_length_a   16.10048518
_cell_length_b   16.15054872
_cell_length_c   27.28311425
_cell_angle_alpha   90.04516231
_cell_angle_beta   90.28962641
_cell_angle_gamma   90.06817811
_symmetry_Int_Tables_number   1
_chemical_formula_structural   La12Ce14Pr13Nd13Sm12(BiS2)64
_chemical_formula_sum   'La12 Ce14 Pr13 Nd13 Sm12 Bi64 S128'
_cell_volume   7094.37586976
_cell_formula_units_Z   1
loop_
 _symmetry_equiv_pos_site_id
 _symmetry_equiv_pos_as_xyz
  1  'x, y, z'
loop_
 _atom_type_symbol
 _atom_type_oxidation_number
  La3+  3.0
  Ce3+  3.0
  Pr3+  3.0
  Nd3+  3.0
  Sm3+  3.0
  Bi2+  2.0
  S2-  -2.0
loop_
 _atom_site_type_symbol
 _atom_site_label
 _atom_site_symmetry_multiplicity
 _atom_site_fract_x
 _atom_site_fract_y
 _atom_site_fract_z
 _atom_site_occupancy
  La3+  La0  1  0.60597718  0.50759167  0.40388578  1
  La3+  La1  1  0.62573454  0.74811314  0.93531109  1
  La3+  La2  1  0.37995131  0.49568063  0.89092730  1
  La3+  La3  1  0.00827376  0.61965999  0.07456130  1
  La3+  La4  1  0.37904014  0.24483238  0.92905565  1
  La3+  La5  1  -0.01551463  0.62969569  0.59392168  1
  La3+  La6  1  0.50983773  0.62857077  0.07664051  1
  La3+  La7  1  0.87364706  -0.00131756  0.41714924  1
  La3+  La8  1  0.11307538  0.49550681  0.44600017  1
  La3+  La9  1  0.49624089  0.62683879  0.57937740  1
  La3+  La10  1  0.87794533  0.25104328  0.93807095  1
  La3+  La11  1  0.85817460  0.25214179  0.42321860  1
  Ce3+  Ce12  1  0.24158185  0.62233033  0.56470855  1
  Ce3+  Ce13  1  0.74781535  0.62251898  0.55503109  1
  Ce3+  Ce14  1  0.75242313  0.12385334  0.05858887  1
  Ce3+  Ce15  1  0.75449902  0.37381431  0.06271441  1
  Ce3+  Ce16  1  0.61785576  -0.00421185  0.43628584  1
  Ce3+  Ce17  1  0.61577161  0.74508400  0.44057614  1
  Ce3+  Ce18  1  0.11917927  -0.00302595  0.44098392  1
  Ce3+  Ce19  1  0.25279586  0.37756639  0.04248823  1
  Ce3+  Ce20  1  0.37538196  0.25022931  0.43867959  1
  Ce3+  Ce21  1  0.37052622  0.49982708  0.44974790  1
  Ce3+  Ce22  1  0.24527749  0.87316029  0.55537286  1
  Ce3+  Ce23  1  0.88215054  0.50086165  0.94438433  1
  Ce3+  Ce24  1  0.13442201  0.74762984  0.93721993  1
  Ce3+  Ce25  1  0.49780878  0.37536599  0.56553391  1
  Pr3+  Pr26  1  -0.00683292  0.12372286  0.56346134  1
  Pr3+  Pr27  1  -0.01421635  0.36770670  0.58042468  1
  Pr3+  Pr28  1  -0.00678718  0.87715649  0.56226388  1
  Pr3+  Pr29  1  0.86992178  0.49413330  0.43516087  1
  Pr3+  Pr30  1  0.12028699  0.50668061  0.91827405  1
  Pr3+  Pr31  1  0.62680480  -0.00201501  0.92902591  1
  Pr3+  Pr32  1  0.11761298  0.24597478  0.44386144  1
  Pr3+  Pr33  1  0.75630751  0.87850014  0.05692229  1
  Pr3+  Pr34  1  0.25288050  0.87687412  0.06555475  1
  Pr3+  Pr35  1  0.12293048  0.25042724  0.92659533  1
  Pr3+  Pr36  1  0.37444156  -0.00413874  0.43175474  1
  Pr3+  Pr37  1  0.01670875  0.37322819  0.07080697  1
  Pr3+  Pr38  1  0.13277077  -0.00253851  0.93397745  1
  Nd3+  Nd39  1  0.74358353  0.12269366  0.55719763  1
  Nd3+  Nd40  1  0.74729180  0.87325414  0.55064229  1
  Nd3+  Nd41  1  0.50579678  0.87789409  0.06438128  1
  Nd3+  Nd42  1  0.49214421  0.12526059  0.56301899  1
  Nd3+  Nd43  1  0.75941423  0.62423242  0.06676039  1
  Nd3+  Nd44  1  0.36930865  0.74274370  0.44404258  1
  Nd3+  Nd45  1  0.74602823  0.37537604  0.55288235  1
  Nd3+  Nd46  1  0.88044785  0.74738951  0.93686645  1
  Nd3+  Nd47  1  0.24376759  0.37360594  0.56509153  1
  Nd3+  Nd48  1  0.86815485  0.73642285  0.42927895  1
  Nd3+  Nd49  1  0.49952881  0.38066079  0.06552765  1
  Nd3+  Nd50  1  0.62410449  0.25233316  0.95015546  1
  Nd3+  Nd51  1  0.25166343  0.62176285  0.05725946  1
  Sm3+  Sm52  1  0.62344528  0.50631774  0.93894084  1
  Sm3+  Sm53  1  0.37870468  0.00100517  0.93939121  1
  Sm3+  Sm54  1  0.11598435  0.74727928  0.44894013  1
  Sm3+  Sm55  1  0.38056107  0.74448555  0.94346747  1
  Sm3+  Sm56  1  0.49517144  0.12695002  0.06604960  1
  Sm3+  Sm57  1  0.88134049  0.00068040  0.94598742  1
  Sm3+  Sm58  1  0.25276188  0.12764565  0.06061850  1
  Sm3+  Sm59  1  0.49599536  0.87226057  0.56548435  1
  Sm3+  Sm60  1  0.01196939  0.13146967  0.06751343  1
  Sm3+  Sm61  1  0.24881433  0.12296674  0.55336412  1
  Sm3+  Sm62  1  0.00626750  0.87511912  0.05122203  1
  Sm3+  Sm63  1  0.61336359  0.25133543  0.43833227  1
  Bi2+  Bi64  1  0.01771348  0.12980110  0.29171477  1
  Bi2+  Bi65  1  -0.04633889  0.10603569  0.78291856  1
  Bi2+  Bi66  1  0.01339899  0.38437686  0.28780159  1
  Bi2+  Bi67  1  0.03858278  0.35990879  0.80204711  1
  Bi2+  Bi68  1  0.00200413  0.64752532  0.30764043  1
  Bi2+  Bi69  1  -0.01598384  0.62928407  0.79281297  1
  Bi2+  Bi70  1  -0.04217438  0.92283334  0.27154367  1
  Bi2+  Bi71  1  0.00007487  0.91092746  0.79284708  1
  Bi2+  Bi72  1  0.23303414  0.19111362  0.29581577  1
  Bi2+  Bi73  1  0.24440048  0.04637934  0.78371518  1
  Bi2+  Bi74  1  0.27894651  0.38442648  0.27495520  1
  Bi2+  Bi75  1  0.27062579  0.34073523  0.77158572  1
  Bi2+  Bi76  1  0.27062529  0.65997860  0.30419856  1
  Bi2+  Bi77  1  0.22845632  0.72893411  0.78564449  1
  Bi2+  Bi78  1  0.25018351  0.98540070  0.30452179  1
  Bi2+  Bi79  1  0.27579845  0.88158382  0.84793132  1
  Bi2+  Bi80  1  0.41329308  0.11804020  0.31254047  1
  Bi2+  Bi81  1  0.50586390  0.06055312  0.80678097  1
  Bi2+  Bi82  1  0.47853711  0.37912518  0.29114935  1
  Bi2+  Bi83  1  0.52936425  0.34423676  0.78238821  1
  Bi2+  Bi84  1  0.47325501  0.63986678  0.29339172  1
  Bi2+  Bi85  1  0.51361755  0.60488188  0.79273419  1
  Bi2+  Bi86  1  0.54745639  0.90526534  0.27019041  1
  Bi2+  Bi87  1  0.46451175  0.86559370  0.80080894  1
  Bi2+  Bi88  1  0.73492958  0.11958571  0.28669561  1
  Bi2+  Bi89  1  0.69136828  0.11757795  0.80491406  1
  Bi2+  Bi90  1  0.76261751  0.34917105  0.27955893  1
  Bi2+  Bi91  1  0.79198331  0.37115162  0.78957719  1
  Bi2+  Bi92  1  0.78095969  0.69026466  0.27818569  1
  Bi2+  Bi93  1  0.74370354  0.64176872  0.77630161  1
  Bi2+  Bi94  1  0.74238084  0.88240722  0.27957206  1
  Bi2+  Bi95  1  0.72886144  0.92597554  0.78955738  1
  Bi2+  Bi96  1  0.11664259  -0.01357009  0.21009962  1
  Bi2+  Bi97  1  0.02716835  0.00133255  0.67460041  1
  Bi2+  Bi98  1  0.14385758  0.24941811  0.19476435  1
  Bi2+  Bi99  1  0.13922428  0.14813457  0.70568660  1
  Bi2+  Bi100  1  0.13308522  0.50385516  0.20502737  1
  Bi2+  Bi101  1  0.15834045  0.51197313  0.71303167  1
  Bi2+  Bi102  1  0.17789337  0.81455036  0.25511312  1
  Bi2+  Bi103  1  0.11435634  0.83583196  0.71821169  1
  Bi2+  Bi104  1  0.36270902  0.00521657  0.20458911  1
  Bi2+  Bi105  1  0.36525949  -0.04286602  0.71096362  1
  Bi2+  Bi106  1  0.39654427  0.27649853  0.20375577  1
  Bi2+  Bi107  1  0.42016418  0.18931291  0.71073440  1
  Bi2+  Bi108  1  0.32495506  0.55372716  0.21535860  1
  Bi2+  Bi109  1  0.39356493  0.47791205  0.68871259  1
  Bi2+  Bi110  1  0.39390732  0.80895269  0.22240038  1
  Bi2+  Bi111  1  0.37067346  0.75036834  0.71078588  1
  Bi2+  Bi112  1  0.55224380  0.01434363  0.17496220  1
  Bi2+  Bi113  1  0.56509744  -0.04080655  0.70674977  1
  Bi2+  Bi114  1  0.56152871  0.17647455  0.23740712  1
  Bi2+  Bi115  1  0.67817096  0.25686183  0.72035884  1
  Bi2+  Bi116  1  0.60714002  0.48172154  0.20066711  1
  Bi2+  Bi117  1  0.66760263  0.47128690  0.72282136  1
  Bi2+  Bi118  1  0.63584684  0.75369387  0.20690117  1
  Bi2+  Bi119  1  0.63735445  0.77696526  0.71810644  1
  Bi2+  Bi120  1  0.83761093  0.02486469  0.19617178  1
  Bi2+  Bi121  1  0.83579689  0.00116679  0.70235506  1
  Bi2+  Bi122  1  0.88358883  0.21686179  0.22044409  1
  Bi2+  Bi123  1  0.87813571  0.24468367  0.71204632  1
  Bi2+  Bi124  1  0.85944787  0.51821016  0.21306645  1
  Bi2+  Bi125  1  0.88375841  0.48591215  0.70653005  1
  Bi2+  Bi126  1  0.89833267  0.78855867  0.19544787  1
  Bi2+  Bi127  1  0.85166139  0.75835308  0.70859829  1
  S2-  S128  1  -0.00531606  0.24706147  0.14395550  1
  S2-  S129  1  0.00664825  0.22443084  0.64559239  1
  S2-  S130  1  -0.01325390  0.47131726  0.15717202  1
  S2-  S131  1  0.03512083  0.42255581  0.67848842  1
  S2-  S132  1  -0.12262675  0.64264450  0.14396063  1
  S2-  S133  1  0.04927649  0.62108219  0.69280139  1
  S2-  S134  1  0.02760859  0.86258578  0.14812069  1
  S2-  S135  1  -0.02606773  0.78790805  0.64783423  1
  S2-  S136  1  0.14130013  0.10619441  0.13822427  1
  S2-  S137  1  0.28082038  0.13551827  0.64960257  1
  S2-  S138  1  0.18522802  0.37434326  0.13337838  1
  S2-  S139  1  0.24742383  0.37655904  0.66557861  1
  S2-  S140  1  0.14815645  0.62542179  0.14034464  1
  S2-  S141  1  0.28764724  0.61444810  0.65930724  1
  S2-  S142  1  0.26072515  0.83627007  0.16313444  1
  S2-  S143  1  0.25348656  0.86091249  0.65284375  1
  S2-  S144  1  0.36691433  0.13521220  0.13785199  1
  S2-  S145  1  0.53453939  0.11212739  0.65958152  1
  S2-  S146  1  0.54148069  0.33241933  0.16082212  1
  S2-  S147  1  0.46790295  0.32301631  0.65824475  1
  S2-  S148  1  0.46834815  0.53062051  0.16060221  1
  S2-  S149  1  0.53951343  0.55189376  0.67106342  1
  S2-  S150  1  0.49794797  0.77082434  0.14351696  1
  S2-  S151  1  0.50075665  0.76835512  0.64596374  1
  S2-  S152  1  0.75238657  0.15463338  0.15473594  1
  S2-  S153  1  0.76603754  0.13586987  0.65645066  1
  S2-  S154  1  0.75844191  0.41017320  0.16063779  1
  S2-  S155  1  0.83469052  0.37398910  0.63935018  1
  S2-  S156  1  0.65476259  0.61953699  0.14710868  1
  S2-  S157  1  0.82414280  0.62169868  0.64361599  1
  S2-  S158  1  0.74836077  0.86843643  0.15689567  1
  S2-  S159  1  0.74871971  0.86495570  0.65057891  1
  S2-  S160  1  0.03161882  -0.00724682  0.35762538  1
  S2-  S161  1  0.09569775  0.03777689  0.83821965  1
  S2-  S162  1  0.08256029  0.27236666  0.34562736  1
  S2-  S163  1  0.17582817  0.25569387  0.82731774  1
  S2-  S164  1  0.08385923  0.50930106  0.34550463  1
  S2-  S165  1  0.17199782  0.46318679  0.82053823  1
  S2-  S166  1  0.13038252  0.74228560  0.35058783  1
  S2-  S167  1  0.11091170  0.66149559  0.85334724  1
  S2-  S168  1  0.50139340  -0.01143913  0.36032548  1
  S2-  S169  1  0.37012160  0.10700162  0.85902019  1
  S2-  S170  1  0.48816249  0.25980202  0.36371055  1
  S2-  S171  1  0.38761128  0.33317507  0.84188484  1
  S2-  S172  1  0.43928238  0.50738991  0.36045765  1
  S2-  S173  1  0.36917786  0.51392382  0.78127539  1
  S2-  S174  1  0.39448847  0.76626374  0.34662674  1
  S2-  S175  1  0.41393508  0.66348616  0.85795244  1
  S2-  S176  1  0.72730119  -0.00540128  0.35648918  1
  S2-  S177  1  0.61746854  -0.13211328  0.85797702  1
  S2-  S178  1  0.71149945  0.25154962  0.35561837  1
  S2-  S179  1  0.60284451  0.24200441  0.85199174  1
  S2-  S180  1  0.64631503  0.45463390  0.30633362  1
  S2-  S181  1  0.54506070  0.46637663  0.85199246  1
  S2-  S182  1  0.60627461  0.66626744  0.35303076  1
  S2-  S183  1  0.64670696  0.63130130  0.86003666  1
  S2-  S184  1  0.88242022  0.13455508  0.34754436  1
  S2-  S185  1  0.87045259  -0.00918452  0.84830534  1
  S2-  S186  1  0.88662922  0.38341381  0.35219823  1
  S2-  S187  1  0.97886596  0.23914910  0.85697599  1
  S2-  S188  1  0.86106410  0.60156825  0.35289357  1
  S2-  S189  1  0.96283064  0.49242990  0.85667488  1
  S2-  S190  1  0.92090302  0.79282827  0.33878196  1
  S2-  S191  1  0.87308026  0.72769425  0.83717963  1
  S2-  S192  1  -0.00483309  0.12247080  0.45706976  1
  S2-  S193  1  0.00399009  0.12030819  0.95938539  1
  S2-  S194  1  -0.00659568  0.36820775  0.46334073  1
  S2-  S195  1  0.00402979  0.37487525  0.95869871  1
  S2-  S196  1  -0.00391953  0.62469880  0.45612469  1
  S2-  S197  1  0.00254712  0.62825314  0.96054800  1
  S2-  S198  1  -0.00586588  0.86986753  0.45631503  1
  S2-  S199  1  0.00433872  0.87358665  0.94600588  1
  S2-  S200  1  0.24876263  0.12223913  0.44796052  1
  S2-  S201  1  0.24911162  0.12414187  0.95526863  1
  S2-  S202  1  0.24566348  0.37279028  0.45439224  1
  S2-  S203  1  0.25363899  0.37982817  0.93913926  1
  S2-  S204  1  0.24143063  0.62238315  0.45711035  1
  S2-  S205  1  0.25804593  0.62054304  0.94927024  1
  S2-  S206  1  0.24557307  0.87083838  0.44892156  1
  S2-  S207  1  0.25790142  0.87352993  0.95974093  1
  S2-  S208  1  0.49461440  0.12283709  0.45913836  1
  S2-  S209  1  0.50596455  0.12101059  0.96081785  1
  S2-  S210  1  0.49829401  0.38127942  0.46117077  1
  S2-  S211  1  0.50143211  0.37692361  0.95805950  1
  S2-  S212  1  0.49454978  0.62262124  0.46564131  1
  S2-  S213  1  0.50496811  0.62440853  0.96533090  1
  S2-  S214  1  0.49266112  0.86796019  0.46180095  1
  S2-  S215  1  0.49712643  0.87662656  0.95814148  1
  S2-  S216  1  0.73791751  0.12268863  0.45409528  1
  S2-  S217  1  0.75287292  0.12269618  0.95101488  1
  S2-  S218  1  0.72799368  0.38634686  0.44959555  1
  S2-  S219  1  0.75020195  0.37758818  0.95143993  1
  S2-  S220  1  0.73678165  0.61771411  0.45158029  1
  S2-  S221  1  0.75866577  0.62336207  0.96044180  1
  S2-  S222  1  0.74582929  0.86527600  0.44661003  1
  S2-  S223  1  0.75899752  0.87699388  0.95113836  1
  S2-  S224  1  0.12844027  -0.00271063  0.04098869  1
  S2-  S225  1  0.12405531  0.00090328  0.54695569  1
  S2-  S226  1  0.13123582  0.24663290  0.03464793  1
  S2-  S227  1  0.12668823  0.24662865  0.54883249  1
  S2-  S228  1  0.12886591  0.50077771  0.03241738  1
  S2-  S229  1  0.11476962  0.49870539  0.55636344  1
  S2-  S230  1  0.12978789  0.75385560  0.04233204  1
  S2-  S231  1  0.11796076  0.74611335  0.55380613  1
  S2-  S232  1  0.37808736  -0.00117783  0.04387947  1
  S2-  S233  1  0.37261759  -0.00358542  0.54546121  1
  S2-  S234  1  0.37824613  0.25243761  0.03942011  1
  S2-  S235  1  0.36949347  0.25038784  0.54486830  1
  S2-  S236  1  0.37423574  0.49999288  0.05282918  1
  S2-  S237  1  0.36973087  0.49839398  0.55437037  1
  S2-  S238  1  0.37470488  0.75012392  0.04700575  1
  S2-  S239  1  0.36733638  0.74807229  0.54915453  1
  S2-  S240  1  0.62662110  0.00242481  0.04113453  1
  S2-  S241  1  0.61719305  -0.00439124  0.54745357  1
  S2-  S242  1  0.62440801  0.24736979  0.05403822  1
  S2-  S243  1  0.61998649  0.24898620  0.54804160  1
  S2-  S244  1  0.63071066  0.49538581  0.04565022  1
  S2-  S245  1  0.62325590  0.49907309  0.55802134  1
  S2-  S246  1  0.63383888  0.75604913  0.04345821  1
  S2-  S247  1  0.62247568  0.74963433  0.54671235  1
  S2-  S248  1  0.88563486  0.00382063  0.05064612  1
  S2-  S249  1  0.86842128  -0.00024617  0.54238063  1
  S2-  S250  1  0.87680450  0.24862751  0.04493115  1
  S2-  S251  1  0.86485458  0.24536067  0.53734741  1
  S2-  S252  1  0.88018483  0.49404366  0.04735971  1
  S2-  S253  1  0.87467443  0.50108003  0.54251079  1
  S2-  S254  1  0.88223595  0.75489208  0.04282462  1
  S2-  S255  1  0.86985418  0.74816324  0.53799739  1
