# generated using pymatgen
data_La12Ce14Pr13Nd13Sm12(BiS2)64
_symmetry_space_group_name_H-M   'P 1'
_cell_length_a   16.17532676
_cell_length_b   16.19608451
_cell_length_c   27.10939537
_cell_angle_alpha   90.10211514
_cell_angle_beta   90.12683297
_cell_angle_gamma   90.04350505
_symmetry_Int_Tables_number   1
_chemical_formula_structural   La12Ce14Pr13Nd13Sm12(BiS2)64
_chemical_formula_sum   'La12 Ce14 Pr13 Nd13 Sm12 Bi64 S128'
_cell_volume   7102.00621440
_cell_formula_units_Z   1
loop_
 _symmetry_equiv_pos_site_id
 _symmetry_equiv_pos_as_xyz
  1  'x, y, z'
loop_
 _atom_type_symbol
 _atom_type_oxidation_number
  La3+  3.0
  Ce3+  3.0
  Pr3+  3.0
  Nd3+  3.0
  Sm3+  3.0
  Bi2+  2.0
  S2-  -2.0
loop_
 _atom_site_type_symbol
 _atom_site_label
 _atom_site_symmetry_multiplicity
 _atom_site_fract_x
 _atom_site_fract_y
 _atom_site_fract_z
 _atom_site_occupancy
  La3+  La0  1  0.00413766  0.89564614  0.58523517  1
  La3+  La1  1  0.37164867  -0.00796708  0.92657666  1
  La3+  La2  1  0.50787627  0.14340541  0.58631675  1
  La3+  La3  1  0.50995536  0.62488690  0.07751800  1
  La3+  La4  1  0.37815906  0.25633606  0.89422118  1
  La3+  La5  1  -0.00423719  0.12941360  0.10268158  1
  La3+  La6  1  0.62102792  0.50013226  0.93462224  1
  La3+  La7  1  0.87804538  0.00715663  0.93239513  1
  La3+  La8  1  0.86562096  0.26082715  0.41203706  1
  La3+  La9  1  0.49920454  0.37378790  0.06727225  1
  La3+  La10  1  0.87913493  0.75142295  0.89166460  1
  La3+  La11  1  0.50255211  0.88131372  0.56760480  1
  Ce3+  Ce12  1  -0.00200603  0.87465925  0.05368575  1
  Ce3+  Ce13  1  0.37615030  0.50634097  0.42969681  1
  Ce3+  Ce14  1  0.12610405  0.74981475  0.94006895  1
  Ce3+  Ce15  1  0.37618358  0.00487099  0.44674997  1
  Ce3+  Ce16  1  -0.00311565  0.38025673  0.55721666  1
  Ce3+  Ce17  1  0.38012910  0.25564910  0.43909583  1
  Ce3+  Ce18  1  0.12265296  0.25740531  0.44079191  1
  Ce3+  Ce19  1  0.62098364  0.75544357  0.44131807  1
  Ce3+  Ce20  1  0.37741925  0.50114398  0.94290394  1
  Ce3+  Ce21  1  -0.00262193  0.13654225  0.55378859  1
  Ce3+  Ce22  1  0.50140620  0.87482463  0.05623244  1
  Ce3+  Ce23  1  0.75179906  0.12390348  0.05851546  1
  Ce3+  Ce24  1  0.13111234  0.24969841  0.94188386  1
  Ce3+  Ce25  1  0.75251096  0.88234355  0.56097294  1
  Pr3+  Pr26  1  0.87257901  0.00663086  0.44222228  1
  Pr3+  Pr27  1  0.25224506  0.13549601  0.55672955  1
  Pr3+  Pr28  1  0.75401564  0.37963089  0.56175154  1
  Pr3+  Pr29  1  0.25406254  0.88393467  0.56640959  1
  Pr3+  Pr30  1  0.87358269  0.49973692  0.93365213  1
  Pr3+  Pr31  1  0.12105054  0.75837686  0.44952787  1
  Pr3+  Pr32  1  0.24757861  0.12356547  0.06162136  1
  Pr3+  Pr33  1  0.62165116  0.24934188  0.94099436  1
  Pr3+  Pr34  1  0.37758875  0.76829668  0.39851351  1
  Pr3+  Pr35  1  0.49976141  0.39299813  0.56782120  1
  Pr3+  Pr36  1  0.24918531  0.63448191  0.55344500  1
  Pr3+  Pr37  1  0.24812620  0.37599014  0.06187497  1
  Pr3+  Pr38  1  0.62741357  0.74945509  0.93182459  1
  Nd3+  Nd39  1  0.25016555  0.38525405  0.55274311  1
  Nd3+  Nd40  1  0.12373297  0.51150941  0.43476286  1
  Nd3+  Nd41  1  0.25055845  0.62587734  0.06135535  1
  Nd3+  Nd42  1  0.75345731  0.87760695  0.05392931  1
  Nd3+  Nd43  1  0.12591056  0.50012206  0.94070304  1
  Nd3+  Nd44  1  0.75475381  0.37178706  0.05622673  1
  Nd3+  Nd45  1  0.00138376  0.62213300  0.57936209  1
  Nd3+  Nd46  1  0.25037328  0.87471161  0.06315686  1
  Nd3+  Nd47  1  0.12520718  0.00336355  0.43743863  1
  Nd3+  Nd48  1  0.49624829  0.12372857  0.05258752  1
  Nd3+  Nd49  1  -0.00123813  0.37432282  0.06252493  1
  Nd3+  Nd50  1  0.75377580  0.63417287  0.56270369  1
  Nd3+  Nd51  1  0.62212242  0.00703517  0.44733752  1
  Sm3+  Sm52  1  -0.00304472  0.62681305  0.05159954  1
  Sm3+  Sm53  1  0.62437713  0.00142884  0.93854581  1
  Sm3+  Sm54  1  0.87892744  0.24837194  0.93618505  1
  Sm3+  Sm55  1  0.75139695  0.13870803  0.56117887  1
  Sm3+  Sm56  1  0.49902296  0.62959227  0.55765001  1
  Sm3+  Sm57  1  0.75063254  0.62547557  0.05587638  1
  Sm3+  Sm58  1  0.87427587  0.50773102  0.43903632  1
  Sm3+  Sm59  1  0.12568188  0.00083375  0.94373370  1
  Sm3+  Sm60  1  0.87711283  0.75679417  0.45510344  1
  Sm3+  Sm61  1  0.61841764  0.25978817  0.43831870  1
  Sm3+  Sm62  1  0.62383008  0.50923924  0.44320680  1
  Sm3+  Sm63  1  0.37804403  0.74596356  0.94063246  1
  Bi2+  Bi64  1  0.02850748  0.12726424  0.29609909  1
  Bi2+  Bi65  1  -0.02554121  0.13274784  0.77997460  1
  Bi2+  Bi66  1  0.00636020  0.42837712  0.29134698  1
  Bi2+  Bi67  1  -0.01938655  0.38786754  0.80147317  1
  Bi2+  Bi68  1  -0.04268955  0.60810581  0.32710066  1
  Bi2+  Bi69  1  -0.00634825  0.59542716  0.77131566  1
  Bi2+  Bi70  1  -0.01570238  0.88128948  0.29127476  1
  Bi2+  Bi71  1  0.03765452  0.87747309  0.79009280  1
  Bi2+  Bi72  1  0.26857308  0.12838939  0.23364407  1
  Bi2+  Bi73  1  0.23594717  0.11450643  0.80145301  1
  Bi2+  Bi74  1  0.28574748  0.29458630  0.29229918  1
  Bi2+  Bi75  1  0.23537464  0.43494004  0.78992390  1
  Bi2+  Bi76  1  0.20831720  0.62707704  0.29423202  1
  Bi2+  Bi77  1  0.31183798  0.61810655  0.80023598  1
  Bi2+  Bi78  1  0.24104814  0.88714375  0.29880156  1
  Bi2+  Bi79  1  0.26419393  0.82644878  0.77932499  1
  Bi2+  Bi80  1  0.45932774  0.12023433  0.29761001  1
  Bi2+  Bi81  1  0.51857369  0.12507917  0.78800783  1
  Bi2+  Bi82  1  0.45244520  0.39497949  0.30392168  1
  Bi2+  Bi83  1  0.53233335  0.44166503  0.80469066  1
  Bi2+  Bi84  1  0.57558137  0.63921023  0.28557275  1
  Bi2+  Bi85  1  0.49643673  0.62547576  0.85073530  1
  Bi2+  Bi86  1  0.55494437  0.92673995  0.27245697  1
  Bi2+  Bi87  1  0.51584496  0.80886606  0.80614433  1
  Bi2+  Bi88  1  0.76110602  0.09289845  0.29990576  1
  Bi2+  Bi89  1  0.75955840  0.15310779  0.72657612  1
  Bi2+  Bi90  1  0.72382664  0.38253871  0.29384987  1
  Bi2+  Bi91  1  0.81366816  0.29372884  0.80342513  1
  Bi2+  Bi92  1  0.76395701  0.60718598  0.30421674  1
  Bi2+  Bi93  1  0.73232065  0.60496173  0.78889425  1
  Bi2+  Bi94  1  0.78307440  0.81571700  0.28782562  1
  Bi2+  Bi95  1  0.74733192  0.91548263  0.79643594  1
  Bi2+  Bi96  1  0.11562742  -0.02886267  0.19903461  1
  Bi2+  Bi97  1  0.14159067  0.04137092  0.71139865  1
  Bi2+  Bi98  1  0.13172325  0.32850038  0.21963811  1
  Bi2+  Bi99  1  0.04775930  0.27018173  0.71361401  1
  Bi2+  Bi100  1  0.05944967  0.49976630  0.18772101  1
  Bi2+  Bi101  1  0.13656012  0.44828997  0.69276427  1
  Bi2+  Bi102  1  0.04783009  0.71160600  0.24530368  1
  Bi2+  Bi103  1  0.16620985  0.68979748  0.72186423  1
  Bi2+  Bi104  1  0.40442649  -0.00267051  0.20847576  1
  Bi2+  Bi105  1  0.35356213  -0.01841958  0.71562828  1
  Bi2+  Bi106  1  0.43816005  0.25567592  0.21160769  1
  Bi2+  Bi107  1  0.35754556  0.24566277  0.69669723  1
  Bi2+  Bi108  1  0.35792519  0.50811166  0.20525722  1
  Bi2+  Bi109  1  0.38890878  0.48992871  0.72056857  1
  Bi2+  Bi110  1  0.34758604  0.75343966  0.19683478  1
  Bi2+  Bi111  1  0.40556199  0.72343865  0.71839113  1
  Bi2+  Bi112  1  0.65315638  0.04770650  0.20199553  1
  Bi2+  Bi113  1  0.60958129  -0.08030001  0.72254577  1
  Bi2+  Bi114  1  0.62024146  0.22022277  0.25129549  1
  Bi2+  Bi115  1  0.62410838  0.29700277  0.72011637  1
  Bi2+  Bi116  1  0.63988670  0.50378686  0.20951036  1
  Bi2+  Bi117  1  0.60689007  0.52984308  0.71135746  1
  Bi2+  Bi118  1  0.63965873  0.77552948  0.21274272  1
  Bi2+  Bi119  1  0.60250774  0.72341413  0.71059798  1
  Bi2+  Bi120  1  0.86197848  -0.06024114  0.20500896  1
  Bi2+  Bi121  1  0.88665106  0.00929002  0.70589374  1
  Bi2+  Bi122  1  0.85280038  0.26997048  0.20836016  1
  Bi2+  Bi123  1  0.88269814  0.25467206  0.64449784  1
  Bi2+  Bi124  1  0.86423624  0.48577331  0.20789962  1
  Bi2+  Bi125  1  0.86308805  0.41409672  0.71027003  1
  Bi2+  Bi126  1  0.85234731  0.68549214  0.20875324  1
  Bi2+  Bi127  1  0.85474657  0.75635184  0.69726988  1
  S2-  S128  1  -0.03086337  0.07519289  0.20082517  1
  S2-  S129  1  0.01332754  0.05424655  0.63952362  1
  S2-  S130  1  -0.00972555  0.28667138  0.15018151  1
  S2-  S131  1  -0.00469657  0.47565384  0.64018870  1
  S2-  S132  1  0.00548115  0.64931002  0.14926892  1
  S2-  S133  1  0.00642423  0.67491757  0.67606086  1
  S2-  S134  1  -0.00662091  0.87997343  0.15185635  1
  S2-  S135  1  -0.01295194  0.87403449  0.68795285  1
  S2-  S136  1  0.16092910  0.12253102  0.14975694  1
  S2-  S137  1  0.23282291  0.14604467  0.65749412  1
  S2-  S138  1  0.26205393  0.38518327  0.16313094  1
  S2-  S139  1  0.28630549  0.38527886  0.65047605  1
  S2-  S140  1  0.24915624  0.62467530  0.16225127  1
  S2-  S141  1  0.22129787  0.59707749  0.65107386  1
  S2-  S142  1  0.22087401  0.86868595  0.16237111  1
  S2-  S143  1  0.21568925  0.90328029  0.66412788  1
  S2-  S144  1  0.49945124  0.11633609  0.15290143  1
  S2-  S145  1  0.45003667  0.09991759  0.68360301  1
  S2-  S146  1  0.50003182  0.43867166  0.16128739  1
  S2-  S147  1  0.50531829  0.29236490  0.65062734  1
  S2-  S148  1  0.44874479  0.63664396  0.17310102  1
  S2-  S149  1  0.48091349  0.52611572  0.63628246  1
  S2-  S150  1  0.46164734  0.86316139  0.15163468  1
  S2-  S151  1  0.46102058  0.89214089  0.66593021  1
  S2-  S152  1  0.80009035  0.14970332  0.15101912  1
  S2-  S153  1  0.66080982  0.13592738  0.64540099  1
  S2-  S154  1  0.74342051  0.38006341  0.15611740  1
  S2-  S155  1  0.69831811  0.39977889  0.65811550  1
  S2-  S156  1  0.65904494  0.62952561  0.14052647  1
  S2-  S157  1  0.79247176  0.62348814  0.66015071  1
  S2-  S158  1  0.71055255  0.89893667  0.15086460  1
  S2-  S159  1  0.75462794  0.89088616  0.65927552  1
  S2-  S160  1  0.14484386  0.00810273  0.33749057  1
  S2-  S161  1  0.14139082  -0.00533078  0.84424795  1
  S2-  S162  1  0.10339378  0.24675206  0.34395916  1
  S2-  S163  1  0.20236988  0.25546314  0.85331028  1
  S2-  S164  1  0.15736008  0.49355876  0.33642716  1
  S2-  S165  1  0.10328278  0.51369187  0.84159105  1
  S2-  S166  1  0.16093536  0.76508907  0.35165263  1
  S2-  S167  1  0.12835817  0.75989357  0.84175452  1
  S2-  S168  1  0.36809526  -0.06673133  0.35721666  1
  S2-  S169  1  0.39513574  0.04654696  0.83031048  1
  S2-  S170  1  0.49333977  0.24892921  0.36529776  1
  S2-  S171  1  0.37794315  0.22919532  0.78986447  1
  S2-  S172  1  0.37790493  0.53594294  0.33179605  1
  S2-  S173  1  0.37394793  0.41888379  0.85544875  1
  S2-  S174  1  0.34159253  0.74203362  0.29816130  1
  S2-  S175  1  0.36553911  0.84451615  0.86000643  1
  S2-  S176  1  0.64615502  -0.00273052  0.34744595  1
  S2-  S177  1  0.63929245  0.02985921  0.84121848  1
  S2-  S178  1  0.71332670  0.24070758  0.35592811  1
  S2-  S179  1  0.55084488  0.25683923  0.84939815  1
  S2-  S180  1  0.60227731  0.45785761  0.34901155  1
  S2-  S181  1  0.69391354  0.47572905  0.84291454  1
  S2-  S182  1  0.53851231  0.75746630  0.35460399  1
  S2-  S183  1  0.72257900  0.75758937  0.84426928  1
  S2-  S184  1  0.90204244  0.01075118  0.34260991  1
  S2-  S185  1  0.89413803  -0.08331220  0.84492393  1
  S2-  S186  1  0.89703700  0.21550468  0.30868437  1
  S2-  S187  1  0.86595777  0.14275529  0.85704654  1
  S2-  S188  1  0.86523755  0.41099536  0.35616223  1
  S2-  S189  1  0.87560646  0.58572602  0.84589165  1
  S2-  S190  1  0.92560473  0.77303850  0.36209480  1
  S2-  S191  1  0.93607394  0.74584203  0.79048581  1
  S2-  S192  1  -0.00023012  0.13028307  0.44727412  1
  S2-  S193  1  0.00826936  0.12738172  0.94828696  1
  S2-  S194  1  0.00210341  0.38619388  0.44984129  1
  S2-  S195  1  0.00018378  0.37446100  0.95242634  1
  S2-  S196  1  -0.00198682  0.63107485  0.46521095  1
  S2-  S197  1  -0.00147046  0.62739728  0.94772554  1
  S2-  S198  1  -0.00122551  0.88464213  0.46552985  1
  S2-  S199  1  0.00251503  0.87370646  0.94857411  1
  S2-  S200  1  0.25040523  0.13067315  0.44796223  1
  S2-  S201  1  0.25315681  0.12233067  0.95354268  1
  S2-  S202  1  0.25012791  0.38177554  0.44547485  1
  S2-  S203  1  0.25095959  0.37735615  0.95613533  1
  S2-  S204  1  0.25423143  0.63739920  0.44606986  1
  S2-  S205  1  0.25139942  0.62526085  0.95242806  1
  S2-  S206  1  0.25315659  0.87717540  0.45888345  1
  S2-  S207  1  0.24604473  0.87311514  0.95676726  1
  S2-  S208  1  0.49987585  0.12813775  0.46503890  1
  S2-  S209  1  0.49523445  0.12354346  0.94748771  1
  S2-  S210  1  0.49956550  0.38812061  0.46007494  1
  S2-  S211  1  0.49603421  0.37190771  0.95843222  1
  S2-  S212  1  0.49680758  0.63172170  0.45284470  1
  S2-  S213  1  0.50057041  0.62693557  0.96559084  1
  S2-  S214  1  0.49885612  0.87945125  0.45933401  1
  S2-  S215  1  0.50460314  0.87464627  0.95135777  1
  S2-  S216  1  0.74603843  0.13018683  0.45567766  1
  S2-  S217  1  0.74582789  0.12682034  0.95357799  1
  S2-  S218  1  0.74316500  0.38661886  0.45497230  1
  S2-  S219  1  0.75314247  0.36998453  0.95012732  1
  S2-  S220  1  0.75149808  0.63346182  0.45360484  1
  S2-  S221  1  0.75130974  0.62521198  0.95219364  1
  S2-  S222  1  0.74938280  0.87811177  0.45324892  1
  S2-  S223  1  0.75015649  0.88047055  0.94881573  1
  S2-  S224  1  0.12102245  -0.00056020  0.04845306  1
  S2-  S225  1  0.13048713  0.00829959  0.54378205  1
  S2-  S226  1  0.12266084  0.25065143  0.04824608  1
  S2-  S227  1  0.12510026  0.25937156  0.54866335  1
  S2-  S228  1  0.12128679  0.50221705  0.04766428  1
  S2-  S229  1  0.12565187  0.50776910  0.54071422  1
  S2-  S230  1  0.12434021  0.74812403  0.04811102  1
  S2-  S231  1  0.12221584  0.76038740  0.55822365  1
  S2-  S232  1  0.37284857  -0.00191960  0.04261022  1
  S2-  S233  1  0.37792896  0.01072563  0.55459243  1
  S2-  S234  1  0.37247998  0.24876161  0.05852549  1
  S2-  S235  1  0.37586466  0.26134050  0.54577413  1
  S2-  S236  1  0.37531761  0.50310246  0.05162815  1
  S2-  S237  1  0.37055807  0.51100525  0.53716375  1
  S2-  S238  1  0.37485561  0.74926728  0.04639008  1
  S2-  S239  1  0.37803228  0.75368363  0.55891066  1
  S2-  S240  1  0.62376269  0.00188663  0.04416383  1
  S2-  S241  1  0.62775665  0.00564895  0.55278043  1
  S2-  S242  1  0.62511681  0.24859880  0.05059522  1
  S2-  S243  1  0.62681796  0.26165309  0.54274399  1
  S2-  S244  1  0.63040469  0.49532879  0.04351694  1
  S2-  S245  1  0.63067995  0.51320289  0.54668883  1
  S2-  S246  1  0.62957675  0.75428372  0.04157847  1
  S2-  S247  1  0.62532572  0.75319192  0.55070568  1
  S2-  S248  1  0.87987485  0.00500198  0.04668257  1
  S2-  S249  1  0.87060743  0.01052603  0.54933506  1
  S2-  S250  1  0.87914634  0.24684911  0.04074862  1
  S2-  S251  1  0.87343234  0.25693362  0.52809694  1
  S2-  S252  1  0.87517416  0.50063718  0.04526626  1
  S2-  S253  1  0.87241104  0.50762223  0.54325101  1
  S2-  S254  1  0.87205566  0.74810911  0.05139011  1
  S2-  S255  1  0.88243345  0.75955898  0.55875953  1
