# generated using pymatgen
data_La12Ce14Pr13Nd13Sm12(BiS2)64
_symmetry_space_group_name_H-M   'P 1'
_cell_length_a   16.18170052
_cell_length_b   16.12738876
_cell_length_c   27.27387834
_cell_angle_alpha   89.97381007
_cell_angle_beta   89.95114280
_cell_angle_gamma   89.94212269
_symmetry_Int_Tables_number   1
_chemical_formula_structural   La12Ce14Pr13Nd13Sm12(BiS2)64
_chemical_formula_sum   'La12 Ce14 Pr13 Nd13 Sm12 Bi64 S128'
_cell_volume   7117.61821041
_cell_formula_units_Z   1
loop_
 _symmetry_equiv_pos_site_id
 _symmetry_equiv_pos_as_xyz
  1  'x, y, z'
loop_
 _atom_type_symbol
 _atom_type_oxidation_number
  La3+  3.0
  Ce3+  3.0
  Pr3+  3.0
  Nd3+  3.0
  Sm3+  3.0
  Bi2+  2.0
  S2-  -2.0
loop_
 _atom_site_type_symbol
 _atom_site_label
 _atom_site_symmetry_multiplicity
 _atom_site_fract_x
 _atom_site_fract_y
 _atom_site_fract_z
 _atom_site_occupancy
  La3+  La0  1  0.75304956  0.13181914  0.08178539  1
  La3+  La1  1  0.73342441  0.11963955  0.57440639  1
  La3+  La2  1  0.25517033  0.38512680  0.07586496  1
  La3+  La3  1  0.01365888  0.64285733  0.08188154  1
  La3+  La4  1  0.87092771  -0.00734342  0.88616377  1
  La3+  La5  1  -0.00769974  0.36363601  0.55442447  1
  La3+  La6  1  0.73208937  0.85862422  0.60329991  1
  La3+  La7  1  0.62093298  0.74826038  0.42540330  1
  La3+  La8  1  0.61707259  0.23755638  0.42027465  1
  La3+  La9  1  -0.00849958  0.61437429  0.56442321  1
  La3+  La10  1  0.13077078  0.01447855  0.92370320  1
  La3+  La11  1  0.14485221  0.26471927  0.92735208  1
  Ce3+  Ce12  1  0.50620917  0.13347737  0.06574931  1
  Ce3+  Ce13  1  0.36429257  -0.00821719  0.44357658  1
  Ce3+  Ce14  1  0.49476775  0.86805076  0.56065566  1
  Ce3+  Ce15  1  0.35889216  0.23900260  0.42481924  1
  Ce3+  Ce16  1  0.88677508  0.51087788  0.94457601  1
  Ce3+  Ce17  1  0.38359099  0.00977929  0.92902130  1
  Ce3+  Ce18  1  0.88304635  0.24591720  0.94602216  1
  Ce3+  Ce19  1  0.50946789  0.38939146  0.07911156  1
  Ce3+  Ce20  1  0.11879552  0.24683377  0.42464382  1
  Ce3+  Ce21  1  0.38341168  0.75698660  0.93153371  1
  Ce3+  Ce22  1  0.86323771  0.48693709  0.43333999  1
  Ce3+  Ce23  1  0.76209559  0.88328048  0.05252016  1
  Ce3+  Ce24  1  0.86444234  0.23405975  0.43190093  1
  Ce3+  Ce25  1  0.86655780  -0.00483399  0.44438986  1
  Pr3+  Pr26  1  0.36993145  0.49190332  0.43392899  1
  Pr3+  Pr27  1  0.11458604  0.49464582  0.42441961  1
  Pr3+  Pr28  1  0.23798027  0.86822899  0.55775370  1
  Pr3+  Pr29  1  0.01712176  0.12979235  0.06498925  1
  Pr3+  Pr30  1  0.74010055  0.36553250  0.56023946  1
  Pr3+  Pr31  1  0.38818546  0.50875454  0.95076990  1
  Pr3+  Pr32  1  0.36678763  0.74395017  0.44165815  1
  Pr3+  Pr33  1  -0.00922404  0.86477372  0.56873291  1
  Pr3+  Pr34  1  0.75952962  0.38694867  0.06362503  1
  Pr3+  Pr35  1  0.24221550  0.36954107  0.55656995  1
  Pr3+  Pr36  1  0.49285112  0.11929329  0.55368334  1
  Pr3+  Pr37  1  0.73955275  0.61711898  0.55996357  1
  Pr3+  Pr38  1  0.49455816  0.62085689  0.55565508  1
  Nd3+  Nd39  1  0.13444455  0.50757872  0.94318925  1
  Nd3+  Nd40  1  0.63623605  0.25616983  0.94929364  1
  Nd3+  Nd41  1  0.11197173  0.74025104  0.42996016  1
  Nd3+  Nd42  1  0.00686428  0.37760918  0.06158396  1
  Nd3+  Nd43  1  0.24106241  0.12062254  0.56109237  1
  Nd3+  Nd44  1  0.63446707  0.75864969  0.93224433  1
  Nd3+  Nd45  1  0.26041652  0.12924841  0.06354940  1
  Nd3+  Nd46  1  0.51131080  0.63915762  0.06998620  1
  Nd3+  Nd47  1  0.24033196  0.61909404  0.55398926  1
  Nd3+  Nd48  1  0.13847454  0.75697716  0.93096993  1
  Nd3+  Nd49  1  0.26106059  0.88348914  0.05331837  1
  Nd3+  Nd50  1  0.00836119  0.88416083  0.05063519  1
  Nd3+  Nd51  1  -0.00815225  0.11906063  0.55786488  1
  Sm3+  Sm52  1  0.63404675  0.50707274  0.94410279  1
  Sm3+  Sm53  1  0.11512127  -0.00815849  0.44507465  1
  Sm3+  Sm54  1  0.89316643  0.74717756  0.92686063  1
  Sm3+  Sm55  1  0.61976529  -0.00945175  0.43544132  1
  Sm3+  Sm56  1  0.38604441  0.25954864  0.95158072  1
  Sm3+  Sm57  1  0.25650146  0.63802694  0.06038265  1
  Sm3+  Sm58  1  0.49099491  0.36678841  0.54848486  1
  Sm3+  Sm59  1  0.63576606  0.00912008  0.94586618  1
  Sm3+  Sm60  1  0.50679499  0.88016676  0.05828135  1
  Sm3+  Sm61  1  0.76060305  0.63604032  0.05557511  1
  Sm3+  Sm62  1  0.86547304  0.74456122  0.44872192  1
  Sm3+  Sm63  1  0.61898353  0.49276174  0.44180553  1
  Bi2+  Bi64  1  -0.00126144  0.11459111  0.28975593  1
  Bi2+  Bi65  1  -0.00613406  0.11926563  0.78264728  1
  Bi2+  Bi66  1  0.00642913  0.38248858  0.26769852  1
  Bi2+  Bi67  1  -0.01683567  0.39447439  0.76128441  1
  Bi2+  Bi68  1  -0.00553499  0.59759580  0.27266353  1
  Bi2+  Bi69  1  0.04847141  0.56427101  0.81348084  1
  Bi2+  Bi70  1  0.10844219  0.84274644  0.30964298  1
  Bi2+  Bi71  1  0.01091918  0.84891721  0.77961285  1
  Bi2+  Bi72  1  0.25009175  0.07599376  0.27618932  1
  Bi2+  Bi73  1  0.24980734  0.15354868  0.78892133  1
  Bi2+  Bi74  1  0.26462219  0.33726161  0.29856675  1
  Bi2+  Bi75  1  0.25372137  0.38313696  0.79490676  1
  Bi2+  Bi76  1  0.23496661  0.69371244  0.28749463  1
  Bi2+  Bi77  1  0.23099164  0.61634483  0.79129613  1
  Bi2+  Bi78  1  0.30304785  0.88502635  0.28906217  1
  Bi2+  Bi79  1  0.28012490  0.88412281  0.79115137  1
  Bi2+  Bi80  1  0.50516587  0.07779675  0.28024361  1
  Bi2+  Bi81  1  0.49599150  0.05195391  0.81250715  1
  Bi2+  Bi82  1  0.47183194  0.43560432  0.29050083  1
  Bi2+  Bi83  1  0.52876367  0.36189545  0.79825246  1
  Bi2+  Bi84  1  0.53230545  0.71665465  0.29361430  1
  Bi2+  Bi85  1  0.50654392  0.65661991  0.82204175  1
  Bi2+  Bi86  1  0.48629102  0.90591312  0.22644876  1
  Bi2+  Bi87  1  0.47425393  0.85078412  0.82090502  1
  Bi2+  Bi88  1  0.75118168  0.17051713  0.30099717  1
  Bi2+  Bi89  1  0.73372129  0.15192437  0.79718290  1
  Bi2+  Bi90  1  0.74792246  0.43023577  0.30719026  1
  Bi2+  Bi91  1  0.79271222  0.39938702  0.78437791  1
  Bi2+  Bi92  1  0.73481713  0.70869774  0.30564366  1
  Bi2+  Bi93  1  0.76570869  0.59375668  0.78664954  1
  Bi2+  Bi94  1  0.74163436  0.90579600  0.29386902  1
  Bi2+  Bi95  1  0.76504381  0.85631232  0.76611736  1
  Bi2+  Bi96  1  0.09799456  0.00122599  0.21503709  1
  Bi2+  Bi97  1  0.18902337  -0.02166947  0.70498114  1
  Bi2+  Bi98  1  0.10673342  0.24431852  0.20158794  1
  Bi2+  Bi99  1  0.10789308  0.26788147  0.68448541  1
  Bi2+  Bi100  1  0.13799637  0.48993538  0.20907614  1
  Bi2+  Bi101  1  0.14382618  0.49608033  0.69384907  1
  Bi2+  Bi102  1  0.14215864  0.77635652  0.19425812  1
  Bi2+  Bi103  1  0.17655594  0.72845466  0.70213002  1
  Bi2+  Bi104  1  0.38140382  0.01262637  0.15272397  1
  Bi2+  Bi105  1  0.38746793  0.02432133  0.71674369  1
  Bi2+  Bi106  1  0.38029252  0.17510197  0.21398738  1
  Bi2+  Bi107  1  0.42522431  0.21204452  0.75160918  1
  Bi2+  Bi108  1  0.32924516  0.52152856  0.22869442  1
  Bi2+  Bi109  1  0.40331926  0.49458416  0.75533783  1
  Bi2+  Bi110  1  0.41052182  0.68740906  0.20165429  1
  Bi2+  Bi111  1  0.40153276  0.73379462  0.73494505  1
  Bi2+  Bi112  1  0.65403399  0.00936237  0.20655960  1
  Bi2+  Bi113  1  0.59569857  0.00729427  0.71349545  1
  Bi2+  Bi114  1  0.60728961  0.27217047  0.21507483  1
  Bi2+  Bi115  1  0.60318615  0.26849265  0.70014313  1
  Bi2+  Bi116  1  0.58452536  0.55828466  0.23080064  1
  Bi2+  Bi117  1  0.57812953  0.46932740  0.70118640  1
  Bi2+  Bi118  1  0.67793273  0.76190061  0.20281452  1
  Bi2+  Bi119  1  0.59449731  0.72419542  0.71130752  1
  Bi2+  Bi120  1  0.90569491  -0.02947426  0.23671849  1
  Bi2+  Bi121  1  0.90790266  -0.00219311  0.68034372  1
  Bi2+  Bi122  1  0.85378019  0.26076077  0.21669271  1
  Bi2+  Bi123  1  0.85890659  0.25347001  0.71950414  1
  Bi2+  Bi124  1  0.81840235  0.51127187  0.20813436  1
  Bi2+  Bi125  1  0.76964917  0.50406373  0.68014948  1
  Bi2+  Bi126  1  0.93228035  0.78106834  0.25762820  1
  Bi2+  Bi127  1  0.92920409  0.60552368  0.72281624  1
  S2-  S128  1  -0.03083957  0.20400081  0.15445940  1
  S2-  S129  1  -0.02536542  0.16044147  0.65518955  1
  S2-  S130  1  0.01507875  0.40688888  0.16007684  1
  S2-  S131  1  0.00711969  0.40925524  0.65125256  1
  S2-  S132  1  -0.06749385  0.60595415  0.17504777  1
  S2-  S133  1  0.02677660  0.68252872  0.65428553  1
  S2-  S134  1  0.00856133  0.79947142  0.13840244  1
  S2-  S135  1  0.05669712  0.91098864  0.65952201  1
  S2-  S136  1  0.15013786  0.11155691  0.14073452  1
  S2-  S137  1  0.20103682  0.14165547  0.65774619  1
  S2-  S138  1  0.23724917  0.34743333  0.17398970  1
  S2-  S139  1  0.23689706  0.36307011  0.65826333  1
  S2-  S140  1  0.16338561  0.62865750  0.14304461  1
  S2-  S141  1  0.25217703  0.59570652  0.65255419  1
  S2-  S142  1  0.26780992  0.87404570  0.15295750  1
  S2-  S143  1  0.27360531  0.84645033  0.65474350  1
  S2-  S144  1  0.60326720  0.14156263  0.14696999  1
  S2-  S145  1  0.57347320  0.12578203  0.64284204  1
  S2-  S146  1  0.47457993  0.30874944  0.16699294  1
  S2-  S147  1  0.48120916  0.35832310  0.64602279  1
  S2-  S148  1  0.51513773  0.52114542  0.14586705  1
  S2-  S149  1  0.48176385  0.64024921  0.65517939  1
  S2-  S150  1  0.50838777  0.77345857  0.13732835  1
  S2-  S151  1  0.56938189  0.86908038  0.64983201  1
  S2-  S152  1  0.79088476  0.11672761  0.18387031  1
  S2-  S153  1  0.74358032  0.01227726  0.65602508  1
  S2-  S154  1  0.73363145  0.36566700  0.16387515  1
  S2-  S155  1  0.74949171  0.25970453  0.64073385  1
  S2-  S156  1  0.72335351  0.61650155  0.15132843  1
  S2-  S157  1  0.71478337  0.69498886  0.64903498  1
  S2-  S158  1  0.74847271  0.88412364  0.15079696  1
  S2-  S159  1  0.85546762  0.84211546  0.67885180  1
  S2-  S160  1  0.08600432  0.00538853  0.34871043  1
  S2-  S161  1  0.03533574  -0.02094013  0.83801151  1
  S2-  S162  1  0.23087129  0.20546305  0.35172150  1
  S2-  S163  1  0.10505518  0.17874022  0.84064057  1
  S2-  S164  1  0.11360844  0.37703714  0.34679909  1
  S2-  S165  1  0.13664249  0.40737581  0.86034206  1
  S2-  S166  1  0.11089680  0.62398895  0.35375761  1
  S2-  S167  1  0.04797171  0.74383398  0.84522283  1
  S2-  S168  1  0.37428824  0.01524265  0.34652887  1
  S2-  S169  1  0.26712924  0.02043969  0.85454894  1
  S2-  S170  1  0.41573237  0.28867235  0.33489966  1
  S2-  S171  1  0.30750476  0.26334170  0.86387543  1
  S2-  S172  1  0.32829537  0.49793134  0.33628665  1
  S2-  S173  1  0.35049363  0.49942136  0.85240010  1
  S2-  S174  1  0.37885572  0.74400151  0.34205725  1
  S2-  S175  1  0.26649670  0.74294304  0.85730007  1
  S2-  S176  1  0.62540416  0.09883456  0.35518540  1
  S2-  S177  1  0.70028960  0.02469514  0.85535234  1
  S2-  S178  1  0.63777323  0.29759218  0.31985420  1
  S2-  S179  1  0.64446241  0.26412961  0.84932050  1
  S2-  S180  1  0.60539397  0.51450567  0.34492572  1
  S2-  S181  1  0.62685289  0.54114443  0.84771402  1
  S2-  S182  1  0.61069458  0.87843045  0.35620099  1
  S2-  S183  1  0.64396405  0.79272574  0.83299097  1
  S2-  S184  1  0.86390678  0.09556091  0.36281888  1
  S2-  S185  1  0.85581056  0.00621673  0.77453413  1
  S2-  S186  1  0.85267290  0.32550364  0.34831362  1
  S2-  S187  1  0.87748421  0.16898883  0.85755781  1
  S2-  S188  1  0.87019827  0.54292708  0.34065761  1
  S2-  S189  1  0.88579197  0.60443518  0.86255605  1
  S2-  S190  1  0.86919334  0.78898851  0.35260384  1
  S2-  S191  1  0.86526316  0.83066306  0.83956238  1
  S2-  S192  1  -0.00060724  0.11997836  0.45392856  1
  S2-  S193  1  0.01485939  0.13745593  0.95803577  1
  S2-  S194  1  -0.01002394  0.36764421  0.44827819  1
  S2-  S195  1  0.00350037  0.38032377  0.95549194  1
  S2-  S196  1  -0.01383044  0.61900730  0.45565245  1
  S2-  S197  1  0.01403747  0.63126658  0.96244219  1
  S2-  S198  1  -0.00755671  0.86684001  0.45799357  1
  S2-  S199  1  0.00324929  0.88093690  0.94700793  1
  S2-  S200  1  0.23852603  0.11223895  0.45585855  1
  S2-  S201  1  0.26297002  0.13514010  0.95981947  1
  S2-  S202  1  0.24338571  0.37050188  0.44984536  1
  S2-  S203  1  0.26471847  0.38596549  0.96735300  1
  S2-  S204  1  0.24312796  0.61838953  0.44918638  1
  S2-  S205  1  0.25883322  0.62840958  0.95762020  1
  S2-  S206  1  0.23745344  0.86603048  0.44933985  1
  S2-  S207  1  0.26115346  0.88409383  0.94905112  1
  S2-  S208  1  0.48674950  0.11716337  0.44859488  1
  S2-  S209  1  0.50942435  0.13392956  0.95611984  1
  S2-  S210  1  0.49486374  0.36837362  0.44427219  1
  S2-  S211  1  0.51114520  0.38268308  0.96181786  1
  S2-  S212  1  0.49544422  0.61923600  0.44782708  1
  S2-  S213  1  0.51262164  0.63435225  0.95927824  1
  S2-  S214  1  0.48920742  0.86943897  0.45495379  1
  S2-  S215  1  0.51023721  0.88390128  0.95315980  1
  S2-  S216  1  0.73930431  0.11439756  0.46262122  1
  S2-  S217  1  0.75409249  0.13091853  0.96849099  1
  S2-  S218  1  0.73708357  0.36627307  0.45269967  1
  S2-  S219  1  0.76011855  0.38383931  0.95463821  1
  S2-  S220  1  0.74178502  0.61901619  0.45185708  1
  S2-  S221  1  0.75422504  0.63351401  0.95249185  1
  S2-  S222  1  0.74684009  0.87084358  0.45311766  1
  S2-  S223  1  0.75981834  0.88269261  0.94800843  1
  S2-  S224  1  0.13641824  0.00241639  0.03645374  1
  S2-  S225  1  0.11693126  -0.00472325  0.54867286  1
  S2-  S226  1  0.13704126  0.26110197  0.04581664  1
  S2-  S227  1  0.11950600  0.24277006  0.53884390  1
  S2-  S228  1  0.13110792  0.50630068  0.04805893  1
  S2-  S229  1  0.11809056  0.49431602  0.53791532  1
  S2-  S230  1  0.13817216  0.76122467  0.03786242  1
  S2-  S231  1  0.11621393  0.74271297  0.53928888  1
  S2-  S232  1  0.38728711  0.00644248  0.03651840  1
  S2-  S233  1  0.36553485  -0.00629498  0.55185595  1
  S2-  S234  1  0.38177874  0.25826489  0.05518805  1
  S2-  S235  1  0.36636609  0.24379639  0.54016511  1
  S2-  S236  1  0.37822327  0.51366542  0.05676558  1
  S2-  S237  1  0.36907963  0.49462506  0.54232314  1
  S2-  S238  1  0.38089188  0.75611358  0.03937570  1
  S2-  S239  1  0.36596663  0.74352779  0.54765336  1
  S2-  S240  1  0.62893280  0.00237903  0.05037642  1
  S2-  S241  1  0.61491287  -0.00997699  0.54154724  1
  S2-  S242  1  0.63108035  0.26528837  0.05312170  1
  S2-  S243  1  0.61214758  0.24737856  0.53439449  1
  S2-  S244  1  0.63623183  0.51178596  0.04680062  1
  S2-  S245  1  0.61433952  0.49086075  0.54658722  1
  S2-  S246  1  0.63727833  0.75908506  0.04001280  1
  S2-  S247  1  0.61745941  0.74531809  0.53801574  1
  S2-  S248  1  0.88595741  0.00856166  0.06387887  1
  S2-  S249  1  0.87014908  -0.00778556  0.55062798  1
  S2-  S250  1  0.87846768  0.25729086  0.05095335  1
  S2-  S251  1  0.86750224  0.24118749  0.53964329  1
  S2-  S252  1  0.88494654  0.51180860  0.05120188  1
  S2-  S253  1  0.86467006  0.49121551  0.54329271  1
  S2-  S254  1  0.88208409  0.75548844  0.03804319  1
  S2-  S255  1  0.86475562  0.74305880  0.55274600  1
