# generated using pymatgen
data_La12Ce14Pr13Nd13Sm12(BiS2)64
_symmetry_space_group_name_H-M   'P 1'
_cell_length_a   16.18871400
_cell_length_b   16.17430606
_cell_length_c   27.21359236
_cell_angle_alpha   90.01390848
_cell_angle_beta   89.96042150
_cell_angle_gamma   90.00461257
_symmetry_Int_Tables_number   1
_chemical_formula_structural   La12Ce14Pr13Nd13Sm12(BiS2)64
_chemical_formula_sum   'La12 Ce14 Pr13 Nd13 Sm12 Bi64 S128'
_cell_volume   7125.63815289
_cell_formula_units_Z   1
loop_
 _symmetry_equiv_pos_site_id
 _symmetry_equiv_pos_as_xyz
  1  'x, y, z'
loop_
 _atom_type_symbol
 _atom_type_oxidation_number
  La3+  3.0
  Ce3+  3.0
  Pr3+  3.0
  Nd3+  3.0
  Sm3+  3.0
  Bi2+  2.0
  S2-  -2.0
loop_
 _atom_site_type_symbol
 _atom_site_label
 _atom_site_symmetry_multiplicity
 _atom_site_fract_x
 _atom_site_fract_y
 _atom_site_fract_z
 _atom_site_occupancy
  La3+  La0  1  0.26683918  0.88333597  0.09079979  1
  La3+  La1  1  0.63253496  0.24591519  0.38931894  1
  La3+  La2  1  0.86919566  0.00259681  0.43332495  1
  La3+  La3  1  0.86987745  0.49917756  0.43356267  1
  La3+  La4  1  0.63753934  0.25764350  0.94619686  1
  La3+  La5  1  0.75995967  0.39173540  0.09137215  1
  La3+  La6  1  0.25665939  0.63027890  0.06967123  1
  La3+  La7  1  0.88429047  0.50725404  0.90272304  1
  La3+  La8  1  0.24351509  0.87118738  0.57213737  1
  La3+  La9  1  0.49979755  0.87679271  0.61346505  1
  La3+  La10  1  0.75110482  0.11978856  0.09773882  1
  La3+  La11  1  0.12668328  0.74861308  0.38838126  1
  Ce3+  Ce12  1  0.37661233  0.50653863  0.94281323  1
  Ce3+  Ce13  1  0.74308862  0.37463807  0.55721570  1
  Ce3+  Ce14  1  0.49574804  0.12270701  0.56781477  1
  Ce3+  Ce15  1  0.86931402  0.25342559  0.44249943  1
  Ce3+  Ce16  1  0.37758074  0.25284230  0.94355829  1
  Ce3+  Ce17  1  0.37993901  0.01260930  0.93855083  1
  Ce3+  Ce18  1  0.74169137  0.87439653  0.55703060  1
  Ce3+  Ce19  1  0.49783232  0.37893964  0.56880943  1
  Ce3+  Ce20  1  0.13299539  0.75696658  0.95143670  1
  Ce3+  Ce21  1  0.24482822  0.63041488  0.55807496  1
  Ce3+  Ce22  1  0.61645025  0.00338204  0.44470285  1
  Ce3+  Ce23  1  0.75744100  0.87943864  0.05608463  1
  Ce3+  Ce24  1  0.74356569  0.62687264  0.55866619  1
  Ce3+  Ce25  1  0.12287989  0.24867043  0.43444224  1
  Pr3+  Pr26  1  0.86956501  0.75224523  0.43553743  1
  Pr3+  Pr27  1  -0.00501360  0.38469787  0.56691870  1
  Pr3+  Pr28  1  -0.00545769  0.12802905  0.55656882  1
  Pr3+  Pr29  1  0.62026131  0.74960621  0.43007194  1
  Pr3+  Pr30  1  0.87822334  0.25782094  0.94489402  1
  Pr3+  Pr31  1  0.13323141  0.00340976  0.94309390  1
  Pr3+  Pr32  1  0.25189425  0.13407003  0.06768559  1
  Pr3+  Pr33  1  0.38073678  0.25262162  0.44389782  1
  Pr3+  Pr34  1  0.62690548  0.50581818  0.93106087  1
  Pr3+  Pr35  1  0.88199132  0.00477494  0.93858996  1
  Pr3+  Pr36  1  0.88098099  0.75365437  0.93638991  1
  Pr3+  Pr37  1  0.12257035  0.50077518  0.43599536  1
  Pr3+  Pr38  1  -0.00390408  0.87805035  0.56259470  1
  Nd3+  Nd39  1  0.12505345  0.00184487  0.43480426  1
  Nd3+  Nd40  1  0.37137988  0.50243591  0.44636316  1
  Nd3+  Nd41  1  0.37248171  -0.00129112  0.44682070  1
  Nd3+  Nd42  1  0.50625291  0.13248053  0.06697183  1
  Nd3+  Nd43  1  0.62979271  0.00677015  0.94064382  1
  Nd3+  Nd44  1  0.36591916  0.76661598  0.92588062  1
  Nd3+  Nd45  1  0.01139465  0.88676196  0.07422516  1
  Nd3+  Nd46  1  0.62779671  0.75409685  0.93775062  1
  Nd3+  Nd47  1  0.50366303  0.87826841  0.05943788  1
  Nd3+  Nd48  1  0.49781281  0.62379692  0.56389589  1
  Nd3+  Nd49  1  0.50847037  0.37947452  0.05630879  1
  Nd3+  Nd50  1  0.24614703  0.12642035  0.55965875  1
  Nd3+  Nd51  1  0.25309782  0.38299594  0.06883504  1
  Sm3+  Sm52  1  0.75517506  0.62745472  0.05248082  1
  Sm3+  Sm53  1  0.74277722  0.12718911  0.55767485  1
  Sm3+  Sm54  1  0.50665026  0.62896022  0.05074365  1
  Sm3+  Sm55  1  -0.00438637  0.62763250  0.55385388  1
  Sm3+  Sm56  1  0.24406568  0.37653846  0.55549843  1
  Sm3+  Sm57  1  0.12862254  0.50386630  0.94084712  1
  Sm3+  Sm58  1  0.12847362  0.25826168  0.94922575  1
  Sm3+  Sm59  1  0.61747723  0.49705217  0.43798662  1
  Sm3+  Sm60  1  -0.00032311  0.13165648  0.05460580  1
  Sm3+  Sm61  1  0.36723457  0.75433181  0.44267382  1
  Sm3+  Sm62  1  -0.00099326  0.62673880  0.05688746  1
  Sm3+  Sm63  1  -0.00151269  0.38259553  0.05899931  1
  Bi2+  Bi64  1  0.02166483  0.16037962  0.28970907  1
  Bi2+  Bi65  1  -0.02871169  0.07398210  0.78051653  1
  Bi2+  Bi66  1  0.02426374  0.36340123  0.30573400  1
  Bi2+  Bi67  1  0.01059836  0.35624936  0.79262846  1
  Bi2+  Bi68  1  -0.02526603  0.58792378  0.29172184  1
  Bi2+  Bi69  1  0.03229036  0.62923857  0.78658094  1
  Bi2+  Bi70  1  -0.01328517  0.86775208  0.28827676  1
  Bi2+  Bi71  1  -0.01696425  0.87485958  0.79535741  1
  Bi2+  Bi72  1  0.24207921  0.17324515  0.27703221  1
  Bi2+  Bi73  1  0.26583033  0.13197869  0.79499573  1
  Bi2+  Bi74  1  0.21516653  0.35886685  0.30895586  1
  Bi2+  Bi75  1  0.22932321  0.39137367  0.79839134  1
  Bi2+  Bi76  1  0.24449104  0.54566700  0.27672362  1
  Bi2+  Bi77  1  0.22759959  0.59099429  0.78635340  1
  Bi2+  Bi78  1  0.25287668  0.87864578  0.29031962  1
  Bi2+  Bi79  1  0.23210784  0.88060316  0.79812377  1
  Bi2+  Bi80  1  0.46967377  0.08372948  0.30870132  1
  Bi2+  Bi81  1  0.52242992  0.13834548  0.79373721  1
  Bi2+  Bi82  1  0.46768741  0.39733112  0.30164048  1
  Bi2+  Bi83  1  0.42821282  0.35373330  0.78597915  1
  Bi2+  Bi84  1  0.52997867  0.65304657  0.30620049  1
  Bi2+  Bi85  1  0.49627655  0.59288816  0.78165989  1
  Bi2+  Bi86  1  0.52096843  0.84477005  0.29744701  1
  Bi2+  Bi87  1  0.51788525  0.85376380  0.82026282  1
  Bi2+  Bi88  1  0.76856690  0.11263297  0.29210769  1
  Bi2+  Bi89  1  0.73987151  0.13317121  0.78856161  1
  Bi2+  Bi90  1  0.74474433  0.37168319  0.27817542  1
  Bi2+  Bi91  1  0.74959538  0.32053358  0.78469455  1
  Bi2+  Bi92  1  0.72338644  0.63087931  0.29222923  1
  Bi2+  Bi93  1  0.75393832  0.62759481  0.79053236  1
  Bi2+  Bi94  1  0.72088340  0.86289903  0.27381132  1
  Bi2+  Bi95  1  0.78762182  0.87334743  0.77621747  1
  Bi2+  Bi96  1  0.13257257  0.04197360  0.21579662  1
  Bi2+  Bi97  1  0.11653759  0.01717771  0.70849588  1
  Bi2+  Bi98  1  0.17917729  0.27999886  0.18071266  1
  Bi2+  Bi99  1  0.13429539  0.23928117  0.74477376  1
  Bi2+  Bi100  1  0.11690507  0.45832823  0.20731727  1
  Bi2+  Bi101  1  0.13058316  0.50057412  0.70320089  1
  Bi2+  Bi102  1  0.10110454  0.73743547  0.18308958  1
  Bi2+  Bi103  1  0.09889036  0.76978146  0.71895435  1
  Bi2+  Bi104  1  0.40292090  0.02003099  0.21202428  1
  Bi2+  Bi105  1  0.37137782  0.02825002  0.71632204  1
  Bi2+  Bi106  1  0.36743411  0.27204566  0.20254373  1
  Bi2+  Bi107  1  0.39094759  0.22356849  0.70335892  1
  Bi2+  Bi108  1  0.38243210  0.47256238  0.20806518  1
  Bi2+  Bi109  1  0.33161385  0.48359622  0.70926516  1
  Bi2+  Bi110  1  0.40440310  0.74967269  0.21591285  1
  Bi2+  Bi111  1  0.35417202  0.74600894  0.71194990  1
  Bi2+  Bi112  1  0.58815025  -0.01273412  0.22465016  1
  Bi2+  Bi113  1  0.70056656  0.00420400  0.70580858  1
  Bi2+  Bi114  1  0.56072234  0.26791029  0.19961660  1
  Bi2+  Bi115  1  0.57384607  0.28401223  0.71488739  1
  Bi2+  Bi116  1  0.59933134  0.54747932  0.21400539  1
  Bi2+  Bi117  1  0.62614846  0.48189941  0.70283461  1
  Bi2+  Bi118  1  0.62278831  0.74458568  0.19910486  1
  Bi2+  Bi119  1  0.62577159  0.73151626  0.71084280  1
  Bi2+  Bi120  1  0.89047721  -0.00896565  0.19818346  1
  Bi2+  Bi121  1  0.89275936  -0.05107299  0.68608201  1
  Bi2+  Bi122  1  0.93536929  0.27223347  0.21859517  1
  Bi2+  Bi123  1  0.88824020  0.21175094  0.71280971  1
  Bi2+  Bi124  1  0.87211130  0.53660957  0.20290972  1
  Bi2+  Bi125  1  0.88345238  0.46945112  0.70005093  1
  Bi2+  Bi126  1  0.83802382  0.73007628  0.21489300  1
  Bi2+  Bi127  1  0.90136193  0.75528490  0.70867111  1
  S2-  S128  1  0.00794834  0.08611240  0.14909632  1
  S2-  S129  1  -0.00705939  0.10103563  0.65553643  1
  S2-  S130  1  -0.08315394  0.38383217  0.14614916  1
  S2-  S131  1  -0.03264336  0.33353598  0.66284467  1
  S2-  S132  1  0.02345359  0.58834937  0.15269588  1
  S2-  S133  1  -0.01162563  0.54372238  0.64114116  1
  S2-  S134  1  -0.05930719  0.82903028  0.16149870  1
  S2-  S135  1  0.10933093  0.88853924  0.64268664  1
  S2-  S136  1  0.26925906  0.04105718  0.15138461  1
  S2-  S137  1  0.23690432  0.10027982  0.65774541  1
  S2-  S138  1  0.25337844  0.50267788  0.14204637  1
  S2-  S139  1  0.22655506  0.38033969  0.65335682  1
  S2-  S140  1  0.26715958  0.73241554  0.15342208  1
  S2-  S141  1  0.24445844  0.68886114  0.65120068  1
  S2-  S142  1  0.12718026  0.89544697  0.15438892  1
  S2-  S143  1  0.33771155  0.88445770  0.65901985  1
  S2-  S144  1  0.59795874  0.11881426  0.15196807  1
  S2-  S145  1  0.50597469  0.04112943  0.65487845  1
  S2-  S146  1  0.52900961  0.42267302  0.15134594  1
  S2-  S147  1  0.49979924  0.49546153  0.64231125  1
  S2-  S148  1  0.49270170  0.64702993  0.14842875  1
  S2-  S149  1  0.49113375  0.70823453  0.65115758  1
  S2-  S150  1  0.42039457  0.88011258  0.14800480  1
  S2-  S151  1  0.50879200  0.85659787  0.72667999  1
  S2-  S152  1  0.81533960  0.14306650  0.19375110  1
  S2-  S153  1  0.75454515  0.13887099  0.65605876  1
  S2-  S154  1  0.71558347  0.33701691  0.18600311  1
  S2-  S155  1  0.75162034  0.39080717  0.65526080  1
  S2-  S156  1  0.74109886  0.54936626  0.14060246  1
  S2-  S157  1  0.72245558  0.61289908  0.65737179  1
  S2-  S158  1  0.76020705  0.95721312  0.14309755  1
  S2-  S159  1  0.67086658  0.85548087  0.64569163  1
  S2-  S160  1  0.11524622  -0.08546037  0.34822797  1
  S2-  S161  1  0.16221910  0.01357043  0.84346611  1
  S2-  S162  1  0.13439098  0.13054774  0.36124311  1
  S2-  S163  1  0.14382649  0.25711479  0.85194049  1
  S2-  S164  1  0.11652975  0.58354559  0.34724814  1
  S2-  S165  1  0.04071660  0.49548681  0.85504076  1
  S2-  S166  1  0.12630048  0.76423545  0.27471152  1
  S2-  S167  1  0.21082316  0.76589516  0.86532941  1
  S2-  S168  1  0.34127407  -0.00091880  0.34683600  1
  S2-  S169  1  0.36795427  -0.08890673  0.85909150  1
  S2-  S170  1  0.46307948  0.24742075  0.35512172  1
  S2-  S171  1  0.38674069  0.14503078  0.86549557  1
  S2-  S172  1  0.37487126  0.50928158  0.34713791  1
  S2-  S173  1  0.41443501  0.49089504  0.84823328  1
  S2-  S174  1  0.29277005  0.76095958  0.35224036  1
  S2-  S175  1  0.42486452  0.70987979  0.83307254  1
  S2-  S176  1  0.63458575  0.06958699  0.35451735  1
  S2-  S177  1  0.59101417  0.01153208  0.84285029  1
  S2-  S178  1  0.64565719  0.23258574  0.28107665  1
  S2-  S179  1  0.62745326  0.26065145  0.84518953  1
  S2-  S180  1  0.62277272  0.41576452  0.35039461  1
  S2-  S181  1  0.63097730  0.52813908  0.83042201  1
  S2-  S182  1  0.74623479  0.76137709  0.35750132  1
  S2-  S183  1  0.66378595  0.76004875  0.83946216  1
  S2-  S184  1  0.88046106  -0.00814048  0.33191615  1
  S2-  S185  1  0.83647749  0.02951139  0.84212087  1
  S2-  S186  1  0.80613157  0.25007502  0.35074970  1
  S2-  S187  1  0.89591551  0.28339657  0.84429414  1
  S2-  S188  1  0.84593907  0.49333490  0.33342531  1
  S2-  S189  1  0.82843618  0.48178219  0.80117996  1
  S2-  S190  1  0.95873384  0.74257282  0.34733113  1
  S2-  S191  1  0.88767267  0.66351975  0.85020416  1
  S2-  S192  1  -0.00733341  0.12832998  0.45075301  1
  S2-  S193  1  0.00653684  0.13250626  0.94920103  1
  S2-  S194  1  -0.00217540  0.37516976  0.45427244  1
  S2-  S195  1  0.00467589  0.38048872  0.95570793  1
  S2-  S196  1  -0.00552146  0.62378483  0.45175301  1
  S2-  S197  1  0.00843405  0.62982337  0.95351054  1
  S2-  S198  1  -0.00686152  0.87904716  0.45514898  1
  S2-  S199  1  0.00534046  0.87921302  0.95665483  1
  S2-  S200  1  0.25426054  0.12943482  0.45575783  1
  S2-  S201  1  0.24944293  0.13462373  0.96119073  1
  S2-  S202  1  0.24870694  0.37481912  0.45066668  1
  S2-  S203  1  0.25217304  0.38039336  0.95917430  1
  S2-  S204  1  0.24584654  0.62724485  0.45214330  1
  S2-  S205  1  0.25155578  0.62572210  0.95855719  1
  S2-  S206  1  0.24702920  0.87743029  0.45967127  1
  S2-  S207  1  0.25327709  0.88401598  0.97071559  1
  S2-  S208  1  0.49688593  0.12574873  0.46176201  1
  S2-  S209  1  0.51063613  0.13367447  0.96204272  1
  S2-  S210  1  0.49674457  0.38089046  0.46232597  1
  S2-  S211  1  0.50309936  0.37802569  0.94989116  1
  S2-  S212  1  0.49536901  0.62574638  0.45350750  1
  S2-  S213  1  0.50248217  0.63238647  0.94716863  1
  S2-  S214  1  0.49494434  0.87372137  0.44094108  1
  S2-  S215  1  0.50600952  0.88001916  0.95411318  1
  S2-  S216  1  0.74348534  0.13077224  0.45415863  1
  S2-  S217  1  0.75632808  0.12808049  0.95151242  1
  S2-  S218  1  0.74107320  0.37378819  0.45209836  1
  S2-  S219  1  0.75934135  0.38803008  0.94025826  1
  S2-  S220  1  0.74231430  0.62067627  0.45116488  1
  S2-  S221  1  0.75372944  0.62872723  0.94863600  1
  S2-  S222  1  0.74213990  0.88067935  0.45266537  1
  S2-  S223  1  0.75478421  0.87940567  0.94830906  1
  S2-  S224  1  0.12686287  0.01241357  0.04829190  1
  S2-  S225  1  0.12080604  0.00620239  0.54177169  1
  S2-  S226  1  0.12243127  0.25854542  0.05296577  1
  S2-  S227  1  0.12023659  0.25375105  0.54630035  1
  S2-  S228  1  0.12265460  0.50183000  0.04421639  1
  S2-  S229  1  0.12287023  0.50236116  0.54315287  1
  S2-  S230  1  0.12260230  0.75139011  0.05444533  1
  S2-  S231  1  0.11444414  0.74677040  0.54847166  1
  S2-  S232  1  0.38500333  0.01054259  0.04625326  1
  S2-  S233  1  0.37105817  0.00084149  0.55186012  1
  S2-  S234  1  0.37955650  0.25785135  0.05224692  1
  S2-  S235  1  0.36994061  0.25445683  0.55276712  1
  S2-  S236  1  0.38495624  0.50384357  0.04672189  1
  S2-  S237  1  0.36464485  0.50090468  0.55077568  1
  S2-  S238  1  0.38497484  0.75153077  0.04007447  1
  S2-  S239  1  0.37420974  0.75016194  0.54545696  1
  S2-  S240  1  0.62902331  0.00320189  0.04651782  1
  S2-  S241  1  0.62138726  0.00109512  0.54914686  1
  S2-  S242  1  0.63885138  0.25878232  0.05430071  1
  S2-  S243  1  0.61882795  0.25001222  0.56166803  1
  S2-  S244  1  0.63028076  0.50428279  0.03853595  1
  S2-  S245  1  0.62380187  0.50082581  0.54216335  1
  S2-  S246  1  0.63111128  0.75317668  0.04538311  1
  S2-  S247  1  0.62020316  0.74807427  0.53877153  1
  S2-  S248  1  0.88180763  0.00518780  0.04499891  1
  S2-  S249  1  0.86722982  0.00327755  0.54414429  1
  S2-  S250  1  0.87290017  0.25085211  0.05185352  1
  S2-  S251  1  0.86915740  0.25183554  0.54852069  1
  S2-  S252  1  0.87818202  0.50613500  0.04083677  1
  S2-  S253  1  0.86728417  0.50184236  0.54158084  1
  S2-  S254  1  0.87850429  0.75170888  0.04406571  1
  S2-  S255  1  0.87137417  0.75038885  0.54653610  1
