# generated using pymatgen
data_La12Ce14Pr13Nd13Sm12(BiS2)64
_symmetry_space_group_name_H-M   'P 1'
_cell_length_a   16.22634061
_cell_length_b   16.14417026
_cell_length_c   27.26055834
_cell_angle_alpha   89.98738959
_cell_angle_beta   90.01793114
_cell_angle_gamma   89.89495944
_symmetry_Int_Tables_number   1
_chemical_formula_structural   La12Ce14Pr13Nd13Sm12(BiS2)64
_chemical_formula_sum   'La12 Ce14 Pr13 Nd13 Sm12 Bi64 S128'
_cell_volume   7141.18529297
_cell_formula_units_Z   1
loop_
 _symmetry_equiv_pos_site_id
 _symmetry_equiv_pos_as_xyz
  1  'x, y, z'
loop_
 _atom_type_symbol
 _atom_type_oxidation_number
  La3+  3.0
  Ce3+  3.0
  Pr3+  3.0
  Nd3+  3.0
  Sm3+  3.0
  Bi2+  2.0
  S2-  -2.0
loop_
 _atom_site_type_symbol
 _atom_site_label
 _atom_site_symmetry_multiplicity
 _atom_site_fract_x
 _atom_site_fract_y
 _atom_site_fract_z
 _atom_site_occupancy
  La3+  La0  1  0.13874085  0.50036085  0.41325425  1
  La3+  La1  1  0.00861867  0.87069399  0.56675211  1
  La3+  La2  1  0.25736495  0.88173939  0.07007644  1
  La3+  La3  1  0.75486106  0.36860467  0.07998659  1
  La3+  La4  1  0.51227334  0.85565033  0.57993821  1
  La3+  La5  1  0.13646024  0.25367527  0.93634198  1
  La3+  La6  1  0.00082006  0.63372705  0.10642270  1
  La3+  La7  1  0.26096080  0.86298131  0.58247319  1
  La3+  La8  1  0.00688671  0.36667278  0.07661699  1
  La3+  La9  1  0.88129091  0.23503126  0.42139275  1
  La3+  La10  1  0.88304473  -0.01657876  0.42492013  1
  La3+  La11  1  0.38581294  0.48651645  0.42987776  1
  Ce3+  Ce12  1  0.00675322  0.11439534  0.55290028  1
  Ce3+  Ce13  1  0.38640702  0.74101481  0.44024342  1
  Ce3+  Ce14  1  0.50728665  0.62951277  0.06440187  1
  Ce3+  Ce15  1  0.13874877  -0.01491692  0.44046139  1
  Ce3+  Ce16  1  0.00452103  0.12841421  0.05417325  1
  Ce3+  Ce17  1  0.76131322  0.61414321  0.55146567  1
  Ce3+  Ce18  1  0.50804711  0.11640079  0.56035358  1
  Ce3+  Ce19  1  0.25342213  0.37905112  0.06764895  1
  Ce3+  Ce20  1  0.63134710  0.49848974  0.95083394  1
  Ce3+  Ce21  1  0.75269415  0.12179792  0.06041834  1
  Ce3+  Ce22  1  0.88102454  0.75001745  0.94303110  1
  Ce3+  Ce23  1  0.25717170  0.12291185  0.06270053  1
  Ce3+  Ce24  1  0.38232216  0.24129579  0.44023053  1
  Ce3+  Ce25  1  0.75900898  0.62655913  0.06261563  1
  Pr3+  Pr26  1  0.76448818  0.35954904  0.56286115  1
  Pr3+  Pr27  1  0.63588160  0.00966899  0.92260889  1
  Pr3+  Pr28  1  0.51006896  0.87932979  0.05382272  1
  Pr3+  Pr29  1  0.87989245  0.25921287  0.93476584  1
  Pr3+  Pr30  1  0.50755689  0.36649711  0.57027029  1
  Pr3+  Pr31  1  0.01028875  0.61392107  0.55440407  1
  Pr3+  Pr32  1  0.25579486  0.61256431  0.56154725  1
  Pr3+  Pr33  1  0.88559353  0.73903053  0.43612910  1
  Pr3+  Pr34  1  0.50786837  0.60812861  0.56554216  1
  Pr3+  Pr35  1  0.25835901  0.11718869  0.56876403  1
  Pr3+  Pr36  1  0.50374569  0.37614172  0.06608997  1
  Pr3+  Pr37  1  0.13010836  -0.00326585  0.93791050  1
  Pr3+  Pr38  1  0.62793164  -0.01262976  0.44118926  1
  Nd3+  Nd39  1  0.62869919  0.73718593  0.43435843  1
  Nd3+  Nd40  1  0.00891010  0.36401645  0.54474392  1
  Nd3+  Nd41  1  0.12885410  0.50479987  0.95594667  1
  Nd3+  Nd42  1  0.63090664  0.75146349  0.93814808  1
  Nd3+  Nd43  1  0.88198510  0.00070115  0.94092540  1
  Nd3+  Nd44  1  0.88434413  0.50037353  0.95220680  1
  Nd3+  Nd45  1  0.37841164  0.50562961  0.94874591  1
  Nd3+  Nd46  1  0.37930559  -0.00106247  0.93263050  1
  Nd3+  Nd47  1  0.13663926  0.23828413  0.43351218  1
  Nd3+  Nd48  1  0.88149223  0.48422759  0.42604284  1
  Nd3+  Nd49  1  0.37772222  0.25364469  0.94484187  1
  Nd3+  Nd50  1  0.26497647  0.63686166  0.09047403  1
  Nd3+  Nd51  1  0.63218700  0.26246453  0.93252518  1
  Sm3+  Sm52  1  0.37993004  0.75134103  0.94392748  1
  Sm3+  Sm53  1  0.50768576  0.12666885  0.04470847  1
  Sm3+  Sm54  1  0.63222816  0.23933943  0.44527547  1
  Sm3+  Sm55  1  0.00698105  0.87308905  0.06180277  1
  Sm3+  Sm56  1  0.25457206  0.36409096  0.56047431  1
  Sm3+  Sm57  1  0.13070103  0.74955468  0.95004973  1
  Sm3+  Sm58  1  0.14470101  0.75007932  0.42503321  1
  Sm3+  Sm59  1  0.75880264  0.11238457  0.55443682  1
  Sm3+  Sm60  1  0.63538771  0.48472071  0.44505206  1
  Sm3+  Sm61  1  0.75512520  0.86452485  0.55923194  1
  Sm3+  Sm62  1  0.75561226  0.88008388  0.05622157  1
  Sm3+  Sm63  1  0.38377249  -0.01266715  0.45243089  1
  Bi2+  Bi64  1  -0.00929073  0.08669222  0.27661516  1
  Bi2+  Bi65  1  -0.01500479  0.10612116  0.73021993  1
  Bi2+  Bi66  1  -0.01016706  0.30648916  0.28559959  1
  Bi2+  Bi67  1  -0.01081578  0.38645819  0.80941833  1
  Bi2+  Bi68  1  -0.04008495  0.70651407  0.30562692  1
  Bi2+  Bi69  1  -0.03258962  0.64930346  0.76349701  1
  Bi2+  Bi70  1  -0.02709644  0.88958486  0.27109556  1
  Bi2+  Bi71  1  0.00498136  0.87899843  0.81468880  1
  Bi2+  Bi72  1  0.27241279  0.14782282  0.31241532  1
  Bi2+  Bi73  1  0.27768763  0.16941542  0.75621064  1
  Bi2+  Bi74  1  0.27299335  0.37980627  0.29325096  1
  Bi2+  Bi75  1  0.22708768  0.37161018  0.81841297  1
  Bi2+  Bi76  1  0.24628991  0.65711530  0.28879968  1
  Bi2+  Bi77  1  0.24436989  0.58344696  0.78233053  1
  Bi2+  Bi78  1  0.23491721  0.95423926  0.29284302  1
  Bi2+  Bi79  1  0.24829238  0.87252912  0.81166439  1
  Bi2+  Bi80  1  0.46812420  0.17169573  0.28923367  1
  Bi2+  Bi81  1  0.47787701  0.17465275  0.75147507  1
  Bi2+  Bi82  1  0.51990057  0.37248602  0.29188196  1
  Bi2+  Bi83  1  0.49467410  0.38413466  0.79676789  1
  Bi2+  Bi84  1  0.48992046  0.64318783  0.27901907  1
  Bi2+  Bi85  1  0.47336395  0.58552278  0.79167513  1
  Bi2+  Bi86  1  0.50079309  0.89976356  0.30223933  1
  Bi2+  Bi87  1  0.49657452  0.85254297  0.80761133  1
  Bi2+  Bi88  1  0.73839504  0.11361964  0.28396443  1
  Bi2+  Bi89  1  0.73994635  0.12316098  0.75186603  1
  Bi2+  Bi90  1  0.71980869  0.36317235  0.29065512  1
  Bi2+  Bi91  1  0.75306849  0.32990523  0.81173151  1
  Bi2+  Bi92  1  0.75751530  0.66593568  0.28984281  1
  Bi2+  Bi93  1  0.76452082  0.62336565  0.77330248  1
  Bi2+  Bi94  1  0.68907144  0.84725398  0.28678139  1
  Bi2+  Bi95  1  0.75646248  0.91397340  0.79399078  1
  Bi2+  Bi96  1  0.11855925  -0.00467600  0.20443610  1
  Bi2+  Bi97  1  0.10314574  -0.03984073  0.71169322  1
  Bi2+  Bi98  1  0.14479422  0.18957140  0.22617793  1
  Bi2+  Bi99  1  0.11749298  0.24848002  0.70689354  1
  Bi2+  Bi100  1  0.11786099  0.47542616  0.21998754  1
  Bi2+  Bi101  1  0.15322719  0.44584063  0.72005074  1
  Bi2+  Bi102  1  0.13404945  0.75779155  0.20993883  1
  Bi2+  Bi103  1  0.13930828  0.71179353  0.72238423  1
  Bi2+  Bi104  1  0.38122302  0.05408592  0.21274999  1
  Bi2+  Bi105  1  0.36560287  0.01530840  0.71278636  1
  Bi2+  Bi106  1  0.33171041  0.24857048  0.20864954  1
  Bi2+  Bi107  1  0.37750016  0.32241249  0.69982538  1
  Bi2+  Bi108  1  0.44506402  0.48622284  0.20983000  1
  Bi2+  Bi109  1  0.36761112  0.52820843  0.69774341  1
  Bi2+  Bi110  1  0.39480688  0.79385564  0.22836667  1
  Bi2+  Bi111  1  0.38456022  0.73335975  0.71284329  1
  Bi2+  Bi112  1  0.60158817  -0.01455370  0.20117454  1
  Bi2+  Bi113  1  0.61999521  -0.01610951  0.71616549  1
  Bi2+  Bi114  1  0.60311321  0.21403835  0.20839000  1
  Bi2+  Bi115  1  0.57564917  0.31947461  0.69617259  1
  Bi2+  Bi116  1  0.63698481  0.54915538  0.22101593  1
  Bi2+  Bi117  1  0.61876793  0.50225127  0.73481433  1
  Bi2+  Bi118  1  0.57701178  0.72441140  0.18190078  1
  Bi2+  Bi119  1  0.64821203  0.73521043  0.70945052  1
  Bi2+  Bi120  1  0.82948323  -0.01497428  0.21521107  1
  Bi2+  Bi121  1  0.82713075  -0.01614908  0.68576804  1
  Bi2+  Bi122  1  0.87660576  0.26235298  0.20225886  1
  Bi2+  Bi123  1  0.88221181  0.26626248  0.69634771  1
  Bi2+  Bi124  1  0.87037241  0.51765366  0.22624996  1
  Bi2+  Bi125  1  0.87390541  0.52556780  0.69409927  1
  Bi2+  Bi126  1  0.76795787  0.78399916  0.18889204  1
  Bi2+  Bi127  1  0.85391419  0.79816329  0.71980678  1
  S2-  S128  1  -0.00192702  0.20757105  0.14051163  1
  S2-  S129  1  -0.00703692  0.02306608  0.63586995  1
  S2-  S130  1  -0.02611121  0.41483364  0.17222424  1
  S2-  S131  1  0.00421105  0.33870343  0.64457524  1
  S2-  S132  1  0.01087482  0.60991882  0.21267948  1
  S2-  S133  1  0.00841260  0.59043102  0.65506638  1
  S2-  S134  1  0.00935324  0.79588228  0.14944409  1
  S2-  S135  1  0.06087437  0.82325094  0.66044513  1
  S2-  S136  1  0.26616821  0.01592001  0.14098992  1
  S2-  S137  1  0.25124120  0.24632698  0.63791144  1
  S2-  S138  1  0.22514613  0.37365504  0.16408471  1
  S2-  S139  1  0.23327348  0.48233225  0.63363865  1
  S2-  S140  1  0.20233985  0.59844233  0.18281040  1
  S2-  S141  1  0.25304449  0.72054464  0.64641174  1
  S2-  S142  1  0.27055710  0.78389925  0.15311376  1
  S2-  S143  1  0.23363486  1.00390610  0.64930249  1
  S2-  S144  1  0.51599901  0.10529825  0.14228256  1
  S2-  S145  1  0.50752288  0.08745968  0.65754916  1
  S2-  S146  1  0.53197371  0.34788864  0.16328750  1
  S2-  S147  1  0.51695927  0.48930589  0.64343519  1
  S2-  S148  1  0.41537715  0.61813502  0.14621207  1
  S2-  S149  1  0.51609397  0.71091854  0.64903539  1
  S2-  S150  1  0.49009742  0.87568766  0.15369798  1
  S2-  S151  1  0.39691171  0.87683180  0.65899079  1
  S2-  S152  1  0.74990153  0.22269451  0.14248711  1
  S2-  S153  1  0.76525075  0.15433001  0.65011067  1
  S2-  S154  1  0.74790993  0.43688938  0.17671533  1
  S2-  S155  1  0.77644953  0.38339082  0.66247916  1
  S2-  S156  1  0.83751856  0.63524020  0.15002668  1
  S2-  S157  1  0.74998976  0.63030415  0.64767411  1
  S2-  S158  1  0.72623174  0.99376262  0.13018723  1
  S2-  S159  1  0.65632695  0.86667370  0.64239376  1
  S2-  S160  1  0.12648359  -0.10907268  0.35918069  1
  S2-  S161  1  0.13926659  -0.00531063  0.83735120  1
  S2-  S162  1  0.08624638  0.19662495  0.34116576  1
  S2-  S163  1  0.09803678  0.26308412  0.83890664  1
  S2-  S164  1  0.11011109  0.41795478  0.32174004  1
  S2-  S165  1  0.10406188  0.48850460  0.85718181  1
  S2-  S166  1  0.10630334  0.64430190  0.34697542  1
  S2-  S167  1  0.13703353  0.77155502  0.85175832  1
  S2-  S168  1  0.38117226  -0.02967634  0.35389310  1
  S2-  S169  1  0.37806114  -0.02013378  0.83377976  1
  S2-  S170  1  0.40150481  0.34550588  0.36161977  1
  S2-  S171  1  0.30955811  0.23913196  0.85458011  1
  S2-  S172  1  0.28950239  0.51822148  0.34538111  1
  S2-  S173  1  0.36154428  0.49044126  0.84996115  1
  S2-  S174  1  0.28577274  0.75240204  0.36109325  1
  S2-  S175  1  0.36577367  0.75704235  0.84615246  1
  S2-  S176  1  0.64788517  -0.00520666  0.34120347  1
  S2-  S177  1  0.59519087  -0.02125925  0.82686449  1
  S2-  S178  1  0.67005997  0.24051129  0.34888946  1
  S2-  S179  1  0.67230591  0.18994849  0.84429409  1
  S2-  S180  1  0.62818349  0.47898500  0.34708387  1
  S2-  S181  1  0.62930206  0.40781806  0.86731837  1
  S2-  S182  1  0.51014024  0.74704319  0.36178010  1
  S2-  S183  1  0.61443831  0.75334437  0.83933323  1
  S2-  S184  1  0.86570329  0.10462465  0.35054056  1
  S2-  S185  1  0.89081262  -0.00769919  0.84143804  1
  S2-  S186  1  0.86291488  0.35788567  0.34872920  1
  S2-  S187  1  0.88923350  0.24765871  0.83314251  1
  S2-  S188  1  0.88312840  0.56542272  0.33583330  1
  S2-  S189  1  0.86121626  0.45213839  0.85680895  1
  S2-  S190  1  0.88136415  0.85098206  0.35604536  1
  S2-  S191  1  0.90948783  0.74755030  0.84719311  1
  S2-  S192  1  0.01142582  0.10907118  0.44907003  1
  S2-  S193  1  0.00562487  0.12691191  0.94711318  1
  S2-  S194  1  0.01182600  0.36254732  0.44034895  1
  S2-  S195  1  0.00809279  0.37567457  0.96474563  1
  S2-  S196  1  0.00267900  0.61112774  0.44881288  1
  S2-  S197  1  0.00617053  0.62785912  0.95513841  1
  S2-  S198  1  0.00953873  0.86169364  0.45839245  1
  S2-  S199  1  0.00577273  0.87358928  0.95730174  1
  S2-  S200  1  0.26155943  0.11364901  0.45632724  1
  S2-  S201  1  0.25608407  0.12077913  0.95564775  1
  S2-  S202  1  0.25433372  0.36351061  0.45315292  1
  S2-  S203  1  0.25634128  0.38056393  0.96124241  1
  S2-  S204  1  0.26026132  0.61662842  0.45561371  1
  S2-  S205  1  0.25557514  0.62987973  0.95705232  1
  S2-  S206  1  0.26284280  0.86853501  0.46680422  1
  S2-  S207  1  0.25634060  0.87412286  0.95892408  1
  S2-  S208  1  0.50636583  0.11609005  0.45158920  1
  S2-  S209  1  0.50391537  0.12984440  0.93940087  1
  S2-  S210  1  0.51462349  0.36301205  0.46217044  1
  S2-  S211  1  0.49907734  0.37757035  0.95994215  1
  S2-  S212  1  0.51227055  0.60684200  0.45640365  1
  S2-  S213  1  0.50593712  0.62772917  0.95499658  1
  S2-  S214  1  0.50835547  0.86615840  0.46536087  1
  S2-  S215  1  0.50642651  0.87620724  0.94702139  1
  S2-  S216  1  0.75217844  0.11314641  0.45195279  1
  S2-  S217  1  0.76030464  0.12777965  0.95200971  1
  S2-  S218  1  0.75577396  0.36135757  0.45550095  1
  S2-  S219  1  0.75709939  0.37868727  0.96796060  1
  S2-  S220  1  0.75560508  0.61396239  0.44504373  1
  S2-  S221  1  0.75573978  0.62453663  0.95334780  1
  S2-  S222  1  0.75146252  0.86098449  0.45472937  1
  S2-  S223  1  0.75473031  0.87747146  0.95016469  1
  S2-  S224  1  0.12475783  0.00048897  0.04551108  1
  S2-  S225  1  0.13419829  -0.00799917  0.54351209  1
  S2-  S226  1  0.13671182  0.24850033  0.04638838  1
  S2-  S227  1  0.13056866  0.23800652  0.53928824  1
  S2-  S228  1  0.12695607  0.50776316  0.06310773  1
  S2-  S229  1  0.12857364  0.48689433  0.53091511  1
  S2-  S230  1  0.13062673  0.74696844  0.05340417  1
  S2-  S231  1  0.13112042  0.74006569  0.54092020  1
  S2-  S232  1  0.38641020  0.00305683  0.03921086  1
  S2-  S233  1  0.38648328  -0.00696445  0.55391788  1
  S2-  S234  1  0.38046858  0.24895589  0.05206414  1
  S2-  S235  1  0.38630251  0.24251027  0.54514965  1
  S2-  S236  1  0.37679194  0.50135203  0.05325428  1
  S2-  S237  1  0.38128650  0.48384897  0.53990063  1
  S2-  S238  1  0.38497872  0.75416712  0.04714735  1
  S2-  S239  1  0.38632798  0.73445867  0.54683731  1
  S2-  S240  1  0.62801146  0.00279018  0.02925679  1
  S2-  S241  1  0.63412079  -0.00643377  0.54724540  1
  S2-  S242  1  0.62579241  0.25077794  0.04054613  1
  S2-  S243  1  0.63433806  0.23912230  0.55020555  1
  S2-  S244  1  0.63027356  0.50191450  0.05764292  1
  S2-  S245  1  0.64155316  0.48543064  0.54824751  1
  S2-  S246  1  0.63581861  0.75395637  0.04515200  1
  S2-  S247  1  0.63728294  0.73513397  0.53959841  1
  S2-  S248  1  0.88565209  -0.00223529  0.04710714  1
  S2-  S249  1  0.87480525  -0.01213137  0.53577962  1
  S2-  S250  1  0.87855442  0.24873491  0.04168628  1
  S2-  S251  1  0.88294918  0.23491859  0.53543486  1
  S2-  S252  1  0.88421714  0.49969731  0.05788597  1
  S2-  S253  1  0.88399157  0.48686679  0.53763645  1
  S2-  S254  1  0.87910995  0.75578937  0.04723326  1
  S2-  S255  1  0.88212765  0.74326741  0.54668246  1
