# generated using pymatgen
data_La12Ce14Pr13Nd13Sm12(BiS2)64
_symmetry_space_group_name_H-M   'P 1'
_cell_length_a   16.10055358
_cell_length_b   16.13693268
_cell_length_c   27.32211267
_cell_angle_alpha   89.74821704
_cell_angle_beta   90.02089824
_cell_angle_gamma   90.16446349
_symmetry_Int_Tables_number   1
_chemical_formula_structural   La12Ce14Pr13Nd13Sm12(BiS2)64
_chemical_formula_sum   'La12 Ce14 Pr13 Nd13 Sm12 Bi64 S128'
_cell_volume   7098.55684057
_cell_formula_units_Z   1
loop_
 _symmetry_equiv_pos_site_id
 _symmetry_equiv_pos_as_xyz
  1  'x, y, z'
loop_
 _atom_type_symbol
 _atom_type_oxidation_number
  La3+  3.0
  Ce3+  3.0
  Pr3+  3.0
  Nd3+  3.0
  Sm3+  3.0
  Bi2+  2.0
  S2-  -2.0
loop_
 _atom_site_type_symbol
 _atom_site_label
 _atom_site_symmetry_multiplicity
 _atom_site_fract_x
 _atom_site_fract_y
 _atom_site_fract_z
 _atom_site_occupancy
  La3+  La0  1  0.13742377  0.23506492  0.91768756  1
  La3+  La1  1  0.62144887  0.50349504  0.43076465  1
  La3+  La2  1  0.51696418  0.60591882  0.07842971  1
  La3+  La3  1  0.87455233  0.50014776  0.42043565  1
  La3+  La4  1  0.36546581  0.69580329  0.37705279  1
  La3+  La5  1  0.74613495  0.88833812  0.61178534  1
  La3+  La6  1  0.75224851  0.62763849  0.56708845  1
  La3+  La7  1  0.74885863  0.10502509  0.06830718  1
  La3+  La8  1  0.51816742  0.87137916  0.08352517  1
  La3+  La9  1  0.14302051  0.50796731  0.43192914  1
  La3+  La10  1  0.37635155  -0.00298033  0.40855300  1
  La3+  La11  1  0.00904552  0.10795523  0.06282515  1
  Ce3+  Ce12  1  0.37837467  0.23880833  0.94001738  1
  Ce3+  Ce13  1  0.25862773  0.10849404  0.05849005  1
  Ce3+  Ce14  1  0.63121660  0.48679245  0.93777531  1
  Ce3+  Ce15  1  0.87898316  -0.01536558  0.94500507  1
  Ce3+  Ce16  1  0.75591143  0.38294657  0.56677167  1
  Ce3+  Ce17  1  0.50574153  0.36006320  0.06041239  1
  Ce3+  Ce18  1  0.61800017  0.75586846  0.43859463  1
  Ce3+  Ce19  1  0.62501629  0.00281814  0.43668213  1
  Ce3+  Ce20  1  0.13394203  0.73593872  0.94458520  1
  Ce3+  Ce21  1  0.01038428  0.36009177  0.05005479  1
  Ce3+  Ce22  1  0.88055368  0.48732240  0.93602368  1
  Ce3+  Ce23  1  0.38748306  0.73709732  0.95425855  1
  Ce3+  Ce24  1  0.25812436  0.60610853  0.07594414  1
  Ce3+  Ce25  1  0.50699582  0.12110603  0.56438386  1
  Pr3+  Pr26  1  0.13564237  0.48834219  0.93708751  1
  Pr3+  Pr27  1  0.63215412  0.23877124  0.93442657  1
  Pr3+  Pr28  1  0.75538102  0.12498808  0.55665380  1
  Pr3+  Pr29  1  0.24621159  0.35141679  0.07602772  1
  Pr3+  Pr30  1  0.25406983  0.88027015  0.56813146  1
  Pr3+  Pr31  1  0.76097904  0.60676769  0.06149444  1
  Pr3+  Pr32  1  0.13206060  -0.01503296  0.93141112  1
  Pr3+  Pr33  1  0.87522362  0.75301880  0.44448573  1
  Pr3+  Pr34  1  0.61633042  0.72728538  0.91766291  1
  Pr3+  Pr35  1  0.25364205  0.12150498  0.56930662  1
  Pr3+  Pr36  1  0.13156650  0.25354092  0.44297430  1
  Pr3+  Pr37  1  0.13629741  0.75857856  0.44816595  1
  Pr3+  Pr38  1  0.38489757  -0.01723048  0.93472560  1
  Nd3+  Nd39  1  0.87927115  0.00169994  0.43287712  1
  Nd3+  Nd40  1  0.88331798  0.23330467  0.94038289  1
  Nd3+  Nd41  1  0.12526013  0.00567956  0.43930519  1
  Nd3+  Nd42  1  0.25731616  0.85970659  0.06090428  1
  Nd3+  Nd43  1  0.00853778  0.61096148  0.05853449  1
  Nd3+  Nd44  1  0.25805208  0.36803167  0.57311290  1
  Nd3+  Nd45  1  -0.00035773  0.12605407  0.56099600  1
  Nd3+  Nd46  1  0.38016872  0.48773983  0.94818842  1
  Nd3+  Nd47  1  0.75755139  0.35789876  0.05799912  1
  Nd3+  Nd48  1  0.63342081  -0.00674914  0.92273797  1
  Nd3+  Nd49  1  0.62998507  0.25284967  0.45048784  1
  Nd3+  Nd50  1  0.50494600  0.87626553  0.55725917  1
  Nd3+  Nd51  1  0.25459290  0.62499351  0.56700819  1
  Sm3+  Sm52  1  0.87873935  0.25895428  0.44399678  1
  Sm3+  Sm53  1  0.37930681  0.24525291  0.44579474  1
  Sm3+  Sm54  1  0.50373038  0.11163706  0.05051987  1
  Sm3+  Sm55  1  0.00569733  0.38077080  0.55522301  1
  Sm3+  Sm56  1  0.00551694  0.85947926  0.05358604  1
  Sm3+  Sm57  1  0.38185572  0.49571718  0.44567423  1
  Sm3+  Sm58  1  0.00443301  0.62411975  0.55216964  1
  Sm3+  Sm59  1  -0.00228921  0.87599002  0.56243372  1
  Sm3+  Sm60  1  0.87860111  0.73535543  0.93920759  1
  Sm3+  Sm61  1  0.50462808  0.37775993  0.56262801  1
  Sm3+  Sm62  1  0.75079833  0.85657616  0.04841219  1
  Sm3+  Sm63  1  0.50140302  0.62964544  0.55836091  1
  Bi2+  Bi64  1  0.03512191  0.12362210  0.28146647  1
  Bi2+  Bi65  1  -0.00997403  0.12759791  0.79732317  1
  Bi2+  Bi66  1  0.00834375  0.32342343  0.28174710  1
  Bi2+  Bi67  1  -0.04135859  0.37233181  0.78124464  1
  Bi2+  Bi68  1  -0.03731907  0.58069046  0.29962998  1
  Bi2+  Bi69  1  0.04378331  0.68813890  0.76461509  1
  Bi2+  Bi70  1  -0.05572417  0.86920006  0.30564012  1
  Bi2+  Bi71  1  0.00759491  0.92035490  0.77825485  1
  Bi2+  Bi72  1  0.28909771  0.10948874  0.27714498  1
  Bi2+  Bi73  1  0.28435685  0.14231740  0.77788071  1
  Bi2+  Bi74  1  0.31256599  0.30112596  0.30245268  1
  Bi2+  Bi75  1  0.23380881  0.39426799  0.79947347  1
  Bi2+  Bi76  1  0.19717094  0.54998217  0.27966172  1
  Bi2+  Bi77  1  0.26245288  0.62404355  0.79931571  1
  Bi2+  Bi78  1  0.19811543  0.88332176  0.29128728  1
  Bi2+  Bi79  1  0.19757912  0.89423893  0.80715231  1
  Bi2+  Bi80  1  0.52592595  0.10925397  0.25776701  1
  Bi2+  Bi81  1  0.53462379  0.22085800  0.80110306  1
  Bi2+  Bi82  1  0.51022219  0.36647571  0.29901653  1
  Bi2+  Bi83  1  0.47400394  0.40937291  0.79223763  1
  Bi2+  Bi84  1  0.51582867  0.61550960  0.27676431  1
  Bi2+  Bi85  1  0.45222844  0.65833419  0.73793661  1
  Bi2+  Bi86  1  0.49855831  0.88095869  0.28812515  1
  Bi2+  Bi87  1  0.45128521  0.87263527  0.80827781  1
  Bi2+  Bi88  1  0.78876297  0.02813463  0.29799340  1
  Bi2+  Bi89  1  0.78359100  0.14321691  0.78135184  1
  Bi2+  Bi90  1  0.74727743  0.36877031  0.29919087  1
  Bi2+  Bi91  1  0.66631788  0.37430379  0.81489160  1
  Bi2+  Bi92  1  0.77327439  0.63436895  0.27649398  1
  Bi2+  Bi93  1  0.76613962  0.62237875  0.81203753  1
  Bi2+  Bi94  1  0.70730767  0.85218277  0.27513504  1
  Bi2+  Bi95  1  0.77084344  0.88329118  0.81513134  1
  Bi2+  Bi96  1  0.11753998  -0.01949092  0.20364925  1
  Bi2+  Bi97  1  0.15080104  0.02698208  0.71826779  1
  Bi2+  Bi98  1  0.18683469  0.31057430  0.21353449  1
  Bi2+  Bi99  1  0.12590032  0.27448405  0.69541188  1
  Bi2+  Bi100  1  0.09485265  0.51779212  0.18315474  1
  Bi2+  Bi101  1  0.08887971  0.53529283  0.70043330  1
  Bi2+  Bi102  1  0.07948766  0.73375548  0.26960471  1
  Bi2+  Bi103  1  0.12440376  0.82979130  0.69591371  1
  Bi2+  Bi104  1  0.37347879  0.09173927  0.17871401  1
  Bi2+  Bi105  1  0.38965675  0.01083789  0.72059590  1
  Bi2+  Bi106  1  0.46718016  0.26050354  0.18034253  1
  Bi2+  Bi107  1  0.39754864  0.26708127  0.71924740  1
  Bi2+  Bi108  1  0.37773877  0.42426060  0.22050063  1
  Bi2+  Bi109  1  0.34027992  0.51482439  0.70218300  1
  Bi2+  Bi110  1  0.32373861  0.75237974  0.19875354  1
  Bi2+  Bi111  1  0.32031857  0.80743212  0.72793333  1
  Bi2+  Bi112  1  0.67186109  0.01077576  0.20040301  1
  Bi2+  Bi113  1  0.61514360  0.00467910  0.71769781  1
  Bi2+  Bi114  1  0.65108734  0.25085235  0.21832195  1
  Bi2+  Bi115  1  0.66558772  0.26049867  0.71078020  1
  Bi2+  Bi116  1  0.64084253  0.48675390  0.20679564  1
  Bi2+  Bi117  1  0.62409107  0.45436139  0.71116249  1
  Bi2+  Bi118  1  0.58405124  0.74237706  0.19828303  1
  Bi2+  Bi119  1  0.62371321  0.75151878  0.71567189  1
  Bi2+  Bi120  1  0.91495016  -0.03129146  0.19929155  1
  Bi2+  Bi121  1  0.90136481  0.04907572  0.70287694  1
  Bi2+  Bi122  1  0.85647449  0.19750192  0.25536678  1
  Bi2+  Bi123  1  0.85311539  0.29880553  0.69392797  1
  Bi2+  Bi124  1  0.88348925  0.47063714  0.21846600  1
  Bi2+  Bi125  1  0.82059532  0.48699383  0.73449409  1
  Bi2+  Bi126  1  0.85768743  0.77914419  0.21159348  1
  Bi2+  Bi127  1  0.89587489  0.74634923  0.70737723  1
  S2-  S128  1  0.01289737  0.10654883  0.16300540  1
  S2-  S129  1  0.03483982  0.14015985  0.65856521  1
  S2-  S130  1  0.06485481  0.35156769  0.14231050  1
  S2-  S131  1  0.00060418  0.37792908  0.65417242  1
  S2-  S132  1  -0.05463707  0.59036674  0.14978939  1
  S2-  S133  1  -0.02775588  0.61730562  0.64917081  1
  S2-  S134  1  -0.00490866  0.83826646  0.15059405  1
  S2-  S135  1  -0.08487859  0.89081744  0.64800119  1
  S2-  S136  1  0.23910653  0.20399994  0.14004615  1
  S2-  S137  1  0.25841315  0.23366959  0.64743535  1
  S2-  S138  1  0.26542424  0.47307990  0.14846196  1
  S2-  S139  1  0.20779003  0.41993508  0.66537623  1
  S2-  S140  1  0.18320678  0.66372202  0.15917532  1
  S2-  S141  1  0.22050859  0.62355859  0.66530564  1
  S2-  S142  1  0.24306735  0.90135649  0.15744295  1
  S2-  S143  1  0.26628532  0.99900251  0.64483372  1
  S2-  S144  1  0.53585415  0.03795003  0.13632453  1
  S2-  S145  1  0.50347934  0.10294250  0.66280471  1
  S2-  S146  1  0.52269593  0.45233875  0.14308481  1
  S2-  S147  1  0.44732123  0.38993070  0.65530151  1
  S2-  S148  1  0.44006345  0.65034493  0.16735885  1
  S2-  S149  1  0.54445068  0.63127224  0.65429908  1
  S2-  S150  1  0.45703540  0.85678022  0.18344999  1
  S2-  S151  1  0.57477701  0.88228526  0.65114237  1
  S2-  S152  1  0.76667428  0.16871350  0.16109792  1
  S2-  S153  1  0.74414401  0.05820599  0.64949548  1
  S2-  S154  1  0.77143633  0.41789170  0.15004815  1
  S2-  S155  1  0.75100215  0.49765633  0.63913853  1
  S2-  S156  1  0.66836891  0.62174515  0.14537861  1
  S2-  S157  1  0.75628474  0.72387263  0.65331959  1
  S2-  S158  1  0.67880386  0.87242997  0.13690808  1
  S2-  S159  1  0.73943444  0.89069151  0.72167622  1
  S2-  S160  1  0.21702577  0.01219861  0.35443323  1
  S2-  S161  1  0.11888918  0.09573611  0.85291234  1
  S2-  S162  1  0.10994676  0.23367800  0.34301020  1
  S2-  S163  1  0.09835814  0.31163208  0.82310877  1
  S2-  S164  1  0.08175122  0.47075011  0.33755498  1
  S2-  S165  1  0.14458921  0.51620815  0.83622111  1
  S2-  S166  1  0.18396738  0.73538710  0.35279094  1
  S2-  S167  1  0.14813675  0.73345413  0.84718872  1
  S2-  S168  1  0.36373256  -0.13701841  0.34015272  1
  S2-  S169  1  0.37987608  0.03068895  0.83605815  1
  S2-  S170  1  0.37620683  0.16209725  0.35975218  1
  S2-  S171  1  0.29178255  0.25852699  0.85697519  1
  S2-  S172  1  0.27947210  0.53024537  0.36803320  1
  S2-  S173  1  0.36170806  0.50421849  0.84819783  1
  S2-  S174  1  0.34971548  0.65423301  0.27619643  1
  S2-  S175  1  0.45221262  0.73440606  0.86401931  1
  S2-  S176  1  0.53921873  0.01120012  0.34921137  1
  S2-  S177  1  0.60630673  -0.05282750  0.82548065  1
  S2-  S178  1  0.62538450  0.27298285  0.35185567  1
  S2-  S179  1  0.65705696  0.13521432  0.85549267  1
  S2-  S180  1  0.48956899  0.50866976  0.36058094  1
  S2-  S181  1  0.62089681  0.57475028  0.85615407  1
  S2-  S182  1  0.54356567  0.73518932  0.34831156  1
  S2-  S183  1  0.66280377  0.75430354  0.81831647  1
  S2-  S184  1  0.99773736  0.00689520  0.35880616  1
  S2-  S185  1  0.86719439  0.02010602  0.85031674  1
  S2-  S186  1  0.88143793  0.34923645  0.36032013  1
  S2-  S187  1  0.87289765  0.25329070  0.84151234  1
  S2-  S188  1  0.73533270  0.51420468  0.35257506  1
  S2-  S189  1  0.89942253  0.50867602  0.83994265  1
  S2-  S190  1  0.87054060  0.71529744  0.34659836  1
  S2-  S191  1  0.87826706  0.74998257  0.84166300  1
  S2-  S192  1  -0.00084658  0.13463334  0.45522242  1
  S2-  S193  1  0.00405730  0.10807078  0.95480562  1
  S2-  S194  1  0.00841795  0.37996067  0.45253312  1
  S2-  S195  1  0.00804712  0.36168874  0.94404757  1
  S2-  S196  1  0.00766361  0.62886627  0.44783041  1
  S2-  S197  1  0.00556734  0.61375551  0.95026655  1
  S2-  S198  1  0.00336193  0.87664725  0.45814358  1
  S2-  S199  1  0.00496031  0.85970312  0.94779602  1
  S2-  S200  1  0.25262807  0.12772460  0.46275498  1
  S2-  S201  1  0.25950820  0.10664001  0.95282309  1
  S2-  S202  1  0.26001569  0.37216604  0.46064999  1
  S2-  S203  1  0.25506376  0.36397674  0.96141411  1
  S2-  S204  1  0.26535209  0.63710487  0.46408172  1
  S2-  S205  1  0.25866347  0.61412043  0.96252326  1
  S2-  S206  1  0.24983298  0.88773063  0.46283228  1
  S2-  S207  1  0.25830409  0.86076921  0.95295268  1
  S2-  S208  1  0.50670958  0.12815465  0.45911065  1
  S2-  S209  1  0.50460596  0.11359378  0.94751464  1
  S2-  S210  1  0.50126303  0.37037248  0.45887106  1
  S2-  S211  1  0.50514641  0.36177775  0.95093464  1
  S2-  S212  1  0.49217396  0.63345066  0.45620213  1
  S2-  S213  1  0.50578768  0.60637576  0.96532076  1
  S2-  S214  1  0.50113601  0.88294409  0.45361216  1
  S2-  S215  1  0.51243112  0.86446191  0.95361566  1
  S2-  S216  1  0.75762293  0.13000834  0.44804524  1
  S2-  S217  1  0.75896895  0.11265869  0.96002552  1
  S2-  S218  1  0.75180867  0.37802426  0.46081704  1
  S2-  S219  1  0.75941668  0.36010404  0.95115268  1
  S2-  S220  1  0.74764766  0.63098534  0.45518224  1
  S2-  S221  1  0.75741970  0.61300400  0.95384418  1
  S2-  S222  1  0.75176508  0.87924425  0.43592869  1
  S2-  S223  1  0.75219545  0.85779866  0.94414719  1
  S2-  S224  1  0.13135146  -0.01807174  0.04167330  1
  S2-  S225  1  0.12002766  0.00108049  0.54990766  1
  S2-  S226  1  0.12978802  0.23109684  0.03332861  1
  S2-  S227  1  0.12407472  0.25315634  0.54804264  1
  S2-  S228  1  0.13070761  0.48751398  0.04325307  1
  S2-  S229  1  0.13127036  0.50164836  0.54415295  1
  S2-  S230  1  0.12993022  0.73818136  0.04856190  1
  S2-  S231  1  0.12632807  0.75232546  0.55474684  1
  S2-  S232  1  0.38406098  -0.01690884  0.04279246  1
  S2-  S233  1  0.38432690  0.00160697  0.54896592  1
  S2-  S234  1  0.38162306  0.23507817  0.04412026  1
  S2-  S235  1  0.38630446  0.24906897  0.54961025  1
  S2-  S236  1  0.38091039  0.48127953  0.05074677  1
  S2-  S237  1  0.37866484  0.50055841  0.55058668  1
  S2-  S238  1  0.38614894  0.74042012  0.05801508  1
  S2-  S239  1  0.37853021  0.75250939  0.56987461  1
  S2-  S240  1  0.63178384  -0.01389869  0.03092812  1
  S2-  S241  1  0.63352832  -0.00151457  0.54332838  1
  S2-  S242  1  0.62928269  0.23524365  0.04577400  1
  S2-  S243  1  0.63014837  0.25384251  0.55709267  1
  S2-  S244  1  0.63743853  0.48156507  0.04132261  1
  S2-  S245  1  0.61992896  0.50184756  0.54161470  1
  S2-  S246  1  0.63152834  0.73553633  0.03975354  1
  S2-  S247  1  0.62690520  0.75139433  0.54406299  1
  S2-  S248  1  0.87813559  -0.01940175  0.05154754  1
  S2-  S249  1  0.87800260  0.00033022  0.53943093  1
  S2-  S250  1  0.88206900  0.23363195  0.04839414  1
  S2-  S251  1  0.87989923  0.25585669  0.54858769  1
  S2-  S252  1  0.88476251  0.48279892  0.04132338  1
  S2-  S253  1  0.88380528  0.50164629  0.53642352  1
  S2-  S254  1  0.87999992  0.73779069  0.04464374  1
  S2-  S255  1  0.88203804  0.74909522  0.54790227  1
