# generated using pymatgen
data_La12Ce14Pr13Nd13Sm12(BiS2)64
_symmetry_space_group_name_H-M   'P 1'
_cell_length_a   16.12653973
_cell_length_b   16.09878681
_cell_length_c   27.32227115
_cell_angle_alpha   89.85822525
_cell_angle_beta   89.92589713
_cell_angle_gamma   90.04112216
_symmetry_Int_Tables_number   1
_chemical_formula_structural   La12Ce14Pr13Nd13Sm12(BiS2)64
_chemical_formula_sum   'La12 Ce14 Pr13 Nd13 Sm12 Bi64 S128'
_cell_volume   7093.31638710
_cell_formula_units_Z   1
loop_
 _symmetry_equiv_pos_site_id
 _symmetry_equiv_pos_as_xyz
  1  'x, y, z'
loop_
 _atom_type_symbol
 _atom_type_oxidation_number
  La3+  3.0
  Ce3+  3.0
  Pr3+  3.0
  Nd3+  3.0
  Sm3+  3.0
  Bi2+  2.0
  S2-  -2.0
loop_
 _atom_site_type_symbol
 _atom_site_label
 _atom_site_symmetry_multiplicity
 _atom_site_fract_x
 _atom_site_fract_y
 _atom_site_fract_z
 _atom_site_occupancy
  La3+  La0  1  0.63329884  0.23777822  0.41676602  1
  La3+  La1  1  0.37363994  0.23866921  0.39750898  1
  La3+  La2  1  0.73246141  0.62794620  0.07680337  1
  La3+  La3  1  0.11820222  0.49981000  0.42457275  1
  La3+  La4  1  0.49309788  0.85831157  0.61265972  1
  La3+  La5  1  0.23981802  0.60223010  0.57525509  1
  La3+  La6  1  0.36531467  0.50463843  0.41816727  1
  La3+  La7  1  0.11717947  0.00068195  0.93136904  1
  La3+  La8  1  0.62358686  0.01513616  0.91963628  1
  La3+  La9  1  0.24227419  0.11442263  0.09488110  1
  La3+  La10  1  0.86776561  -0.00562841  0.92903785  1
  La3+  La11  1  0.74459299  0.37574888  0.58244782  1
  Ce3+  Ce12  1  0.74064936  0.12238028  0.56910042  1
  Ce3+  Ce13  1  0.74089558  0.37736621  0.06677131  1
  Ce3+  Ce14  1  0.49345864  0.37089582  0.54365320  1
  Ce3+  Ce15  1  0.87420929  0.49628142  0.42926307  1
  Ce3+  Ce16  1  0.61806068  0.50148048  0.94370907  1
  Ce3+  Ce17  1  0.11953651  0.25625360  0.94334388  1
  Ce3+  Ce18  1  0.49334367  0.60928855  0.56476961  1
  Ce3+  Ce19  1  -0.01216680  0.61868705  0.55623792  1
  Ce3+  Ce20  1  -0.00161468  0.12817848  0.05216834  1
  Ce3+  Ce21  1  0.24438581  0.63052253  0.06678030  1
  Ce3+  Ce22  1  0.73962157  0.87605394  0.57286777  1
  Ce3+  Ce23  1  0.36880416  0.00010173  0.44653824  1
  Ce3+  Ce24  1  0.36140815  0.75043588  0.92558989  1
  Ce3+  Ce25  1  0.49461094  0.11892921  0.56148701  1
  Pr3+  Pr26  1  0.62157731  0.26332342  0.93359744  1
  Pr3+  Pr27  1  0.61483305  0.75358766  0.93818385  1
  Pr3+  Pr28  1  0.74254779  0.12210380  0.06567566  1
  Pr3+  Pr29  1  0.61708480  0.74947732  0.44376281  1
  Pr3+  Pr30  1  0.48720396  0.62852934  0.06517060  1
  Pr3+  Pr31  1  0.73634171  0.87537202  0.07187481  1
  Pr3+  Pr32  1  0.36314316  0.25306590  0.95262973  1
  Pr3+  Pr33  1  0.23141994  0.38471511  0.08999240  1
  Pr3+  Pr34  1  0.36871359  0.74641972  0.44720067  1
  Pr3+  Pr35  1  -0.00262648  0.37440360  0.56438453  1
  Pr3+  Pr36  1  0.49937436  0.12734635  0.06555320  1
  Pr3+  Pr37  1  0.36844065  0.00992418  0.93319581  1
  Pr3+  Pr38  1  0.24188946  0.12372514  0.56539590  1
  Nd3+  Nd39  1  0.86761067  0.75559618  0.44289399  1
  Nd3+  Nd40  1  0.11905255  0.74598427  0.93845243  1
  Nd3+  Nd41  1  0.24233667  0.86928553  0.57042710  1
  Nd3+  Nd42  1  0.86360384  0.75012831  0.94149868  1
  Nd3+  Nd43  1  0.24593086  0.87548572  0.05533217  1
  Nd3+  Nd44  1  0.61828991  0.49380247  0.42872515  1
  Nd3+  Nd45  1  -0.00730426  0.63804507  0.07214767  1
  Nd3+  Nd46  1  0.36443960  0.50259686  0.94728339  1
  Nd3+  Nd47  1  0.12100463  0.24537355  0.42829557  1
  Nd3+  Nd48  1  -0.01165074  0.88432639  0.06530595  1
  Nd3+  Nd49  1  0.86598894  0.25558305  0.94694016  1
  Nd3+  Nd50  1  -0.00464587  0.86843392  0.57472832  1
  Nd3+  Nd51  1  -0.00610242  0.12418944  0.55528293  1
  Sm3+  Sm52  1  0.49122104  0.88009161  0.05364615  1
  Sm3+  Sm53  1  0.12139606  -0.00170258  0.44601180  1
  Sm3+  Sm54  1  0.87028573  0.24829771  0.44545661  1
  Sm3+  Sm55  1  0.86926799  -0.00271535  0.45082018  1
  Sm3+  Sm56  1  0.61737187  -0.00066417  0.44488035  1
  Sm3+  Sm57  1  -0.00657046  0.37941646  0.05989256  1
  Sm3+  Sm58  1  0.11895517  0.75018371  0.44972828  1
  Sm3+  Sm59  1  0.86819006  0.50778861  0.95593901  1
  Sm3+  Sm60  1  0.24686412  0.36763197  0.54245295  1
  Sm3+  Sm61  1  0.11675071  0.50300857  0.94820846  1
  Sm3+  Sm62  1  0.48934926  0.37351562  0.06635526  1
  Sm3+  Sm63  1  0.74204366  0.61993217  0.55036140  1
  Bi2+  Bi64  1  0.00729813  0.17171395  0.28992304  1
  Bi2+  Bi65  1  -0.02905280  0.12253319  0.76911153  1
  Bi2+  Bi66  1  0.02807200  0.36490163  0.30706650  1
  Bi2+  Bi67  1  -0.00513201  0.33283175  0.77881361  1
  Bi2+  Bi68  1  0.02419910  0.67900892  0.29010540  1
  Bi2+  Bi69  1  -0.04750268  0.64881976  0.78595214  1
  Bi2+  Bi70  1  -0.00694518  0.93201349  0.29036455  1
  Bi2+  Bi71  1  0.01634477  0.93154266  0.80455217  1
  Bi2+  Bi72  1  0.24353653  0.08716051  0.29639697  1
  Bi2+  Bi73  1  0.23774163  0.23001561  0.76738312  1
  Bi2+  Bi74  1  0.29094545  0.36999872  0.28610394  1
  Bi2+  Bi75  1  0.20793674  0.40629222  0.81756946  1
  Bi2+  Bi76  1  0.26693572  0.63756183  0.28597665  1
  Bi2+  Bi77  1  0.26268625  0.61581792  0.81067252  1
  Bi2+  Bi78  1  0.26220085  0.83939558  0.28782777  1
  Bi2+  Bi79  1  0.20294313  0.87943035  0.78015401  1
  Bi2+  Bi80  1  0.52756634  0.02088297  0.28169695  1
  Bi2+  Bi81  1  0.45561548  0.14268419  0.79440946  1
  Bi2+  Bi82  1  0.54418655  0.41699046  0.26531379  1
  Bi2+  Bi83  1  0.49095091  0.40394439  0.78667095  1
  Bi2+  Bi84  1  0.52975007  0.65105265  0.29550680  1
  Bi2+  Bi85  1  0.52225446  0.57919525  0.73533051  1
  Bi2+  Bi86  1  0.46343770  0.83769364  0.28755653  1
  Bi2+  Bi87  1  0.48920603  0.85139831  0.81988407  1
  Bi2+  Bi88  1  0.76584340  0.07174017  0.30340664  1
  Bi2+  Bi89  1  0.72647728  0.17181532  0.78996917  1
  Bi2+  Bi90  1  0.83209313  0.37093464  0.31445632  1
  Bi2+  Bi91  1  0.75689820  0.42566780  0.80505293  1
  Bi2+  Bi92  1  0.82425681  0.64902105  0.26921840  1
  Bi2+  Bi93  1  0.75874471  0.62403955  0.79857590  1
  Bi2+  Bi94  1  0.69464306  0.88417658  0.28597443  1
  Bi2+  Bi95  1  0.75984877  0.88305556  0.79948058  1
  Bi2+  Bi96  1  0.08327691  -0.03454608  0.19534602  1
  Bi2+  Bi97  1  0.10234273  0.03182265  0.69646083  1
  Bi2+  Bi98  1  0.13388576  0.24503847  0.20755491  1
  Bi2+  Bi99  1  0.12584575  0.31183695  0.68504501  1
  Bi2+  Bi100  1  0.11754531  0.49724401  0.21418397  1
  Bi2+  Bi101  1  0.09288465  0.48521920  0.73339050  1
  Bi2+  Bi102  1  0.15088189  0.75967851  0.20969298  1
  Bi2+  Bi103  1  0.07861059  0.76283390  0.72708114  1
  Bi2+  Bi104  1  0.37527954  -0.06631202  0.20200041  1
  Bi2+  Bi105  1  0.36802871  -0.00167181  0.71744823  1
  Bi2+  Bi106  1  0.42058346  0.22901356  0.19804793  1
  Bi2+  Bi107  1  0.39882530  0.28226066  0.71047692  1
  Bi2+  Bi108  1  0.39026710  0.59979136  0.20330068  1
  Bi2+  Bi109  1  0.35741650  0.49289807  0.69530900  1
  Bi2+  Bi110  1  0.36520967  0.75985955  0.14434635  1
  Bi2+  Bi111  1  0.36486159  0.73471800  0.72141081  1
  Bi2+  Bi112  1  0.65746679  0.00673301  0.19691497  1
  Bi2+  Bi113  1  0.62650946  -0.01450747  0.71155356  1
  Bi2+  Bi114  1  0.68768277  0.24827696  0.23050862  1
  Bi2+  Bi115  1  0.59097493  0.24009465  0.71441942  1
  Bi2+  Bi116  1  0.70932476  0.53469776  0.20801834  1
  Bi2+  Bi117  1  0.64432050  0.43060998  0.70976609  1
  Bi2+  Bi118  1  0.62442499  0.75920623  0.20433050  1
  Bi2+  Bi119  1  0.73165168  0.68516970  0.69051075  1
  Bi2+  Bi120  1  0.89185750  0.07328556  0.21324013  1
  Bi2+  Bi121  1  0.89347317  -0.02547764  0.70906358  1
  Bi2+  Bi122  1  0.88203711  0.27375649  0.21486703  1
  Bi2+  Bi123  1  0.85628768  0.25624842  0.71421623  1
  Bi2+  Bi124  1  0.89551948  0.47860475  0.22288354  1
  Bi2+  Bi125  1  0.90335917  0.53391023  0.69709070  1
  Bi2+  Bi126  1  0.87283150  0.83548787  0.21279818  1
  Bi2+  Bi127  1  0.89799712  0.78209583  0.68503876  1
  S2-  S128  1  0.07036329  0.11957136  0.14138034  1
  S2-  S129  1  0.03803110  0.16852914  0.64729362  1
  S2-  S130  1  0.07487888  0.37439671  0.14553700  1
  S2-  S131  1  -0.10914992  0.38365576  0.64506741  1
  S2-  S132  1  0.00055924  0.58425511  0.16781668  1
  S2-  S133  1  0.04482388  0.56122458  0.64023513  1
  S2-  S134  1  0.00668322  0.79407377  0.15034059  1
  S2-  S135  1  0.11688822  0.87482303  0.64669246  1
  S2-  S136  1  0.26092741  0.14323543  0.19789565  1
  S2-  S137  1  0.25750234  0.08512660  0.66461585  1
  S2-  S138  1  0.28179019  0.33643863  0.18411190  1
  S2-  S139  1  0.23866913  0.43364931  0.63310340  1
  S2-  S140  1  0.23846278  0.53829066  0.15142723  1
  S2-  S141  1  0.26214141  0.64442044  0.67460063  1
  S2-  S142  1  0.22407641  0.95479331  0.14361166  1
  S2-  S143  1  0.33144112  0.86826765  0.65678080  1
  S2-  S144  1  0.42739456  0.06761806  0.15047705  1
  S2-  S145  1  0.49716374  0.03701140  0.65040756  1
  S2-  S146  1  0.49540092  0.36861720  0.16505031  1
  S2-  S147  1  0.48615165  0.46563849  0.62606219  1
  S2-  S148  1  0.59143383  0.61510879  0.14758843  1
  S2-  S149  1  0.49282025  0.68848602  0.65413859  1
  S2-  S150  1  0.59013876  0.88566597  0.13588169  1
  S2-  S151  1  0.49249106  0.86954630  0.72506568  1
  S2-  S152  1  0.63427697  0.15000568  0.14463564  1
  S2-  S153  1  0.75012854  0.01584147  0.64832075  1
  S2-  S154  1  0.71474270  0.37554055  0.16292884  1
  S2-  S155  1  0.72611547  0.23348128  0.64576577  1
  S2-  S156  1  0.76768764  0.74933499  0.14737902  1
  S2-  S157  1  0.73081194  0.53541101  0.63655634  1
  S2-  S158  1  0.83407759  0.95934750  0.14387104  1
  S2-  S159  1  0.65499647  0.84038733  0.65709256  1
  S2-  S160  1  0.12950686  -0.00061267  0.34848336  1
  S2-  S161  1  0.16051355  0.01616958  0.83365136  1
  S2-  S162  1  0.21748968  0.23971708  0.34383612  1
  S2-  S163  1  0.11526605  0.25801545  0.84603102  1
  S2-  S164  1  0.22560498  0.49963893  0.34396042  1
  S2-  S165  1  0.12126250  0.56052599  0.85627292  1
  S2-  S166  1  0.13444530  0.74238006  0.35146196  1
  S2-  S167  1  0.21848646  0.75780848  0.85602836  1
  S2-  S168  1  0.36826889  0.06670364  0.35618256  1
  S2-  S169  1  0.38258690  -0.01502186  0.83230430  1
  S2-  S170  1  0.41020047  0.24087350  0.29188459  1
  S2-  S171  1  0.35376184  0.22553569  0.85184831  1
  S2-  S172  1  0.42316145  0.42544897  0.33273844  1
  S2-  S173  1  0.35541351  0.47426795  0.84849897  1
  S2-  S174  1  0.38385628  0.65703068  0.35987138  1
  S2-  S175  1  0.41649313  0.68816165  0.83831766  1
  S2-  S176  1  0.61297931  0.08780373  0.35854847  1
  S2-  S177  1  0.60459238  -0.03993174  0.81901083  1
  S2-  S178  1  0.62031541  0.30462466  0.31709652  1
  S2-  S179  1  0.59250186  0.16040386  0.85488126  1
  S2-  S180  1  0.62733799  0.52472304  0.32905554  1
  S2-  S181  1  0.61415199  0.40048027  0.86335828  1
  S2-  S182  1  0.64612506  0.75283208  0.34433942  1
  S2-  S183  1  0.66035448  0.75413742  0.84047906  1
  S2-  S184  1  0.86615427  -0.04535115  0.35669091  1
  S2-  S185  1  0.77455158  0.03790944  0.84893587  1
  S2-  S186  1  0.80383175  0.21458259  0.35760489  1
  S2-  S187  1  0.80820372  0.27930912  0.85441334  1
  S2-  S188  1  0.98875596  0.51413135  0.35427377  1
  S2-  S189  1  0.87679777  0.52869074  0.85854505  1
  S2-  S190  1  0.89244621  0.73412927  0.34515589  1
  S2-  S191  1  0.88172294  0.84781920  0.85910548  1
  S2-  S192  1  -0.00576621  0.12115926  0.44830000  1
  S2-  S193  1  -0.00992868  0.12991191  0.94377353  1
  S2-  S194  1  -0.00476501  0.36667268  0.45305760  1
  S2-  S195  1  -0.00935589  0.38190891  0.95490499  1
  S2-  S196  1  -0.00775485  0.63118008  0.45349493  1
  S2-  S197  1  -0.00746063  0.62926375  0.96236792  1
  S2-  S198  1  -0.00316315  0.87519878  0.46284447  1
  S2-  S199  1  -0.00268259  0.87145102  0.95869163  1
  S2-  S200  1  0.24271967  0.12461018  0.45752606  1
  S2-  S201  1  0.23864060  0.12772854  0.95191331  1
  S2-  S202  1  0.25087061  0.36402726  0.44149002  1
  S2-  S203  1  0.23899007  0.38126171  0.96141474  1
  S2-  S204  1  0.23766925  0.62647012  0.45832503  1
  S2-  S205  1  0.24181305  0.62474564  0.96067352  1
  S2-  S206  1  0.24288406  0.87324092  0.45896673  1
  S2-  S207  1  0.24399883  0.88055681  0.95062100  1
  S2-  S208  1  0.49208194  0.12712217  0.45607260  1
  S2-  S209  1  0.49174041  0.13269152  0.95820348  1
  S2-  S210  1  0.50009552  0.36175933  0.43960857  1
  S2-  S211  1  0.48765138  0.37847894  0.96092469  1
  S2-  S212  1  0.49989750  0.61914919  0.45627389  1
  S2-  S213  1  0.49231824  0.62383686  0.95676724  1
  S2-  S214  1  0.49380535  0.87610890  0.44098688  1
  S2-  S215  1  0.49204082  0.88150192  0.94730020  1
  S2-  S216  1  0.74740634  0.11725027  0.46315762  1
  S2-  S217  1  0.74313642  0.13440507  0.95949301  1
  S2-  S218  1  0.74748717  0.37243445  0.44501897  1
  S2-  S219  1  0.74793596  0.38509382  0.96325178  1
  S2-  S220  1  0.74704068  0.62266735  0.44584120  1
  S2-  S221  1  0.74133647  0.62726525  0.96186753  1
  S2-  S222  1  0.74146952  0.87687722  0.46035645  1
  S2-  S223  1  0.73876136  0.87646940  0.95671814  1
  S2-  S224  1  0.11815769  0.00105906  0.03924325  1
  S2-  S225  1  0.11665303  -0.00162844  0.54875971  1
  S2-  S226  1  0.12080514  0.25458395  0.04716004  1
  S2-  S227  1  0.11945886  0.24843527  0.53619735  1
  S2-  S228  1  0.11204752  0.50874556  0.05004191  1
  S2-  S229  1  0.11849916  0.49076514  0.53213832  1
  S2-  S230  1  0.11921241  0.75391420  0.04540034  1
  S2-  S231  1  0.11781429  0.73915300  0.55321255  1
  S2-  S232  1  0.36705709  0.00263137  0.04046361  1
  S2-  S233  1  0.36499812  -0.00377891  0.54983574  1
  S2-  S234  1  0.36150925  0.25041449  0.05999020  1
  S2-  S235  1  0.36906921  0.24729012  0.55769339  1
  S2-  S236  1  0.36692169  0.49692622  0.05408413  1
  S2-  S237  1  0.36511447  0.49338742  0.52822974  1
  S2-  S238  1  0.36917670  0.75353564  0.03171533  1
  S2-  S239  1  0.36464460  0.74021630  0.55197768  1
  S2-  S240  1  0.61811636  0.00320957  0.03624973  1
  S2-  S241  1  0.61448182  -0.00591478  0.54683146  1
  S2-  S242  1  0.61843162  0.25825126  0.04264758  1
  S2-  S243  1  0.61782624  0.24883077  0.54152438  1
  S2-  S244  1  0.61266452  0.49652087  0.04875953  1
  S2-  S245  1  0.62463267  0.49200800  0.53334642  1
  S2-  S246  1  0.61098061  0.75166328  0.04303079  1
  S2-  S247  1  0.61778713  0.74222347  0.54866874  1
  S2-  S248  1  0.87159203  0.00797752  0.03545389  1
  S2-  S249  1  0.87590319  -0.00512515  0.55339161  1
  S2-  S250  1  0.87011567  0.25258949  0.05476748  1
  S2-  S251  1  0.86929554  0.24761092  0.54726525  1
  S2-  S252  1  0.86880376  0.50546528  0.06092649  1
  S2-  S253  1  0.86793159  0.49528470  0.53578044  1
  S2-  S254  1  0.86747056  0.75555500  0.04520392  1
  S2-  S255  1  0.86534957  0.74755297  0.54934097  1
