# generated using pymatgen
data_La12Ce14Pr13Nd13Sm12(BiS2)64
_symmetry_space_group_name_H-M   'P 1'
_cell_length_a   16.19069898
_cell_length_b   16.19486218
_cell_length_c   27.30609086
_cell_angle_alpha   89.90413051
_cell_angle_beta   90.09874731
_cell_angle_gamma   89.89802000
_symmetry_Int_Tables_number   1
_chemical_formula_structural   La12Ce14Pr13Nd13Sm12(BiS2)64
_chemical_formula_sum   'La12 Ce14 Pr13 Nd13 Sm12 Bi64 S128'
_cell_volume   7159.79260552
_cell_formula_units_Z   1
loop_
 _symmetry_equiv_pos_site_id
 _symmetry_equiv_pos_as_xyz
  1  'x, y, z'
loop_
 _atom_type_symbol
 _atom_type_oxidation_number
  La3+  3.0
  Ce3+  3.0
  Pr3+  3.0
  Nd3+  3.0
  Sm3+  3.0
  Bi2+  2.0
  S2-  -2.0
loop_
 _atom_site_type_symbol
 _atom_site_label
 _atom_site_symmetry_multiplicity
 _atom_site_fract_x
 _atom_site_fract_y
 _atom_site_fract_z
 _atom_site_occupancy
  La3+  La0  1  0.61902338  0.51402832  0.93198478  1
  La3+  La1  1  0.12610293  0.49894490  0.42260523  1
  La3+  La2  1  0.14231778  -0.00415536  0.42849094  1
  La3+  La3  1  0.23582209  0.64951593  0.09160168  1
  La3+  La4  1  0.85660923  0.77126740  0.90883078  1
  La3+  La5  1  0.12717290  0.77355219  0.92015261  1
  La3+  La6  1  0.75464470  0.60823111  0.60569935  1
  La3+  La7  1  0.01495689  0.87671475  0.58549962  1
  La3+  La8  1  0.51231344  0.12136042  0.57044931  1
  La3+  La9  1  0.02017352  0.37511055  0.56733404  1
  La3+  La10  1  0.74367786  0.14577491  0.08337178  1
  La3+  La11  1  0.12783091  0.02213501  0.91952866  1
  Ce3+  Ce12  1  0.25815782  0.87754377  0.57218360  1
  Ce3+  Ce13  1  0.38254651  0.74634108  0.44480727  1
  Ce3+  Ce14  1  0.51104732  0.37658042  0.55238377  1
  Ce3+  Ce15  1  0.76016212  0.86896263  0.56295193  1
  Ce3+  Ce16  1  -0.00487667  0.88892745  0.04508039  1
  Ce3+  Ce17  1  0.76487175  0.37362412  0.55841614  1
  Ce3+  Ce18  1  0.49556731  0.13984365  0.07476919  1
  Ce3+  Ce19  1  0.88671582  0.50008492  0.44347769  1
  Ce3+  Ce20  1  0.88495422  -0.00315072  0.44819838  1
  Ce3+  Ce21  1  0.14002052  0.24588196  0.43849885  1
  Ce3+  Ce22  1  -0.00438187  0.39323293  0.05157049  1
  Ce3+  Ce23  1  0.63733272  0.24611709  0.44241796  1
  Ce3+  Ce24  1  0.38541094  0.24743353  0.44339980  1
  Ce3+  Ce25  1  0.01466618  0.12275924  0.55592719  1
  Pr3+  Pr26  1  0.86667247  0.26562008  0.94165635  1
  Pr3+  Pr27  1  0.49029236  0.39513090  0.06177805  1
  Pr3+  Pr28  1  0.23579101  0.13597457  0.07319693  1
  Pr3+  Pr29  1  0.74652026  0.88932378  0.06084667  1
  Pr3+  Pr30  1  0.37279290  0.03211860  0.93708245  1
  Pr3+  Pr31  1  0.11918514  0.52206054  0.93647531  1
  Pr3+  Pr32  1  0.61685308  0.76769593  0.94068992  1
  Pr3+  Pr33  1  0.23782487  0.39130959  0.06067146  1
  Pr3+  Pr34  1  0.49085609  0.64135308  0.05750796  1
  Pr3+  Pr35  1  0.26635026  0.12329726  0.57064253  1
  Pr3+  Pr36  1  0.75871329  0.12122227  0.56740727  1
  Pr3+  Pr37  1  0.63409624  0.00455167  0.43269716  1
  Pr3+  Pr38  1  -0.00824284  0.13437452  0.06769835  1
  Nd3+  Nd39  1  0.49091557  0.89136540  0.05685516  1
  Nd3+  Nd40  1  0.11908835  0.26495758  0.93537243  1
  Nd3+  Nd41  1  -0.00356353  0.64612418  0.05204030  1
  Nd3+  Nd42  1  0.51181709  0.86858679  0.55672809  1
  Nd3+  Nd43  1  0.13433576  0.74751917  0.44039186  1
  Nd3+  Nd44  1  0.38407655  0.49902941  0.43520154  1
  Nd3+  Nd45  1  0.86756065  0.01893019  0.93370168  1
  Nd3+  Nd46  1  0.74471990  0.39320406  0.06491230  1
  Nd3+  Nd47  1  0.88500631  0.74805875  0.44839331  1
  Nd3+  Nd48  1  0.88751119  0.24499914  0.44048604  1
  Nd3+  Nd49  1  0.74443128  0.63799072  0.06498318  1
  Nd3+  Nd50  1  0.38588949  -0.00313481  0.44190643  1
  Nd3+  Nd51  1  0.36721748  0.76962980  0.94085981  1
  Sm3+  Sm52  1  0.61943838  0.26422333  0.94788978  1
  Sm3+  Sm53  1  0.01502163  0.62381921  0.56484918  1
  Sm3+  Sm54  1  0.23846550  0.89481292  0.06112240  1
  Sm3+  Sm55  1  0.61856816  0.02106289  0.95073445  1
  Sm3+  Sm56  1  0.86935449  0.51980627  0.93964562  1
  Sm3+  Sm57  1  0.36901156  0.26684578  0.95493218  1
  Sm3+  Sm58  1  0.26028111  0.37653138  0.55368162  1
  Sm3+  Sm59  1  0.25550734  0.62305702  0.55942123  1
  Sm3+  Sm60  1  0.63791974  0.49922061  0.44221367  1
  Sm3+  Sm61  1  0.51053529  0.62156738  0.55574191  1
  Sm3+  Sm62  1  0.63761075  0.74595212  0.44653875  1
  Sm3+  Sm63  1  0.36515563  0.51770334  0.94899868  1
  Bi2+  Bi64  1  -0.01412743  0.13283541  0.30718986  1
  Bi2+  Bi65  1  -0.01173611  0.14289340  0.78277466  1
  Bi2+  Bi66  1  -0.00148867  0.37067978  0.24805423  1
  Bi2+  Bi67  1  -0.01254363  0.33634613  0.77590746  1
  Bi2+  Bi68  1  0.02724189  0.62011658  0.30254438  1
  Bi2+  Bi69  1  -0.00160441  0.58237406  0.79992785  1
  Bi2+  Bi70  1  -0.04032723  0.81819899  0.26715612  1
  Bi2+  Bi71  1  -0.01667832  0.85651349  0.78882055  1
  Bi2+  Bi72  1  0.22999654  0.10903649  0.30632694  1
  Bi2+  Bi73  1  0.25805006  0.14037734  0.79466428  1
  Bi2+  Bi74  1  0.30509777  0.38338343  0.29763649  1
  Bi2+  Bi75  1  0.22390174  0.33226687  0.77635711  1
  Bi2+  Bi76  1  0.28085056  0.63421675  0.30031233  1
  Bi2+  Bi77  1  0.26856477  0.62067055  0.79297013  1
  Bi2+  Bi78  1  0.33329208  0.87853939  0.27445249  1
  Bi2+  Bi79  1  0.30776677  0.87555326  0.78217724  1
  Bi2+  Bi80  1  0.49310979  0.11008844  0.28765883  1
  Bi2+  Bi81  1  0.50786997  0.18755794  0.80424702  1
  Bi2+  Bi82  1  0.52684768  0.35345812  0.26688603  1
  Bi2+  Bi83  1  0.41427899  0.39114997  0.78131258  1
  Bi2+  Bi84  1  0.56465022  0.63627229  0.28514664  1
  Bi2+  Bi85  1  0.47010132  0.63263112  0.78962254  1
  Bi2+  Bi86  1  0.51680340  0.91732825  0.30580459  1
  Bi2+  Bi87  1  0.50032862  0.87537467  0.80094522  1
  Bi2+  Bi88  1  0.75960664  0.10475830  0.30846786  1
  Bi2+  Bi89  1  0.71637929  0.17264382  0.82998927  1
  Bi2+  Bi90  1  0.72237595  0.39686843  0.28975245  1
  Bi2+  Bi91  1  0.77433319  0.35014692  0.73388782  1
  Bi2+  Bi92  1  0.78050483  0.63378225  0.28717253  1
  Bi2+  Bi93  1  0.74342803  0.60562419  0.80481734  1
  Bi2+  Bi94  1  0.74665722  0.83268651  0.28404139  1
  Bi2+  Bi95  1  0.68395969  0.84983483  0.76374959  1
  Bi2+  Bi96  1  0.10473237  0.03309545  0.20222562  1
  Bi2+  Bi97  1  0.11968548  -0.01891265  0.70797674  1
  Bi2+  Bi98  1  0.16034098  0.24829720  0.24155564  1
  Bi2+  Bi99  1  0.09715327  0.24046223  0.69746962  1
  Bi2+  Bi100  1  0.14448683  0.49286968  0.20142976  1
  Bi2+  Bi101  1  0.17294342  0.49255657  0.71016600  1
  Bi2+  Bi102  1  0.10697039  0.78262581  0.19685561  1
  Bi2+  Bi103  1  0.14556927  0.71710125  0.71928289  1
  Bi2+  Bi104  1  0.37291990  0.03352232  0.20514332  1
  Bi2+  Bi105  1  0.38762882  0.01232196  0.71479520  1
  Bi2+  Bi106  1  0.36472479  0.22307249  0.22454660  1
  Bi2+  Bi107  1  0.36088633  0.28894597  0.69374745  1
  Bi2+  Bi108  1  0.39600120  0.49549104  0.19964774  1
  Bi2+  Bi109  1  0.35785026  0.53981206  0.68521686  1
  Bi2+  Bi110  1  0.47580493  0.77487837  0.22485007  1
  Bi2+  Bi111  1  0.33978729  0.73556075  0.69586660  1
  Bi2+  Bi112  1  0.60370048  0.00105064  0.21294782  1
  Bi2+  Bi113  1  0.58658470  0.00558369  0.72505853  1
  Bi2+  Bi114  1  0.67216586  0.24609983  0.22520626  1
  Bi2+  Bi115  1  0.62948557  0.22593448  0.71853159  1
  Bi2+  Bi116  1  0.60704125  0.51284518  0.20108871  1
  Bi2+  Bi117  1  0.54104599  0.49117875  0.71502912  1
  Bi2+  Bi118  1  0.71947996  0.72982858  0.18922102  1
  Bi2+  Bi119  1  0.53619445  0.75584384  0.70571164  1
  Bi2+  Bi120  1  0.87777730  -0.03923074  0.21027423  1
  Bi2+  Bi121  1  0.82352982  0.03835778  0.77458500  1
  Bi2+  Bi122  1  0.89368458  0.22571063  0.21072104  1
  Bi2+  Bi123  1  0.81489253  0.17236155  0.69263572  1
  Bi2+  Bi124  1  0.85240622  0.49284786  0.22001043  1
  Bi2+  Bi125  1  0.91340302  0.47961555  0.70660875  1
  Bi2+  Bi126  1  0.90707199  0.67937211  0.18545621  1
  Bi2+  Bi127  1  0.85893023  0.75731669  0.70256249  1
  S2-  S128  1  0.10649927  0.16242137  0.14589922  1
  S2-  S129  1  0.03962855  0.09218126  0.65109475  1
  S2-  S130  1  0.03250221  0.40232796  0.14577764  1
  S2-  S131  1  -0.03868881  0.33469340  0.66015083  1
  S2-  S132  1  0.07862127  0.63896431  0.14170961  1
  S2-  S133  1  -0.07853166  0.62368033  0.64934772  1
  S2-  S134  1  0.01233840  0.91269189  0.14308934  1
  S2-  S135  1  -0.03341260  0.89996517  0.68495824  1
  S2-  S136  1  0.23577907  0.00315513  0.14180786  1
  S2-  S137  1  0.24957234  0.00931623  0.64880424  1
  S2-  S138  1  0.26144332  0.40302734  0.16045385  1
  S2-  S139  1  0.16508431  0.37656441  0.63547793  1
  S2-  S140  1  0.27567806  0.60577648  0.19416228  1
  S2-  S141  1  0.14241980  0.61464000  0.63665382  1
  S2-  S142  1  0.24012793  0.79724833  0.14540636  1
  S2-  S143  1  0.15160322  0.84334371  0.64992547  1
  S2-  S144  1  0.60410045  0.13681071  0.15191086  1
  S2-  S145  1  0.39963509  0.14346885  0.64841159  1
  S2-  S146  1  0.51597330  0.37534536  0.15992770  1
  S2-  S147  1  0.50500544  0.35870553  0.64914072  1
  S2-  S148  1  0.48328151  0.62932249  0.15719372  1
  S2-  S149  1  0.57880317  0.61520843  0.64481914  1
  S2-  S150  1  0.49138240  0.90152022  0.15564149  1
  S2-  S151  1  0.49447826  0.90959340  0.65252353  1
  S2-  S152  1  0.87578801  0.10071171  0.14681336  1
  S2-  S153  1  0.63734342  0.10329578  0.64137240  1
  S2-  S154  1  0.76782777  0.29018811  0.14645065  1
  S2-  S155  1  0.75438648  0.44535574  0.64733561  1
  S2-  S156  1  0.73901866  0.51448897  0.13762696  1
  S2-  S157  1  0.74475127  0.64500196  0.70856616  1
  S2-  S158  1  0.73808642  0.91708718  0.16059727  1
  S2-  S159  1  0.74128656  0.86047207  0.66008518  1
  S2-  S160  1  0.09371545  0.01169959  0.32836295  1
  S2-  S161  1  0.09530510  -0.06189850  0.82987501  1
  S2-  S162  1  0.09740100  0.25497237  0.34383810  1
  S2-  S163  1  0.12121516  0.16388788  0.85430414  1
  S2-  S164  1  0.18939689  0.49110103  0.32664610  1
  S2-  S165  1  0.11921455  0.49838689  0.83748667  1
  S2-  S166  1  0.14442056  0.71943235  0.34086475  1
  S2-  S167  1  0.07861326  0.72244993  0.82526699  1
  S2-  S168  1  0.29019787  -0.02279861  0.35939820  1
  S2-  S169  1  0.28071322  0.00935336  0.85232024  1
  S2-  S170  1  0.33791278  0.23263392  0.35151031  1
  S2-  S171  1  0.37841760  0.19052866  0.86748917  1
  S2-  S172  1  0.39323144  0.51559879  0.33595972  1
  S2-  S173  1  0.36700531  0.51685872  0.85136754  1
  S2-  S174  1  0.36848999  0.74378613  0.34694551  1
  S2-  S175  1  0.27667106  0.76484155  0.85636941  1
  S2-  S176  1  0.68697863  -0.04324017  0.34003885  1
  S2-  S177  1  0.59025797  0.05512785  0.85642452  1
  S2-  S178  1  0.62081259  0.15585761  0.36056619  1
  S2-  S179  1  0.61699953  0.30497136  0.85249967  1
  S2-  S180  1  0.62924029  0.50334372  0.34469391  1
  S2-  S181  1  0.59931838  0.53699056  0.83333643  1
  S2-  S182  1  0.64054376  0.74081336  0.34866017  1
  S2-  S183  1  0.69673095  0.75519667  0.85301478  1
  S2-  S184  1  0.88443830  0.01607326  0.35064982  1
  S2-  S185  1  0.85395377  -0.07579123  0.84960589  1
  S2-  S186  1  0.85060603  0.23890639  0.34316230  1
  S2-  S187  1  0.88254538  0.24994307  0.84188603  1
  S2-  S188  1  0.97876720  0.49462786  0.36081178  1
  S2-  S189  1  0.85463692  0.49540611  0.84335043  1
  S2-  S190  1  0.90360316  0.71675002  0.35009037  1
  S2-  S191  1  0.88324179  0.71246585  0.81293490  1
  S2-  S192  1  0.01246745  0.12119726  0.45149077  1
  S2-  S193  1  -0.00897590  0.14040542  0.95296023  1
  S2-  S194  1  0.01041559  0.36678970  0.45838658  1
  S2-  S195  1  -0.00636578  0.39240914  0.94483142  1
  S2-  S196  1  0.01014998  0.62632282  0.46004724  1
  S2-  S197  1  -0.01027366  0.64628797  0.94506506  1
  S2-  S198  1  0.01083332  0.87220915  0.44823118  1
  S2-  S199  1  -0.00881078  0.88977796  0.94198110  1
  S2-  S200  1  0.26355416  0.12198981  0.46016133  1
  S2-  S201  1  0.24439979  0.14775425  0.96509760  1
  S2-  S202  1  0.25991922  0.37571274  0.44956201  1
  S2-  S203  1  0.24456893  0.38956379  0.95153669  1
  S2-  S204  1  0.25867817  0.62131049  0.45346262  1
  S2-  S205  1  0.24616153  0.64010405  0.95333010  1
  S2-  S206  1  0.26104887  0.86819850  0.46220796  1
  S2-  S207  1  0.24987667  0.89773330  0.95621680  1
  S2-  S208  1  0.50621671  0.12236833  0.46074900  1
  S2-  S209  1  0.49846782  0.14721855  0.96866176  1
  S2-  S210  1  0.51195751  0.37463514  0.44500973  1
  S2-  S211  1  0.49000955  0.39124546  0.95447238  1
  S2-  S212  1  0.51217191  0.62219008  0.45072846  1
  S2-  S213  1  0.49075287  0.64121191  0.95029592  1
  S2-  S214  1  0.51154470  0.87022286  0.45016740  1
  S2-  S215  1  0.49333116  0.89639602  0.95102925  1
  S2-  S216  1  0.76179912  0.12287113  0.46069828  1
  S2-  S217  1  0.74207598  0.14143955  0.96297305  1
  S2-  S218  1  0.76146286  0.37326281  0.45069075  1
  S2-  S219  1  0.74498147  0.39230175  0.95613311  1
  S2-  S220  1  0.75934538  0.62252128  0.44915527  1
  S2-  S221  1  0.74528492  0.64026507  0.95649863  1
  S2-  S222  1  0.75872400  0.87094331  0.45527168  1
  S2-  S223  1  0.73863838  0.89525986  0.95447257  1
  S2-  S224  1  0.11561954  0.01512076  0.03505377  1
  S2-  S225  1  0.13352435  -0.00406087  0.54096309  1
  S2-  S226  1  0.11700442  0.26640223  0.04030240  1
  S2-  S227  1  0.14195779  0.24366867  0.54427190  1
  S2-  S228  1  0.12099188  0.51949235  0.04203276  1
  S2-  S229  1  0.13848431  0.50011882  0.53380225  1
  S2-  S230  1  0.12078323  0.76829183  0.03384909  1
  S2-  S231  1  0.13422578  0.74998843  0.54394051  1
  S2-  S232  1  0.37211521  0.01859754  0.04620649  1
  S2-  S233  1  0.38779645  -0.00604370  0.54621485  1
  S2-  S234  1  0.36622316  0.26474286  0.05941314  1
  S2-  S235  1  0.38410560  0.25432526  0.54614953  1
  S2-  S236  1  0.36073603  0.52049742  0.05332637  1
  S2-  S237  1  0.38337315  0.50071596  0.54310536  1
  S2-  S238  1  0.36706104  0.76689076  0.04655431  1
  S2-  S239  1  0.38435586  0.74359429  0.55204647  1
  S2-  S240  1  0.61969063  0.01312969  0.05290911  1
  S2-  S241  1  0.63587390  -0.00925101  0.54083015  1
  S2-  S242  1  0.61638279  0.27136660  0.05075934  1
  S2-  S243  1  0.63721785  0.25267025  0.54767377  1
  S2-  S244  1  0.61507750  0.51697147  0.04037228  1
  S2-  S245  1  0.63681210  0.49941325  0.54498782  1
  S2-  S246  1  0.61799269  0.76499289  0.04823276  1
  S2-  S247  1  0.63774477  0.74278659  0.55019174  1
  S2-  S248  1  0.86796094  0.01248581  0.03876279  1
  S2-  S249  1  0.88555732  -0.00341884  0.55540062  1
  S2-  S250  1  0.87543021  0.26677302  0.04639829  1
  S2-  S251  1  0.88602474  0.24555399  0.54777034  1
  S2-  S252  1  0.87374921  0.51854114  0.04416630  1
  S2-  S253  1  0.88800273  0.49911411  0.54776735  1
  S2-  S254  1  0.86696322  0.76330135  0.04593149  1
  S2-  S255  1  0.89154912  0.75307496  0.55338974  1
