# generated using pymatgen
data_La12Ce14Pr13Nd13Sm12(BiS2)64
_symmetry_space_group_name_H-M   'P 1'
_cell_length_a   16.10165786
_cell_length_b   16.14391919
_cell_length_c   27.23473227
_cell_angle_alpha   89.80436509
_cell_angle_beta   90.13943796
_cell_angle_gamma   89.94170304
_symmetry_Int_Tables_number   1
_chemical_formula_structural   La12Ce14Pr13Nd13Sm12(BiS2)64
_chemical_formula_sum   'La12 Ce14 Pr13 Nd13 Sm12 Bi64 S128'
_cell_volume   7079.43556212
_cell_formula_units_Z   1
loop_
 _symmetry_equiv_pos_site_id
 _symmetry_equiv_pos_as_xyz
  1  'x, y, z'
loop_
 _atom_type_symbol
 _atom_type_oxidation_number
  La3+  3.0
  Ce3+  3.0
  Pr3+  3.0
  Nd3+  3.0
  Sm3+  3.0
  Bi2+  2.0
  S2-  -2.0
loop_
 _atom_site_type_symbol
 _atom_site_label
 _atom_site_symmetry_multiplicity
 _atom_site_fract_x
 _atom_site_fract_y
 _atom_site_fract_z
 _atom_site_occupancy
  La3+  La0  1  0.13495792  0.50806005  0.89071011  1
  La3+  La1  1  0.85571143  0.51262710  0.42528785  1
  La3+  La2  1  0.89435702  0.00280913  0.90920214  1
  La3+  La3  1  0.22112449  0.63833788  0.58767566  1
  La3+  La4  1  0.35376695  0.24781944  0.42140543  1
  La3+  La5  1  0.22528845  0.37061985  0.58219890  1
  La3+  La6  1  -0.03167513  0.88828454  0.59349641  1
  La3+  La7  1  0.34618781  0.50165973  0.44716055  1
  La3+  La8  1  0.26795238  0.87408089  0.07752722  1
  La3+  La9  1  0.38483393  0.74898213  0.93372601  1
  La3+  La10  1  0.35180093  0.75173668  0.45156320  1
  La3+  La11  1  0.48978481  0.62099977  0.58562756  1
  Ce3+  Ce12  1  0.76320744  0.12333646  0.05918076  1
  Ce3+  Ce13  1  0.51306565  0.12606872  0.06329300  1
  Ce3+  Ce14  1  0.01253175  0.37496359  0.04817064  1
  Ce3+  Ce15  1  0.72779700  0.62830098  0.55156625  1
  Ce3+  Ce16  1  0.76568317  0.87546250  0.05817855  1
  Ce3+  Ce17  1  0.01818817  0.87150216  0.07318586  1
  Ce3+  Ce18  1  0.22905386  0.88002904  0.56238000  1
  Ce3+  Ce19  1  0.48399667  0.88113741  0.56747520  1
  Ce3+  Ce20  1  0.10323027  0.25784697  0.43354373  1
  Ce3+  Ce21  1  0.59870112  0.75286350  0.43515137  1
  Ce3+  Ce22  1  0.47818764  0.13488987  0.56104299  1
  Ce3+  Ce23  1  0.88618739  0.24624281  0.93701905  1
  Ce3+  Ce24  1  0.13421552  -0.00465543  0.94869556  1
  Ce3+  Ce25  1  -0.02063477  0.38018114  0.55863957  1
  Pr3+  Pr26  1  0.35396942  0.00416950  0.43806663  1
  Pr3+  Pr27  1  0.88463071  0.49563422  0.93252117  1
  Pr3+  Pr28  1  0.47951723  0.37560747  0.55924628  1
  Pr3+  Pr29  1  0.75985066  0.62174869  0.05744547  1
  Pr3+  Pr30  1  0.63697642  0.75092434  0.94145425  1
  Pr3+  Pr31  1  0.22622027  0.12831931  0.55672989  1
  Pr3+  Pr32  1  0.77556548  0.36460017  0.08956518  1
  Pr3+  Pr33  1  0.88941536  0.74767783  0.94417137  1
  Pr3+  Pr34  1  0.01151084  0.12446552  0.06480542  1
  Pr3+  Pr35  1  0.01050164  0.61791721  0.06367078  1
  Pr3+  Pr36  1  0.50288884  0.36933193  0.07767094  1
  Pr3+  Pr37  1  0.37805793  0.24997414  0.92973312  1
  Pr3+  Pr38  1  0.85161235  0.75500177  0.43775896  1
  Nd3+  Nd39  1  0.39848854  0.49746230  0.90390956  1
  Nd3+  Nd40  1  0.51222320  0.61822411  0.06082222  1
  Nd3+  Nd41  1  0.63271626  0.24748433  0.94575773  1
  Nd3+  Nd42  1  0.38491733  -0.00455212  0.94020231  1
  Nd3+  Nd43  1  0.26515293  0.37612500  0.05035927  1
  Nd3+  Nd44  1  0.63387637  0.49262054  0.94446361  1
  Nd3+  Nd45  1  0.85556460  0.25910801  0.42459176  1
  Nd3+  Nd46  1  -0.02897526  0.12939764  0.55896229  1
  Nd3+  Nd47  1  0.58923823  0.50988001  0.42117187  1
  Nd3+  Nd48  1  -0.02610234  0.63125672  0.56872267  1
  Nd3+  Nd49  1  0.10112362  0.75600205  0.44919042  1
  Nd3+  Nd50  1  0.85020812  0.00340258  0.43418034  1
  Nd3+  Nd51  1  0.26546384  0.12477643  0.06772360  1
  Sm3+  Sm52  1  0.60694844  0.26013729  0.42327993  1
  Sm3+  Sm53  1  0.09862486  0.00465338  0.44186475  1
  Sm3+  Sm54  1  0.72195574  0.87788276  0.56351369  1
  Sm3+  Sm55  1  0.10661248  0.50703772  0.44750965  1
  Sm3+  Sm56  1  0.72725948  0.38101548  0.54704841  1
  Sm3+  Sm57  1  0.13492276  0.74545590  0.94467322  1
  Sm3+  Sm58  1  0.14019368  0.24787979  0.94152961  1
  Sm3+  Sm59  1  0.60219040  0.00475335  0.44239412  1
  Sm3+  Sm60  1  0.26482154  0.61847810  0.05137320  1
  Sm3+  Sm61  1  0.63458865  -0.00085640  0.94674642  1
  Sm3+  Sm62  1  0.72892317  0.13219227  0.54998260  1
  Sm3+  Sm63  1  0.51067827  0.87262642  0.06726777  1
  Bi2+  Bi64  1  0.03375337  0.13017522  0.29550502  1
  Bi2+  Bi65  1  0.02809608  0.12846839  0.78911709  1
  Bi2+  Bi66  1  0.03152403  0.35729490  0.27063980  1
  Bi2+  Bi67  1  -0.06626450  0.40331794  0.77127031  1
  Bi2+  Bi68  1  -0.00273354  0.53794205  0.31508499  1
  Bi2+  Bi69  1  -0.04468902  0.63988496  0.77530313  1
  Bi2+  Bi70  1  -0.08754989  0.89250548  0.27381022  1
  Bi2+  Bi71  1  -0.01308895  0.88042434  0.79199953  1
  Bi2+  Bi72  1  0.23270731  0.12661367  0.29080691  1
  Bi2+  Bi73  1  0.29253806  0.08504646  0.80593525  1
  Bi2+  Bi74  1  0.29143065  0.33392355  0.26773417  1
  Bi2+  Bi75  1  0.26833444  0.34514694  0.78817989  1
  Bi2+  Bi76  1  0.31378118  0.60876729  0.31292796  1
  Bi2+  Bi77  1  0.26537362  0.66315585  0.78967419  1
  Bi2+  Bi78  1  0.22085498  0.86194197  0.30067754  1
  Bi2+  Bi79  1  0.24956301  0.89684706  0.78523019  1
  Bi2+  Bi80  1  0.49632106  0.11855130  0.28372655  1
  Bi2+  Bi81  1  0.48538547  0.10076866  0.79070389  1
  Bi2+  Bi82  1  0.49576752  0.38645337  0.28521158  1
  Bi2+  Bi83  1  0.55023527  0.36991658  0.78937577  1
  Bi2+  Bi84  1  0.50141716  0.67204948  0.26736092  1
  Bi2+  Bi85  1  0.53172742  0.64230511  0.78589065  1
  Bi2+  Bi86  1  0.49404312  0.86160746  0.30631082  1
  Bi2+  Bi87  1  0.50007478  0.88807649  0.79533007  1
  Bi2+  Bi88  1  0.77585735  0.10553215  0.28005442  1
  Bi2+  Bi89  1  0.76442181  0.23267321  0.78827487  1
  Bi2+  Bi90  1  0.75099411  0.34582996  0.28129826  1
  Bi2+  Bi91  1  0.75863505  0.43055565  0.81803227  1
  Bi2+  Bi92  1  0.73581868  0.69449664  0.29549637  1
  Bi2+  Bi93  1  0.75495503  0.62303350  0.78548412  1
  Bi2+  Bi94  1  0.71972422  0.88711688  0.30962264  1
  Bi2+  Bi95  1  0.68856561  0.92390665  0.76754496  1
  Bi2+  Bi96  1  0.07524846  -0.05518905  0.21815791  1
  Bi2+  Bi97  1  0.16501003  0.03645456  0.72147377  1
  Bi2+  Bi98  1  0.15016230  0.24162958  0.20448524  1
  Bi2+  Bi99  1  0.10980035  0.22719394  0.70565189  1
  Bi2+  Bi100  1  0.16954635  0.50086367  0.25527496  1
  Bi2+  Bi101  1  0.13671772  0.48591312  0.70962405  1
  Bi2+  Bi102  1  0.09014030  0.68242052  0.25683626  1
  Bi2+  Bi103  1  0.13326248  0.73718500  0.72109064  1
  Bi2+  Bi104  1  0.37467967  -0.04855423  0.22428954  1
  Bi2+  Bi105  1  0.43077341  0.01346448  0.67462365  1
  Bi2+  Bi106  1  0.34334681  0.18946726  0.19153921  1
  Bi2+  Bi107  1  0.38410905  0.19487018  0.70811864  1
  Bi2+  Bi108  1  0.39473139  0.52090850  0.18777107  1
  Bi2+  Bi109  1  0.40314698  0.51011422  0.71469955  1
  Bi2+  Bi110  1  0.27568090  0.76398368  0.20828852  1
  Bi2+  Bi111  1  0.38492573  0.83032458  0.70699504  1
  Bi2+  Bi112  1  0.55594001  0.01590033  0.18251256  1
  Bi2+  Bi113  1  0.61558423  0.07058090  0.70110787  1
  Bi2+  Bi114  1  0.63191390  0.19158989  0.21178303  1
  Bi2+  Bi115  1  0.63102817  0.27079184  0.70245573  1
  Bi2+  Bi116  1  0.64549358  0.54576669  0.20963131  1
  Bi2+  Bi117  1  0.67982252  0.49171705  0.70826513  1
  Bi2+  Bi118  1  0.60874299  0.81608083  0.21579444  1
  Bi2+  Bi119  1  0.66554915  0.75940756  0.70616940  1
  Bi2+  Bi120  1  0.75211731  -0.02204236  0.19504190  1
  Bi2+  Bi121  1  0.86115812  0.02933850  0.71020370  1
  Bi2+  Bi122  1  0.91156917  0.19761347  0.21275700  1
  Bi2+  Bi123  1  0.91290934  0.24052650  0.71049065  1
  Bi2+  Bi124  1  0.90536142  0.49954832  0.20002616  1
  Bi2+  Bi125  1  0.87368081  0.54243358  0.68541901  1
  Bi2+  Bi126  1  0.86805784  0.73593031  0.20899636  1
  Bi2+  Bi127  1  0.86072302  0.73987190  0.68969109  1
  S2-  S128  1  0.01332366  0.09000346  0.16466094  1
  S2-  S129  1  -0.01922659  0.04454250  0.64636059  1
  S2-  S130  1  -0.05516011  0.38031091  0.13796246  1
  S2-  S131  1  0.07294804  0.37700892  0.64367838  1
  S2-  S132  1  0.00700221  0.63461892  0.16450746  1
  S2-  S133  1  0.07335861  0.61724083  0.65090868  1
  S2-  S134  1  -0.05482124  0.87228158  0.16399916  1
  S2-  S135  1  0.01912419  0.84117577  0.69035157  1
  S2-  S136  1  0.27705724  0.04073961  0.15525793  1
  S2-  S137  1  0.24483307  0.21569010  0.64237090  1
  S2-  S138  1  0.34248896  0.39180577  0.14021301  1
  S2-  S139  1  0.28563278  0.40544835  0.68323775  1
  S2-  S140  1  0.27559045  0.62536426  0.15124223  1
  S2-  S141  1  0.26398247  0.59917544  0.68717692  1
  S2-  S142  1  0.14595821  0.85079262  0.15018976  1
  S2-  S143  1  0.23352853  0.80325059  0.64925021  1
  S2-  S144  1  0.50061520  0.22601109  0.14318000  1
  S2-  S145  1  0.49078309  0.25039984  0.63469657  1
  S2-  S146  1  0.54509439  0.43323353  0.17397982  1
  S2-  S147  1  0.50097748  0.47219255  0.64446225  1
  S2-  S148  1  0.52308401  0.64489338  0.16033987  1
  S2-  S149  1  0.45902111  0.67825733  0.68717679  1
  S2-  S150  1  0.40222221  0.84689609  0.14454248  1
  S2-  S151  1  0.60243709  0.86484863  0.63887927  1
  S2-  S152  1  0.77272028  0.20865900  0.14503225  1
  S2-  S153  1  0.75563431  0.11913879  0.64737737  1
  S2-  S154  1  0.75204013  0.41993712  0.18570258  1
  S2-  S155  1  0.73694453  0.36768533  0.64690363  1
  S2-  S156  1  0.78396795  0.60844795  0.15658652  1
  S2-  S157  1  0.65284001  0.62677235  0.63857525  1
  S2-  S158  1  0.74274430  0.81603040  0.15006763  1
  S2-  S159  1  0.81678800  0.89525472  0.64696578  1
  S2-  S160  1  0.14068112  -0.00267219  0.34561399  1
  S2-  S161  1  0.05484833  -0.01146703  0.86025123  1
  S2-  S162  1  0.21983550  0.27469979  0.35637648  1
  S2-  S163  1  0.23462848  0.22702480  0.85955303  1
  S2-  S164  1  0.21841666  0.52116967  0.37105166  1
  S2-  S165  1  0.11404175  0.39613452  0.80224628  1
  S2-  S166  1  0.11927745  0.75214326  0.34825555  1
  S2-  S167  1  0.13965056  0.68262512  0.85127210  1
  S2-  S168  1  0.36173534  0.08918618  0.34995485  1
  S2-  S169  1  0.37173977  -0.11778041  0.86325600  1
  S2-  S170  1  0.48738609  0.25663156  0.34887520  1
  S2-  S171  1  0.41311580  0.34636215  0.84680820  1
  S2-  S172  1  0.43298945  0.50202321  0.35338097  1
  S2-  S173  1  0.27687522  0.50072856  0.82900660  1
  S2-  S174  1  0.35648856  0.77541496  0.35116850  1
  S2-  S175  1  0.40404774  0.65422504  0.84882779  1
  S2-  S176  1  0.58779264  0.00277741  0.34333255  1
  S2-  S177  1  0.60568128  0.00354328  0.85048906  1
  S2-  S178  1  0.73265844  0.22924404  0.35242510  1
  S2-  S179  1  0.62264514  0.24028943  0.84579360  1
  S2-  S180  1  0.62776153  0.42063759  0.33567771  1
  S2-  S181  1  0.55715972  0.50592973  0.85337354  1
  S2-  S182  1  0.59248111  0.65205539  0.35432430  1
  S2-  S183  1  0.60186323  0.75965733  0.84323331  1
  S2-  S184  1  0.90332961  0.03064386  0.33985272  1
  S2-  S185  1  0.83956640  -0.03907434  0.81313372  1
  S2-  S186  1  0.98780549  0.25694342  0.35630926  1
  S2-  S187  1  0.88990003  0.15933643  0.85301943  1
  S2-  S188  1  0.85075596  0.42918843  0.33546890  1
  S2-  S189  1  0.97248118  0.52226359  0.84731898  1
  S2-  S190  1  0.87241646  0.65562932  0.35511216  1
  S2-  S191  1  0.91252094  0.76948873  0.84526018  1
  S2-  S192  1  -0.02487580  0.12584333  0.45378943  1
  S2-  S193  1  0.01461174  0.12587377  0.95746873  1
  S2-  S194  1  -0.01987854  0.38701104  0.45360810  1
  S2-  S195  1  0.01613985  0.37076471  0.94188390  1
  S2-  S196  1  -0.01773508  0.63091051  0.46182002  1
  S2-  S197  1  0.01346556  0.61983780  0.95612500  1
  S2-  S198  1  -0.02354609  0.88027931  0.44300344  1
  S2-  S199  1  0.01183754  0.87056115  0.96260054  1
  S2-  S200  1  0.22337359  0.12442149  0.45210498  1
  S2-  S201  1  0.26010215  0.11747822  0.96112916  1
  S2-  S202  1  0.22187201  0.37804814  0.46834064  1
  S2-  S203  1  0.25392728  0.38213210  0.94609812  1
  S2-  S204  1  0.22321620  0.63643412  0.47449383  1
  S2-  S205  1  0.25828253  0.61876835  0.94883485  1
  S2-  S206  1  0.22566991  0.88258086  0.45631390  1
  S2-  S207  1  0.25553699  0.87103751  0.96387533  1
  S2-  S208  1  0.48358862  0.12782928  0.45430763  1
  S2-  S209  1  0.50723479  0.12163297  0.95403538  1
  S2-  S210  1  0.47882001  0.37569179  0.45238893  1
  S2-  S211  1  0.50970775  0.37113172  0.95897591  1
  S2-  S212  1  0.47465270  0.62947236  0.46257075  1
  S2-  S213  1  0.51582946  0.62313273  0.95605005  1
  S2-  S214  1  0.47927236  0.88182755  0.45773340  1
  S2-  S215  1  0.51335440  0.87536066  0.96177888  1
  S2-  S216  1  0.72719008  0.12578476  0.44813975  1
  S2-  S217  1  0.76052102  0.11895138  0.95249317  1
  S2-  S218  1  0.73044255  0.38293725  0.44547561  1
  S2-  S219  1  0.76068249  0.36897035  0.94932339  1
  S2-  S220  1  0.72511472  0.62999744  0.44893201  1
  S2-  S221  1  0.75996944  0.62183443  0.94895405  1
  S2-  S222  1  0.72501055  0.87917168  0.45348914  1
  S2-  S223  1  0.76453428  0.87896199  0.94861402  1
  S2-  S224  1  0.13826610  0.00163700  0.05294403  1
  S2-  S225  1  0.10035099  0.00097261  0.54714192  1
  S2-  S226  1  0.13978086  0.24941116  0.04716794  1
  S2-  S227  1  0.09604033  0.24841099  0.54196246  1
  S2-  S228  1  0.13903044  0.49617603  0.05782966  1
  S2-  S229  1  0.10178774  0.50685362  0.54904052  1
  S2-  S230  1  0.13873709  0.73954507  0.04783076  1
  S2-  S231  1  0.09101946  0.76648781  0.55404140  1
  S2-  S232  1  0.39178231  0.00014045  0.04644100  1
  S2-  S233  1  0.35367263  0.00392703  0.54545340  1
  S2-  S234  1  0.38371786  0.24651599  0.03768775  1
  S2-  S235  1  0.35230412  0.25049039  0.53573325  1
  S2-  S236  1  0.39016427  0.49983190  0.04052132  1
  S2-  S237  1  0.34763522  0.50540754  0.55724232  1
  S2-  S238  1  0.38948426  0.74231222  0.04232601  1
  S2-  S239  1  0.36221509  0.75398952  0.55808908  1
  S2-  S240  1  0.63600312  -0.00322969  0.05135825  1
  S2-  S241  1  0.60598474  0.01015864  0.54626364  1
  S2-  S242  1  0.64077694  0.25228222  0.04967840  1
  S2-  S243  1  0.61059956  0.25452364  0.53248076  1
  S2-  S244  1  0.64045382  0.49038274  0.05177273  1
  S2-  S245  1  0.60658904  0.50166063  0.53416539  1
  S2-  S246  1  0.63412293  0.74936247  0.04792127  1
  S2-  S247  1  0.60298296  0.75249655  0.53916239  1
  S2-  S248  1  0.88823543  -0.00083229  0.05336343  1
  S2-  S249  1  0.84914783  0.00372665  0.53938670  1
  S2-  S250  1  0.88815356  0.24814623  0.04107660  1
  S2-  S251  1  0.85226977  0.25606312  0.53871336  1
  S2-  S252  1  0.88205580  0.49529660  0.03999497  1
  S2-  S253  1  0.85368885  0.50449319  0.54131223  1
  S2-  S254  1  0.88754322  0.74604440  0.05005434  1
  S2-  S255  1  0.85302510  0.75709680  0.54516811  1
