# generated using pymatgen
data_La12Ce14Pr13Nd13Sm12(BiS2)64
_symmetry_space_group_name_H-M   'P 1'
_cell_length_a   16.19267577
_cell_length_b   16.19511707
_cell_length_c   27.12592134
_cell_angle_alpha   90.05256682
_cell_angle_beta   89.95752264
_cell_angle_gamma   89.97341563
_symmetry_Int_Tables_number   1
_chemical_formula_structural   La12Ce14Pr13Nd13Sm12(BiS2)64
_chemical_formula_sum   'La12 Ce14 Pr13 Nd13 Sm12 Bi64 S128'
_cell_volume   7113.55773666
_cell_formula_units_Z   1
loop_
 _symmetry_equiv_pos_site_id
 _symmetry_equiv_pos_as_xyz
  1  'x, y, z'
loop_
 _atom_type_symbol
 _atom_type_oxidation_number
  La3+  3.0
  Ce3+  3.0
  Pr3+  3.0
  Nd3+  3.0
  Sm3+  3.0
  Bi2+  2.0
  S2-  -2.0
loop_
 _atom_site_type_symbol
 _atom_site_label
 _atom_site_symmetry_multiplicity
 _atom_site_fract_x
 _atom_site_fract_y
 _atom_site_fract_z
 _atom_site_occupancy
  La3+  La0  1  0.00023806  0.62956063  0.58625668  1
  La3+  La1  1  0.36782032  0.50892175  0.41712429  1
  La3+  La2  1  0.63219961  0.74415217  0.42147687  1
  La3+  La3  1  0.12685281  -0.00436142  0.42664642  1
  La3+  La4  1  0.87434818  -0.00161074  0.44772894  1
  La3+  La5  1  0.63389353  0.49558789  0.42181595  1
  La3+  La6  1  0.38119290  0.00748873  0.42941961  1
  La3+  La7  1  0.13364303  0.49675704  0.91524121  1
  La3+  La8  1  0.87996387  0.49938532  0.43902715  1
  La3+  La9  1  0.62925933  -0.00149657  0.43405271  1
  La3+  La10  1  0.74216944  0.37611867  0.57749708  1
  La3+  La11  1  0.74192607  0.87161606  0.57637305  1
  Ce3+  Ce12  1  0.62790173  0.25005047  0.44529482  1
  Ce3+  Ce13  1  0.74614090  0.62506313  0.56549079  1
  Ce3+  Ce14  1  0.87446055  0.74673558  0.93404764  1
  Ce3+  Ce15  1  0.75461269  0.37420673  0.05959141  1
  Ce3+  Ce16  1  0.87603101  0.74397911  0.44492104  1
  Ce3+  Ce17  1  0.50163014  0.87003240  0.55518874  1
  Ce3+  Ce18  1  0.00319207  0.12100502  0.05668695  1
  Ce3+  Ce19  1  0.25355069  0.62180499  0.06170993  1
  Ce3+  Ce20  1  0.62913003  0.24944963  0.94162144  1
  Ce3+  Ce21  1  0.25403689  0.87356827  0.05301570  1
  Ce3+  Ce22  1  0.00511561  0.37370006  0.05570231  1
  Ce3+  Ce23  1  0.62899300  0.49893976  0.94498268  1
  Ce3+  Ce24  1  0.50278056  0.12157380  0.05269265  1
  Ce3+  Ce25  1  0.87609906  -0.00153406  0.93787869  1
  Pr3+  Pr26  1  0.50249507  0.37304787  0.06247318  1
  Pr3+  Pr27  1  0.51001182  0.62421421  0.07601906  1
  Pr3+  Pr28  1  0.37167736  0.25281356  0.43014814  1
  Pr3+  Pr29  1  0.74480821  0.12311624  0.58077747  1
  Pr3+  Pr30  1  0.12789215  0.24598503  0.42507429  1
  Pr3+  Pr31  1  0.25390135  0.11266042  0.07365141  1
  Pr3+  Pr32  1  0.49732860  0.37703799  0.55021607  1
  Pr3+  Pr33  1  0.38001411  0.49879968  0.94160303  1
  Pr3+  Pr34  1  0.50793682  0.87599322  0.06598675  1
  Pr3+  Pr35  1  0.61958368  0.74345529  0.93049199  1
  Pr3+  Pr36  1  0.49835522  0.12298914  0.56487965  1
  Pr3+  Pr37  1  0.00590354  0.12507197  0.56223232  1
  Pr3+  Pr38  1  0.00064909  0.37378986  0.56263227  1
  Nd3+  Nd39  1  0.87502644  0.24899192  0.44508600  1
  Nd3+  Nd40  1  0.37776343  -0.00054981  0.93263102  1
  Nd3+  Nd41  1  0.76103880  0.62000107  0.07079133  1
  Nd3+  Nd42  1  0.75225609  0.12023761  0.05841271  1
  Nd3+  Nd43  1  0.37553976  0.24858438  0.94513200  1
  Nd3+  Nd44  1  0.25109957  0.61738187  0.56767116  1
  Nd3+  Nd45  1  0.87843722  0.24862024  0.93881499  1
  Nd3+  Nd46  1  0.37980795  0.74611984  0.94362937  1
  Nd3+  Nd47  1  0.25134020  0.12151326  0.55911869  1
  Nd3+  Nd48  1  0.12675151  0.74648276  0.94268291  1
  Nd3+  Nd49  1  0.00580559  0.87357030  0.56320223  1
  Nd3+  Nd50  1  0.62304875  -0.00288261  0.92349473  1
  Nd3+  Nd51  1  0.12910194  0.24697215  0.94253812  1
  Sm3+  Sm52  1  0.00065835  0.87294638  0.05278996  1
  Sm3+  Sm53  1  0.12882453  -0.00125949  0.94133544  1
  Sm3+  Sm54  1  0.25151614  0.87249690  0.55190049  1
  Sm3+  Sm55  1  0.87789871  0.49892408  0.93766103  1
  Sm3+  Sm56  1  0.12358339  0.74819389  0.43889487  1
  Sm3+  Sm57  1  0.25108581  0.37454775  0.06165720  1
  Sm3+  Sm58  1  0.24880308  0.37198000  0.55656792  1
  Sm3+  Sm59  1  0.37655793  0.74887877  0.44258641  1
  Sm3+  Sm60  1  0.00278678  0.62169379  0.05565359  1
  Sm3+  Sm61  1  0.49991720  0.62105553  0.55014386  1
  Sm3+  Sm62  1  0.75107893  0.87226793  0.04998756  1
  Sm3+  Sm63  1  0.12598894  0.50292607  0.44003445  1
  Bi2+  Bi64  1  -0.02280683  0.10772491  0.29425279  1
  Bi2+  Bi65  1  0.04435304  0.10567617  0.77620058  1
  Bi2+  Bi66  1  0.01635405  0.44370311  0.30801824  1
  Bi2+  Bi67  1  -0.00819347  0.37194004  0.80002644  1
  Bi2+  Bi68  1  -0.00598503  0.63052793  0.35266025  1
  Bi2+  Bi69  1  -0.00991420  0.62315039  0.79284331  1
  Bi2+  Bi70  1  0.00070281  0.81827170  0.29160240  1
  Bi2+  Bi71  1  0.02985513  0.88697172  0.74218285  1
  Bi2+  Bi72  1  0.27690561  0.13100495  0.30164136  1
  Bi2+  Bi73  1  0.26894726  0.09751247  0.81348068  1
  Bi2+  Bi74  1  0.20087704  0.38594410  0.27719660  1
  Bi2+  Bi75  1  0.30591574  0.37079879  0.78205955  1
  Bi2+  Bi76  1  0.18268068  0.64675851  0.30542536  1
  Bi2+  Bi77  1  0.27172799  0.70401374  0.80511374  1
  Bi2+  Bi78  1  0.20132586  0.91049239  0.27092766  1
  Bi2+  Bi79  1  0.28298929  0.90316584  0.79705328  1
  Bi2+  Bi80  1  0.50263153  0.16157186  0.25223755  1
  Bi2+  Bi81  1  0.45772253  0.12312497  0.79418522  1
  Bi2+  Bi82  1  0.46575515  0.34602133  0.28134032  1
  Bi2+  Bi83  1  0.49799138  0.39464677  0.78243271  1
  Bi2+  Bi84  1  0.49334168  0.65024008  0.29022952  1
  Bi2+  Bi85  1  0.42506148  0.57695429  0.81152193  1
  Bi2+  Bi86  1  0.48287536  0.92400469  0.28907877  1
  Bi2+  Bi87  1  0.47325110  0.84867212  0.78517876  1
  Bi2+  Bi88  1  0.73527883  0.12964380  0.30516204  1
  Bi2+  Bi89  1  0.77868907  0.13024955  0.80214408  1
  Bi2+  Bi90  1  0.66118659  0.40360020  0.29008687  1
  Bi2+  Bi91  1  0.69522448  0.38341466  0.79248165  1
  Bi2+  Bi92  1  0.81235301  0.61656184  0.29629362  1
  Bi2+  Bi93  1  0.70267527  0.61977283  0.77305691  1
  Bi2+  Bi94  1  0.79902924  0.87817887  0.28524720  1
  Bi2+  Bi95  1  0.78784711  0.87163040  0.79763300  1
  Bi2+  Bi96  1  0.11583882  0.02326520  0.18927390  1
  Bi2+  Bi97  1  0.16319107  0.01535911  0.69833052  1
  Bi2+  Bi98  1  0.05037676  0.28345230  0.24069243  1
  Bi2+  Bi99  1  0.16470929  0.25096690  0.74581390  1
  Bi2+  Bi100  1  0.07872347  0.56181270  0.21576212  1
  Bi2+  Bi101  1  0.18366108  0.49346502  0.71713968  1
  Bi2+  Bi102  1  0.13310816  0.75533737  0.20736874  1
  Bi2+  Bi103  1  0.14853609  0.74626958  0.71206828  1
  Bi2+  Bi104  1  0.39313391  -0.00279515  0.19868592  1
  Bi2+  Bi105  1  0.38509770  0.00070250  0.70941317  1
  Bi2+  Bi106  1  0.33871679  0.24803067  0.20937083  1
  Bi2+  Bi107  1  0.35196719  0.19315202  0.70537509  1
  Bi2+  Bi108  1  0.35745067  0.50235358  0.19782164  1
  Bi2+  Bi109  1  0.35937377  0.57914909  0.70010444  1
  Bi2+  Bi110  1  0.31620098  0.75524105  0.25194933  1
  Bi2+  Bi111  1  0.34929494  0.77744011  0.70268857  1
  Bi2+  Bi112  1  0.63859982  -0.02532135  0.18975851  1
  Bi2+  Bi113  1  0.62793098  -0.00019938  0.71301507  1
  Bi2+  Bi114  1  0.66533675  0.25477217  0.21561593  1
  Bi2+  Bi115  1  0.62993532  0.25597664  0.71392314  1
  Bi2+  Bi116  1  0.61614170  0.50664765  0.19919909  1
  Bi2+  Bi117  1  0.57753724  0.50942702  0.69994426  1
  Bi2+  Bi118  1  0.69870805  0.73785181  0.22985866  1
  Bi2+  Bi119  1  0.61619150  0.75564392  0.71223412  1
  Bi2+  Bi120  1  0.89257269  0.00506991  0.20499746  1
  Bi2+  Bi121  1  0.89496889  0.01317532  0.71933216  1
  Bi2+  Bi122  1  0.85453250  0.25610882  0.24018545  1
  Bi2+  Bi123  1  0.90581523  0.27102203  0.70953486  1
  Bi2+  Bi124  1  0.89546836  0.47994662  0.20953509  1
  Bi2+  Bi125  1  0.82739511  0.48237456  0.72446261  1
  Bi2+  Bi126  1  0.88911035  0.73692095  0.21135305  1
  Bi2+  Bi127  1  0.87504827  0.74398679  0.71591676  1
  S2-  S128  1  -0.01825925  0.12299967  0.15398292  1
  S2-  S129  1  -0.03523150  0.13567577  0.66068900  1
  S2-  S130  1  0.00068229  0.37894426  0.15396284  1
  S2-  S131  1  0.00975556  0.37061184  0.66538925  1
  S2-  S132  1  -0.09774765  0.62261742  0.13615639  1
  S2-  S133  1  -0.06359245  0.58984711  0.68522905  1
  S2-  S134  1  -0.00375142  0.90102771  0.15044273  1
  S2-  S135  1  -0.00201445  0.78561591  0.64892550  1
  S2-  S136  1  0.20490164  0.15395954  0.16951664  1
  S2-  S137  1  0.19947701  0.17584736  0.64903826  1
  S2-  S138  1  0.25241783  0.37057001  0.16022841  1
  S2-  S139  1  0.28541099  0.43781804  0.64645047  1
  S2-  S140  1  0.22422815  0.58134763  0.15534046  1
  S2-  S141  1  0.14379850  0.61350885  0.64752310  1
  S2-  S142  1  0.25716883  0.95688088  0.13836787  1
  S2-  S143  1  0.20917655  0.87841000  0.64735353  1
  S2-  S144  1  0.51676498  0.08949091  0.14802003  1
  S2-  S145  1  0.58601818  0.12041342  0.65354738  1
  S2-  S146  1  0.49048073  0.40329885  0.16173950  1
  S2-  S147  1  0.55990578  0.36497022  0.64463638  1
  S2-  S148  1  0.43912976  0.62879630  0.17161266  1
  S2-  S149  1  0.52348574  0.64443485  0.64849499  1
  S2-  S150  1  0.49219080  0.87181512  0.16806572  1
  S2-  S151  1  0.58107605  0.87545098  0.64289416  1
  S2-  S152  1  0.75153950  0.07671252  0.15582704  1
  S2-  S153  1  0.75536774  -0.00563207  0.65340464  1
  S2-  S154  1  0.75441439  0.45201186  0.14787519  1
  S2-  S155  1  0.76111100  0.25093800  0.65275768  1
  S2-  S156  1  0.64665271  0.64565517  0.14525746  1
  S2-  S157  1  0.73454275  0.51063782  0.64272579  1
  S2-  S158  1  0.72522090  0.85881552  0.14792590  1
  S2-  S159  1  0.75039654  0.74008308  0.64676789  1
  S2-  S160  1  0.11619596  0.11250039  0.34921340  1
  S2-  S161  1  0.12514241  0.00862113  0.84358766  1
  S2-  S162  1  0.24978701  0.27797287  0.35246453  1
  S2-  S163  1  0.12487793  0.29875875  0.84806827  1
  S2-  S164  1  0.22348232  0.50109654  0.35590035  1
  S2-  S165  1  0.09640197  0.50475854  0.81340076  1
  S2-  S166  1  0.11768468  0.86022714  0.35964245  1
  S2-  S167  1  0.11599434  0.70738770  0.84625347  1
  S2-  S168  1  0.32438465  -0.03475596  0.33669753  1
  S2-  S169  1  0.48796543  -0.01769844  0.85607454  1
  S2-  S170  1  0.41361454  0.14523952  0.35213234  1
  S2-  S171  1  0.40552595  0.27328942  0.84764489  1
  S2-  S172  1  0.44169837  0.49098279  0.32301050  1
  S2-  S173  1  0.28741011  0.49530127  0.85638225  1
  S2-  S174  1  0.35473460  0.69195692  0.35037297  1
  S2-  S175  1  0.47832645  0.72768594  0.86178136  1
  S2-  S176  1  0.61151841  0.01536774  0.33344020  1
  S2-  S177  1  0.68038948  0.00625681  0.82414809  1
  S2-  S178  1  0.65038056  0.25329669  0.34899006  1
  S2-  S179  1  0.65568039  0.23219436  0.84483850  1
  S2-  S180  1  0.61511507  0.61463905  0.34674499  1
  S2-  S181  1  0.63722241  0.52977324  0.84961949  1
  S2-  S182  1  0.54927532  0.80012457  0.33207650  1
  S2-  S183  1  0.68526331  0.76701835  0.83591717  1
  S2-  S184  1  0.85226640  0.00992744  0.34760701  1
  S2-  S185  1  0.88594013  0.00971990  0.84086030  1
  S2-  S186  1  0.88328906  0.23382146  0.34486917  1
  S2-  S187  1  0.89222007  0.25289814  0.83908534  1
  S2-  S188  1  0.77936475  0.47419946  0.35564616  1
  S2-  S189  1  0.89147337  0.50266736  0.83869819  1
  S2-  S190  1  0.78492535  0.75983754  0.36048312  1
  S2-  S191  1  0.89938108  0.75453944  0.83682661  1
  S2-  S192  1  0.00083623  0.12453664  0.45504256  1
  S2-  S193  1  0.00464956  0.12281522  0.94877670  1
  S2-  S194  1  0.00530121  0.37265382  0.45203663  1
  S2-  S195  1  0.00326126  0.37571773  0.94891680  1
  S2-  S196  1  0.00629418  0.62465812  0.46703058  1
  S2-  S197  1  0.00332846  0.61961579  0.95085473  1
  S2-  S198  1  -0.00226731  0.87073201  0.45731110  1
  S2-  S199  1  0.00481110  0.87396957  0.94682395  1
  S2-  S200  1  0.25107271  0.12362323  0.45363036  1
  S2-  S201  1  0.25245887  0.12153844  0.95802708  1
  S2-  S202  1  0.24900511  0.38029837  0.45545892  1
  S2-  S203  1  0.25162294  0.37233838  0.95628747  1
  S2-  S204  1  0.24628363  0.62907028  0.45979733  1
  S2-  S205  1  0.25233098  0.62473988  0.95521945  1
  S2-  S206  1  0.25589732  0.87196618  0.44987960  1
  S2-  S207  1  0.25299781  0.87307465  0.94653972  1
  S2-  S208  1  0.50499177  0.12716837  0.45840162  1
  S2-  S209  1  0.50223111  0.12619678  0.94867838  1
  S2-  S210  1  0.49864008  0.37520600  0.44230168  1
  S2-  S211  1  0.50304960  0.37248546  0.95451950  1
  S2-  S212  1  0.49658084  0.62346543  0.44744814  1
  S2-  S213  1  0.50297250  0.61892307  0.96625606  1
  S2-  S214  1  0.49815040  0.87397930  0.44909813  1
  S2-  S215  1  0.50175179  0.87259584  0.95841429  1
  S2-  S216  1  0.75159851  0.12575759  0.46119102  1
  S2-  S217  1  0.75274027  0.12310069  0.95075986  1
  S2-  S218  1  0.75315069  0.37124182  0.46410968  1
  S2-  S219  1  0.75609620  0.37423781  0.95107329  1
  S2-  S220  1  0.75422294  0.62042358  0.45865476  1
  S2-  S221  1  0.75501372  0.62204003  0.95438517  1
  S2-  S222  1  0.74878447  0.87497817  0.46195634  1
  S2-  S223  1  0.74962025  0.87458721  0.94519602  1
  S2-  S224  1  0.12460884  -0.00459768  0.04406578  1
  S2-  S225  1  0.12796624  -0.00288594  0.54035943  1
  S2-  S226  1  0.13060144  0.24707686  0.05041966  1
  S2-  S227  1  0.12758275  0.25095693  0.53897183  1
  S2-  S228  1  0.12694742  0.49872072  0.04375846  1
  S2-  S229  1  0.12704222  0.49486270  0.54544833  1
  S2-  S230  1  0.12406848  0.74837656  0.05032566  1
  S2-  S231  1  0.13023590  0.74977332  0.54368947  1
  S2-  S232  1  0.38074150  -0.00343321  0.03947690  1
  S2-  S233  1  0.37468239  -0.00331009  0.54522298  1
  S2-  S234  1  0.37404490  0.24723148  0.05271933  1
  S2-  S235  1  0.37297168  0.24920962  0.54535600  1
  S2-  S236  1  0.37656563  0.49670946  0.05000921  1
  S2-  S237  1  0.37399839  0.50093815  0.53724751  1
  S2-  S238  1  0.37996328  0.74945848  0.05217440  1
  S2-  S239  1  0.37347534  0.74565243  0.54902971  1
  S2-  S240  1  0.62981387  -0.00173524  0.03655835  1
  S2-  S241  1  0.62206697  0.00054693  0.54271040  1
  S2-  S242  1  0.62926819  0.24760787  0.05053079  1
  S2-  S243  1  0.62230830  0.24739751  0.54817950  1
  S2-  S244  1  0.62907223  0.49645453  0.04850150  1
  S2-  S245  1  0.61981259  0.50033415  0.53516346  1
  S2-  S246  1  0.63010853  0.75073590  0.03999844  1
  S2-  S247  1  0.61926649  0.74507382  0.53641714  1
  S2-  S248  1  0.87634684  -0.00461643  0.04465970  1
  S2-  S249  1  0.88115353  -0.00175027  0.55451516  1
  S2-  S250  1  0.87687957  0.24702583  0.04702941  1
  S2-  S251  1  0.87798653  0.24732924  0.55027089  1
  S2-  S252  1  0.88091610  0.49517087  0.04111238  1
  S2-  S253  1  0.88112707  0.50059422  0.54989128  1
  S2-  S254  1  0.87730369  0.75180528  0.04093241  1
  S2-  S255  1  0.87716544  0.75045593  0.54874219  1
