# generated using pymatgen
data_La12Ce14Pr13Nd13Sm12(BiS2)64
_symmetry_space_group_name_H-M   'P 1'
_cell_length_a   16.09449857
_cell_length_b   16.14161243
_cell_length_c   27.31999183
_cell_angle_alpha   90.27003714
_cell_angle_beta   90.05004122
_cell_angle_gamma   89.99337070
_symmetry_Int_Tables_number   1
_chemical_formula_structural   La12Ce14Pr13Nd13Sm12(BiS2)64
_chemical_formula_sum   'La12 Ce14 Pr13 Nd13 Sm12 Bi64 S128'
_cell_volume   7097.41074325
_cell_formula_units_Z   1
loop_
 _symmetry_equiv_pos_site_id
 _symmetry_equiv_pos_as_xyz
  1  'x, y, z'
loop_
 _atom_type_symbol
 _atom_type_oxidation_number
  La3+  3.0
  Ce3+  3.0
  Pr3+  3.0
  Nd3+  3.0
  Sm3+  3.0
  Bi2+  2.0
  S2-  -2.0
loop_
 _atom_site_type_symbol
 _atom_site_label
 _atom_site_symmetry_multiplicity
 _atom_site_fract_x
 _atom_site_fract_y
 _atom_site_fract_z
 _atom_site_occupancy
  La3+  La0  1  0.25088539  0.12285489  0.09848158  1
  La3+  La1  1  0.27527564  0.88310914  0.58815816  1
  La3+  La2  1  0.65808252  0.74490050  0.42914640  1
  La3+  La3  1  0.39564939  -0.00665840  0.42286291  1
  La3+  La4  1  0.65583185  0.00512352  0.42230908  1
  La3+  La5  1  0.11881667  0.23407386  0.91584770  1
  La3+  La6  1  0.25002461  0.61086808  0.06983104  1
  La3+  La7  1  0.90378067  0.49521539  0.40300472  1
  La3+  La8  1  -0.00272645  0.85942404  0.07068349  1
  La3+  La9  1  0.52747287  0.62830797  0.56841859  1
  La3+  La10  1  0.52560764  0.12359698  0.55991425  1
  La3+  La11  1  0.15057330  0.24648914  0.42840680  1
  Ce3+  Ce12  1  0.89377285  0.00055733  0.44770721  1
  Ce3+  Ce13  1  0.12422205  0.73650990  0.94276214  1
  Ce3+  Ce14  1  0.37350815  -0.02110885  0.93178857  1
  Ce3+  Ce15  1  0.15015493  0.75136020  0.44799323  1
  Ce3+  Ce16  1  0.37395006  0.48970086  0.93448287  1
  Ce3+  Ce17  1  0.02664383  0.12544670  0.55570178  1
  Ce3+  Ce18  1  0.00247962  0.35613414  0.05040443  1
  Ce3+  Ce19  1  0.86933317  0.48759013  0.93155017  1
  Ce3+  Ce20  1  0.49543784  0.86329933  0.06892605  1
  Ce3+  Ce21  1  0.14624691  0.49953683  0.44678132  1
  Ce3+  Ce22  1  0.27442515  0.36976723  0.56206760  1
  Ce3+  Ce23  1  0.49409273  0.10922569  0.05568649  1
  Ce3+  Ce24  1  0.52383088  0.87774692  0.55600536  1
  Ce3+  Ce25  1  0.49663940  0.60902768  0.06140543  1
  Pr3+  Pr26  1  0.37338189  0.73298180  0.93522461  1
  Pr3+  Pr27  1  -0.00326887  0.60761816  0.05939280  1
  Pr3+  Pr28  1  0.76799411  0.87818427  0.57067541  1
  Pr3+  Pr29  1  0.40036505  0.50098222  0.43565577  1
  Pr3+  Pr30  1  0.25167898  0.86387304  0.07470335  1
  Pr3+  Pr31  1  0.02525225  0.62585459  0.56300155  1
  Pr3+  Pr32  1  0.89904242  0.75057866  0.44213550  1
  Pr3+  Pr33  1  0.86526312  0.73438083  0.92754545  1
  Pr3+  Pr34  1  0.39774578  0.24923554  0.43278746  1
  Pr3+  Pr35  1  0.74952131  0.60735761  0.06593271  1
  Pr3+  Pr36  1  0.75055394  0.10827540  0.06407991  1
  Pr3+  Pr37  1  0.75005294  0.36115966  0.06867018  1
  Pr3+  Pr38  1  0.40246742  0.74508845  0.43523262  1
  Nd3+  Nd39  1  0.62682364  -0.01928341  0.94218513  1
  Nd3+  Nd40  1  0.49218766  0.35447363  0.05654242  1
  Nd3+  Nd41  1  0.87588727  -0.02260215  0.93483681  1
  Nd3+  Nd42  1  0.12959131  -0.01584675  0.94141003  1
  Nd3+  Nd43  1  0.90078553  0.24874514  0.43607075  1
  Nd3+  Nd44  1  0.38344122  0.22570289  0.91508301  1
  Nd3+  Nd45  1  0.74587686  0.85339695  0.07775468  1
  Nd3+  Nd46  1  0.12498543  0.48574840  0.94205596  1
  Nd3+  Nd47  1  0.52387977  0.37332873  0.55737362  1
  Nd3+  Nd48  1  0.02586821  0.37028771  0.56141841  1
  Nd3+  Nd49  1  0.65190017  0.25245961  0.43351520  1
  Nd3+  Nd50  1  0.27550762  0.62802527  0.56205406  1
  Nd3+  Nd51  1  0.77921252  0.62384480  0.55993583  1
  Sm3+  Sm52  1  0.28198401  0.12911462  0.57407477  1
  Sm3+  Sm53  1  0.00560955  0.11232297  0.05190287  1
  Sm3+  Sm54  1  0.62510262  0.73340142  0.94599288  1
  Sm3+  Sm55  1  0.87149731  0.23076492  0.93705272  1
  Sm3+  Sm56  1  0.62366453  0.23411183  0.94177731  1
  Sm3+  Sm57  1  0.77062896  0.13265621  0.56783583  1
  Sm3+  Sm58  1  0.77797855  0.37385217  0.55983419  1
  Sm3+  Sm59  1  0.15381592  -0.00310425  0.44733065  1
  Sm3+  Sm60  1  0.02234960  0.87875613  0.55849175  1
  Sm3+  Sm61  1  0.24983604  0.35304258  0.04413727  1
  Sm3+  Sm62  1  0.65358914  0.49813926  0.45195760  1
  Sm3+  Sm63  1  0.62423002  0.48136466  0.94480341  1
  Bi2+  Bi64  1  -0.05922579  0.09277038  0.28423590  1
  Bi2+  Bi65  1  -0.02748768  0.07256967  0.79121586  1
  Bi2+  Bi66  1  0.02782218  0.35991738  0.29365163  1
  Bi2+  Bi67  1  -0.08457088  0.33471291  0.78746774  1
  Bi2+  Bi68  1  0.07793458  0.63637090  0.29143290  1
  Bi2+  Bi69  1  -0.05295796  0.57753727  0.75762574  1
  Bi2+  Bi70  1  -0.02924621  0.89185240  0.27951125  1
  Bi2+  Bi71  1  -0.04281945  0.86332126  0.75640806  1
  Bi2+  Bi72  1  0.22524265  0.14250359  0.29527766  1
  Bi2+  Bi73  1  0.24364251  0.12121845  0.80320461  1
  Bi2+  Bi74  1  0.24512800  0.40961736  0.28131655  1
  Bi2+  Bi75  1  0.26347759  0.40254905  0.80059477  1
  Bi2+  Bi76  1  0.27571145  0.61677204  0.29209279  1
  Bi2+  Bi77  1  0.23555842  0.61904805  0.79618859  1
  Bi2+  Bi78  1  0.23982973  0.89356398  0.30230642  1
  Bi2+  Bi79  1  0.23551065  0.87333611  0.79949369  1
  Bi2+  Bi80  1  0.52671781  0.22277187  0.28446852  1
  Bi2+  Bi81  1  0.57092149  0.12918929  0.78518322  1
  Bi2+  Bi82  1  0.43273345  0.38129013  0.32260541  1
  Bi2+  Bi83  1  0.54429709  0.40048560  0.79853075  1
  Bi2+  Bi84  1  0.46017952  0.54977013  0.26490257  1
  Bi2+  Bi85  1  0.49242836  0.59268777  0.78019150  1
  Bi2+  Bi86  1  0.49489152  0.82989088  0.28331204  1
  Bi2+  Bi87  1  0.48943126  0.87888133  0.78014344  1
  Bi2+  Bi88  1  0.78735672  0.21098849  0.30454266  1
  Bi2+  Bi89  1  0.74657929  0.21782214  0.80434142  1
  Bi2+  Bi90  1  0.65127825  0.36821107  0.31067651  1
  Bi2+  Bi91  1  0.74374417  0.41917778  0.82078692  1
  Bi2+  Bi92  1  0.72713900  0.63838898  0.29738164  1
  Bi2+  Bi93  1  0.77051425  0.66093424  0.78390876  1
  Bi2+  Bi94  1  0.74666962  0.89033380  0.29611573  1
  Bi2+  Bi95  1  0.75833732  0.90765828  0.81310585  1
  Bi2+  Bi96  1  0.07347110  0.01338790  0.21244060  1
  Bi2+  Bi97  1  0.09252898  0.01331010  0.70617856  1
  Bi2+  Bi98  1  0.11460265  0.28758510  0.19415536  1
  Bi2+  Bi99  1  0.12586936  0.26159010  0.70949479  1
  Bi2+  Bi100  1  0.10316773  0.49644412  0.20784743  1
  Bi2+  Bi101  1  0.11974819  0.48718582  0.73614062  1
  Bi2+  Bi102  1  0.10682649  0.76633009  0.21126007  1
  Bi2+  Bi103  1  0.13085215  0.70581424  0.70910731  1
  Bi2+  Bi104  1  0.39836811  0.02146427  0.22173136  1
  Bi2+  Bi105  1  0.38634193  -0.00220870  0.71105475  1
  Bi2+  Bi106  1  0.39610340  0.28245234  0.20769097  1
  Bi2+  Bi107  1  0.39070103  0.24607260  0.71064085  1
  Bi2+  Bi108  1  0.29710624  0.51520228  0.19055747  1
  Bi2+  Bi109  1  0.40049226  0.44825716  0.72249692  1
  Bi2+  Bi110  1  0.36868875  0.75942551  0.20841482  1
  Bi2+  Bi111  1  0.38454369  0.73464185  0.70164637  1
  Bi2+  Bi112  1  0.63481746  -0.00201783  0.22868067  1
  Bi2+  Bi113  1  0.63712539  0.00152990  0.70864310  1
  Bi2+  Bi114  1  0.70404201  0.27942902  0.19420873  1
  Bi2+  Bi115  1  0.63965893  0.26033932  0.70608212  1
  Bi2+  Bi116  1  0.61709629  0.46838913  0.21101259  1
  Bi2+  Bi117  1  0.67338860  0.51276649  0.72079313  1
  Bi2+  Bi118  1  0.61981739  0.74404822  0.20493543  1
  Bi2+  Bi119  1  0.63474080  0.79145134  0.72961866  1
  Bi2+  Bi120  1  0.82110984  0.02721227  0.19934785  1
  Bi2+  Bi121  1  0.83246887  -0.02428594  0.69117239  1
  Bi2+  Bi122  1  0.89668860  0.26173899  0.20443322  1
  Bi2+  Bi123  1  0.86711305  0.16585237  0.71035121  1
  Bi2+  Bi124  1  0.81857248  0.44070498  0.23255773  1
  Bi2+  Bi125  1  0.84614606  0.43729211  0.70075261  1
  Bi2+  Bi126  1  0.88411490  0.76019997  0.21300180  1
  Bi2+  Bi127  1  0.82157175  0.77403654  0.68936737  1
  S2-  S128  1  0.07750024  0.13961970  0.14041818  1
  S2-  S129  1  0.02838859  0.15623306  0.65222509  1
  S2-  S130  1  -0.00805896  0.39183568  0.14615481  1
  S2-  S131  1  0.05356318  0.38014606  0.66042329  1
  S2-  S132  1  -0.01336036  0.67576380  0.15258556  1
  S2-  S133  1  0.00088012  0.63855847  0.66167662  1
  S2-  S134  1  -0.12505915  0.88962267  0.14575174  1
  S2-  S135  1  0.03279955  0.88642102  0.65670592  1
  S2-  S136  1  0.24740500  0.05997048  0.19898107  1
  S2-  S137  1  0.24574378  0.02786910  0.65315528  1
  S2-  S138  1  0.25520165  0.28907641  0.13621533  1
  S2-  S139  1  0.26086296  0.26879582  0.64339064  1
  S2-  S140  1  0.24227121  0.72316894  0.14854579  1
  S2-  S141  1  0.26501005  0.62716312  0.66106802  1
  S2-  S142  1  0.11615370  0.89230633  0.14462953  1
  S2-  S143  1  0.23410118  0.83460034  0.69479985  1
  S2-  S144  1  0.42198596  0.13297974  0.14393277  1
  S2-  S145  1  0.42208056  0.12726739  0.64612574  1
  S2-  S146  1  0.49437652  0.37872352  0.15627791  1
  S2-  S147  1  0.50763225  0.34900232  0.65522559  1
  S2-  S148  1  0.48905142  0.65883116  0.15458079  1
  S2-  S149  1  0.49574922  0.63542678  0.66703195  1
  S2-  S150  1  0.38518609  0.89480946  0.14642212  1
  S2-  S151  1  0.42457788  0.87817557  0.64163563  1
  S2-  S152  1  0.67488557  0.11280862  0.15564129  1
  S2-  S153  1  0.64560618  0.12704221  0.63831981  1
  S2-  S154  1  0.75923241  0.48658382  0.14189846  1
  S2-  S155  1  0.78265055  0.29110523  0.64607735  1
  S2-  S156  1  0.75144034  0.71263419  0.14862990  1
  S2-  S157  1  0.72913624  0.63186567  0.65443025  1
  S2-  S158  1  0.61066884  0.87713541  0.14787080  1
  S2-  S159  1  0.63125963  0.87263831  0.63580870  1
  S2-  S160  1  0.15455165  0.00859481  0.34803522  1
  S2-  S161  1  0.12613111  -0.00151175  0.83919788  1
  S2-  S162  1  0.07548945  0.22034169  0.33493471  1
  S2-  S163  1  0.15064317  0.26861189  0.81490364  1
  S2-  S164  1  0.06999481  0.50021650  0.35823945  1
  S2-  S165  1  0.12438765  0.50339654  0.84375508  1
  S2-  S166  1  0.14504012  0.77099948  0.35034219  1
  S2-  S167  1  0.14872811  0.75218109  0.84412177  1
  S2-  S168  1  0.37004916  0.05764393  0.32184643  1
  S2-  S169  1  0.37418291  0.05989876  0.84369934  1
  S2-  S170  1  0.28072753  0.24727446  0.35745751  1
  S2-  S171  1  0.34677099  0.25422245  0.81508394  1
  S2-  S172  1  0.40274979  0.61718314  0.35954337  1
  S2-  S173  1  0.37082781  0.60575249  0.85937271  1
  S2-  S174  1  0.36693958  0.85206409  0.35775775  1
  S2-  S175  1  0.36582490  0.84679732  0.85628524  1
  S2-  S176  1  0.58840918  -0.04856767  0.33089552  1
  S2-  S177  1  0.59967031  -0.02346249  0.84308650  1
  S2-  S178  1  0.64705760  0.15202880  0.35173517  1
  S2-  S179  1  0.53692050  0.24557079  0.85718990  1
  S2-  S180  1  0.66159960  0.52630318  0.35575184  1
  S2-  S181  1  0.60748789  0.54194162  0.85300855  1
  S2-  S182  1  0.58602013  0.72795685  0.33564023  1
  S2-  S183  1  0.71246947  0.75549072  0.86246900  1
  S2-  S184  1  0.80811648  -0.00566875  0.36370454  1
  S2-  S185  1  0.82838856  0.05317648  0.84709756  1
  S2-  S186  1  0.88543275  0.34209494  0.35242663  1
  S2-  S187  1  0.96742969  0.22215500  0.85472180  1
  S2-  S188  1  0.86642491  0.55710069  0.30848839  1
  S2-  S189  1  0.88219553  0.60092023  0.85648762  1
  S2-  S190  1  0.79797052  0.75635053  0.36019774  1
  S2-  S191  1  0.90520157  0.85663319  0.85629783  1
  S2-  S192  1  0.02291785  0.11942098  0.44965919  1
  S2-  S193  1  -0.00205026  0.10500274  0.94995235  1
  S2-  S194  1  0.02192066  0.37440625  0.45620856  1
  S2-  S195  1  -0.00457185  0.36376202  0.94488862  1
  S2-  S196  1  0.02136624  0.62486356  0.45648812  1
  S2-  S197  1  0.00122056  0.60999949  0.95414224  1
  S2-  S198  1  0.02287242  0.87788287  0.45353179  1
  S2-  S199  1  0.00480480  0.86162000  0.96130334  1
  S2-  S200  1  0.27451825  0.11977720  0.45778911  1
  S2-  S201  1  0.24800090  0.11459456  0.93524971  1
  S2-  S202  1  0.27379751  0.37940298  0.45544143  1
  S2-  S203  1  0.25217866  0.35994252  0.93984528  1
  S2-  S204  1  0.27024048  0.62345794  0.45638724  1
  S2-  S205  1  0.24653470  0.60945146  0.96050328  1
  S2-  S206  1  0.27084498  0.87338468  0.46298967  1
  S2-  S207  1  0.24775064  0.85772634  0.96122079  1
  S2-  S208  1  0.52072126  0.12521122  0.44888136  1
  S2-  S209  1  0.50324818  0.10662024  0.95080556  1
  S2-  S210  1  0.52645646  0.37629926  0.45194418  1
  S2-  S211  1  0.49700690  0.36297456  0.95173401  1
  S2-  S212  1  0.53010202  0.61989665  0.46047352  1
  S2-  S213  1  0.50319503  0.60885495  0.95731698  1
  S2-  S214  1  0.52834934  0.87211082  0.44965631  1
  S2-  S215  1  0.50368415  0.85685718  0.95705606  1
  S2-  S216  1  0.77640983  0.13223526  0.46155548  1
  S2-  S217  1  0.74674711  0.11263638  0.95662927  1
  S2-  S218  1  0.77757638  0.37715355  0.45568923  1
  S2-  S219  1  0.74842798  0.35601402  0.95675337  1
  S2-  S220  1  0.78615409  0.61193345  0.45536461  1
  S2-  S221  1  0.74378484  0.60559743  0.95910665  1
  S2-  S222  1  0.77531838  0.87400908  0.46415406  1
  S2-  S223  1  0.74807621  0.86031254  0.96597112  1
  S2-  S224  1  0.13501264  -0.00112099  0.04505068  1
  S2-  S225  1  0.14747005  -0.00036708  0.54980721  1
  S2-  S226  1  0.12546745  0.23575879  0.02870721  1
  S2-  S227  1  0.15059991  0.24713929  0.53925718  1
  S2-  S228  1  0.12760975  0.48184397  0.04822643  1
  S2-  S229  1  0.15044305  0.49900592  0.55396227  1
  S2-  S230  1  0.12209068  0.73314264  0.04690481  1
  S2-  S231  1  0.14876691  0.75525441  0.55525847  1
  S2-  S232  1  0.36842600  -0.00730778  0.04001996  1
  S2-  S233  1  0.39652037  0.00102858  0.53961331  1
  S2-  S234  1  0.37127222  0.23216590  0.03100090  1
  S2-  S235  1  0.39966919  0.25202432  0.53935312  1
  S2-  S236  1  0.37109827  0.48149969  0.04392195  1
  S2-  S237  1  0.39893964  0.49968645  0.54941372  1
  S2-  S238  1  0.37565318  0.73454187  0.04379401  1
  S2-  S239  1  0.39831074  0.74814825  0.54446435  1
  S2-  S240  1  0.62352252  -0.01235960  0.04665833  1
  S2-  S241  1  0.65319137  0.00443104  0.53617684  1
  S2-  S242  1  0.62334715  0.23662695  0.04639107  1
  S2-  S243  1  0.65089971  0.25567721  0.53947592  1
  S2-  S244  1  0.61838199  0.48081463  0.04822061  1
  S2-  S245  1  0.65268903  0.49560667  0.55655735  1
  S2-  S246  1  0.61992118  0.73275714  0.04775249  1
  S2-  S247  1  0.65404142  0.74434464  0.54049059  1
  S2-  S248  1  0.87868588  -0.00760492  0.04268954  1
  S2-  S249  1  0.89685864  0.00387996  0.55361053  1
  S2-  S250  1  0.87497224  0.23398508  0.04437416  1
  S2-  S251  1  0.90005011  0.24892701  0.54350911  1
  S2-  S252  1  0.87607047  0.48090248  0.03872749  1
  S2-  S253  1  0.90161267  0.49586771  0.55828676  1
  S2-  S254  1  0.87322723  0.73277507  0.04061110  1
  S2-  S255  1  0.89986910  0.75348406  0.54977943  1
