# generated using pymatgen
data_La12Ce14Pr13Nd13Sm12(BiS2)64
_symmetry_space_group_name_H-M   'P 1'
_cell_length_a   16.14025214
_cell_length_b   16.16764792
_cell_length_c   27.30415254
_cell_angle_alpha   90.21512008
_cell_angle_beta   89.82646484
_cell_angle_gamma   89.94963235
_symmetry_Int_Tables_number   1
_chemical_formula_structural   La12Ce14Pr13Nd13Sm12(BiS2)64
_chemical_formula_sum   'La12 Ce14 Pr13 Nd13 Sm12 Bi64 S128'
_cell_volume   7124.93053342
_cell_formula_units_Z   1
loop_
 _symmetry_equiv_pos_site_id
 _symmetry_equiv_pos_as_xyz
  1  'x, y, z'
loop_
 _atom_type_symbol
 _atom_type_oxidation_number
  La3+  3.0
  Ce3+  3.0
  Pr3+  3.0
  Nd3+  3.0
  Sm3+  3.0
  Bi2+  2.0
  S2-  -2.0
loop_
 _atom_site_type_symbol
 _atom_site_label
 _atom_site_symmetry_multiplicity
 _atom_site_fract_x
 _atom_site_fract_y
 _atom_site_fract_z
 _atom_site_occupancy
  La3+  La0  1  0.87992845  0.75372065  0.91688004  1
  La3+  La1  1  0.63678953  0.48319259  0.91398357  1
  La3+  La2  1  0.75334686  0.39447348  0.09639196  1
  La3+  La3  1  0.51126937  0.63580262  0.58603508  1
  La3+  La4  1  0.01118843  0.37176940  0.06112426  1
  La3+  La5  1  0.37303025  0.73893483  0.39014560  1
  La3+  La6  1  0.11654396  0.24305068  0.89276865  1
  La3+  La7  1  0.00336409  0.86796809  0.06192070  1
  La3+  La8  1  0.75579410  0.36540538  0.58118927  1
  La3+  La9  1  0.50358896  0.36271687  0.06213815  1
  La3+  La10  1  0.87908382  0.25581439  0.39011428  1
  La3+  La11  1  0.76616140  0.63374592  0.58957367  1
  Ce3+  Ce12  1  0.63722834  0.74788974  0.44465165  1
  Ce3+  Ce13  1  0.88182815  -0.00629881  0.94296945  1
  Ce3+  Ce14  1  0.87666246  0.75150396  0.43828923  1
  Ce3+  Ce15  1  0.00993242  0.37277081  0.56716776  1
  Ce3+  Ce16  1  0.37489750  0.24356550  0.93070288  1
  Ce3+  Ce17  1  0.50750176  0.12337574  0.05997816  1
  Ce3+  Ce18  1  0.26058244  0.37746724  0.56473720  1
  Ce3+  Ce19  1  0.63459013  0.50480500  0.45996087  1
  Ce3+  Ce20  1  0.13258886  0.75085773  0.44395859  1
  Ce3+  Ce21  1  0.13340202  0.74396420  0.94179773  1
  Ce3+  Ce22  1  0.26192637  0.87558528  0.55771035  1
  Ce3+  Ce23  1  0.63566393  0.25568502  0.44108410  1
  Ce3+  Ce24  1  0.50616873  0.37390275  0.56431110  1
  Ce3+  Ce25  1  0.38079461  0.25385157  0.43552578  1
  Pr3+  Pr26  1  0.25033959  0.36830489  0.05404369  1
  Pr3+  Pr27  1  0.76792215  0.88150421  0.57307824  1
  Pr3+  Pr28  1  0.13583680  0.00292536  0.44169911  1
  Pr3+  Pr29  1  0.75265918  0.86739727  0.05872866  1
  Pr3+  Pr30  1  0.88692525  0.48709345  0.92608463  1
  Pr3+  Pr31  1  0.00495482  0.62692530  0.55945256  1
  Pr3+  Pr32  1  0.00065344  0.61799709  0.05084236  1
  Pr3+  Pr33  1  0.88012363  0.49543704  0.45186778  1
  Pr3+  Pr34  1  0.26368740  0.12641959  0.56438273  1
  Pr3+  Pr35  1  0.25803770  0.63059713  0.56736398  1
  Pr3+  Pr36  1  0.13465683  -0.00626140  0.92950448  1
  Pr3+  Pr37  1  0.01027505  0.13015687  0.55992332  1
  Pr3+  Pr38  1  0.38141234  0.73670496  0.93176149  1
  Nd3+  Nd39  1  0.51082822  0.61035005  0.05518626  1
  Nd3+  Nd40  1  0.38024162  -0.00490528  0.94478806  1
  Nd3+  Nd41  1  0.88296747  0.00569816  0.43497547  1
  Nd3+  Nd42  1  0.88258310  0.24416588  0.94627988  1
  Nd3+  Nd43  1  0.25550282  0.61788327  0.06135560  1
  Nd3+  Nd44  1  0.38764613  -0.00531728  0.43558735  1
  Nd3+  Nd45  1  0.25382454  0.11742585  0.05640348  1
  Nd3+  Nd46  1  0.37797187  0.48912329  0.93885076  1
  Nd3+  Nd47  1  0.63247395  0.24352937  0.93768585  1
  Nd3+  Nd48  1  0.62740047  0.74321920  0.93209587  1
  Nd3+  Nd49  1  0.13614429  0.25578936  0.43761567  1
  Nd3+  Nd50  1  0.25824111  0.86760983  0.06140774  1
  Nd3+  Nd51  1  0.13077706  0.50384994  0.92241146  1
  Sm3+  Sm52  1  0.50607404  0.86504086  0.05480019  1
  Sm3+  Sm53  1  0.00845634  0.88005389  0.55424451  1
  Sm3+  Sm54  1  0.75509829  0.12302416  0.05817001  1
  Sm3+  Sm55  1  0.38778876  0.51045543  0.45663295  1
  Sm3+  Sm56  1  0.13570443  0.50416988  0.44829533  1
  Sm3+  Sm57  1  0.50654839  0.12473564  0.55359596  1
  Sm3+  Sm58  1  0.51112731  0.87655998  0.56583454  1
  Sm3+  Sm59  1  0.63500933  0.00056294  0.44840490  1
  Sm3+  Sm60  1  0.62877266  -0.00415176  0.94486373  1
  Sm3+  Sm61  1  0.76020927  0.12874658  0.55682579  1
  Sm3+  Sm62  1  0.00657240  0.11897223  0.05905318  1
  Sm3+  Sm63  1  0.75586149  0.61648941  0.04020987  1
  Bi2+  Bi64  1  0.02743576  0.10396439  0.28958212  1
  Bi2+  Bi65  1  -0.01753971  0.05572307  0.76585496  1
  Bi2+  Bi66  1  0.02022211  0.38701973  0.29742635  1
  Bi2+  Bi67  1  -0.03156991  0.37356303  0.78044108  1
  Bi2+  Bi68  1  0.00152522  0.64463328  0.26719031  1
  Bi2+  Bi69  1  0.03487221  0.61596243  0.78177719  1
  Bi2+  Bi70  1  -0.05379295  0.81659825  0.31386143  1
  Bi2+  Bi71  1  0.00544636  0.86440542  0.79339415  1
  Bi2+  Bi72  1  0.28979615  0.12227645  0.31186445  1
  Bi2+  Bi73  1  0.23986120  0.09751238  0.78428168  1
  Bi2+  Bi74  1  0.26900628  0.38142448  0.28095985  1
  Bi2+  Bi75  1  0.26054628  0.47364348  0.80482415  1
  Bi2+  Bi76  1  0.25614127  0.59455674  0.29988291  1
  Bi2+  Bi77  1  0.26232080  0.71792081  0.78554924  1
  Bi2+  Bi78  1  0.24290838  0.94123939  0.28058102  1
  Bi2+  Bi79  1  0.19500635  0.89249143  0.81456633  1
  Bi2+  Bi80  1  0.47465456  0.17733190  0.30295951  1
  Bi2+  Bi81  1  0.50339959  0.16928418  0.80777362  1
  Bi2+  Bi82  1  0.47235402  0.36820517  0.27129929  1
  Bi2+  Bi83  1  0.39648820  0.33461260  0.79899479  1
  Bi2+  Bi84  1  0.54053839  0.60508122  0.31281883  1
  Bi2+  Bi85  1  0.48301266  0.64857919  0.78507611  1
  Bi2+  Bi86  1  0.51295717  0.91680984  0.28483331  1
  Bi2+  Bi87  1  0.46869604  0.97726908  0.78100816  1
  Bi2+  Bi88  1  0.74640569  0.04306510  0.28359312  1
  Bi2+  Bi89  1  0.70094889  0.12176543  0.82158470  1
  Bi2+  Bi90  1  0.74655975  0.39271751  0.29937534  1
  Bi2+  Bi91  1  0.76603301  0.31443252  0.81286060  1
  Bi2+  Bi92  1  0.75286515  0.64790267  0.23535740  1
  Bi2+  Bi93  1  0.73604037  0.62431471  0.79310977  1
  Bi2+  Bi94  1  0.74926950  0.85031182  0.30941205  1
  Bi2+  Bi95  1  0.74666372  0.93554991  0.78627702  1
  Bi2+  Bi96  1  0.11596824  0.02724967  0.19843595  1
  Bi2+  Bi97  1  0.13761938  -0.02100761  0.71214571  1
  Bi2+  Bi98  1  0.20432546  0.22233156  0.22363654  1
  Bi2+  Bi99  1  0.10797471  0.26055277  0.69451039  1
  Bi2+  Bi100  1  0.14010700  0.50584788  0.20196630  1
  Bi2+  Bi101  1  0.15792286  0.51814819  0.71374406  1
  Bi2+  Bi102  1  0.12984992  0.78755163  0.26293125  1
  Bi2+  Bi103  1  0.11176847  0.76151288  0.71465125  1
  Bi2+  Bi104  1  0.40739563  0.04642510  0.22191618  1
  Bi2+  Bi105  1  0.41439929  0.01465371  0.67090067  1
  Bi2+  Bi106  1  0.35133913  0.32455186  0.17588895  1
  Bi2+  Bi107  1  0.35149230  0.20507286  0.71422611  1
  Bi2+  Bi108  1  0.38513636  0.51081263  0.20124317  1
  Bi2+  Bi109  1  0.37516627  0.47163780  0.69962630  1
  Bi2+  Bi110  1  0.37203932  0.75462686  0.18920841  1
  Bi2+  Bi111  1  0.38092815  0.83954216  0.71243311  1
  Bi2+  Bi112  1  0.60461269  0.02645674  0.20287891  1
  Bi2+  Bi113  1  0.61843468  -0.00787980  0.69146545  1
  Bi2+  Bi114  1  0.60218584  0.22440457  0.21829739  1
  Bi2+  Bi115  1  0.62665341  0.18693404  0.71915993  1
  Bi2+  Bi116  1  0.59664178  0.52824834  0.21433002  1
  Bi2+  Bi117  1  0.61381342  0.46148555  0.72169348  1
  Bi2+  Bi118  1  0.63182370  0.80310818  0.21794589  1
  Bi2+  Bi119  1  0.62903665  0.80740354  0.72711792  1
  Bi2+  Bi120  1  0.88782106  -0.05849207  0.22828908  1
  Bi2+  Bi121  1  0.82146982  0.00259906  0.68734925  1
  Bi2+  Bi122  1  0.85881552  0.22987476  0.19348395  1
  Bi2+  Bi123  1  0.84917988  0.18348320  0.72524868  1
  Bi2+  Bi124  1  0.88880273  0.51437757  0.20437161  1
  Bi2+  Bi125  1  0.86900899  0.50595934  0.70441043  1
  Bi2+  Bi126  1  0.89859423  0.75983864  0.18583013  1
  Bi2+  Bi127  1  0.88609285  0.77360602  0.71134980  1
  S2-  S128  1  -0.00043976  0.13061088  0.15765648  1
  S2-  S129  1  -0.01078908  0.16566942  0.65825452  1
  S2-  S130  1  -0.08682885  0.37638137  0.14554816  1
  S2-  S131  1  -0.00331009  0.39326820  0.66610892  1
  S2-  S132  1  0.01793929  0.59568118  0.15000013  1
  S2-  S133  1  -0.07529711  0.63892803  0.64877876  1
  S2-  S134  1  0.01950568  0.88457108  0.16120697  1
  S2-  S135  1  -0.06809619  0.88898219  0.64160214  1
  S2-  S136  1  0.25761333  0.09616676  0.15602321  1
  S2-  S137  1  0.21037337  0.12890333  0.66046267  1
  S2-  S138  1  0.14298529  0.39164052  0.13534674  1
  S2-  S139  1  0.24482977  0.36018485  0.66166379  1
  S2-  S140  1  0.25565236  0.61466558  0.16128780  1
  S2-  S141  1  0.27551530  0.60731231  0.66680385  1
  S2-  S142  1  0.25123457  0.84873351  0.15970278  1
  S2-  S143  1  0.23379938  0.86144453  0.65428622  1
  S2-  S144  1  0.49466011  0.22633814  0.13837582  1
  S2-  S145  1  0.47637150  0.17393727  0.64653856  1
  S2-  S146  1  0.59274378  0.43470253  0.13601042  1
  S2-  S147  1  0.51382882  0.37883675  0.66299915  1
  S2-  S148  1  0.48950692  0.62914001  0.15384921  1
  S2-  S149  1  0.49637958  0.58291484  0.68602278  1
  S2-  S150  1  0.50001177  0.85256731  0.15167094  1
  S2-  S151  1  0.51423993  0.78412862  0.65283095  1
  S2-  S152  1  0.73409611  0.12394487  0.15550270  1
  S2-  S153  1  0.74125357  0.20940027  0.64352055  1
  S2-  S154  1  0.73486458  0.33505619  0.19869141  1
  S2-  S155  1  0.75676283  0.39556090  0.68437483  1
  S2-  S156  1  0.77253146  0.56576897  0.13427726  1
  S2-  S157  1  0.71772320  0.58754516  0.68830506  1
  S2-  S158  1  0.76574074  0.86763451  0.15817407  1
  S2-  S159  1  0.75199614  0.77822741  0.65501088  1
  S2-  S160  1  0.10546583  -0.00630818  0.34173381  1
  S2-  S161  1  0.09657402  0.08789962  0.84584452  1
  S2-  S162  1  0.04686967  0.25316798  0.35051919  1
  S2-  S163  1  0.11228317  0.30203863  0.79112920  1
  S2-  S164  1  0.13197718  0.49052183  0.35010212  1
  S2-  S165  1  0.00934202  0.48183767  0.85011602  1
  S2-  S166  1  0.19963064  0.73651124  0.35411895  1
  S2-  S167  1  0.14650315  0.65444607  0.85799733  1
  S2-  S168  1  0.37868065  -0.09515524  0.35012886  1
  S2-  S169  1  0.33237191  -0.00483771  0.84965504  1
  S2-  S170  1  0.26313970  0.27262581  0.36477347  1
  S2-  S171  1  0.28005575  0.23090693  0.84944013  1
  S2-  S172  1  0.38785347  0.56046726  0.36291378  1
  S2-  S173  1  0.38087122  0.57108671  0.85136113  1
  S2-  S174  1  0.37334080  0.71121370  0.28191169  1
  S2-  S175  1  0.40682262  0.77725633  0.83522623  1
  S2-  S176  1  0.62112158  0.00725031  0.34950170  1
  S2-  S177  1  0.60551703  -0.03056819  0.84969690  1
  S2-  S178  1  0.71167772  0.26227778  0.35319385  1
  S2-  S179  1  0.61877596  0.33318002  0.85092573  1
  S2-  S180  1  0.64733824  0.49901704  0.36057686  1
  S2-  S181  1  0.58603132  0.53809811  0.81853921  1
  S2-  S182  1  0.54341645  0.74522546  0.36110446  1
  S2-  S183  1  0.64222014  0.74586035  0.83197746  1
  S2-  S184  1  0.88535843  0.08887823  0.34758251  1
  S2-  S185  1  0.87047980  -0.09395855  0.85907361  1
  S2-  S186  1  0.88299417  0.28227856  0.28219877  1
  S2-  S187  1  0.92865865  0.25306863  0.85020447  1
  S2-  S188  1  0.88517143  0.43499209  0.35735775  1
  S2-  S189  1  0.78418739  0.47819623  0.84304079  1
  S2-  S190  1  0.75977095  0.71691852  0.37121074  1
  S2-  S191  1  0.88443313  0.68184181  0.82360858  1
  S2-  S192  1  0.01099158  0.12753234  0.45359931  1
  S2-  S193  1  0.00671818  0.11717333  0.95417951  1
  S2-  S194  1  0.01533350  0.38017784  0.46085526  1
  S2-  S195  1  0.01483742  0.36143009  0.95199291  1
  S2-  S196  1  0.00635744  0.62485681  0.45129875  1
  S2-  S197  1  0.00043753  0.62626405  0.94671036  1
  S2-  S198  1  0.00708503  0.87829645  0.45065249  1
  S2-  S199  1  0.01006164  0.87053123  0.95334724  1
  S2-  S200  1  0.26276930  0.12282356  0.45669367  1
  S2-  S201  1  0.25235478  0.11781048  0.95193321  1
  S2-  S202  1  0.26225270  0.38779574  0.46046920  1
  S2-  S203  1  0.24743333  0.37049340  0.94597963  1
  S2-  S204  1  0.25890735  0.62899709  0.46123894  1
  S2-  S205  1  0.25833348  0.61819165  0.95640046  1
  S2-  S206  1  0.25872924  0.87361226  0.45285106  1
  S2-  S207  1  0.25922966  0.86661807  0.95438783  1
  S2-  S208  1  0.50803433  0.12570514  0.44939275  1
  S2-  S209  1  0.50498205  0.11946673  0.95312506  1
  S2-  S210  1  0.50547251  0.37964295  0.45566033  1
  S2-  S211  1  0.50087496  0.36542100  0.95221207  1
  S2-  S212  1  0.51166776  0.62646688  0.47262058  1
  S2-  S213  1  0.50902618  0.61537059  0.94844540  1
  S2-  S214  1  0.51384980  0.88122553  0.46245525  1
  S2-  S215  1  0.50491150  0.86946789  0.95047973  1
  S2-  S216  1  0.75746291  0.12701187  0.45377628  1
  S2-  S217  1  0.75608289  0.11643016  0.95354552  1
  S2-  S218  1  0.75557577  0.37486954  0.46744756  1
  S2-  S219  1  0.75965349  0.36309489  0.94993266  1
  S2-  S220  1  0.76171198  0.62201646  0.47646239  1
  S2-  S221  1  0.75626058  0.62372976  0.93804938  1
  S2-  S222  1  0.76099007  0.88298943  0.46027857  1
  S2-  S223  1  0.74787139  0.87015292  0.95296188  1
  S2-  S224  1  0.13121509  -0.00837456  0.04347230  1
  S2-  S225  1  0.13429362  0.00109859  0.54903188  1
  S2-  S226  1  0.13000780  0.23622691  0.04965841  1
  S2-  S227  1  0.13878791  0.25193799  0.54651559  1
  S2-  S228  1  0.13183638  0.50229346  0.03129241  1
  S2-  S229  1  0.13328709  0.50354880  0.55463565  1
  S2-  S230  1  0.13146459  0.74343096  0.04963903  1
  S2-  S231  1  0.12861979  0.75376283  0.55102428  1
  S2-  S232  1  0.38463229  -0.00771120  0.05137663  1
  S2-  S233  1  0.38557527  -0.00064371  0.54266052  1
  S2-  S234  1  0.37334895  0.24122331  0.03701952  1
  S2-  S235  1  0.38314462  0.25176782  0.54278154  1
  S2-  S236  1  0.37905414  0.49258841  0.04564733  1
  S2-  S237  1  0.38495635  0.50503660  0.56016648  1
  S2-  S238  1  0.38351553  0.74131771  0.04226124  1
  S2-  S239  1  0.38337319  0.75430210  0.55869222  1
  S2-  S240  1  0.62833553  -0.00574755  0.04992873  1
  S2-  S241  1  0.63478146  0.00468653  0.55295577  1
  S2-  S242  1  0.63864366  0.24686957  0.04450838  1
  S2-  S243  1  0.62723259  0.24759933  0.54600494  1
  S2-  S244  1  0.63566971  0.49573017  0.02832638  1
  S2-  S245  1  0.63323769  0.50079300  0.56652155  1
  S2-  S246  1  0.62988912  0.74055946  0.04190189  1
  S2-  S247  1  0.63826945  0.75793254  0.55213136  1
  S2-  S248  1  0.87812570  -0.00367333  0.05014969  1
  S2-  S249  1  0.88524718  0.00761689  0.54137170  1
  S2-  S250  1  0.88045467  0.24013199  0.05079160  1
  S2-  S251  1  0.88423661  0.25084963  0.55207763  1
  S2-  S252  1  0.87913907  0.49261951  0.03375842  1
  S2-  S253  1  0.88273736  0.49504320  0.55820756  1
  S2-  S254  1  0.87671261  0.74477198  0.03700696  1
  S2-  S255  1  0.88692347  0.75677383  0.54291997  1
