# generated using pymatgen
data_La12Ce14Pr13Nd13Sm12(BiS2)64
_symmetry_space_group_name_H-M   'P 1'
_cell_length_a   16.11129758
_cell_length_b   16.10408639
_cell_length_c   27.16378174
_cell_angle_alpha   90.42155670
_cell_angle_beta   89.92533605
_cell_angle_gamma   90.07750630
_symmetry_Int_Tables_number   1
_chemical_formula_structural   La12Ce14Pr13Nd13Sm12(BiS2)64
_chemical_formula_sum   'La12 Ce14 Pr13 Nd13 Sm12 Bi64 S128'
_cell_volume   7047.64999696
_cell_formula_units_Z   1
loop_
 _symmetry_equiv_pos_site_id
 _symmetry_equiv_pos_as_xyz
  1  'x, y, z'
loop_
 _atom_type_symbol
 _atom_type_oxidation_number
  La3+  3.0
  Ce3+  3.0
  Pr3+  3.0
  Nd3+  3.0
  Sm3+  3.0
  Bi2+  2.0
  S2-  -2.0
loop_
 _atom_site_type_symbol
 _atom_site_label
 _atom_site_symmetry_multiplicity
 _atom_site_fract_x
 _atom_site_fract_y
 _atom_site_fract_z
 _atom_site_occupancy
  La3+  La0  1  0.34496895  -0.00135716  0.38079154  1
  La3+  La1  1  0.74094202  0.39033838  0.09524958  1
  La3+  La2  1  0.37462762  0.75227559  0.89451913  1
  La3+  La3  1  0.24631744  0.11388466  0.60491520  1
  La3+  La4  1  0.63055796  0.01582484  0.92021756  1
  La3+  La5  1  0.50849772  0.13509646  0.06515136  1
  La3+  La6  1  0.88623941  0.47651277  0.41405055  1
  La3+  La7  1  0.39158989  0.74140858  0.42769049  1
  La3+  La8  1  0.00359936  0.88652432  0.07627367  1
  La3+  La9  1  0.88127982  0.73268278  0.43103142  1
  La3+  La10  1  0.50428264  0.63973237  0.05838648  1
  La3+  La11  1  0.00292147  0.63583186  0.09715352  1
  Ce3+  Ce12  1  0.63278348  0.73201099  0.44347050  1
  Ce3+  Ce13  1  0.00681126  0.36978111  0.55931210  1
  Ce3+  Ce14  1  0.00596552  0.61216866  0.55600660  1
  Ce3+  Ce15  1  0.75851895  0.11250089  0.55504591  1
  Ce3+  Ce16  1  0.00290384  0.85490853  0.57219502  1
  Ce3+  Ce17  1  0.88050268  0.01121178  0.94248004  1
  Ce3+  Ce18  1  0.37836963  0.22789562  0.44870436  1
  Ce3+  Ce19  1  0.50798593  0.61068839  0.55899556  1
  Ce3+  Ce20  1  0.75042671  0.88191585  0.05686875  1
  Ce3+  Ce21  1  0.25279918  0.36278184  0.56320740  1
  Ce3+  Ce22  1  0.25328413  0.63792119  0.05943886  1
  Ce3+  Ce23  1  0.50406989  0.38506722  0.05633550  1
  Ce3+  Ce24  1  0.00153132  0.38517222  0.07263747  1
  Ce3+  Ce25  1  0.75101235  0.13328854  0.06451538  1
  Pr3+  Pr26  1  0.62380375  -0.01702169  0.43534042  1
  Pr3+  Pr27  1  0.75301268  0.64213593  0.08078917  1
  Pr3+  Pr28  1  0.76086682  0.85336343  0.58170405  1
  Pr3+  Pr29  1  0.63222554  0.47611923  0.42790168  1
  Pr3+  Pr30  1  0.13548853  0.48462018  0.43045768  1
  Pr3+  Pr31  1  0.12926086  -0.01708177  0.45024765  1
  Pr3+  Pr32  1  0.38009684  0.48660500  0.43664190  1
  Pr3+  Pr33  1  0.51231839  0.86349814  0.57198807  1
  Pr3+  Pr34  1  0.13240195  0.76076144  0.94432238  1
  Pr3+  Pr35  1  0.25902492  0.89095902  0.07225290  1
  Pr3+  Pr36  1  0.13177072  0.00995336  0.94237045  1
  Pr3+  Pr37  1  0.50724331  0.10905685  0.56520993  1
  Pr3+  Pr38  1  0.88016081  0.75798944  0.94402001  1
  Nd3+  Nd39  1  0.50425012  0.36012488  0.55864020  1
  Nd3+  Nd40  1  0.63458822  0.74869396  0.92102889  1
  Nd3+  Nd41  1  0.37771641  0.01090573  0.93068356  1
  Nd3+  Nd42  1  0.25765220  0.61709143  0.56227868  1
  Nd3+  Nd43  1  0.12957620  0.50900738  0.94670018  1
  Nd3+  Nd44  1  0.75840334  0.60298222  0.56029758  1
  Nd3+  Nd45  1  0.63105810  0.23429794  0.43982866  1
  Nd3+  Nd46  1  0.26087431  0.13802021  0.06894182  1
  Nd3+  Nd47  1  0.50311433  0.88378217  0.04078288  1
  Nd3+  Nd48  1  0.13684655  0.73956037  0.43731323  1
  Nd3+  Nd49  1  0.25316037  0.38678680  0.05924198  1
  Nd3+  Nd50  1  0.63300506  0.50777203  0.93961784  1
  Nd3+  Nd51  1  0.00183993  0.13347026  0.07167875  1
  Sm3+  Sm52  1  0.26210965  0.86141891  0.56565286  1
  Sm3+  Sm53  1  0.63288939  0.26129060  0.93955663  1
  Sm3+  Sm54  1  0.13115649  0.23182414  0.44197824  1
  Sm3+  Sm55  1  0.87978560  0.26107738  0.95181104  1
  Sm3+  Sm56  1  0.00444039  0.11198556  0.56439120  1
  Sm3+  Sm57  1  0.12793799  0.25906930  0.94806796  1
  Sm3+  Sm58  1  0.38075165  0.50742124  0.94117233  1
  Sm3+  Sm59  1  0.75986326  0.36340245  0.55903482  1
  Sm3+  Sm60  1  0.87956521  -0.01677636  0.44446681  1
  Sm3+  Sm61  1  0.88880713  0.23432174  0.43227944  1
  Sm3+  Sm62  1  0.88027104  0.50947257  0.95435218  1
  Sm3+  Sm63  1  0.37797914  0.25377479  0.93375192  1
  Bi2+  Bi64  1  -0.08783087  0.12471767  0.29689639  1
  Bi2+  Bi65  1  -0.00292931  0.17651252  0.73047637  1
  Bi2+  Bi66  1  0.01979826  0.34947569  0.28141409  1
  Bi2+  Bi67  1  -0.05649802  0.36765924  0.79164691  1
  Bi2+  Bi68  1  0.01370306  0.63325529  0.30089476  1
  Bi2+  Bi69  1  0.04157798  0.56335857  0.76317054  1
  Bi2+  Bi70  1  0.03405905  0.97209846  0.28073997  1
  Bi2+  Bi71  1  0.02157945  0.83398321  0.78777657  1
  Bi2+  Bi72  1  0.17395252  0.22166418  0.30257431  1
  Bi2+  Bi73  1  0.23250436  0.13401027  0.79576988  1
  Bi2+  Bi74  1  0.26870540  0.38229866  0.33980937  1
  Bi2+  Bi75  1  0.25050333  0.37785039  0.79723073  1
  Bi2+  Bi76  1  0.23269878  0.56032868  0.29783319  1
  Bi2+  Bi77  1  0.23257939  0.60012050  0.79454910  1
  Bi2+  Bi78  1  0.22250900  0.86558144  0.27682526  1
  Bi2+  Bi79  1  0.22775961  0.88486474  0.78896906  1
  Bi2+  Bi80  1  0.53114639  0.19764887  0.31171368  1
  Bi2+  Bi81  1  0.50050253  0.17547973  0.78824308  1
  Bi2+  Bi82  1  0.44439243  0.38334356  0.28336105  1
  Bi2+  Bi83  1  0.44998226  0.35524305  0.82684804  1
  Bi2+  Bi84  1  0.48913653  0.63576370  0.28734560  1
  Bi2+  Bi85  1  0.51124698  0.53293764  0.79331705  1
  Bi2+  Bi86  1  0.49265653  0.86626102  0.28843484  1
  Bi2+  Bi87  1  0.51054394  0.88855357  0.78667665  1
  Bi2+  Bi88  1  0.71006435  0.11426103  0.30034443  1
  Bi2+  Bi89  1  0.77288938  0.22004352  0.80114752  1
  Bi2+  Bi90  1  0.73946426  0.31323467  0.28195460  1
  Bi2+  Bi91  1  0.66538110  0.38791320  0.81522713  1
  Bi2+  Bi92  1  0.73764207  0.66549342  0.30273337  1
  Bi2+  Bi93  1  0.78611766  0.59716106  0.79842384  1
  Bi2+  Bi94  1  0.74817933  0.91647999  0.29194560  1
  Bi2+  Bi95  1  0.78122400  0.87387393  0.80573531  1
  Bi2+  Bi96  1  0.12546537  0.09308472  0.21085034  1
  Bi2+  Bi97  1  0.10516069  -0.05403470  0.70587731  1
  Bi2+  Bi98  1  0.03531464  0.25614355  0.18092184  1
  Bi2+  Bi99  1  0.10945403  0.33817821  0.71652285  1
  Bi2+  Bi100  1  0.14451126  0.45058901  0.21409214  1
  Bi2+  Bi101  1  0.16010330  0.51110987  0.66760702  1
  Bi2+  Bi102  1  0.13123565  0.65545141  0.21396076  1
  Bi2+  Bi103  1  0.13648054  0.71933465  0.71235374  1
  Bi2+  Bi104  1  0.39514629  0.01800760  0.19188355  1
  Bi2+  Bi105  1  0.39918432  -0.00325692  0.70621174  1
  Bi2+  Bi106  1  0.31433056  0.26163485  0.22646855  1
  Bi2+  Bi107  1  0.38513904  0.30523635  0.71795633  1
  Bi2+  Bi108  1  0.39424845  0.52009643  0.20550906  1
  Bi2+  Bi109  1  0.34125868  0.50034442  0.70751895  1
  Bi2+  Bi110  1  0.38911010  0.76032022  0.18125052  1
  Bi2+  Bi111  1  0.39512607  0.69499907  0.69965997  1
  Bi2+  Bi112  1  0.64344836  0.00118558  0.20869140  1
  Bi2+  Bi113  1  0.66709671  0.02864228  0.71311005  1
  Bi2+  Bi114  1  0.53216229  0.23816708  0.20229313  1
  Bi2+  Bi115  1  0.64308187  0.27187617  0.71671050  1
  Bi2+  Bi116  1  0.60985004  0.47908480  0.23051284  1
  Bi2+  Bi117  1  0.63306366  0.47548194  0.71060900  1
  Bi2+  Bi118  1  0.64573399  0.78072664  0.22854419  1
  Bi2+  Bi119  1  0.64151600  0.74306760  0.70934660  1
  Bi2+  Bi120  1  0.83544574  -0.03593033  0.18134924  1
  Bi2+  Bi121  1  0.92147090  -0.00661102  0.74029350  1
  Bi2+  Bi122  1  0.85929680  0.16231606  0.18868001  1
  Bi2+  Bi123  1  0.83812024  0.27048588  0.69106322  1
  Bi2+  Bi124  1  0.85942458  0.50188784  0.21634747  1
  Bi2+  Bi125  1  0.87544171  0.49014928  0.71137215  1
  Bi2+  Bi126  1  0.89304086  0.78905726  0.21888923  1
  Bi2+  Bi127  1  0.89255932  0.75593996  0.70903272  1
  S2-  S128  1  0.00731885  0.01570306  0.14812066  1
  S2-  S129  1  0.08387215  0.11221676  0.65236306  1
  S2-  S130  1  0.00056104  0.48443630  0.15562990  1
  S2-  S131  1  -0.01026902  0.49260191  0.63133446  1
  S2-  S132  1  -0.13102485  0.64951239  0.16599332  1
  S2-  S133  1  0.00966473  0.71896501  0.63724526  1
  S2-  S134  1  0.02843150  0.77956255  0.16030994  1
  S2-  S135  1  -0.10979814  0.89175147  0.65072570  1
  S2-  S136  1  0.24687750  0.02542997  0.14479186  1
  S2-  S137  1  0.31859164  0.13508144  0.70121700  1
  S2-  S138  1  0.28137601  0.38350912  0.15842413  1
  S2-  S139  1  0.22760777  0.28843079  0.64920757  1
  S2-  S140  1  0.27724770  0.62547635  0.15702780  1
  S2-  S141  1  0.25781802  0.73414280  0.63887718  1
  S2-  S142  1  0.24980865  0.83671720  0.17332751  1
  S2-  S143  1  0.25300298  0.95261760  0.65500832  1
  S2-  S144  1  0.39332517  0.17113022  0.14202445  1
  S2-  S145  1  0.53232356  0.08591288  0.66589202  1
  S2-  S146  1  0.57504434  0.37404325  0.14720406  1
  S2-  S147  1  0.52071869  0.36238750  0.65837851  1
  S2-  S148  1  0.50729482  0.62726399  0.16005859  1
  S2-  S149  1  0.54358367  0.62424400  0.65620413  1
  S2-  S150  1  0.47893702  0.88710874  0.14150734  1
  S2-  S151  1  0.44880762  0.83720625  0.66720533  1
  S2-  S152  1  0.63478449  0.13319496  0.14098939  1
  S2-  S153  1  0.77164880  0.10323119  0.65329284  1
  S2-  S154  1  0.81082991  0.33807240  0.18451555  1
  S2-  S155  1  0.75462974  0.47773048  0.63416074  1
  S2-  S156  1  0.71521783  0.53059514  0.16167684  1
  S2-  S157  1  0.76187926  0.70338932  0.64797402  1
  S2-  S158  1  0.71269431  0.78951001  0.13728214  1
  S2-  S159  1  0.64538205  0.88229574  0.65763390  1
  S2-  S160  1  0.16740101  -0.02024460  0.35092314  1
  S2-  S161  1  0.14424521  0.02092968  0.84077760  1
  S2-  S162  1  0.02711340  0.21146831  0.36236246  1
  S2-  S163  1  0.16689771  0.24993041  0.85151657  1
  S2-  S164  1  0.03122627  0.47652366  0.34853385  1
  S2-  S165  1  0.12554976  0.48989692  0.84755423  1
  S2-  S166  1  0.11961854  0.74767340  0.33630332  1
  S2-  S167  1  0.21135212  0.75383002  0.85334081  1
  S2-  S168  1  0.32092772  0.00694787  0.27313806  1
  S2-  S169  1  0.36929439  -0.08410891  0.84468237  1
  S2-  S170  1  0.38089040  0.17200342  0.35517165  1
  S2-  S171  1  0.37245467  0.13599246  0.85695352  1
  S2-  S172  1  0.37664706  0.60281383  0.35709902  1
  S2-  S173  1  0.37466398  0.58022287  0.85257524  1
  S2-  S174  1  0.34461449  0.82893272  0.34091898  1
  S2-  S175  1  0.43766846  0.74516517  0.79348379  1
  S2-  S176  1  0.51653075  -0.01661808  0.35328155  1
  S2-  S177  1  0.65519847  -0.01716223  0.81748164  1
  S2-  S178  1  0.63097617  0.33653347  0.35783594  1
  S2-  S179  1  0.62305306  0.16636257  0.85664418  1
  S2-  S180  1  0.61773360  0.54647309  0.33200712  1
  S2-  S181  1  0.63954256  0.60251556  0.85650708  1
  S2-  S182  1  0.54842205  0.75191264  0.35816866  1
  S2-  S183  1  0.63932960  0.78723450  0.81834588  1
  S2-  S184  1  0.90318582  -0.03418665  0.34699679  1
  S2-  S185  1  0.88463730  -0.00168180  0.84542963  1
  S2-  S186  1  0.85359198  0.33083010  0.35062178  1
  S2-  S187  1  0.91838105  0.23825789  0.85629142  1
  S2-  S188  1  0.83348236  0.53758272  0.31667052  1
  S2-  S189  1  0.87212876  0.49616991  0.85489271  1
  S2-  S190  1  0.88953698  0.74461358  0.32890973  1
  S2-  S191  1  0.86086021  0.72833374  0.84405493  1
  S2-  S192  1  0.00241008  0.10620917  0.46070023  1
  S2-  S193  1  0.00548805  0.13647983  0.96236106  1
  S2-  S194  1  0.01088953  0.35808116  0.45516037  1
  S2-  S195  1  0.00509475  0.38366210  0.96223311  1
  S2-  S196  1  0.01090054  0.61268718  0.44707131  1
  S2-  S197  1  0.00577406  0.63218517  0.95118043  1
  S2-  S198  1  0.00275796  0.85895783  0.45563499  1
  S2-  S199  1  0.00560017  0.88500966  0.95728253  1
  S2-  S200  1  0.25151127  0.10869297  0.45172109  1
  S2-  S201  1  0.25228523  0.13826554  0.96121860  1
  S2-  S202  1  0.25548988  0.35598290  0.45782941  1
  S2-  S203  1  0.25539824  0.38288778  0.95273877  1
  S2-  S204  1  0.25555641  0.61331399  0.45579277  1
  S2-  S205  1  0.25677849  0.63181244  0.95474795  1
  S2-  S206  1  0.26060356  0.86489526  0.45756372  1
  S2-  S207  1  0.25689423  0.88597700  0.95783224  1
  S2-  S208  1  0.50936352  0.11281036  0.45965292  1
  S2-  S209  1  0.50450139  0.13719782  0.95655246  1
  S2-  S210  1  0.49932986  0.35715475  0.45309455  1
  S2-  S211  1  0.50511493  0.38301913  0.95093502  1
  S2-  S212  1  0.51144609  0.60315851  0.45459270  1
  S2-  S213  1  0.49991212  0.63582702  0.94995351  1
  S2-  S214  1  0.51376112  0.85699721  0.46444669  1
  S2-  S215  1  0.50837634  0.87905494  0.93550304  1
  S2-  S216  1  0.75886770  0.11125327  0.44719265  1
  S2-  S217  1  0.75724346  0.13732635  0.95615151  1
  S2-  S218  1  0.75983249  0.35488032  0.45723195  1
  S2-  S219  1  0.75699467  0.38335368  0.95383261  1
  S2-  S220  1  0.75671272  0.60314301  0.44686449  1
  S2-  S221  1  0.75821530  0.63115549  0.96207728  1
  S2-  S222  1  0.75530213  0.86129092  0.44565590  1
  S2-  S223  1  0.75289017  0.88392454  0.94667334  1
  S2-  S224  1  0.12908706  0.01275257  0.04700248  1
  S2-  S225  1  0.12679858  -0.01572987  0.55444758  1
  S2-  S226  1  0.13036090  0.25918947  0.05345768  1
  S2-  S227  1  0.12519923  0.23586956  0.54551149  1
  S2-  S228  1  0.12769314  0.51186913  0.05321656  1
  S2-  S229  1  0.13574378  0.48894789  0.53762503  1
  S2-  S230  1  0.12932950  0.76067038  0.05073078  1
  S2-  S231  1  0.13298403  0.73995458  0.54127274  1
  S2-  S232  1  0.38228397  0.01184194  0.03852136  1
  S2-  S233  1  0.38232516  -0.01126112  0.56261639  1
  S2-  S234  1  0.37878460  0.26580361  0.03809810  1
  S2-  S235  1  0.37819659  0.23239988  0.55698761  1
  S2-  S236  1  0.37912505  0.50952240  0.04662532  1
  S2-  S237  1  0.38010275  0.48671118  0.54844188  1
  S2-  S238  1  0.37670933  0.76187339  0.04793336  1
  S2-  S239  1  0.38718056  0.73578556  0.54157806  1
  S2-  S240  1  0.63029227  0.00582988  0.03451207  1
  S2-  S241  1  0.63844056  -0.01330743  0.54441707  1
  S2-  S242  1  0.63357970  0.26508326  0.04258903  1
  S2-  S243  1  0.63405528  0.23932742  0.54955810  1
  S2-  S244  1  0.62875984  0.51158651  0.04521235  1
  S2-  S245  1  0.62859909  0.48050121  0.53809753  1
  S2-  S246  1  0.62713011  0.75964961  0.03020749  1
  S2-  S247  1  0.63532697  0.73339514  0.54734267  1
  S2-  S248  1  0.87501373  0.01008118  0.04691124  1
  S2-  S249  1  0.88145861  -0.01276053  0.54719454  1
  S2-  S250  1  0.87448684  0.26189988  0.05679881  1
  S2-  S251  1  0.88495929  0.23885882  0.54434701  1
  S2-  S252  1  0.87340978  0.50810448  0.05728915  1
  S2-  S253  1  0.88124408  0.48458409  0.52863498  1
  S2-  S254  1  0.88244281  0.76012418  0.05044747  1
  S2-  S255  1  0.87688635  0.73353359  0.53885903  1
