# generated using pymatgen
data_La12Ce14Pr13Nd13Sm12(BiS2)64
_symmetry_space_group_name_H-M   'P 1'
_cell_length_a   16.09524856
_cell_length_b   16.05986557
_cell_length_c   27.25235595
_cell_angle_alpha   89.65878706
_cell_angle_beta   89.73587622
_cell_angle_gamma   89.99623559
_symmetry_Int_Tables_number   1
_chemical_formula_structural   La12Ce14Pr13Nd13Sm12(BiS2)64
_chemical_formula_sum   'La12 Ce14 Pr13 Nd13 Sm12 Bi64 S128'
_cell_volume   7044.19435538
_cell_formula_units_Z   1
loop_
 _symmetry_equiv_pos_site_id
 _symmetry_equiv_pos_as_xyz
  1  'x, y, z'
loop_
 _atom_type_symbol
 _atom_type_oxidation_number
  La3+  3.0
  Ce3+  3.0
  Pr3+  3.0
  Nd3+  3.0
  Sm3+  3.0
  Bi2+  2.0
  S2-  -2.0
loop_
 _atom_site_type_symbol
 _atom_site_label
 _atom_site_symmetry_multiplicity
 _atom_site_fract_x
 _atom_site_fract_y
 _atom_site_fract_z
 _atom_site_occupancy
  La3+  La0  1  0.10219459  0.24492870  0.39277193  1
  La3+  La1  1  0.60373964  0.49300390  0.43117435  1
  La3+  La2  1  0.27296687  0.64015448  0.07733399  1
  La3+  La3  1  0.52377355  0.38783809  0.08746654  1
  La3+  La4  1  0.40157769  0.27097777  0.93567106  1
  La3+  La5  1  0.01911326  0.38160780  0.08531276  1
  La3+  La6  1  0.84396561  0.24632133  0.42937640  1
  La3+  La7  1  -0.03019598  0.36592957  0.56207704  1
  La3+  La8  1  0.00959277  0.63646602  0.09646075  1
  La3+  La9  1  0.52985225  0.13677814  0.06803915  1
  La3+  La10  1  -0.02697048  0.86393858  0.57412792  1
  La3+  La11  1  0.85945312  0.75139563  0.39731878  1
  Ce3+  Ce12  1  0.14433734  0.76429122  0.95622287  1
  Ce3+  Ce13  1  0.90233260  0.76574953  0.94506043  1
  Ce3+  Ce14  1  0.22139127  0.36698863  0.55740532  1
  Ce3+  Ce15  1  0.65272083  0.51563261  0.92773627  1
  Ce3+  Ce16  1  0.01928864  0.13945467  0.06084750  1
  Ce3+  Ce17  1  0.39848547  0.01737452  0.94052003  1
  Ce3+  Ce18  1  -0.02579673  0.61784255  0.55170203  1
  Ce3+  Ce19  1  0.64652410  0.01550332  0.92507758  1
  Ce3+  Ce20  1  0.64774956  0.76424973  0.93068175  1
  Ce3+  Ce21  1  0.76954960  0.14160095  0.04821288  1
  Ce3+  Ce22  1  0.90191111  0.01178624  0.94400474  1
  Ce3+  Ce23  1  0.10102019  0.74640701  0.44426256  1
  Ce3+  Ce24  1  0.72499784  0.11925579  0.56479126  1
  Ce3+  Ce25  1  0.72573237  0.61864687  0.55108057  1
  Pr3+  Pr26  1  0.22879105  0.86355206  0.60114228  1
  Pr3+  Pr27  1  0.47005038  0.11817697  0.56705992  1
  Pr3+  Pr28  1  0.39627376  0.76349565  0.94230609  1
  Pr3+  Pr29  1  0.72130427  0.37674246  0.57289209  1
  Pr3+  Pr30  1  0.01873019  0.88872391  0.07956870  1
  Pr3+  Pr31  1  0.76831074  0.89030957  0.05810514  1
  Pr3+  Pr32  1  0.27003234  0.38553611  0.07117421  1
  Pr3+  Pr33  1  0.90385472  0.26928481  0.93210751  1
  Pr3+  Pr34  1  0.22163414  0.12160209  0.56233425  1
  Pr3+  Pr35  1  0.10015600  -0.00497275  0.43761493  1
  Pr3+  Pr36  1  0.85224548  0.49352286  0.42841031  1
  Pr3+  Pr37  1  0.35087042  0.49685777  0.42595766  1
  Pr3+  Pr38  1  0.52478232  0.63833615  0.06384309  1
  Nd3+  Nd39  1  0.59998089  -0.00591749  0.44657346  1
  Nd3+  Nd40  1  0.85032501  -0.00928555  0.44167523  1
  Nd3+  Nd41  1  0.47261757  0.36390450  0.56949683  1
  Nd3+  Nd42  1  0.46847305  0.86578940  0.55312143  1
  Nd3+  Nd43  1  0.27313177  0.14043021  0.05554567  1
  Nd3+  Nd44  1  0.65497757  0.26735262  0.92387594  1
  Nd3+  Nd45  1  0.46931866  0.61757746  0.55474901  1
  Nd3+  Nd46  1  0.72574256  0.86509583  0.56637412  1
  Nd3+  Nd47  1  0.09702775  0.49440391  0.42493296  1
  Nd3+  Nd48  1  0.60518908  0.74794847  0.43591618  1
  Nd3+  Nd49  1  0.76926077  0.63719478  0.06007300  1
  Nd3+  Nd50  1  0.90546234  0.51573165  0.93976301  1
  Nd3+  Nd51  1  -0.02301718  0.11767674  0.55203950  1
  Sm3+  Sm52  1  0.34825717  -0.00324807  0.43798666  1
  Sm3+  Sm53  1  0.39820133  0.51509606  0.94947099  1
  Sm3+  Sm54  1  0.22338269  0.61171249  0.56034854  1
  Sm3+  Sm55  1  0.14692698  0.01357591  0.94872070  1
  Sm3+  Sm56  1  0.27308112  0.89044640  0.05980912  1
  Sm3+  Sm57  1  0.35145923  0.23971259  0.43168254  1
  Sm3+  Sm58  1  0.52259731  0.89134667  0.06015328  1
  Sm3+  Sm59  1  0.34762582  0.74378538  0.43390664  1
  Sm3+  Sm60  1  0.14182510  0.51613410  0.95530204  1
  Sm3+  Sm61  1  0.77309943  0.38914816  0.06109540  1
  Sm3+  Sm62  1  0.60019240  0.24473271  0.44562309  1
  Sm3+  Sm63  1  0.14343665  0.26916636  0.94102176  1
  Bi2+  Bi64  1  -0.02192343  0.09971257  0.28269354  1
  Bi2+  Bi65  1  -0.07620120  0.11843004  0.78266127  1
  Bi2+  Bi66  1  -0.04842280  0.36558884  0.27248639  1
  Bi2+  Bi67  1  -0.05337969  0.40717364  0.81129253  1
  Bi2+  Bi68  1  0.02282321  0.61376675  0.29046296  1
  Bi2+  Bi69  1  0.08221495  0.62862259  0.79482048  1
  Bi2+  Bi70  1  0.01672692  0.90314962  0.29804953  1
  Bi2+  Bi71  1  0.01566765  0.87896934  0.81793185  1
  Bi2+  Bi72  1  0.25908621  0.05289313  0.28704921  1
  Bi2+  Bi73  1  0.25186493  0.04671412  0.79877019  1
  Bi2+  Bi74  1  0.35900428  0.37190849  0.30380905  1
  Bi2+  Bi75  1  0.22448803  0.37699873  0.79207373  1
  Bi2+  Bi76  1  0.25309512  0.67408068  0.28298446  1
  Bi2+  Bi77  1  0.28752077  0.56842600  0.78489925  1
  Bi2+  Bi78  1  0.27781439  0.86317502  0.32205773  1
  Bi2+  Bi79  1  0.28214110  0.85408706  0.77913749  1
  Bi2+  Bi80  1  0.51334451  0.07206253  0.28389965  1
  Bi2+  Bi81  1  0.50533350  0.11857515  0.79097556  1
  Bi2+  Bi82  1  0.53379841  0.25734137  0.31973774  1
  Bi2+  Bi83  1  0.48761765  0.37051979  0.79085940  1
  Bi2+  Bi84  1  0.50142930  0.68141358  0.29179458  1
  Bi2+  Bi85  1  0.50173368  0.63660370  0.80539399  1
  Bi2+  Bi86  1  0.46953362  0.87486997  0.29014952  1
  Bi2+  Bi87  1  0.53777905  0.83712258  0.77525671  1
  Bi2+  Bi88  1  0.72486237  0.08171580  0.26392561  1
  Bi2+  Bi89  1  0.73342768  0.08467681  0.74932172  1
  Bi2+  Bi90  1  0.76200420  0.35527606  0.28961555  1
  Bi2+  Bi91  1  0.75384258  0.39287459  0.78411938  1
  Bi2+  Bi92  1  0.68891281  0.61890423  0.28671112  1
  Bi2+  Bi93  1  0.72193557  0.62692919  0.73509632  1
  Bi2+  Bi94  1  0.72837772  0.89238509  0.28572627  1
  Bi2+  Bi95  1  0.77244369  0.86319742  0.79235814  1
  Bi2+  Bi96  1  0.11820924  0.01670886  0.20346917  1
  Bi2+  Bi97  1  0.10828943  0.05208603  0.70463032  1
  Bi2+  Bi98  1  0.14450197  0.23264702  0.20992923  1
  Bi2+  Bi99  1  0.12594756  0.20646404  0.77685639  1
  Bi2+  Bi100  1  0.16920828  0.47862889  0.22976461  1
  Bi2+  Bi101  1  0.12904499  0.49204064  0.71534639  1
  Bi2+  Bi102  1  0.15833214  0.82368904  0.22808119  1
  Bi2+  Bi103  1  0.12872068  0.78158714  0.72514309  1
  Bi2+  Bi104  1  0.37975302  -0.00892974  0.20241499  1
  Bi2+  Bi105  1  0.38278938  -0.01038009  0.71003395  1
  Bi2+  Bi106  1  0.38847481  0.25353257  0.21645213  1
  Bi2+  Bi107  1  0.31371763  0.23601439  0.71215847  1
  Bi2+  Bi108  1  0.40668429  0.51712135  0.21772919  1
  Bi2+  Bi109  1  0.35456441  0.43283068  0.70397423  1
  Bi2+  Bi110  1  0.43856647  0.76347302  0.19136264  1
  Bi2+  Bi111  1  0.36367640  0.71512828  0.70571122  1
  Bi2+  Bi112  1  0.60980817  -0.12779422  0.18794545  1
  Bi2+  Bi113  1  0.58349866  -0.01488474  0.70014079  1
  Bi2+  Bi114  1  0.65609130  0.24726240  0.20699829  1
  Bi2+  Bi115  1  0.58214688  0.26009447  0.70955399  1
  Bi2+  Bi116  1  0.56329832  0.43341518  0.26992237  1
  Bi2+  Bi117  1  0.55935757  0.51633675  0.71931484  1
  Bi2+  Bi118  1  0.62413702  0.67679319  0.18380980  1
  Bi2+  Bi119  1  0.66356219  0.80155830  0.69016315  1
  Bi2+  Bi120  1  0.92685961  -0.02461482  0.19351999  1
  Bi2+  Bi121  1  0.87866862  -0.03363510  0.71431520  1
  Bi2+  Bi122  1  0.85738848  0.16378266  0.19136122  1
  Bi2+  Bi123  1  0.94605526  0.26897192  0.70930422  1
  Bi2+  Bi124  1  0.78118136  0.48547371  0.19941477  1
  Bi2+  Bi125  1  0.89595521  0.50758990  0.68283694  1
  Bi2+  Bi126  1  0.87760171  0.75424842  0.21437184  1
  Bi2+  Bi127  1  0.90793445  0.68100087  0.74809177  1
  S2-  S128  1  0.01403034  0.22139492  0.14679540  1
  S2-  S129  1  -0.03358390  0.11885063  0.65285742  1
  S2-  S130  1  -0.12149546  0.39278421  0.14811119  1
  S2-  S131  1  0.03998871  0.38597179  0.65784992  1
  S2-  S132  1  0.04413505  0.55491788  0.19139879  1
  S2-  S133  1  -0.02756274  0.64780160  0.64963158  1
  S2-  S134  1  0.02406778  0.77602560  0.16006017  1
  S2-  S135  1  0.07674305  0.88870157  0.65593652  1
  S2-  S136  1  0.27847439  0.16415950  0.15412564  1
  S2-  S137  1  0.21723080  0.24737220  0.63750625  1
  S2-  S138  1  0.15838515  0.37549851  0.15329691  1
  S2-  S139  1  0.23808105  0.48498275  0.63264817  1
  S2-  S140  1  0.26370770  0.60236414  0.17652887  1
  S2-  S141  1  0.22591888  0.70316863  0.64719485  1
  S2-  S142  1  0.29279196  0.85877299  0.15631852  1
  S2-  S143  1  0.24343473  1.02303840  0.64980064  1
  S2-  S144  1  0.51458145  0.23800109  0.15082033  1
  S2-  S145  1  0.45175987  0.22675918  0.64617595  1
  S2-  S146  1  0.37692331  0.38704680  0.15360489  1
  S2-  S147  1  0.59166387  0.38746983  0.64563395  1
  S2-  S148  1  0.52691293  0.54005245  0.14854327  1
  S2-  S149  1  0.47877480  0.62555792  0.65493219  1
  S2-  S150  1  0.51878373  0.99947075  0.13949165  1
  S2-  S151  1  0.39413596  0.85412849  0.64303854  1
  S2-  S152  1  0.70712265  0.12245392  0.13795261  1
  S2-  S153  1  0.70553306  0.16010941  0.65962799  1
  S2-  S154  1  0.67283051  0.38753675  0.14505403  1
  S2-  S155  1  0.84288508  0.35121274  0.64425329  1
  S2-  S156  1  0.84896618  0.63408866  0.15096561  1
  S2-  S157  1  0.74266414  0.55066115  0.64132598  1
  S2-  S158  1  0.78966491  0.87476599  0.15840383  1
  S2-  S159  1  0.83463325  0.85652260  0.64598723  1
  S2-  S160  1  0.11446664  0.08346450  0.34846496  1
  S2-  S161  1  0.10442121  0.00080471  0.85340226  1
  S2-  S162  1  0.10439827  0.32823284  0.29221045  1
  S2-  S163  1  0.04019548  0.27738328  0.86241255  1
  S2-  S164  1  0.17224343  0.53920556  0.33286200  1
  S2-  S165  1  0.04558337  0.51274305  0.87193687  1
  S2-  S166  1  0.03492606  0.75457826  0.35275042  1
  S2-  S167  1  0.12236180  0.76689684  0.85968714  1
  S2-  S168  1  0.38218475  0.08718727  0.35536280  1
  S2-  S169  1  0.41146210  0.00563150  0.84401369  1
  S2-  S170  1  0.26418121  0.25999332  0.34770940  1
  S2-  S171  1  0.40492191  0.24189448  0.83558734  1
  S2-  S172  1  0.48519484  0.47232705  0.35635200  1
  S2-  S173  1  0.40666634  0.49964599  0.85090067  1
  S2-  S174  1  0.35927062  0.64027564  0.35422645  1
  S2-  S175  1  0.38821883  0.76305970  0.84173428  1
  S2-  S176  1  0.64041108  0.00644228  0.34981648  1
  S2-  S177  1  0.63761450  -0.11322954  0.85362567  1
  S2-  S178  1  0.69964949  0.24837152  0.36256888  1
  S2-  S179  1  0.63366182  0.13757661  0.85165821  1
  S2-  S180  1  0.72647431  0.48964758  0.35473226  1
  S2-  S181  1  0.62900990  0.39553630  0.85402452  1
  S2-  S182  1  0.69443049  0.76513421  0.34982865  1
  S2-  S183  1  0.64165268  0.64462617  0.85796370  1
  S2-  S184  1  0.86371482  -0.08695742  0.35180533  1
  S2-  S185  1  0.87357224  -0.00854816  0.84782285  1
  S2-  S186  1  0.94000768  0.23886067  0.34280581  1
  S2-  S187  1  0.81121715  0.27921244  0.84299382  1
  S2-  S188  1  0.96801317  0.48507532  0.34788829  1
  S2-  S189  1  0.82654673  0.50824853  0.84725471  1
  S2-  S190  1  0.86645386  0.66605976  0.30336845  1
  S2-  S191  1  0.88580511  0.75593164  0.84600341  1
  S2-  S192  1  -0.02702624  0.11786383  0.44725082  1
  S2-  S193  1  0.02567962  0.13739733  0.95557545  1
  S2-  S194  1  -0.02111954  0.36408255  0.44845572  1
  S2-  S195  1  0.02570757  0.38897565  0.97168241  1
  S2-  S196  1  -0.02685748  0.62433666  0.44696095  1
  S2-  S197  1  0.02248496  0.64290057  0.97036619  1
  S2-  S198  1  -0.02499826  0.86896161  0.46029171  1
  S2-  S199  1  0.02424052  0.89126434  0.96887201  1
  S2-  S200  1  0.22677334  0.12005755  0.45362221  1
  S2-  S201  1  0.26778571  0.14257278  0.94805998  1
  S2-  S202  1  0.22388821  0.37210523  0.44650107  1
  S2-  S203  1  0.26745319  0.39335125  0.95528112  1
  S2-  S204  1  0.22402742  0.61992329  0.45371043  1
  S2-  S205  1  0.27016524  0.63738393  0.96226726  1
  S2-  S206  1  0.22811285  0.87059398  0.44414359  1
  S2-  S207  1  0.27051112  0.89098543  0.95410793  1
  S2-  S208  1  0.47815747  0.11935535  0.46024900  1
  S2-  S209  1  0.52063099  0.14110655  0.95544080  1
  S2-  S210  1  0.47485567  0.36240476  0.45863845  1
  S2-  S211  1  0.52074504  0.39433362  0.95637414  1
  S2-  S212  1  0.47977514  0.62546521  0.45090287  1
  S2-  S213  1  0.51864952  0.63864082  0.95789992  1
  S2-  S214  1  0.47280836  0.86939399  0.44590877  1
  S2-  S215  1  0.51847303  0.88940167  0.95587153  1
  S2-  S216  1  0.72406598  0.11439879  0.45861741  1
  S2-  S217  1  0.77862385  0.13780631  0.94507037  1
  S2-  S218  1  0.72278029  0.36972810  0.46331171  1
  S2-  S219  1  0.77708400  0.39131922  0.95589472  1
  S2-  S220  1  0.73202294  0.62806726  0.44724925  1
  S2-  S221  1  0.77784096  0.64227924  0.95587106  1
  S2-  S222  1  0.72545317  0.87089181  0.46016433  1
  S2-  S223  1  0.77514315  0.88863049  0.95276132  1
  S2-  S224  1  0.14791694  0.01281198  0.05423813  1
  S2-  S225  1  0.10087735  -0.00932917  0.54439736  1
  S2-  S226  1  0.14766083  0.26095341  0.04408490  1
  S2-  S227  1  0.09434606  0.24372933  0.54141459  1
  S2-  S228  1  0.14388457  0.51889212  0.05880876  1
  S2-  S229  1  0.09663899  0.49433413  0.53529783  1
  S2-  S230  1  0.14878873  0.76546788  0.06100045  1
  S2-  S231  1  0.10384218  0.74284376  0.54813345  1
  S2-  S232  1  0.39381494  0.01293356  0.04495800  1
  S2-  S233  1  0.34915074  -0.00735759  0.54170558  1
  S2-  S234  1  0.39578914  0.26434058  0.04331162  1
  S2-  S235  1  0.35046269  0.24398517  0.53746113  1
  S2-  S236  1  0.39336017  0.51473078  0.05142019  1
  S2-  S237  1  0.35458843  0.49086497  0.53488560  1
  S2-  S238  1  0.39742025  0.76622344  0.04938928  1
  S2-  S239  1  0.34442304  0.74202371  0.53783678  1
  S2-  S240  1  0.64710070  0.01088511  0.03326769  1
  S2-  S241  1  0.59653744  -0.00962784  0.55312036  1
  S2-  S242  1  0.64836504  0.26697567  0.03615804  1
  S2-  S243  1  0.59959075  0.24156801  0.54791317  1
  S2-  S244  1  0.64919234  0.51463541  0.04068658  1
  S2-  S245  1  0.59453646  0.49742868  0.53979627  1
  S2-  S246  1  0.64464212  0.76588113  0.04339742  1
  S2-  S247  1  0.59721567  0.74416503  0.54407705  1
  S2-  S248  1  0.89626828  0.01452621  0.05113222  1
  S2-  S249  1  0.84814529  -0.00593172  0.54796481  1
  S2-  S250  1  0.89462060  0.26155513  0.04077843  1
  S2-  S251  1  0.84692002  0.23814561  0.53997963  1
  S2-  S252  1  0.89702759  0.51595670  0.04745326  1
  S2-  S253  1  0.85020410  0.49550084  0.53566164  1
  S2-  S254  1  0.89587616  0.76637841  0.05115390  1
  S2-  S255  1  0.84789925  0.74036712  0.54534246  1
