# generated using pymatgen
data_La12Ce14Pr13Nd13Sm12(BiS2)64
_symmetry_space_group_name_H-M   'P 1'
_cell_length_a   16.06858048
_cell_length_b   16.12839123
_cell_length_c   27.25615819
_cell_angle_alpha   89.85192108
_cell_angle_beta   90.18371789
_cell_angle_gamma   90.15122864
_symmetry_Int_Tables_number   1
_chemical_formula_structural   La12Ce14Pr13Nd13Sm12(BiS2)64
_chemical_formula_sum   'La12 Ce14 Pr13 Nd13 Sm12 Bi64 S128'
_cell_volume   7063.63121033
_cell_formula_units_Z   1
loop_
 _symmetry_equiv_pos_site_id
 _symmetry_equiv_pos_as_xyz
  1  'x, y, z'
loop_
 _atom_type_symbol
 _atom_type_oxidation_number
  La3+  3.0
  Ce3+  3.0
  Pr3+  3.0
  Nd3+  3.0
  Sm3+  3.0
  Bi2+  2.0
  S2-  -2.0
loop_
 _atom_site_type_symbol
 _atom_site_label
 _atom_site_symmetry_multiplicity
 _atom_site_fract_x
 _atom_site_fract_y
 _atom_site_fract_z
 _atom_site_occupancy
  La3+  La0  1  0.14781168  0.72586628  0.92770824  1
  La3+  La1  1  0.15013862  0.47564901  0.93299638  1
  La3+  La2  1  -0.00211257  0.13615910  0.59119866  1
  La3+  La3  1  0.24139113  0.35985797  0.58417106  1
  La3+  La4  1  0.86284471  -0.00391599  0.46102507  1
  La3+  La5  1  -0.00522200  0.86183730  0.58487651  1
  La3+  La6  1  0.27081560  0.60048941  0.07916335  1
  La3+  La7  1  0.52248131  0.34132943  0.07096027  1
  La3+  La8  1  0.73253450  0.13118892  0.57952556  1
  La3+  La9  1  0.25707596  0.85219711  0.08909650  1
  La3+  La10  1  0.77667569  0.34509931  0.07556218  1
  La3+  La11  1  0.72679183  0.87207448  0.59203069  1
  Ce3+  Ce12  1  0.35432376  0.74969512  0.42592887  1
  Ce3+  Ce13  1  0.49042256  0.86789938  0.55040399  1
  Ce3+  Ce14  1  0.90317760  -0.01371978  0.92142712  1
  Ce3+  Ce15  1  0.15132152  -0.02201331  0.93396938  1
  Ce3+  Ce16  1  0.10452487  0.23906932  0.42528563  1
  Ce3+  Ce17  1  0.88706909  0.47940678  0.94341153  1
  Ce3+  Ce18  1  0.61638925  -0.00427096  0.44129300  1
  Ce3+  Ce19  1  0.24189524  0.12237165  0.55034676  1
  Ce3+  Ce20  1  0.48953069  0.12145242  0.55957281  1
  Ce3+  Ce21  1  0.10946635  -0.00283626  0.44785271  1
  Ce3+  Ce22  1  0.01845955  0.85226264  0.05347630  1
  Ce3+  Ce23  1  -0.00660964  0.61774844  0.55785505  1
  Ce3+  Ce24  1  0.38991454  -0.02494634  0.94450379  1
  Ce3+  Ce25  1  0.86176477  0.49795460  0.44242367  1
  Pr3+  Pr26  1  0.52143423  0.60283534  0.06927876  1
  Pr3+  Pr27  1  0.51936274  0.85239942  0.06330839  1
  Pr3+  Pr28  1  0.61255859  0.49680473  0.43740917  1
  Pr3+  Pr29  1  0.76644542  0.60096791  0.07466427  1
  Pr3+  Pr30  1  0.89209930  0.73038975  0.93098778  1
  Pr3+  Pr31  1  0.14599072  0.22978390  0.92772970  1
  Pr3+  Pr32  1  0.36619731  0.24662221  0.42703330  1
  Pr3+  Pr33  1  0.02562796  0.10101616  0.06202010  1
  Pr3+  Pr34  1  0.85889465  0.24139467  0.43505940  1
  Pr3+  Pr35  1  0.64561532  0.22479323  0.93054531  1
  Pr3+  Pr36  1  0.48812664  0.62166912  0.55015500  1
  Pr3+  Pr37  1  0.61853954  0.74846811  0.42886724  1
  Pr3+  Pr38  1  0.26625620  0.35194974  0.06692334  1
  Nd3+  Nd39  1  0.77683350  0.09906275  0.07075727  1
  Nd3+  Nd40  1  0.10831533  0.74690875  0.43109836  1
  Nd3+  Nd41  1  0.64497914  0.73025857  0.93215810  1
  Nd3+  Nd42  1  0.51762662  0.10295455  0.05514975  1
  Nd3+  Nd43  1  0.64337208  -0.02775869  0.93060416  1
  Nd3+  Nd44  1  0.01869847  0.35043712  0.05438081  1
  Nd3+  Nd45  1  0.01959243  0.60570079  0.05529963  1
  Nd3+  Nd46  1  0.11628848  0.49004218  0.43624514  1
  Nd3+  Nd47  1  0.86550925  0.74990591  0.43934868  1
  Nd3+  Nd48  1  0.77048908  0.85842159  0.05991624  1
  Nd3+  Nd49  1  0.61625640  0.23670346  0.42342807  1
  Nd3+  Nd50  1  0.74111222  0.62224420  0.56632470  1
  Nd3+  Nd51  1  0.88616286  0.22928165  0.93065392  1
  Sm3+  Sm52  1  0.64318243  0.47780250  0.94992599  1
  Sm3+  Sm53  1  0.26513188  0.10283854  0.06072733  1
  Sm3+  Sm54  1  0.38868571  0.72528370  0.94793786  1
  Sm3+  Sm55  1  0.23817395  0.87018466  0.56000809  1
  Sm3+  Sm56  1  0.39223765  0.22870038  0.93565981  1
  Sm3+  Sm57  1  0.23869155  0.61965608  0.55368385  1
  Sm3+  Sm58  1  0.36244376  -0.00500163  0.43771650  1
  Sm3+  Sm59  1  -0.00883756  0.36730961  0.54667781  1
  Sm3+  Sm60  1  0.36178945  0.49626052  0.44005888  1
  Sm3+  Sm61  1  0.39795682  0.47655031  0.94787878  1
  Sm3+  Sm62  1  0.48806252  0.37043880  0.55663571  1
  Sm3+  Sm63  1  0.73880447  0.36973673  0.55471876  1
  Bi2+  Bi64  1  0.06433285  0.18854293  0.27748733  1
  Bi2+  Bi65  1  0.04202286  0.12881880  0.79397430  1
  Bi2+  Bi66  1  -0.06425359  0.41972890  0.27079158  1
  Bi2+  Bi67  1  -0.05419050  0.41986201  0.76412703  1
  Bi2+  Bi68  1  -0.00874828  0.60652057  0.29703292  1
  Bi2+  Bi69  1  0.00850803  0.60394312  0.78930106  1
  Bi2+  Bi70  1  -0.03490299  0.86088326  0.28260000  1
  Bi2+  Bi71  1  -0.00253431  0.86233007  0.78596243  1
  Bi2+  Bi72  1  0.31395992  0.11628624  0.29310875  1
  Bi2+  Bi73  1  0.29280757  0.11877748  0.78565962  1
  Bi2+  Bi74  1  0.28788821  0.30668986  0.29359575  1
  Bi2+  Bi75  1  0.21505951  0.38187967  0.80547993  1
  Bi2+  Bi76  1  0.26682169  0.63493510  0.30228835  1
  Bi2+  Bi77  1  0.36063178  0.65306396  0.77315559  1
  Bi2+  Bi78  1  0.23518271  0.90925821  0.28875425  1
  Bi2+  Bi79  1  0.21277157  0.81486674  0.79507061  1
  Bi2+  Bi80  1  0.49226485  0.18972989  0.23825910  1
  Bi2+  Bi81  1  0.49559077  0.18577010  0.81308849  1
  Bi2+  Bi82  1  0.48925953  0.39233945  0.29254916  1
  Bi2+  Bi83  1  0.46638100  0.38265060  0.80744265  1
  Bi2+  Bi84  1  0.57056998  0.72444389  0.29685795  1
  Bi2+  Bi85  1  0.54924459  0.63609612  0.79518687  1
  Bi2+  Bi86  1  0.52266958  0.91607715  0.28119614  1
  Bi2+  Bi87  1  0.45260320  0.90619863  0.80098293  1
  Bi2+  Bi88  1  0.82270801  0.11549277  0.31297799  1
  Bi2+  Bi89  1  0.75569006  0.15356664  0.78940094  1
  Bi2+  Bi90  1  0.74099300  0.40022948  0.29096943  1
  Bi2+  Bi91  1  0.66719493  0.37865659  0.78714590  1
  Bi2+  Bi92  1  0.75786336  0.67338411  0.26686318  1
  Bi2+  Bi93  1  0.76544285  0.60363921  0.78807234  1
  Bi2+  Bi94  1  0.70052705  0.90956533  0.32320787  1
  Bi2+  Bi95  1  0.71199576  0.89397708  0.78846480  1
  Bi2+  Bi96  1  0.07901461  0.00602459  0.24531426  1
  Bi2+  Bi97  1  0.22428020  -0.02922002  0.71809715  1
  Bi2+  Bi98  1  0.08032995  0.31101129  0.18537317  1
  Bi2+  Bi99  1  0.10585261  0.25347354  0.70880630  1
  Bi2+  Bi100  1  0.12287652  0.48996384  0.21830717  1
  Bi2+  Bi101  1  0.09153207  0.52735097  0.69725318  1
  Bi2+  Bi102  1  0.10575549  0.74625954  0.20862458  1
  Bi2+  Bi103  1  0.15207346  0.72523094  0.70082973  1
  Bi2+  Bi104  1  0.36392687  0.06757186  0.18599931  1
  Bi2+  Bi105  1  0.36262763  0.08235352  0.66942272  1
  Bi2+  Bi106  1  0.26024706  0.23153822  0.18055349  1
  Bi2+  Bi107  1  0.37913603  0.26088738  0.71839743  1
  Bi2+  Bi108  1  0.32081891  0.47748672  0.23836482  1
  Bi2+  Bi109  1  0.43965772  0.50408885  0.71275670  1
  Bi2+  Bi110  1  0.39227609  0.76190738  0.20664810  1
  Bi2+  Bi111  1  0.36120279  0.82185834  0.71270894  1
  Bi2+  Bi112  1  0.64390943  0.06631025  0.25676263  1
  Bi2+  Bi113  1  0.52249970  0.03966602  0.73128075  1
  Bi2+  Bi114  1  0.65396263  0.34732815  0.19780930  1
  Bi2+  Bi115  1  0.58750911  0.24905890  0.71244567  1
  Bi2+  Bi116  1  0.55305298  0.56982407  0.21603743  1
  Bi2+  Bi117  1  0.63776911  0.51514308  0.70168129  1
  Bi2+  Bi118  1  0.67016553  0.80149539  0.19332445  1
  Bi2+  Bi119  1  0.59031218  0.74118340  0.70394057  1
  Bi2+  Bi120  1  0.86584841  -0.01819364  0.21038717  1
  Bi2+  Bi121  1  0.87105562  0.01622353  0.72258500  1
  Bi2+  Bi122  1  0.87175970  0.22326719  0.21004160  1
  Bi2+  Bi123  1  0.84970771  0.28809835  0.70351180  1
  Bi2+  Bi124  1  0.87684023  0.57033023  0.19782488  1
  Bi2+  Bi125  1  0.83216714  0.51434375  0.68498316  1
  Bi2+  Bi126  1  0.87094690  0.78216853  0.18815395  1
  Bi2+  Bi127  1  0.87545709  0.71770073  0.71334563  1
  S2-  S128  1  -0.08042362  0.10082724  0.14514401  1
  S2-  S129  1  0.03725155  0.08942630  0.69461085  1
  S2-  S130  1  -0.07182647  0.34032085  0.14000094  1
  S2-  S131  1  -0.00751041  0.30283072  0.63854399  1
  S2-  S132  1  0.04611453  0.60476458  0.15515239  1
  S2-  S133  1  0.00081664  0.69634982  0.64405030  1
  S2-  S134  1  0.09241466  0.86436844  0.14252328  1
  S2-  S135  1  -0.06334074  0.87932156  0.68440828  1
  S2-  S136  1  0.15568974  0.10943646  0.13684803  1
  S2-  S137  1  0.19783850  0.19877654  0.63311525  1
  S2-  S138  1  0.25325057  0.46498773  0.14568599  1
  S2-  S139  1  0.18708765  0.39866694  0.68163737  1
  S2-  S140  1  0.24487898  0.71386540  0.15840734  1
  S2-  S141  1  0.23331498  0.60417167  0.65210721  1
  S2-  S142  1  0.30107890  0.90797427  0.18688249  1
  S2-  S143  1  0.14795236  0.87331396  0.64360346  1
  S2-  S144  1  0.51416380  0.19909336  0.13916031  1
  S2-  S145  1  0.58708518  0.11985382  0.64281239  1
  S2-  S146  1  0.51893206  0.42895169  0.16174048  1
  S2-  S147  1  0.39651618  0.37074455  0.64069126  1
  S2-  S148  1  0.42326110  0.62355447  0.15444392  1
  S2-  S149  1  0.48395526  0.63407463  0.65009723  1
  S2-  S150  1  0.51634445  0.85903383  0.16434757  1
  S2-  S151  1  0.55756044  0.86348685  0.64006936  1
  S2-  S152  1  0.74117094  0.21620880  0.14753239  1
  S2-  S153  1  0.85194916  0.13681959  0.65400769  1
  S2-  S154  1  0.75842902  0.46953223  0.15163426  1
  S2-  S155  1  0.71745352  0.29803679  0.64287867  1
  S2-  S156  1  0.63900821  0.64486479  0.14481190  1
  S2-  S157  1  0.73906821  0.72465439  0.64845042  1
  S2-  S158  1  0.74383164  0.96628402  0.13905255  1
  S2-  S159  1  0.73482393  0.95155546  0.68901155  1
  S2-  S160  1  0.12143222  -0.01249198  0.34905933  1
  S2-  S161  1  0.06485659  -0.01512769  0.84812351  1
  S2-  S162  1  0.13487749  0.31466861  0.33772277  1
  S2-  S163  1  0.08050550  0.28610446  0.83600533  1
  S2-  S164  1  0.12788686  0.55053069  0.34258831  1
  S2-  S165  1  0.14098956  0.52578531  0.83575834  1
  S2-  S166  1  0.21649353  0.77064993  0.35209742  1
  S2-  S167  1  0.01656030  0.73642512  0.85327613  1
  S2-  S168  1  0.38303133  -0.02669335  0.34013303  1
  S2-  S169  1  0.31962438  -0.02024048  0.85487360  1
  S2-  S170  1  0.49011985  0.25994179  0.35291501  1
  S2-  S171  1  0.28165732  0.24147618  0.85757113  1
  S2-  S172  1  0.37068997  0.50315823  0.34176459  1
  S2-  S173  1  0.33828666  0.46792014  0.85497055  1
  S2-  S174  1  0.40957003  0.72391838  0.33201737  1
  S2-  S175  1  0.29245536  0.71227892  0.86343885  1
  S2-  S176  1  0.62497691  0.08634920  0.35879747  1
  S2-  S177  1  0.67074870  0.04503751  0.83900430  1
  S2-  S178  1  0.74625540  0.26531139  0.35269266  1
  S2-  S179  1  0.75830728  0.27745695  0.85775148  1
  S2-  S180  1  0.60772201  0.49076424  0.33609760  1
  S2-  S181  1  0.60199672  0.49448775  0.85382687  1
  S2-  S182  1  0.75207193  0.75047374  0.36008460  1
  S2-  S183  1  0.60068180  0.84860896  0.85496805  1
  S2-  S184  1  0.85843407  -0.02870643  0.35804594  1
  S2-  S185  1  0.86016450  -0.09578667  0.83466718  1
  S2-  S186  1  0.96384101  0.18441718  0.35948791  1
  S2-  S187  1  0.90004597  0.12334934  0.84883338  1
  S2-  S188  1  0.85032373  0.51530655  0.34568346  1
  S2-  S189  1  0.87267168  0.49594006  0.84619173  1
  S2-  S190  1  0.98032179  0.75052153  0.35965753  1
  S2-  S191  1  0.76557330  0.71047676  0.85936975  1
  S2-  S192  1  -0.01072743  0.11872036  0.47021872  1
  S2-  S193  1  0.02603565  0.10651937  0.95332667  1
  S2-  S194  1  -0.01497087  0.37173135  0.44272470  1
  S2-  S195  1  0.01386163  0.35521212  0.94894146  1
  S2-  S196  1  -0.00932001  0.61585330  0.45440530  1
  S2-  S197  1  0.01779383  0.59995821  0.95065217  1
  S2-  S198  1  -0.00848632  0.87091246  0.46631702  1
  S2-  S199  1  0.02136292  0.85608924  0.95084485  1
  S2-  S200  1  0.24055312  0.12087998  0.44325023  1
  S2-  S201  1  0.27125273  0.10505150  0.95653593  1
  S2-  S202  1  0.24271071  0.37056561  0.44568057  1
  S2-  S203  1  0.27375519  0.35392550  0.96023811  1
  S2-  S204  1  0.23800891  0.61893333  0.44997611  1
  S2-  S205  1  0.27342657  0.59679083  0.96546434  1
  S2-  S206  1  0.23675038  0.87656719  0.45654256  1
  S2-  S207  1  0.26904339  0.85081279  0.95903654  1
  S2-  S208  1  0.48470355  0.11692640  0.45354331  1
  S2-  S209  1  0.51518606  0.10171082  0.94859783  1
  S2-  S210  1  0.48620208  0.37633197  0.45357683  1
  S2-  S211  1  0.51980800  0.34938198  0.95543934  1
  S2-  S212  1  0.48696642  0.62320833  0.44439372  1
  S2-  S213  1  0.51784684  0.60504989  0.95766236  1
  S2-  S214  1  0.48759014  0.86983516  0.44446090  1
  S2-  S215  1  0.51096299  0.85012637  0.95775618  1
  S2-  S216  1  0.73654694  0.12041814  0.46613892  1
  S2-  S217  1  0.76774966  0.09895416  0.95286534  1
  S2-  S218  1  0.73540837  0.37381462  0.45255682  1
  S2-  S219  1  0.76495365  0.35679026  0.96395065  1
  S2-  S220  1  0.73819206  0.61995999  0.45884715  1
  S2-  S221  1  0.76428113  0.60076917  0.96424307  1
  S2-  S222  1  0.73676755  0.87049542  0.46488079  1
  S2-  S223  1  0.77235121  0.85771447  0.95472544  1
  S2-  S224  1  0.14858912  -0.02534543  0.03959410  1
  S2-  S225  1  0.11504000  0.00237042  0.55300697  1
  S2-  S226  1  0.14516873  0.23198551  0.03629103  1
  S2-  S227  1  0.11682698  0.25285804  0.53193540  1
  S2-  S228  1  0.13963203  0.47706971  0.04268717  1
  S2-  S229  1  0.11867343  0.48940622  0.54507559  1
  S2-  S230  1  0.14387425  0.72781729  0.04045336  1
  S2-  S231  1  0.11958114  0.74244221  0.53936949  1
  S2-  S232  1  0.38922127  -0.02258239  0.05213371  1
  S2-  S233  1  0.36396330  -0.00796673  0.54324101  1
  S2-  S234  1  0.38786552  0.22616121  0.04031708  1
  S2-  S235  1  0.36625338  0.24679894  0.53672792  1
  S2-  S236  1  0.39918140  0.47235125  0.05020251  1
  S2-  S237  1  0.36066736  0.49557476  0.54410450  1
  S2-  S238  1  0.39063130  0.73253973  0.05054625  1
  S2-  S239  1  0.35963025  0.74639266  0.54152098  1
  S2-  S240  1  0.63834584  -0.01994798  0.03810346  1
  S2-  S241  1  0.61286132  -0.00458435  0.54528452  1
  S2-  S242  1  0.64633243  0.21985555  0.03698078  1
  S2-  S243  1  0.60809401  0.25181893  0.53629785  1
  S2-  S244  1  0.64197222  0.47401382  0.05092064  1
  S2-  S245  1  0.61421332  0.49454280  0.54728379  1
  S2-  S246  1  0.64601633  0.73399817  0.03938703  1
  S2-  S247  1  0.61524737  0.74239911  0.53837628  1
  S2-  S248  1  0.89837294  -0.02331642  0.03804904  1
  S2-  S249  1  0.86461935  -0.01051010  0.56660675  1
  S2-  S250  1  0.89708812  0.22108600  0.03656879  1
  S2-  S251  1  0.86293711  0.24971161  0.54184472  1
  S2-  S252  1  0.89623171  0.48120634  0.04791087  1
  S2-  S253  1  0.86521277  0.49210162  0.54843775  1
  S2-  S254  1  0.89082173  0.72791779  0.04539689  1
  S2-  S255  1  0.86644173  0.74249708  0.54694283  1
