# generated using pymatgen
data_La12Ce14Pr13Nd13Sm12(BiS2)64
_symmetry_space_group_name_H-M   'P 1'
_cell_length_a   16.09165150
_cell_length_b   16.12992797
_cell_length_c   27.38573230
_cell_angle_alpha   89.69641718
_cell_angle_beta   90.18369353
_cell_angle_gamma   89.95126127
_symmetry_Int_Tables_number   1
_chemical_formula_structural   La12Ce14Pr13Nd13Sm12(BiS2)64
_chemical_formula_sum   'La12 Ce14 Pr13 Nd13 Sm12 Bi64 S128'
_cell_volume   7108.02444861
_cell_formula_units_Z   1
loop_
 _symmetry_equiv_pos_site_id
 _symmetry_equiv_pos_as_xyz
  1  'x, y, z'
loop_
 _atom_type_symbol
 _atom_type_oxidation_number
  La3+  3.0
  Ce3+  3.0
  Pr3+  3.0
  Nd3+  3.0
  Sm3+  3.0
  Bi2+  2.0
  S2-  -2.0
loop_
 _atom_site_type_symbol
 _atom_site_label
 _atom_site_symmetry_multiplicity
 _atom_site_fract_x
 _atom_site_fract_y
 _atom_site_fract_z
 _atom_site_occupancy
  La3+  La0  1  0.36341691  0.26523724  0.90780891  1
  La3+  La1  1  0.87816779  0.26608202  0.40819692  1
  La3+  La2  1  0.61726042  0.73987202  0.89070426  1
  La3+  La3  1  0.76300827  0.61546958  0.60434828  1
  La3+  La4  1  0.39913170  0.25147294  0.43648535  1
  La3+  La5  1  0.39334494  0.75585452  0.41864463  1
  La3+  La6  1  0.14135153  0.25202233  0.42094425  1
  La3+  La7  1  0.77850530  0.87192186  0.56883759  1
  La3+  La8  1  0.74853628  0.87230011  0.06922416  1
  La3+  La9  1  0.64706482  0.50291312  0.44318765  1
  La3+  La10  1  0.14633521  0.75602991  0.42353452  1
  La3+  La11  1  0.12331449  0.75199057  0.93619776  1
  Ce3+  Ce12  1  0.74938038  0.62728151  0.05821602  1
  Ce3+  Ce13  1  0.50915830  0.87720373  0.05594398  1
  Ce3+  Ce14  1  0.25503760  0.37257466  0.06908694  1
  Ce3+  Ce15  1  0.12774410  0.50338886  0.95524007  1
  Ce3+  Ce16  1  0.77588949  0.37483376  0.56840687  1
  Ce3+  Ce17  1  0.52338934  0.12287817  0.56293933  1
  Ce3+  Ce18  1  0.62658106  0.50221110  0.94307041  1
  Ce3+  Ce19  1  0.00358034  0.11891748  0.07809153  1
  Ce3+  Ce20  1  0.52202206  0.37509344  0.56858957  1
  Ce3+  Ce21  1  0.00204670  0.37506089  0.07049934  1
  Ce3+  Ce22  1  0.39724999  0.00224113  0.44346172  1
  Ce3+  Ce23  1  0.12088696  0.00429868  0.94153708  1
  Ce3+  Ce24  1  0.65110297  0.25129352  0.45457289  1
  Ce3+  Ce25  1  0.25580464  0.12768559  0.05690237  1
  Pr3+  Pr26  1  0.65127221  0.00444831  0.43411307  1
  Pr3+  Pr27  1  0.88025374  0.00158209  0.94335140  1
  Pr3+  Pr28  1  0.14567723  0.50601909  0.44088007  1
  Pr3+  Pr29  1  0.64400933  0.75160729  0.43780918  1
  Pr3+  Pr30  1  0.52278558  0.87325707  0.56010150  1
  Pr3+  Pr31  1  0.26034226  0.62670604  0.07492584  1
  Pr3+  Pr32  1  -0.00435345  0.87411494  0.07605528  1
  Pr3+  Pr33  1  0.63647118  0.00034985  0.92741854  1
  Pr3+  Pr34  1  0.25040414  0.87670400  0.06043662  1
  Pr3+  Pr35  1  0.75598132  0.37685046  0.06883317  1
  Pr3+  Pr36  1  0.62983419  0.25025174  0.92831119  1
  Pr3+  Pr37  1  0.90015186  0.74980237  0.43374386  1
  Pr3+  Pr38  1  0.73926678  0.13095336  0.07990010  1
  Nd3+  Nd39  1  0.37616523  0.75247015  0.93820117  1
  Nd3+  Nd40  1  0.12745995  0.25260338  0.95017662  1
  Nd3+  Nd41  1  0.00402193  0.62895915  0.07178934  1
  Nd3+  Nd42  1  0.87758125  0.50348560  0.94530721  1
  Nd3+  Nd43  1  0.39800250  0.49648252  0.43382051  1
  Nd3+  Nd44  1  0.26652872  0.13006293  0.56188054  1
  Nd3+  Nd45  1  0.78332752  0.12110341  0.56564120  1
  Nd3+  Nd46  1  0.87615257  0.25066058  0.95173002  1
  Nd3+  Nd47  1  0.50273953  0.62516006  0.06011800  1
  Nd3+  Nd48  1  0.14262112  0.00827939  0.43066995  1
  Nd3+  Nd49  1  0.87452455  0.75357102  0.93840159  1
  Nd3+  Nd50  1  0.02431202  0.62788420  0.56877738  1
  Nd3+  Nd51  1  0.89082175  -0.00360969  0.41216472  1
  Sm3+  Sm52  1  0.37433409  0.50413498  0.94221023  1
  Sm3+  Sm53  1  0.01960928  0.37578642  0.55273262  1
  Sm3+  Sm54  1  0.50139563  0.37314001  0.05025667  1
  Sm3+  Sm55  1  0.01394050  0.12697839  0.54146039  1
  Sm3+  Sm56  1  0.37922590  0.00162349  0.94244283  1
  Sm3+  Sm57  1  0.50439501  0.12953326  0.04670294  1
  Sm3+  Sm58  1  0.27116421  0.62949166  0.56201549  1
  Sm3+  Sm59  1  0.26864031  0.87649258  0.55540697  1
  Sm3+  Sm60  1  0.51549935  0.62478055  0.56313255  1
  Sm3+  Sm61  1  0.01918077  0.87546113  0.55089831  1
  Sm3+  Sm62  1  0.27044045  0.37312710  0.55088670  1
  Sm3+  Sm63  1  0.89612093  0.50467471  0.44669811  1
  Bi2+  Bi64  1  0.06666453  0.14575711  0.27633849  1
  Bi2+  Bi65  1  0.00273937  0.12813592  0.75969254  1
  Bi2+  Bi66  1  -0.00806563  0.39302933  0.28854118  1
  Bi2+  Bi67  1  0.01208271  0.32621552  0.75144384  1
  Bi2+  Bi68  1  -0.14585872  0.59513795  0.26921851  1
  Bi2+  Bi69  1  0.00035971  0.60105661  0.80544786  1
  Bi2+  Bi70  1  0.01175404  0.84514385  0.30217809  1
  Bi2+  Bi71  1  -0.01654279  0.86759565  0.78903226  1
  Bi2+  Bi72  1  0.37555167  0.21086528  0.30696416  1
  Bi2+  Bi73  1  0.17361845  0.11431572  0.81318128  1
  Bi2+  Bi74  1  0.20465652  0.32019059  0.29404795  1
  Bi2+  Bi75  1  0.28269435  0.34174890  0.77750316  1
  Bi2+  Bi76  1  0.16628575  0.62034573  0.29815868  1
  Bi2+  Bi77  1  0.23106797  0.72394142  0.81940925  1
  Bi2+  Bi78  1  0.27625276  0.88110830  0.28763507  1
  Bi2+  Bi79  1  0.16659036  0.91160111  0.82628286  1
  Bi2+  Bi80  1  0.49888948  0.05803402  0.32638140  1
  Bi2+  Bi81  1  0.52824084  0.11967854  0.77062863  1
  Bi2+  Bi82  1  0.48091306  0.37820269  0.26745756  1
  Bi2+  Bi83  1  0.55356052  0.31998963  0.80529456  1
  Bi2+  Bi84  1  0.50891760  0.61255583  0.29459945  1
  Bi2+  Bi85  1  0.37188558  0.59034712  0.80486914  1
  Bi2+  Bi86  1  0.47980245  0.84719394  0.23890397  1
  Bi2+  Bi87  1  0.45766809  0.87726767  0.78711286  1
  Bi2+  Bi88  1  0.66276475  0.14890144  0.29514778  1
  Bi2+  Bi89  1  0.77166949  0.13136446  0.79466070  1
  Bi2+  Bi90  1  0.72829236  0.41128801  0.29221562  1
  Bi2+  Bi91  1  0.74837826  0.34896263  0.79786891  1
  Bi2+  Bi92  1  0.71471070  0.72861145  0.29977311  1
  Bi2+  Bi93  1  0.75473217  0.61545649  0.79019319  1
  Bi2+  Bi94  1  0.64031160  0.91163643  0.30875012  1
  Bi2+  Bi95  1  0.73323440  0.88147431  0.78946611  1
  Bi2+  Bi96  1  0.28226922  0.06314832  0.24475035  1
  Bi2+  Bi97  1  0.12468393  -0.08823878  0.70805324  1
  Bi2+  Bi98  1  0.11283099  0.36425863  0.19401966  1
  Bi2+  Bi99  1  0.15028734  0.21156961  0.69973155  1
  Bi2+  Bi100  1  0.00218967  0.52281028  0.20271133  1
  Bi2+  Bi101  1  0.14553402  0.47740873  0.75518198  1
  Bi2+  Bi102  1  0.12761879  0.80678027  0.19170496  1
  Bi2+  Bi103  1  0.11793618  0.71213006  0.72088383  1
  Bi2+  Bi104  1  0.46341812  0.03588110  0.20694951  1
  Bi2+  Bi105  1  0.28983557  0.00136297  0.74883180  1
  Bi2+  Bi106  1  0.34172587  0.27165195  0.19280581  1
  Bi2+  Bi107  1  0.37731749  0.24778349  0.68900929  1
  Bi2+  Bi108  1  0.29921558  0.48511389  0.26322953  1
  Bi2+  Bi109  1  0.30904195  0.53628197  0.70235972  1
  Bi2+  Bi110  1  0.33733213  0.71886251  0.21041991  1
  Bi2+  Bi111  1  0.33146604  0.73722294  0.71755902  1
  Bi2+  Bi112  1  0.66233762  -0.00839269  0.20497499  1
  Bi2+  Bi113  1  0.60883251  -0.00303743  0.70277494  1
  Bi2+  Bi114  1  0.59376228  0.25075851  0.20961320  1
  Bi2+  Bi115  1  0.63870191  0.30464506  0.69993114  1
  Bi2+  Bi116  1  0.53806071  0.52471056  0.18750070  1
  Bi2+  Bi117  1  0.61753576  0.48482793  0.75740344  1
  Bi2+  Bi118  1  0.60998813  0.71104007  0.20094461  1
  Bi2+  Bi119  1  0.58003267  0.74040202  0.68828296  1
  Bi2+  Bi120  1  0.93498484  -0.00052962  0.21151138  1
  Bi2+  Bi121  1  0.88447406  0.00787882  0.69913730  1
  Bi2+  Bi122  1  0.86167090  0.24377517  0.20931682  1
  Bi2+  Bi123  1  0.81591012  0.21736709  0.69560608  1
  Bi2+  Bi124  1  0.72950704  0.50685042  0.19406248  1
  Bi2+  Bi125  1  0.91398647  0.48290445  0.71046762  1
  Bi2+  Bi126  1  0.85311455  0.76962242  0.21846077  1
  Bi2+  Bi127  1  0.88767088  0.76199327  0.70981063  1
  S2-  S128  1  0.00780722  0.17186859  0.17420246  1
  S2-  S129  1  -0.06955561  0.12933102  0.62937767  1
  S2-  S130  1  -0.08658083  0.38209967  0.15450821  1
  S2-  S131  1  0.01835088  0.38873496  0.65063671  1
  S2-  S132  1  -0.00327523  0.73829249  0.14962225  1
  S2-  S133  1  -0.07704667  0.63036482  0.65292640  1
  S2-  S134  1  0.06358469  0.96636422  0.15592587  1
  S2-  S135  1  -0.06675627  0.87761094  0.63671753  1
  S2-  S136  1  0.25734700  0.14132620  0.15470388  1
  S2-  S137  1  0.27234391  0.10329973  0.66050815  1
  S2-  S138  1  0.26623705  0.42991503  0.16167713  1
  S2-  S139  1  0.25248549  0.32583268  0.64458799  1
  S2-  S140  1  0.19081977  0.65531751  0.16801904  1
  S2-  S141  1  0.15566852  0.62830485  0.63848729  1
  S2-  S142  1  0.28264428  0.86584570  0.15892495  1
  S2-  S143  1  0.25819872  0.85064100  0.65266577  1
  S2-  S144  1  0.57262401  0.12123429  0.13762678  1
  S2-  S145  1  0.50674461  0.12557480  0.66086132  1
  S2-  S146  1  0.48724659  0.35169553  0.14751995  1
  S2-  S147  1  0.48256121  0.37228580  0.66391946  1
  S2-  S148  1  0.40220825  0.62098516  0.14239679  1
  S2-  S149  1  0.39110411  0.63619284  0.63577202  1
  S2-  S150  1  0.60910010  0.88640147  0.13728992  1
  S2-  S151  1  0.49717504  0.89271086  0.66042465  1
  S2-  S152  1  0.80531242  0.09644652  0.17512483  1
  S2-  S153  1  0.74779584  0.00266439  0.64039284  1
  S2-  S154  1  0.72674901  0.27454928  0.14795279  1
  S2-  S155  1  0.78127315  0.45607726  0.65544276  1
  S2-  S156  1  0.75199663  0.71260256  0.14220939  1
  S2-  S157  1  0.60199807  0.59527264  0.65140993  1
  S2-  S158  1  0.85990887  0.89645917  0.14932360  1
  S2-  S159  1  0.74271226  0.76931301  0.65395121  1
  S2-  S160  1  0.14416044  -0.10080300  0.35220081  1
  S2-  S161  1  0.00892877  -0.00249224  0.86748550  1
  S2-  S162  1  0.16345174  0.12490928  0.35216808  1
  S2-  S163  1  0.19851757  0.26941961  0.85906423  1
  S2-  S164  1  0.13007265  0.46745993  0.34337825  1
  S2-  S165  1  0.11906156  0.51812618  0.85865311  1
  S2-  S166  1  0.03702704  0.69054947  0.34943756  1
  S2-  S167  1  -0.00268563  0.74907752  0.86335054  1
  S2-  S168  1  0.39153876  -0.07982683  0.35851070  1
  S2-  S169  1  0.37708125  -0.02434258  0.84391231  1
  S2-  S170  1  0.42916269  0.36536539  0.36119622  1
  S2-  S171  1  0.40966968  0.20480011  0.81546316  1
  S2-  S172  1  0.36900605  0.56719270  0.34316333  1
  S2-  S173  1  0.36319228  0.42982672  0.85323466  1
  S2-  S174  1  0.26526644  0.73803000  0.34582548  1
  S2-  S175  1  0.45166066  0.73641939  0.84887418  1
  S2-  S176  1  0.75313828  0.03235113  0.35149097  1
  S2-  S177  1  0.59526853  -0.09676634  0.84459920  1
  S2-  S178  1  0.70741320  0.27549166  0.36268316  1
  S2-  S179  1  0.63018222  0.13026093  0.85366386  1
  S2-  S180  1  0.62747763  0.50588732  0.34279495  1
  S2-  S181  1  0.62144785  0.56744743  0.85271326  1
  S2-  S182  1  0.53288533  0.73623864  0.35706708  1
  S2-  S183  1  0.63191461  0.73679617  0.77727968  1
  S2-  S184  1  0.97333567  0.01913653  0.31596444  1
  S2-  S185  1  0.78850845  -0.00941720  0.85373178  1
  S2-  S186  1  0.92833511  0.23525663  0.31060746  1
  S2-  S187  1  0.85897464  0.25032719  0.85270053  1
  S2-  S188  1  0.87174085  0.43278864  0.35779843  1
  S2-  S189  1  0.87154668  0.51654330  0.84561806  1
  S2-  S190  1  0.87471810  0.84822026  0.35106399  1
  S2-  S191  1  0.78150183  0.74958535  0.85134969  1
  S2-  S192  1  0.00757372  0.13238081  0.43927569  1
  S2-  S193  1  0.00397785  0.13165886  0.96626689  1
  S2-  S194  1  0.01799112  0.37649490  0.44816846  1
  S2-  S195  1  0.00216509  0.37667920  0.96072926  1
  S2-  S196  1  0.02050609  0.62330800  0.46142945  1
  S2-  S197  1  0.00136904  0.62442646  0.96549695  1
  S2-  S198  1  0.01934330  0.88218515  0.44977407  1
  S2-  S199  1  0.00379332  0.87580313  0.96835396  1
  S2-  S200  1  0.27170078  0.12831283  0.45517271  1
  S2-  S201  1  0.25476790  0.12622137  0.95156477  1
  S2-  S202  1  0.26652647  0.37422495  0.44738338  1
  S2-  S203  1  0.25215144  0.37949976  0.96275251  1
  S2-  S204  1  0.27246394  0.62519104  0.45670327  1
  S2-  S205  1  0.25374065  0.62722217  0.96039393  1
  S2-  S206  1  0.26747087  0.88406306  0.45452331  1
  S2-  S207  1  0.25277777  0.87878055  0.95378988  1
  S2-  S208  1  0.52495237  0.12813463  0.45595239  1
  S2-  S209  1  0.49097944  0.13371034  0.94426714  1
  S2-  S210  1  0.52629697  0.37460178  0.46383827  1
  S2-  S211  1  0.50001598  0.37653594  0.94668654  1
  S2-  S212  1  0.51584476  0.62351588  0.45859528  1
  S2-  S213  1  0.49877379  0.62422205  0.95489026  1
  S2-  S214  1  0.52410350  0.88096390  0.45496707  1
  S2-  S215  1  0.49933096  0.87672070  0.95251961  1
  S2-  S216  1  0.77647025  0.13160865  0.45762023  1
  S2-  S217  1  0.75346937  0.13021575  0.96086105  1
  S2-  S218  1  0.77184586  0.38101915  0.46421524  1
  S2-  S219  1  0.75237421  0.37793682  0.95724509  1
  S2-  S220  1  0.77370373  0.62625565  0.43887959  1
  S2-  S221  1  0.75047340  0.62499874  0.95423828  1
  S2-  S222  1  0.76822567  0.87372301  0.45596803  1
  S2-  S223  1  0.75462939  0.87645048  0.95961733  1
  S2-  S224  1  0.13131164  0.00501223  0.04633444  1
  S2-  S225  1  0.14054223  0.00402548  0.54476565  1
  S2-  S226  1  0.12694272  0.24989767  0.05581759  1
  S2-  S227  1  0.14051723  0.25032859  0.53469492  1
  S2-  S228  1  0.12867522  0.50213357  0.06013748  1
  S2-  S229  1  0.14825109  0.49497583  0.54579357  1
  S2-  S230  1  0.13170913  0.74792141  0.04648815  1
  S2-  S231  1  0.14595532  0.75665419  0.53859846  1
  S2-  S232  1  0.38164139  0.00279132  0.04785516  1
  S2-  S233  1  0.39193083  0.00214839  0.55045288  1
  S2-  S234  1  0.37878883  0.25089883  0.04320211  1
  S2-  S235  1  0.39597002  0.24904126  0.54534702  1
  S2-  S236  1  0.37822178  0.49602637  0.04476397  1
  S2-  S237  1  0.39305596  0.49402316  0.54312082  1
  S2-  S238  1  0.37978368  0.75494756  0.04455561  1
  S2-  S239  1  0.39202274  0.75715786  0.53738026  1
  S2-  S240  1  0.62596212  0.00658750  0.03503936  1
  S2-  S241  1  0.64475765  0.00142261  0.54141158  1
  S2-  S242  1  0.62536464  0.25516219  0.03577198  1
  S2-  S243  1  0.65100822  0.24686220  0.55965371  1
  S2-  S244  1  0.62559308  0.49740247  0.04896750  1
  S2-  S245  1  0.64704864  0.49829892  0.55019762  1
  S2-  S246  1  0.62265751  0.74594176  0.04230525  1
  S2-  S247  1  0.64352613  0.74293972  0.54459044  1
  S2-  S248  1  0.87342266  0.00991833  0.05055737  1
  S2-  S249  1  0.89895597  -0.00106871  0.52975324  1
  S2-  S250  1  0.87870103  0.24744264  0.05566817  1
  S2-  S251  1  0.89733626  0.25732510  0.53777776  1
  S2-  S252  1  0.87837216  0.50451945  0.05159420  1
  S2-  S253  1  0.89702169  0.50241091  0.54834946  1
  S2-  S254  1  0.87701662  0.74637526  0.04359862  1
  S2-  S255  1  0.89913389  0.74682606  0.54068838  1
