# generated using pymatgen
data_La12Ce14Pr13Nd13Sm12(BiS2)64
_symmetry_space_group_name_H-M   'P 1'
_cell_length_a   16.06820332
_cell_length_b   16.07508925
_cell_length_c   27.27427153
_cell_angle_alpha   89.83738054
_cell_angle_beta   89.78798033
_cell_angle_gamma   90.01043504
_symmetry_Int_Tables_number   1
_chemical_formula_structural   La12Ce14Pr13Nd13Sm12(BiS2)64
_chemical_formula_sum   'La12 Ce14 Pr13 Nd13 Sm12 Bi64 S128'
_cell_volume   7044.80766023
_cell_formula_units_Z   1
loop_
 _symmetry_equiv_pos_site_id
 _symmetry_equiv_pos_as_xyz
  1  'x, y, z'
loop_
 _atom_type_symbol
 _atom_type_oxidation_number
  La3+  3.0
  Ce3+  3.0
  Pr3+  3.0
  Nd3+  3.0
  Sm3+  3.0
  Bi2+  2.0
  S2-  -2.0
loop_
 _atom_site_type_symbol
 _atom_site_label
 _atom_site_symmetry_multiplicity
 _atom_site_fract_x
 _atom_site_fract_y
 _atom_site_fract_z
 _atom_site_occupancy
  La3+  La0  1  0.21823970  0.86252096  0.08880341  1
  La3+  La1  1  0.38632345  0.75885221  0.39096695  1
  La3+  La2  1  0.63979882  0.76718448  0.42096678  1
  La3+  La3  1  0.51025560  0.12584315  0.59705660  1
  La3+  La4  1  0.15108330  0.25492809  0.42795649  1
  La3+  La5  1  0.26426966  0.38358258  0.57112976  1
  La3+  La6  1  0.39135266  0.50402187  0.42941335  1
  La3+  La7  1  0.09273418  -0.02145936  0.93145349  1
  La3+  La8  1  0.59727892  0.72705069  0.94807309  1
  La3+  La9  1  0.51909489  0.39735100  0.60629005  1
  La3+  La10  1  0.21789406  0.59706577  0.07930847  1
  La3+  La11  1  0.72170869  0.10817995  0.09609352  1
  Ce3+  Ce12  1  0.21814078  0.10641103  0.06291697  1
  Ce3+  Ce13  1  0.76212856  0.62863324  0.55099464  1
  Ce3+  Ce14  1  0.84904428  0.48264483  0.93831197  1
  Ce3+  Ce15  1  0.75948156  0.88717378  0.56881322  1
  Ce3+  Ce16  1  0.47156101  0.59454457  0.07309095  1
  Ce3+  Ce17  1  0.76570136  0.38253533  0.55965968  1
  Ce3+  Ce18  1  0.14589549  0.50967330  0.43198816  1
  Ce3+  Ce19  1  0.35036714  0.21944494  0.92825799  1
  Ce3+  Ce20  1  0.22448306  0.35338775  0.05406523  1
  Ce3+  Ce21  1  0.14195470  0.00684289  0.44214461  1
  Ce3+  Ce22  1  0.72212193  0.60681577  0.06898040  1
  Ce3+  Ce23  1  0.47515328  0.10300953  0.05727637  1
  Ce3+  Ce24  1  0.13969274  0.75905493  0.43894652  1
  Ce3+  Ce25  1  0.47477403  0.35318151  0.04988051  1
  Pr3+  Pr26  1  0.72339591  0.85229245  0.07780093  1
  Pr3+  Pr27  1  0.52098484  0.88086238  0.56298496  1
  Pr3+  Pr28  1  0.89843548  0.50800821  0.42562024  1
  Pr3+  Pr29  1  0.59705167  0.22374136  0.92878646  1
  Pr3+  Pr30  1  0.63544705  0.50764744  0.42901080  1
  Pr3+  Pr31  1  0.10559226  0.47698992  0.92373033  1
  Pr3+  Pr32  1  0.34665605  -0.02990898  0.93772071  1
  Pr3+  Pr33  1  0.39198422  0.00362201  0.43400558  1
  Pr3+  Pr34  1  0.26298715  0.12666099  0.57616938  1
  Pr3+  Pr35  1  0.63875589  0.25779255  0.45283136  1
  Pr3+  Pr36  1  0.60019352  -0.03126337  0.93489237  1
  Pr3+  Pr37  1  0.59243865  0.48467234  0.92618135  1
  Pr3+  Pr38  1  0.01449072  0.13673347  0.56499735  1
  Nd3+  Nd39  1  0.84662099  0.22514285  0.93510043  1
  Nd3+  Nd40  1  0.26811950  0.63258529  0.55221577  1
  Nd3+  Nd41  1  0.89164481  0.01811433  0.43111980  1
  Nd3+  Nd42  1  0.72044564  0.35572122  0.04683357  1
  Nd3+  Nd43  1  0.64353042  0.00904128  0.43755441  1
  Nd3+  Nd44  1  -0.02220346  0.60207469  0.05595040  1
  Nd3+  Nd45  1  -0.02745359  0.10907860  0.06966261  1
  Nd3+  Nd46  1  0.88354337  0.26229104  0.42528594  1
  Nd3+  Nd47  1  -0.02962134  0.35336253  0.05145658  1
  Nd3+  Nd48  1  0.00992740  0.88266752  0.55467108  1
  Nd3+  Nd49  1  0.26817537  0.88363307  0.55890290  1
  Nd3+  Nd50  1  0.51611403  0.63251692  0.55313016  1
  Nd3+  Nd51  1  0.09970624  0.22697549  0.93023899  1
  Sm3+  Sm52  1  0.10293396  0.73416417  0.94282981  1
  Sm3+  Sm53  1  0.34456291  0.73450287  0.95871813  1
  Sm3+  Sm54  1  0.47361581  0.85637464  0.07348886  1
  Sm3+  Sm55  1  0.01735862  0.38117226  0.55410895  1
  Sm3+  Sm56  1  0.88390187  0.76267215  0.43996151  1
  Sm3+  Sm57  1  0.34761772  0.48386187  0.93355216  1
  Sm3+  Sm58  1  0.39128619  0.25383803  0.45507905  1
  Sm3+  Sm59  1  0.84695322  -0.02116876  0.95218753  1
  Sm3+  Sm60  1  0.01374814  0.63238376  0.55371031  1
  Sm3+  Sm61  1  0.76501378  0.13384379  0.56655166  1
  Sm3+  Sm62  1  0.85052081  0.72860320  0.94565815  1
  Sm3+  Sm63  1  -0.02520553  0.85566754  0.06270534  1
  Bi2+  Bi64  1  -0.00977556  0.01170943  0.29425596  1
  Bi2+  Bi65  1  -0.00003222  0.15847474  0.78225029  1
  Bi2+  Bi66  1  -0.02759783  0.35940429  0.27323572  1
  Bi2+  Bi67  1  0.03123052  0.48473515  0.79444014  1
  Bi2+  Bi68  1  -0.06380846  0.62095863  0.30077590  1
  Bi2+  Bi69  1  0.05853411  0.69097793  0.81419332  1
  Bi2+  Bi70  1  -0.02623605  0.81825617  0.30820628  1
  Bi2+  Bi71  1  -0.00032122  0.88216423  0.79012466  1
  Bi2+  Bi72  1  0.28624691  0.12636676  0.29507027  1
  Bi2+  Bi73  1  0.22749998  0.11463051  0.78134748  1
  Bi2+  Bi74  1  0.24752092  0.35775704  0.29021932  1
  Bi2+  Bi75  1  0.21423061  0.38798688  0.78563493  1
  Bi2+  Bi76  1  0.20215869  0.61755004  0.29815650  1
  Bi2+  Bi77  1  0.27561104  0.65174376  0.78922357  1
  Bi2+  Bi78  1  0.22972307  0.90277192  0.28250652  1
  Bi2+  Bi79  1  0.27121253  0.83606578  0.74678218  1
  Bi2+  Bi80  1  0.50071450  0.14828408  0.29162180  1
  Bi2+  Bi81  1  0.48683852  0.14201398  0.80175573  1
  Bi2+  Bi82  1  0.47716265  0.34556043  0.28584449  1
  Bi2+  Bi83  1  0.52509851  0.38350220  0.79706126  1
  Bi2+  Bi84  1  0.53096721  0.58275724  0.27356059  1
  Bi2+  Bi85  1  0.55565450  0.63938984  0.81162815  1
  Bi2+  Bi86  1  0.49214838  0.95256818  0.27078243  1
  Bi2+  Bi87  1  0.47278623  0.88369390  0.80942030  1
  Bi2+  Bi88  1  0.79015328  0.15126732  0.29376408  1
  Bi2+  Bi89  1  0.81285248  0.08974977  0.78460582  1
  Bi2+  Bi90  1  0.67503549  0.34820398  0.27470804  1
  Bi2+  Bi91  1  0.84003959  0.36510959  0.76279238  1
  Bi2+  Bi92  1  0.75635954  0.51695855  0.31207177  1
  Bi2+  Bi93  1  0.87302067  0.63794276  0.77667527  1
  Bi2+  Bi94  1  0.72420295  0.90564241  0.28963736  1
  Bi2+  Bi95  1  0.78624704  0.89603626  0.79995161  1
  Bi2+  Bi96  1  0.10615610  0.00400608  0.20197182  1
  Bi2+  Bi97  1  0.12125235  0.00887854  0.70581439  1
  Bi2+  Bi98  1  0.13604250  0.21404188  0.23487662  1
  Bi2+  Bi99  1  0.07826443  0.27769033  0.70702648  1
  Bi2+  Bi100  1  0.09475766  0.47337845  0.20571807  1
  Bi2+  Bi101  1  0.13599881  0.53044860  0.69710544  1
  Bi2+  Bi102  1  0.05878652  0.73179190  0.21907114  1
  Bi2+  Bi103  1  0.11848903  0.73543575  0.70656593  1
  Bi2+  Bi104  1  0.38333183  0.08197118  0.19806518  1
  Bi2+  Bi105  1  0.36571950  0.01094241  0.72064890  1
  Bi2+  Bi106  1  0.31246439  0.26882074  0.18982400  1
  Bi2+  Bi107  1  0.31941735  0.26934818  0.72710794  1
  Bi2+  Bi108  1  0.36110975  0.51360634  0.19745903  1
  Bi2+  Bi109  1  0.38465397  0.53662790  0.71599269  1
  Bi2+  Bi110  1  0.39371640  0.75530038  0.21649546  1
  Bi2+  Bi111  1  0.44106997  0.73055039  0.73327814  1
  Bi2+  Bi112  1  0.65505488  0.08737900  0.22758882  1
  Bi2+  Bi113  1  0.62996473  -0.02342930  0.70433492  1
  Bi2+  Bi114  1  0.51112439  0.29024004  0.18089210  1
  Bi2+  Bi115  1  0.69582444  0.27042971  0.70977955  1
  Bi2+  Bi116  1  0.69270507  0.48869510  0.19384594  1
  Bi2+  Bi117  1  0.65681142  0.53680484  0.71125072  1
  Bi2+  Bi118  1  0.69256063  0.69730249  0.28200139  1
  Bi2+  Bi119  1  0.72035444  0.75517836  0.72221671  1
  Bi2+  Bi120  1  0.86808756  -0.06987024  0.21468120  1
  Bi2+  Bi121  1  0.91025470  0.08187402  0.68535865  1
  Bi2+  Bi122  1  0.86529221  0.28918757  0.18890255  1
  Bi2+  Bi123  1  0.88711174  0.27526689  0.65220521  1
  Bi2+  Bi124  1  0.88042511  0.51851269  0.20317106  1
  Bi2+  Bi125  1  0.91623565  0.49843349  0.69577032  1
  Bi2+  Bi126  1  0.85994917  0.73204142  0.20240620  1
  Bi2+  Bi127  1  0.88084651  0.86343378  0.69795576  1
  S2-  S128  1  0.09282190  0.14060678  0.14295705  1
  S2-  S129  1  0.12709181  0.14812897  0.64512318  1
  S2-  S130  1  0.01671015  0.35894920  0.14749577  1
  S2-  S131  1  0.12130210  0.38999817  0.63592603  1
  S2-  S132  1  0.06652600  0.60288308  0.14261735  1
  S2-  S133  1  0.00141176  0.63201494  0.65243491  1
  S2-  S134  1  0.06362952  0.85562029  0.14756666  1
  S2-  S135  1  0.04243557  0.87438900  0.65268579  1
  S2-  S136  1  0.25263879  0.01504160  0.14462055  1
  S2-  S137  1  0.36829322  0.15789716  0.66028121  1
  S2-  S138  1  0.22964869  0.44237424  0.13972461  1
  S2-  S139  1  0.35890631  0.39790855  0.65797929  1
  S2-  S140  1  0.27493050  0.64219374  0.17548388  1
  S2-  S141  1  0.26690171  0.60366290  0.65116091  1
  S2-  S142  1  0.26058480  0.83868225  0.19484806  1
  S2-  S143  1  0.25666252  0.97500454  0.64332880  1
  S2-  S144  1  0.56165127  0.12736534  0.14256573  1
  S2-  S145  1  0.60680262  0.13563039  0.68462120  1
  S2-  S146  1  0.47893149  0.44125516  0.13454557  1
  S2-  S147  1  0.53582524  0.33267750  0.70697672  1
  S2-  S148  1  0.49304467  0.63353205  0.17106299  1
  S2-  S149  1  0.52280464  0.56366582  0.64803359  1
  S2-  S150  1  0.48756846  0.87613409  0.17204813  1
  S2-  S151  1  0.48787197  0.96883383  0.65152364  1
  S2-  S152  1  0.86851146  0.13747785  0.15204505  1
  S2-  S153  1  0.76302286  0.01361570  0.63986969  1
  S2-  S154  1  0.71342703  0.32695261  0.14535961  1
  S2-  S155  1  0.68907442  0.41525692  0.64725917  1
  S2-  S156  1  0.72137264  0.71703257  0.14639582  1
  S2-  S157  1  0.75293124  0.62819103  0.65067582  1
  S2-  S158  1  0.72135584  0.96232923  0.15833866  1
  S2-  S159  1  0.64186356  0.83595273  0.64057694  1
  S2-  S160  1  0.15383689  0.02999279  0.34454532  1
  S2-  S161  1  0.10458257  0.10379743  0.85729795  1
  S2-  S162  1  0.09783288  0.28768554  0.33162717  1
  S2-  S163  1  0.09431962  0.34211867  0.85258102  1
  S2-  S164  1  0.05860714  0.53871243  0.34833294  1
  S2-  S165  1  0.23852887  0.51623782  0.85624006  1
  S2-  S166  1  0.20177100  0.76889983  0.34688049  1
  S2-  S167  1  0.11409503  0.84502459  0.86380569  1
  S2-  S168  1  0.37437915  -0.08431783  0.34331935  1
  S2-  S169  1  0.34649929  0.08060283  0.85587860  1
  S2-  S170  1  0.30754478  0.24919021  0.36570628  1
  S2-  S171  1  0.39084526  0.28533774  0.83605487  1
  S2-  S172  1  0.26525236  0.48753122  0.35601512  1
  S2-  S173  1  0.45830296  0.51662168  0.85748008  1
  S2-  S174  1  0.35769243  0.65715425  0.30576656  1
  S2-  S175  1  0.35536645  0.82806340  0.87274551  1
  S2-  S176  1  0.59291460  -0.07800893  0.35269835  1
  S2-  S177  1  0.57759789  0.02355262  0.83693370  1
  S2-  S178  1  0.70896867  0.25163457  0.35831489  1
  S2-  S179  1  0.61334629  0.24665871  0.82833481  1
  S2-  S180  1  0.51586215  0.48663150  0.35085503  1
  S2-  S181  1  0.65323634  0.50385143  0.82678809  1
  S2-  S182  1  0.54421285  0.72038176  0.33713618  1
  S2-  S183  1  0.59512831  0.80398028  0.85777719  1
  S2-  S184  1  0.76440998  0.01802341  0.35963892  1
  S2-  S185  1  0.91197778  -0.01957948  0.86048805  1
  S2-  S186  1  0.92517384  0.14331075  0.35468785  1
  S2-  S187  1  0.85927483  0.23616222  0.83552415  1
  S2-  S188  1  0.88084501  0.38741352  0.35178505  1
  S2-  S189  1  0.87050803  0.48781306  0.84156594  1
  S2-  S190  1  0.78641288  0.77783503  0.35727304  1
  S2-  S191  1  0.82149118  0.73871809  0.84856617  1
  S2-  S192  1  0.02175991  0.13429032  0.45699539  1
  S2-  S193  1  -0.03126572  0.10639109  0.96062652  1
  S2-  S194  1  0.02062584  0.38154210  0.45075319  1
  S2-  S195  1  -0.03162388  0.35405159  0.94729002  1
  S2-  S196  1  0.01146686  0.64128680  0.45058222  1
  S2-  S197  1  -0.02184625  0.60663906  0.94957547  1
  S2-  S198  1  0.01107062  0.88434480  0.44787727  1
  S2-  S199  1  -0.02985709  0.85064985  0.95995941  1
  S2-  S200  1  0.26829699  0.12515502  0.46335809  1
  S2-  S201  1  0.22396187  0.10142286  0.95797455  1
  S2-  S202  1  0.26806475  0.38108755  0.46284371  1
  S2-  S203  1  0.23205646  0.35010350  0.94886145  1
  S2-  S204  1  0.27253987  0.64248689  0.44782886  1
  S2-  S205  1  0.22357385  0.61178239  0.96227480  1
  S2-  S206  1  0.26674184  0.87899470  0.45427713  1
  S2-  S207  1  0.21996572  0.85518566  0.97271227  1
  S2-  S208  1  0.51471306  0.13286217  0.44107435  1
  S2-  S209  1  0.47729696  0.09744211  0.95331375  1
  S2-  S210  1  0.51244937  0.37584079  0.45194242  1
  S2-  S211  1  0.47292251  0.35290487  0.94707906  1
  S2-  S212  1  0.51009786  0.63718895  0.44856902  1
  S2-  S213  1  0.46645076  0.61005346  0.96404407  1
  S2-  S214  1  0.50558110  0.87450964  0.45649967  1
  S2-  S215  1  0.47571437  0.85337299  0.96915329  1
  S2-  S216  1  0.76771713  0.13598758  0.46337685  1
  S2-  S217  1  0.72434083  0.09824614  0.94068343  1
  S2-  S218  1  0.76278775  0.38870996  0.45565662  1
  S2-  S219  1  0.72183169  0.35587360  0.94047243  1
  S2-  S220  1  0.76689910  0.62878292  0.44592369  1
  S2-  S221  1  0.72545769  0.60493714  0.95579099  1
  S2-  S222  1  0.76878083  0.88919985  0.46177481  1
  S2-  S223  1  0.72902058  0.85179128  0.96440502  1
  S2-  S224  1  0.09152154  -0.01718000  0.04429840  1
  S2-  S225  1  0.13513661  0.00410627  0.54508427  1
  S2-  S226  1  0.09692971  0.23399715  0.03622564  1
  S2-  S227  1  0.14207160  0.25717471  0.53911104  1
  S2-  S228  1  0.09671050  0.47469496  0.03315923  1
  S2-  S229  1  0.13792343  0.51399326  0.53841876  1
  S2-  S230  1  0.09825707  0.73135035  0.04630432  1
  S2-  S231  1  0.13907296  0.75812398  0.54648269  1
  S2-  S232  1  0.35376191  -0.02306184  0.04660533  1
  S2-  S233  1  0.39268634  0.00948342  0.54235537  1
  S2-  S234  1  0.35018172  0.22735716  0.04297411  1
  S2-  S235  1  0.39894519  0.25847840  0.55595961  1
  S2-  S236  1  0.34742104  0.47749336  0.03780129  1
  S2-  S237  1  0.39282897  0.50801465  0.54291882  1
  S2-  S238  1  0.34798878  0.73287906  0.06219851  1
  S2-  S239  1  0.39072673  0.75770159  0.56591399  1
  S2-  S240  1  0.60137451  -0.02267699  0.04718606  1
  S2-  S241  1  0.63430714  0.01869130  0.54342381  1
  S2-  S242  1  0.60217452  0.22769634  0.03590772  1
  S2-  S243  1  0.63676981  0.25505166  0.55945825  1
  S2-  S244  1  0.60118511  0.48313432  0.03630213  1
  S2-  S245  1  0.63619349  0.50510582  0.53709935  1
  S2-  S246  1  0.59186118  0.72915831  0.05434760  1
  S2-  S247  1  0.64329627  0.75306907  0.53282927  1
  S2-  S248  1  0.84938848  -0.02092535  0.05472204  1
  S2-  S249  1  0.89234656  0.01125280  0.54146292  1
  S2-  S250  1  0.84233553  0.22875913  0.04051504  1
  S2-  S251  1  0.89081910  0.25963035  0.53555294  1
  S2-  S252  1  0.84737751  0.48156054  0.04695853  1
  S2-  S253  1  0.89351402  0.50620150  0.54061453  1
  S2-  S254  1  0.85438620  0.72811349  0.04976061  1
  S2-  S255  1  0.88642517  0.75616575  0.54578960  1
