# generated using pymatgen
data_La12Ce14Pr13Nd13Sm12(BiS2)64
_symmetry_space_group_name_H-M   'P 1'
_cell_length_a   16.16122134
_cell_length_b   16.15865180
_cell_length_c   27.24268970
_cell_angle_alpha   89.96339436
_cell_angle_beta   89.88512188
_cell_angle_gamma   90.11215317
_symmetry_Int_Tables_number   1
_chemical_formula_structural   La12Ce14Pr13Nd13Sm12(BiS2)64
_chemical_formula_sum   'La12 Ce14 Pr13 Nd13 Sm12 Bi64 S128'
_cell_volume   7114.22325727
_cell_formula_units_Z   1
loop_
 _symmetry_equiv_pos_site_id
 _symmetry_equiv_pos_as_xyz
  1  'x, y, z'
loop_
 _atom_type_symbol
 _atom_type_oxidation_number
  La3+  3.0
  Ce3+  3.0
  Pr3+  3.0
  Nd3+  3.0
  Sm3+  3.0
  Bi2+  2.0
  S2-  -2.0
loop_
 _atom_site_type_symbol
 _atom_site_label
 _atom_site_symmetry_multiplicity
 _atom_site_fract_x
 _atom_site_fract_y
 _atom_site_fract_z
 _atom_site_occupancy
  La3+  La0  1  0.14491963  -0.00759868  0.41181209  1
  La3+  La1  1  -0.00961031  0.88280043  0.10308032  1
  La3+  La2  1  -0.00654693  0.62504330  0.06318999  1
  La3+  La3  1  0.01984933  0.37788061  0.58447096  1
  La3+  La4  1  0.75636519  0.36375019  0.59301140  1
  La3+  La5  1  0.52091054  0.37362127  0.11602685  1
  La3+  La6  1  0.11637056  0.00500047  0.88583259  1
  La3+  La7  1  0.48581773  0.63410226  0.08146405  1
  La3+  La8  1  0.26794408  0.10777293  0.58071963  1
  La3+  La9  1  0.88895883  0.00355058  0.40079913  1
  La3+  La10  1  0.14052503  0.24544420  0.43707958  1
  La3+  La11  1  0.26335112  0.61789026  0.56064705  1
  Ce3+  Ce12  1  0.01626638  0.11837393  0.55591515  1
  Ce3+  Ce13  1  0.63896755  -0.00589043  0.44443478  1
  Ce3+  Ce14  1  0.38446893  -0.00700688  0.44036948  1
  Ce3+  Ce15  1  0.01004725  0.61696175  0.55451707  1
  Ce3+  Ce16  1  0.39510018  0.49364301  0.44212417  1
  Ce3+  Ce17  1  -0.00397396  0.12902605  0.05913653  1
  Ce3+  Ce18  1  0.64238891  0.74577935  0.44021758  1
  Ce3+  Ce19  1  0.11970198  0.76270802  0.94195256  1
  Ce3+  Ce20  1  0.11913327  0.50507380  0.93108679  1
  Ce3+  Ce21  1  0.74814466  0.88698076  0.06086822  1
  Ce3+  Ce22  1  0.61800477  0.00543156  0.93230242  1
  Ce3+  Ce23  1  0.38849786  0.24112611  0.44390203  1
  Ce3+  Ce24  1  0.64687831  0.49210052  0.43399639  1
  Ce3+  Ce25  1  0.26263680  0.36555327  0.56085273  1
  Pr3+  Pr26  1  0.11884419  0.26003879  0.92913237  1
  Pr3+  Pr27  1  0.37632571  0.75526517  0.93516315  1
  Pr3+  Pr28  1  0.51925981  0.61665276  0.55958526  1
  Pr3+  Pr29  1  0.01380134  0.87183159  0.55496180  1
  Pr3+  Pr30  1  0.49328690  0.88498604  0.06972724  1
  Pr3+  Pr31  1  0.24199205  0.12911526  0.05392716  1
  Pr3+  Pr32  1  0.64027243  0.23832824  0.43816039  1
  Pr3+  Pr33  1  0.51375362  0.36651023  0.56202320  1
  Pr3+  Pr34  1  0.24875518  0.37921550  0.06737482  1
  Pr3+  Pr35  1  0.36825832  0.25855341  0.93471280  1
  Pr3+  Pr36  1  0.37186212  0.00720198  0.93154788  1
  Pr3+  Pr37  1  0.89068705  0.24470969  0.44575065  1
  Pr3+  Pr38  1  0.87301564  0.76128337  0.94094567  1
  Nd3+  Nd39  1  0.87231263  0.25742272  0.94116357  1
  Nd3+  Nd40  1  0.88619038  0.49211270  0.44426090  1
  Nd3+  Nd41  1  0.39079050  0.74256468  0.43346839  1
  Nd3+  Nd42  1  0.24410225  0.63238250  0.05612123  1
  Nd3+  Nd43  1  0.85833990  0.51913547  0.91931534  1
  Nd3+  Nd44  1  0.26822001  0.85924188  0.56861643  1
  Nd3+  Nd45  1  0.51396135  0.11650539  0.56398177  1
  Nd3+  Nd46  1  0.51570181  0.86679170  0.55747099  1
  Nd3+  Nd47  1  0.74293294  0.62994807  0.06486913  1
  Nd3+  Nd48  1  0.62017130  0.25959759  0.93294221  1
  Nd3+  Nd49  1  0.14028039  0.49343775  0.43116523  1
  Nd3+  Nd50  1  0.61502488  0.50713236  0.94691232  1
  Nd3+  Nd51  1  0.62017810  0.75736058  0.94859679  1
  Sm3+  Sm52  1  0.76766389  0.87040772  0.55195906  1
  Sm3+  Sm53  1  -0.00495443  0.38338585  0.05262847  1
  Sm3+  Sm54  1  0.74360685  0.13411173  0.05075573  1
  Sm3+  Sm55  1  0.24267064  0.88388217  0.05436459  1
  Sm3+  Sm56  1  0.76456988  0.61768876  0.55906184  1
  Sm3+  Sm57  1  0.76837418  0.11982408  0.56183403  1
  Sm3+  Sm58  1  0.37147300  0.50605357  0.94808428  1
  Sm3+  Sm59  1  0.49503371  0.13670151  0.05268260  1
  Sm3+  Sm60  1  0.13781295  0.74681141  0.43895930  1
  Sm3+  Sm61  1  0.87478314  0.00626142  0.93974365  1
  Sm3+  Sm62  1  0.89044527  0.74761372  0.44155019  1
  Sm3+  Sm63  1  0.74513198  0.38319325  0.05305417  1
  Bi2+  Bi64  1  0.02177582  0.15254417  0.28443969  1
  Bi2+  Bi65  1  -0.07285674  0.11480223  0.78040420  1
  Bi2+  Bi66  1  -0.00224077  0.38821414  0.29924238  1
  Bi2+  Bi67  1  0.01085226  0.36328472  0.79223634  1
  Bi2+  Bi68  1  0.00933166  0.58839903  0.29864752  1
  Bi2+  Bi69  1  0.04332090  0.65736309  0.79726245  1
  Bi2+  Bi70  1  0.00451401  0.85852643  0.28590046  1
  Bi2+  Bi71  1  -0.08571534  0.81192236  0.80954249  1
  Bi2+  Bi72  1  0.28042156  0.12269550  0.28715404  1
  Bi2+  Bi73  1  0.24425143  0.12921463  0.78079644  1
  Bi2+  Bi74  1  0.22705755  0.38431523  0.27075366  1
  Bi2+  Bi75  1  0.24883208  0.37198487  0.73571006  1
  Bi2+  Bi76  1  0.20467414  0.58104778  0.29829823  1
  Bi2+  Bi77  1  0.23729184  0.62538372  0.79329079  1
  Bi2+  Bi78  1  0.25971118  0.86343358  0.28605191  1
  Bi2+  Bi79  1  0.24080884  0.87141900  0.78193793  1
  Bi2+  Bi80  1  0.53447367  0.11824980  0.29151109  1
  Bi2+  Bi81  1  0.52295140  0.11804576  0.79232768  1
  Bi2+  Bi82  1  0.47449816  0.36940850  0.31217823  1
  Bi2+  Bi83  1  0.46885144  0.35496711  0.80593240  1
  Bi2+  Bi84  1  0.48083304  0.62315521  0.30537124  1
  Bi2+  Bi85  1  0.44581279  0.61405979  0.81666184  1
  Bi2+  Bi86  1  0.50128522  0.92630495  0.29688503  1
  Bi2+  Bi87  1  0.55047904  0.87292662  0.78229401  1
  Bi2+  Bi88  1  0.74092180  0.17571086  0.29884516  1
  Bi2+  Bi89  1  0.71720504  0.09982239  0.80561245  1
  Bi2+  Bi90  1  0.80455953  0.37556455  0.28336777  1
  Bi2+  Bi91  1  0.75425918  0.40623323  0.79121243  1
  Bi2+  Bi92  1  0.78929460  0.61637926  0.29242448  1
  Bi2+  Bi93  1  0.69029975  0.65075989  0.79791790  1
  Bi2+  Bi94  1  0.74580410  0.80866240  0.30427690  1
  Bi2+  Bi95  1  0.73885949  0.90399739  0.81253893  1
  Bi2+  Bi96  1  0.15362461  0.02052734  0.18814697  1
  Bi2+  Bi97  1  0.10771506  -0.00013851  0.67727049  1
  Bi2+  Bi98  1  0.09608554  0.28793915  0.20328126  1
  Bi2+  Bi99  1  0.06384273  0.22748321  0.70675908  1
  Bi2+  Bi100  1  0.15167929  0.47946427  0.17646014  1
  Bi2+  Bi101  1  0.12302578  0.52114476  0.72195423  1
  Bi2+  Bi102  1  0.11577594  0.66586284  0.21190243  1
  Bi2+  Bi103  1  0.14182403  0.73976524  0.71123004  1
  Bi2+  Bi104  1  0.39522447  0.00651803  0.20861574  1
  Bi2+  Bi105  1  0.42955309  -0.00332019  0.71628941  1
  Bi2+  Bi106  1  0.36420711  0.21343766  0.20189895  1
  Bi2+  Bi107  1  0.41302039  0.31257455  0.68590979  1
  Bi2+  Bi108  1  0.34242655  0.51170759  0.21044074  1
  Bi2+  Bi109  1  0.38599913  0.50487059  0.70405007  1
  Bi2+  Bi110  1  0.35423271  0.77136789  0.20888143  1
  Bi2+  Bi111  1  0.40141219  0.73640208  0.70728241  1
  Bi2+  Bi112  1  0.59180742  -0.00745843  0.19897852  1
  Bi2+  Bi113  1  0.61593199  0.04316592  0.69455846  1
  Bi2+  Bi114  1  0.66044237  0.22602703  0.20073196  1
  Bi2+  Bi115  1  0.59141216  0.24219864  0.70399775  1
  Bi2+  Bi116  1  0.64138722  0.49791024  0.21703248  1
  Bi2+  Bi117  1  0.56442027  0.51062972  0.75541836  1
  Bi2+  Bi118  1  0.60275699  0.80586418  0.22723612  1
  Bi2+  Bi119  1  0.67466537  0.77518496  0.71323071  1
  Bi2+  Bi120  1  0.85639599  0.02056933  0.21352660  1
  Bi2+  Bi121  1  0.80737006  0.00306758  0.71579156  1
  Bi2+  Bi122  1  0.90397608  0.25083391  0.21410222  1
  Bi2+  Bi123  1  0.81828800  0.25947155  0.72836357  1
  Bi2+  Bi124  1  0.89148151  0.51199169  0.21405751  1
  Bi2+  Bi125  1  0.86496546  0.57425918  0.70535077  1
  Bi2+  Bi126  1  0.84179383  0.73427756  0.20445772  1
  Bi2+  Bi127  1  0.89967329  0.75970037  0.70377041  1
  S2-  S128  1  -0.00630149  0.05302094  0.14929370  1
  S2-  S129  1  -0.02481918  0.11154947  0.65201444  1
  S2-  S130  1  -0.01566567  0.48281822  0.13269579  1
  S2-  S131  1  -0.04442806  0.33590662  0.67636511  1
  S2-  S132  1  -0.01702947  0.71779481  0.14942218  1
  S2-  S133  1  0.01227623  0.54758820  0.64367429  1
  S2-  S134  1  0.07649341  0.88244985  0.19691864  1
  S2-  S135  1  0.02524155  0.84431262  0.65563201  1
  S2-  S136  1  0.21976355  0.17416168  0.15151020  1
  S2-  S137  1  0.20420121  0.15119756  0.67536114  1
  S2-  S138  1  0.35270138  0.36608801  0.15060515  1
  S2-  S139  1  0.17417191  0.38859873  0.64381330  1
  S2-  S140  1  0.32296807  0.64585557  0.14591272  1
  S2-  S141  1  0.26539840  0.72734000  0.63981064  1
  S2-  S142  1  0.27653336  0.90738671  0.15119398  1
  S2-  S143  1  0.25379699  0.95522091  0.65086827  1
  S2-  S144  1  0.51051666  0.19856253  0.14417487  1
  S2-  S145  1  0.41462988  0.11294641  0.64629624  1
  S2-  S146  1  0.54060781  0.36087134  0.22505506  1
  S2-  S147  1  0.60035688  0.38022922  0.64805217  1
  S2-  S148  1  0.51089324  0.53246402  0.16387907  1
  S2-  S149  1  0.49319530  0.62733935  0.65922220  1
  S2-  S150  1  0.49122694  0.77271916  0.14907596  1
  S2-  S151  1  0.44928979  0.85667716  0.64912212  1
  S2-  S152  1  0.75617121  0.12238893  0.14916856  1
  S2-  S153  1  0.75065847  0.20918479  0.64626759  1
  S2-  S154  1  0.70024506  0.37808257  0.14791045  1
  S2-  S155  1  0.78533865  0.43800066  0.68780338  1
  S2-  S156  1  0.72205583  0.62770893  0.16445567  1
  S2-  S157  1  0.73118196  0.63587458  0.65469017  1
  S2-  S158  1  0.82884028  0.89046486  0.14959721  1
  S2-  S159  1  0.78274022  0.86688673  0.65027000  1
  S2-  S160  1  0.02530414  -0.00584149  0.33583509  1
  S2-  S161  1  0.12564046  -0.00354312  0.77286559  1
  S2-  S162  1  0.15030803  0.14961402  0.35089190  1
  S2-  S163  1  0.12692475  0.16823911  0.84154056  1
  S2-  S164  1  0.13906423  0.36989736  0.35971591  1
  S2-  S165  1  0.12964099  0.39169229  0.85729635  1
  S2-  S166  1  0.13978668  0.82143727  0.34933078  1
  S2-  S167  1  0.12450279  0.83303722  0.85241617  1
  S2-  S168  1  0.29548459  -0.01221368  0.35515673  1
  S2-  S169  1  0.28276459  0.00215823  0.84378245  1
  S2-  S170  1  0.36693960  0.24060524  0.34609083  1
  S2-  S171  1  0.36449127  0.22656444  0.83455361  1
  S2-  S172  1  0.36924346  0.50237056  0.34501711  1
  S2-  S173  1  0.36222450  0.47601144  0.84987772  1
  S2-  S174  1  0.36821078  0.74603062  0.33409672  1
  S2-  S175  1  0.33809727  0.75723945  0.83571649  1
  S2-  S176  1  0.64961140  0.04376912  0.35164305  1
  S2-  S177  1  0.50144010  -0.01541530  0.85957505  1
  S2-  S178  1  0.61140548  0.27607596  0.34112308  1
  S2-  S179  1  0.62791859  0.30889002  0.83680871  1
  S2-  S180  1  0.57115564  0.50018246  0.34344022  1
  S2-  S181  1  0.70426447  0.51504299  0.86060954  1
  S2-  S182  1  0.60155274  0.71966300  0.34653691  1
  S2-  S183  1  0.56208702  0.73821547  0.85552490  1
  S2-  S184  1  0.83223735  -0.04305939  0.30199409  1
  S2-  S185  1  0.94807986  0.00304862  0.84996222  1
  S2-  S186  1  0.88475162  0.16785524  0.35377862  1
  S2-  S187  1  0.90004332  0.25684431  0.84285642  1
  S2-  S188  1  0.78280069  0.48967509  0.36268979  1
  S2-  S189  1  0.90750112  0.47495780  0.82421713  1
  S2-  S190  1  0.90464545  0.74866766  0.34378207  1
  S2-  S191  1  0.83556837  0.67746172  0.85388471  1
  S2-  S192  1  0.01408490  0.11430352  0.45195440  1
  S2-  S193  1  -0.00502213  0.13284434  0.95343067  1
  S2-  S194  1  0.01114207  0.37343715  0.45931962  1
  S2-  S195  1  -0.01264265  0.38883081  0.95091571  1
  S2-  S196  1  0.01275187  0.62010170  0.44739890  1
  S2-  S197  1  -0.00466963  0.63192444  0.95083096  1
  S2-  S198  1  0.01130034  0.87206713  0.44859955  1
  S2-  S199  1  -0.00370029  0.88531554  0.95199597  1
  S2-  S200  1  0.26579396  0.11754868  0.46142993  1
  S2-  S201  1  0.24253520  0.13071470  0.94877599  1
  S2-  S202  1  0.26944094  0.37251677  0.45601897  1
  S2-  S203  1  0.24758135  0.38305894  0.95876707  1
  S2-  S204  1  0.26196442  0.62109780  0.45036354  1
  S2-  S205  1  0.24625351  0.63101360  0.94951729  1
  S2-  S206  1  0.26501142  0.86179635  0.45817153  1
  S2-  S207  1  0.25037667  0.88057144  0.95212162  1
  S2-  S208  1  0.51180267  0.11596516  0.45644417  1
  S2-  S209  1  0.49711045  0.13584676  0.94925965  1
  S2-  S210  1  0.51611357  0.36673542  0.45484182  1
  S2-  S211  1  0.49484895  0.38219605  0.94770602  1
  S2-  S212  1  0.51756794  0.62021100  0.45383248  1
  S2-  S213  1  0.49433851  0.63030623  0.96543942  1
  S2-  S214  1  0.51370571  0.86863662  0.44997911  1
  S2-  S215  1  0.49631016  0.88026996  0.96294864  1
  S2-  S216  1  0.76705582  0.11516255  0.45771336  1
  S2-  S217  1  0.74637997  0.13224014  0.94599384  1
  S2-  S218  1  0.76327344  0.36296234  0.45883818  1
  S2-  S219  1  0.74714283  0.38108644  0.94996450  1
  S2-  S220  1  0.76688924  0.62533153  0.45453127  1
  S2-  S221  1  0.74059775  0.63467045  0.96077480  1
  S2-  S222  1  0.76988021  0.87417025  0.44660371  1
  S2-  S223  1  0.74437595  0.88459851  0.95332226  1
  S2-  S224  1  0.11833069  0.00074773  0.05492028  1
  S2-  S225  1  0.14036028  -0.00831563  0.54629873  1
  S2-  S226  1  0.11683597  0.26063590  0.04281707  1
  S2-  S227  1  0.13861934  0.24332810  0.54844588  1
  S2-  S228  1  0.12369042  0.50443485  0.03725603  1
  S2-  S229  1  0.13904229  0.49680233  0.53737788  1
  S2-  S230  1  0.12151675  0.75865988  0.04997485  1
  S2-  S231  1  0.13359042  0.74152554  0.54227584  1
  S2-  S232  1  0.37279690  0.00966553  0.04430143  1
  S2-  S233  1  0.39210033  -0.01282209  0.54401608  1
  S2-  S234  1  0.36901570  0.25195163  0.04178947  1
  S2-  S235  1  0.38772010  0.24242099  0.54827653  1
  S2-  S236  1  0.36788860  0.50649902  0.05004082  1
  S2-  S237  1  0.38978942  0.49334373  0.55033769  1
  S2-  S238  1  0.36699784  0.76189885  0.04262000  1
  S2-  S239  1  0.39518792  0.73954645  0.53983249  1
  S2-  S240  1  0.61942502  0.01151791  0.04393354  1
  S2-  S241  1  0.64210239  -0.00635799  0.55103784  1
  S2-  S242  1  0.62224681  0.25864277  0.04051867  1
  S2-  S243  1  0.63689247  0.23867353  0.54516671  1
  S2-  S244  1  0.61830161  0.50246224  0.05128887  1
  S2-  S245  1  0.64418412  0.49390210  0.54430782  1
  S2-  S246  1  0.62327021  0.75965239  0.05392374  1
  S2-  S247  1  0.64320703  0.74567995  0.54758125  1
  S2-  S248  1  0.86860824  0.01100686  0.04324885  1
  S2-  S249  1  0.88560959  -0.00517248  0.54914743  1
  S2-  S250  1  0.86987025  0.25857922  0.04858513  1
  S2-  S251  1  0.88999301  0.24723134  0.55148597  1
  S2-  S252  1  0.86236235  0.50548930  0.03681840  1
  S2-  S253  1  0.88180073  0.48996369  0.55022140  1
  S2-  S254  1  0.86605990  0.75649815  0.04663855  1
  S2-  S255  1  0.88716172  0.74303354  0.54657887  1
