# generated using pymatgen
data_La12Ce14Pr13Nd13Sm12(BiS2)64
_symmetry_space_group_name_H-M   'P 1'
_cell_length_a   16.19375501
_cell_length_b   16.18472440
_cell_length_c   27.14836757
_cell_angle_alpha   89.96553842
_cell_angle_beta   90.13064936
_cell_angle_gamma   89.96020882
_symmetry_Int_Tables_number   1
_chemical_formula_structural   La12Ce14Pr13Nd13Sm12(BiS2)64
_chemical_formula_sum   'La12 Ce14 Pr13 Nd13 Sm12 Bi64 S128'
_cell_volume   7115.33383350
_cell_formula_units_Z   1
loop_
 _symmetry_equiv_pos_site_id
 _symmetry_equiv_pos_as_xyz
  1  'x, y, z'
loop_
 _atom_type_symbol
 _atom_type_oxidation_number
  La3+  3.0
  Ce3+  3.0
  Pr3+  3.0
  Nd3+  3.0
  Sm3+  3.0
  Bi2+  2.0
  S2-  -2.0
loop_
 _atom_site_type_symbol
 _atom_site_label
 _atom_site_symmetry_multiplicity
 _atom_site_fract_x
 _atom_site_fract_y
 _atom_site_fract_z
 _atom_site_occupancy
  La3+  La0  1  0.11810861  0.50953613  0.41538423  1
  La3+  La1  1  0.51576028  0.88466338  0.08176637  1
  La3+  La2  1  0.12266571  0.23854789  0.93187165  1
  La3+  La3  1  0.01066519  0.37753823  0.10739036  1
  La3+  La4  1  0.50843881  0.61438384  0.09559114  1
  La3+  La5  1  0.37289103  0.24340861  0.88934249  1
  La3+  La6  1  0.25989528  0.86814561  0.06824887  1
  La3+  La7  1  0.51308067  0.38923955  0.59202048  1
  La3+  La8  1  0.63758895  -0.01669841  0.91847712  1
  La3+  La9  1  0.23262675  0.12202601  0.59399758  1
  La3+  La10  1  0.62039480  0.00603772  0.43077481  1
  La3+  La11  1  0.00580422  0.11792799  0.06725074  1
  Ce3+  Ce12  1  0.12293250  0.75110579  0.43961915  1
  Ce3+  Ce13  1  0.87429462  0.24987098  0.43914215  1
  Ce3+  Ce14  1  0.87411934  0.50161809  0.43699807  1
  Ce3+  Ce15  1  0.75633739  0.11849445  0.04957252  1
  Ce3+  Ce16  1  0.25604265  0.36663370  0.05570916  1
  Ce3+  Ce17  1  0.50549442  0.12739711  0.57470617  1
  Ce3+  Ce18  1  0.24646758  0.38065678  0.56061987  1
  Ce3+  Ce19  1  0.61894747  0.25247456  0.44823869  1
  Ce3+  Ce20  1  0.00810830  0.61613129  0.05790382  1
  Ce3+  Ce21  1  0.00016539  0.12660510  0.55693873  1
  Ce3+  Ce22  1  0.87220458  0.00191562  0.44232636  1
  Ce3+  Ce23  1  0.88210232  0.24746202  0.93674549  1
  Ce3+  Ce24  1  0.49869475  0.62470392  0.55695569  1
  Ce3+  Ce25  1  0.76047969  0.36693016  0.06024631  1
  Pr3+  Pr26  1  0.74939982  0.62569838  0.55126847  1
  Pr3+  Pr27  1  0.74912632  0.87512044  0.56114770  1
  Pr3+  Pr28  1  0.75815870  0.61792344  0.06823186  1
  Pr3+  Pr29  1  0.49683907  0.87813952  0.56319567  1
  Pr3+  Pr30  1  0.37190565  0.49866396  0.43545536  1
  Pr3+  Pr31  1  0.24858088  0.87391020  0.55905378  1
  Pr3+  Pr32  1  0.37420572  0.75363365  0.43704982  1
  Pr3+  Pr33  1  0.25490928  0.12084386  0.05383936  1
  Pr3+  Pr34  1  0.50787928  0.36652549  0.06502310  1
  Pr3+  Pr35  1  0.74819485  0.12510343  0.56327531  1
  Pr3+  Pr36  1  0.25771921  0.61773039  0.05666106  1
  Pr3+  Pr37  1  0.13107489  0.74467330  0.93929553  1
  Pr3+  Pr38  1  0.00498259  0.37555989  0.55235208  1
  Nd3+  Nd39  1  0.87961259  0.49332312  0.94226882  1
  Nd3+  Nd40  1  0.88208647  -0.00968168  0.93945744  1
  Nd3+  Nd41  1  0.37067004  0.25095130  0.45432447  1
  Nd3+  Nd42  1  0.13287072  0.49009417  0.93926554  1
  Nd3+  Nd43  1  0.62033451  0.50083122  0.43162642  1
  Nd3+  Nd44  1  0.62163561  0.75447226  0.43649078  1
  Nd3+  Nd45  1  0.75615283  0.86948433  0.06572449  1
  Nd3+  Nd46  1  0.00612125  0.86959219  0.07072069  1
  Nd3+  Nd47  1  0.12774655  0.24122465  0.42626967  1
  Nd3+  Nd48  1  0.38659502  0.49321323  0.93774053  1
  Nd3+  Nd49  1  0.75166353  0.37788498  0.55115591  1
  Nd3+  Nd50  1  0.12406774  0.00027388  0.43728362  1
  Nd3+  Nd51  1  0.62634786  0.24488695  0.93411644  1
  Sm3+  Sm52  1  0.38282052  -0.01073795  0.93464390  1
  Sm3+  Sm53  1  0.00016514  0.62528626  0.55234138  1
  Sm3+  Sm54  1  0.37181533  0.00518090  0.45274251  1
  Sm3+  Sm55  1  0.87038260  0.75343668  0.44064386  1
  Sm3+  Sm56  1  0.87999409  0.74123129  0.94940588  1
  Sm3+  Sm57  1  0.62812348  0.49567679  0.94568317  1
  Sm3+  Sm58  1  0.38712070  0.74869844  0.94885539  1
  Sm3+  Sm59  1  0.50634849  0.11995201  0.04679282  1
  Sm3+  Sm60  1  0.62952904  0.74528938  0.95044464  1
  Sm3+  Sm61  1  0.13146371  -0.01456046  0.93512852  1
  Sm3+  Sm62  1  0.00039826  0.87529240  0.55123489  1
  Sm3+  Sm63  1  0.24844079  0.61880396  0.55769412  1
  Bi2+  Bi64  1  -0.01855271  0.08627332  0.30319172  1
  Bi2+  Bi65  1  -0.02308236  0.11134843  0.78577442  1
  Bi2+  Bi66  1  -0.00356858  0.37660990  0.31020607  1
  Bi2+  Bi67  1  -0.04535191  0.37826496  0.79719326  1
  Bi2+  Bi68  1  -0.01842604  0.65521148  0.28460327  1
  Bi2+  Bi69  1  0.05646124  0.63796313  0.78369263  1
  Bi2+  Bi70  1  0.04059588  0.90104170  0.29218458  1
  Bi2+  Bi71  1  -0.00697484  0.82334540  0.79570361  1
  Bi2+  Bi72  1  0.28424916  0.09513786  0.30641455  1
  Bi2+  Bi73  1  0.23685241  0.11464546  0.79402250  1
  Bi2+  Bi74  1  0.27511548  0.36225183  0.31240460  1
  Bi2+  Bi75  1  0.22477186  0.40686131  0.78916815  1
  Bi2+  Bi76  1  0.18929543  0.70299087  0.26331108  1
  Bi2+  Bi77  1  0.25703444  0.63702488  0.79690936  1
  Bi2+  Bi78  1  0.23159060  0.89139226  0.28808583  1
  Bi2+  Bi79  1  0.25379624  0.83653584  0.79085000  1
  Bi2+  Bi80  1  0.55910829  0.07558423  0.30366855  1
  Bi2+  Bi81  1  0.49856491  0.13526171  0.77620364  1
  Bi2+  Bi82  1  0.53255393  0.36472435  0.29249604  1
  Bi2+  Bi83  1  0.50895363  0.39824447  0.78899028  1
  Bi2+  Bi84  1  0.49734250  0.61722605  0.30140439  1
  Bi2+  Bi85  1  0.46752737  0.62159435  0.80288009  1
  Bi2+  Bi86  1  0.46963735  0.86986209  0.29706750  1
  Bi2+  Bi87  1  0.48140893  0.81667985  0.79138414  1
  Bi2+  Bi88  1  0.72398708  0.17400686  0.27823771  1
  Bi2+  Bi89  1  0.76664959  0.11463733  0.79228687  1
  Bi2+  Bi90  1  0.76677895  0.36668857  0.25236576  1
  Bi2+  Bi91  1  0.77142579  0.30950332  0.80561668  1
  Bi2+  Bi92  1  0.74981082  0.68295097  0.27619362  1
  Bi2+  Bi93  1  0.75558374  0.62095894  0.79826167  1
  Bi2+  Bi94  1  0.77488854  0.88307325  0.28618457  1
  Bi2+  Bi95  1  0.74628953  0.84148603  0.79584522  1
  Bi2+  Bi96  1  0.15002315  0.01260204  0.20949115  1
  Bi2+  Bi97  1  0.08904176  -0.03178855  0.71037468  1
  Bi2+  Bi98  1  0.14627387  0.24920907  0.21288410  1
  Bi2+  Bi99  1  0.07763876  0.25661587  0.70757536  1
  Bi2+  Bi100  1  0.14696376  0.50481198  0.21176906  1
  Bi2+  Bi101  1  0.10535897  0.49861382  0.70079241  1
  Bi2+  Bi102  1  0.04310178  0.77334578  0.19498311  1
  Bi2+  Bi103  1  0.15936332  0.73615320  0.70466601  1
  Bi2+  Bi104  1  0.41586606  0.06728616  0.22577451  1
  Bi2+  Bi105  1  0.37218943  -0.02467149  0.69967245  1
  Bi2+  Bi106  1  0.41565765  0.26133252  0.21928020  1
  Bi2+  Bi107  1  0.35739257  0.26457627  0.68622155  1
  Bi2+  Bi108  1  0.37997494  0.45217816  0.23355812  1
  Bi2+  Bi109  1  0.36724480  0.55543466  0.70956108  1
  Bi2+  Bi110  1  0.33785249  0.75252764  0.19851966  1
  Bi2+  Bi111  1  0.35143319  0.75343463  0.69624102  1
  Bi2+  Bi112  1  0.64539739  0.05248824  0.19560583  1
  Bi2+  Bi113  1  0.63620710  -0.01316443  0.71378755  1
  Bi2+  Bi114  1  0.60524088  0.26729371  0.18644914  1
  Bi2+  Bi115  1  0.67455584  0.25704682  0.70788058  1
  Bi2+  Bi116  1  0.63223510  0.45871410  0.19652561  1
  Bi2+  Bi117  1  0.66987151  0.52663328  0.70889723  1
  Bi2+  Bi118  1  0.60856923  0.76091643  0.20570119  1
  Bi2+  Bi119  1  0.60837885  0.70638930  0.73484306  1
  Bi2+  Bi120  1  0.89120865  -0.00941137  0.21444125  1
  Bi2+  Bi121  1  0.89566527  -0.03321003  0.71790852  1
  Bi2+  Bi122  1  0.87322866  0.22672896  0.20706600  1
  Bi2+  Bi123  1  0.87159857  0.22904117  0.71095955  1
  Bi2+  Bi124  1  0.86465243  0.60885586  0.19496801  1
  Bi2+  Bi125  1  0.87279557  0.56019490  0.71190942  1
  Bi2+  Bi126  1  0.84972923  0.80426895  0.18052549  1
  Bi2+  Bi127  1  0.86614992  0.75417078  0.71581776  1
  S2-  S128  1  0.01542244  0.21645924  0.15128641  1
  S2-  S129  1  0.06989826  0.11706135  0.64613140  1
  S2-  S130  1  0.02962019  0.38249167  0.21587537  1
  S2-  S131  1  0.00255479  0.38047093  0.65400094  1
  S2-  S132  1  0.01582575  0.54671518  0.14759909  1
  S2-  S133  1  0.00790070  0.60797261  0.64968331  1
  S2-  S134  1  0.01301554  0.99184157  0.14263689  1
  S2-  S135  1  0.00147345  0.87345995  0.64945526  1
  S2-  S136  1  0.22618262  0.13576094  0.15570590  1
  S2-  S137  1  0.26948055  0.11530984  0.69689542  1
  S2-  S138  1  0.19805822  0.37413219  0.14921864  1
  S2-  S139  1  0.20571914  0.28769466  0.64137282  1
  S2-  S140  1  0.25346563  0.61395492  0.15732977  1
  S2-  S141  1  0.23947775  0.50841732  0.63451349  1
  S2-  S142  1  0.25264162  0.90049086  0.16699588  1
  S2-  S143  1  0.23118071  0.94803445  0.64840593  1
  S2-  S144  1  0.50303639  0.04860874  0.13688941  1
  S2-  S145  1  0.45493850  0.11685909  0.67011102  1
  S2-  S146  1  0.47592247  0.46309871  0.14775811  1
  S2-  S147  1  0.51209279  0.33238623  0.68933649  1
  S2-  S148  1  0.47369430  0.65398506  0.19853127  1
  S2-  S149  1  0.50364820  0.54379062  0.64344216  1
  S2-  S150  1  0.46909404  0.85118853  0.18159296  1
  S2-  S151  1  0.52155976  0.90392506  0.66259051  1
  S2-  S152  1  0.79421396  0.10459795  0.14554423  1
  S2-  S153  1  0.65063464  0.12190028  0.64650406  1
  S2-  S154  1  0.83995803  0.36621918  0.14852954  1
  S2-  S155  1  0.69963626  0.40012035  0.64456442  1
  S2-  S156  1  0.66036679  0.61668425  0.15254549  1
  S2-  S157  1  0.75745208  0.65698779  0.64990373  1
  S2-  S158  1  0.66198894  0.89454218  0.14831741  1
  S2-  S159  1  0.75180229  0.92403887  0.65857184  1
  S2-  S160  1  0.13623918  0.09800408  0.35695157  1
  S2-  S161  1  0.10417809  0.06135215  0.84595962  1
  S2-  S162  1  0.13422612  0.28118929  0.32547067  1
  S2-  S163  1  0.20767304  0.26147561  0.84518692  1
  S2-  S164  1  0.14377230  0.47366976  0.31575120  1
  S2-  S165  1  0.10131004  0.46001803  0.84086024  1
  S2-  S166  1  0.12012906  0.66677411  0.35517022  1
  S2-  S167  1  0.12664219  0.85749217  0.86260688  1
  S2-  S168  1  0.39022765  -0.02676898  0.35609485  1
  S2-  S169  1  0.38203153  0.07461408  0.84597440  1
  S2-  S170  1  0.35831931  0.22649479  0.35528011  1
  S2-  S171  1  0.36290522  0.24473945  0.78058462  1
  S2-  S172  1  0.36252167  0.51776638  0.33489533  1
  S2-  S173  1  0.37040028  0.41596885  0.84834766  1
  S2-  S174  1  0.38892859  0.74324229  0.33586775  1
  S2-  S175  1  0.37871020  0.85239722  0.86751288  1
  S2-  S176  1  0.62447737  -0.07712122  0.34181468  1
  S2-  S177  1  0.60564440  0.04351322  0.82084600  1
  S2-  S178  1  0.60722858  0.23046685  0.35182753  1
  S2-  S179  1  0.53993924  0.25943246  0.84695719  1
  S2-  S180  1  0.61331784  0.49876608  0.33190139  1
  S2-  S181  1  0.58488016  0.49638617  0.84893478  1
  S2-  S182  1  0.60847659  0.71437597  0.33919452  1
  S2-  S183  1  0.61933060  0.82893233  0.86326089  1
  S2-  S184  1  0.83988904  0.00959769  0.34682003  1
  S2-  S185  1  0.79745426  -0.02690072  0.85266853  1
  S2-  S186  1  0.91068090  0.23450896  0.34371486  1
  S2-  S187  1  0.98462396  0.24279357  0.85740051  1
  S2-  S188  1  0.92837418  0.52060479  0.34550381  1
  S2-  S189  1  0.85716939  0.49194869  0.84296226  1
  S2-  S190  1  0.86921114  0.76114299  0.34198984  1
  S2-  S191  1  0.86412297  0.74183594  0.85179853  1
  S2-  S192  1  -0.00287428  0.12395754  0.45264475  1
  S2-  S193  1  0.00293641  0.10944231  0.95789140  1
  S2-  S194  1  0.00079632  0.37448040  0.44478722  1
  S2-  S195  1  0.00383676  0.37470078  0.95258057  1
  S2-  S196  1  -0.00772486  0.63134386  0.44992467  1
  S2-  S197  1  0.00639725  0.61788803  0.94913425  1
  S2-  S198  1  -0.00289714  0.87540464  0.44616060  1
  S2-  S199  1  0.00073207  0.86459823  0.96208748  1
  S2-  S200  1  0.25055787  0.12327253  0.46377823  1
  S2-  S201  1  0.25443374  0.11056711  0.94787045  1
  S2-  S202  1  0.24360934  0.37667227  0.44943895  1
  S2-  S203  1  0.25908025  0.36859808  0.95166894  1
  S2-  S204  1  0.25062831  0.62720979  0.45251846  1
  S2-  S205  1  0.26026211  0.62161006  0.94841686  1
  S2-  S206  1  0.24903634  0.87767232  0.45129332  1
  S2-  S207  1  0.25705166  0.86568896  0.96199910  1
  S2-  S208  1  0.49517041  0.12610380  0.46226891  1
  S2-  S209  1  0.50769587  0.11484837  0.94525292  1
  S2-  S210  1  0.49745526  0.37676904  0.44951401  1
  S2-  S211  1  0.50826605  0.37117893  0.95782406  1
  S2-  S212  1  0.49830076  0.62651238  0.44996815  1
  S2-  S213  1  0.50738176  0.62267595  0.95482593  1
  S2-  S214  1  0.49719058  0.87782513  0.45620939  1
  S2-  S215  1  0.50755708  0.86895698  0.96718601  1
  S2-  S216  1  0.74757236  0.12827904  0.45500051  1
  S2-  S217  1  0.75646584  0.12189383  0.94368893  1
  S2-  S218  1  0.74795819  0.37654701  0.44323401  1
  S2-  S219  1  0.75108126  0.37144316  0.95159943  1
  S2-  S220  1  0.74745379  0.62757828  0.44356638  1
  S2-  S221  1  0.75251267  0.61978927  0.95834962  1
  S2-  S222  1  0.74698669  0.87575648  0.45324857  1
  S2-  S223  1  0.75905525  0.86202056  0.96064447  1
  S2-  S224  1  0.13442921  -0.01068632  0.04224035  1
  S2-  S225  1  0.12105394  -0.00219304  0.54239392  1
  S2-  S226  1  0.13057891  0.24620649  0.04183737  1
  S2-  S227  1  0.12201813  0.24813796  0.53507758  1
  S2-  S228  1  0.13240209  0.49295347  0.04466326  1
  S2-  S229  1  0.12061978  0.50556605  0.53075226  1
  S2-  S230  1  0.13069276  0.74411325  0.04885356  1
  S2-  S231  1  0.12449869  0.74781942  0.54704534  1
  S2-  S232  1  0.38021998  -0.00409064  0.04242624  1
  S2-  S233  1  0.37214912  0.00475357  0.55606897  1
  S2-  S234  1  0.38427057  0.24184410  0.05738783  1
  S2-  S235  1  0.38334308  0.26127852  0.56012331  1
  S2-  S236  1  0.38110731  0.49488228  0.04404330  1
  S2-  S237  1  0.37792868  0.50009107  0.54167500  1
  S2-  S238  1  0.38835794  0.74148381  0.05501211  1
  S2-  S239  1  0.37153153  0.74731226  0.54673215  1
  S2-  S240  1  0.63502787  -0.00121342  0.03415003  1
  S2-  S241  1  0.62428869  -0.00124955  0.54207805  1
  S2-  S242  1  0.63156335  0.24273578  0.04206618  1
  S2-  S243  1  0.62373746  0.25792865  0.55168559  1
  S2-  S244  1  0.63240124  0.49306473  0.04904948  1
  S2-  S245  1  0.62584793  0.50234401  0.53817387  1
  S2-  S246  1  0.62901983  0.74301783  0.05355482  1
  S2-  S247  1  0.62229419  0.75208446  0.54614515  1
  S2-  S248  1  0.87801782  -0.01071882  0.04476676  1
  S2-  S249  1  0.87579573  -0.00022675  0.54996258  1
  S2-  S250  1  0.88033280  0.24396146  0.04177477  1
  S2-  S251  1  0.87385421  0.25158240  0.54805060  1
  S2-  S252  1  0.88190365  0.49380805  0.04791335  1
  S2-  S253  1  0.87650193  0.50164165  0.54496866  1
  S2-  S254  1  0.88318805  0.74260402  0.05328100  1
  S2-  S255  1  0.87709339  0.75158284  0.54632455  1
