# generated using pymatgen
data_La12Ce14Pr13Nd13Sm12(BiS2)64
_symmetry_space_group_name_H-M   'P 1'
_cell_length_a   16.14966999
_cell_length_b   16.13601295
_cell_length_c   27.21806478
_cell_angle_alpha   89.77768281
_cell_angle_beta   89.92048368
_cell_angle_gamma   90.04733671
_symmetry_Int_Tables_number   1
_chemical_formula_structural   La12Ce14Pr13Nd13Sm12(BiS2)64
_chemical_formula_sum   'La12 Ce14 Pr13 Nd13 Sm12 Bi64 S128'
_cell_volume   7092.72777896
_cell_formula_units_Z   1
loop_
 _symmetry_equiv_pos_site_id
 _symmetry_equiv_pos_as_xyz
  1  'x, y, z'
loop_
 _atom_type_symbol
 _atom_type_oxidation_number
  La3+  3.0
  Ce3+  3.0
  Pr3+  3.0
  Nd3+  3.0
  Sm3+  3.0
  Bi2+  2.0
  S2-  -2.0
loop_
 _atom_site_type_symbol
 _atom_site_label
 _atom_site_symmetry_multiplicity
 _atom_site_fract_x
 _atom_site_fract_y
 _atom_site_fract_z
 _atom_site_occupancy
  La3+  La0  1  0.86772282  0.51520543  0.91124002  1
  La3+  La1  1  0.60774782  0.50960604  0.91571483  1
  La3+  La2  1  0.50807866  0.62652333  0.57039657  1
  La3+  La3  1  0.22886099  0.38359483  0.07816105  1
  La3+  La4  1  -0.01828059  0.12982851  0.06669012  1
  La3+  La5  1  0.60615522  0.26055091  0.91164514  1
  La3+  La6  1  0.76454382  0.37608966  0.59924708  1
  La3+  La7  1  0.72794049  0.63007063  0.06128684  1
  La3+  La8  1  0.35158791  0.01036426  0.92895491  1
  La3+  La9  1  0.35228284  0.25951836  0.92755467  1
  La3+  La10  1  0.60911624  0.00910250  0.93468566  1
  La3+  La11  1  0.00560755  0.12691572  0.58015699  1
  Ce3+  Ce12  1  0.48641458  0.63282831  0.05307397  1
  Ce3+  Ce13  1  0.63762225  0.25038902  0.44775467  1
  Ce3+  Ce14  1  0.48748468  0.38189461  0.04986962  1
  Ce3+  Ce15  1  0.74012949  0.38251268  0.04303191  1
  Ce3+  Ce16  1  0.51335744  0.37562501  0.56076949  1
  Ce3+  Ce17  1  0.13347914  0.25660584  0.44440200  1
  Ce3+  Ce18  1  0.11260801  0.75858330  0.94985622  1
  Ce3+  Ce19  1  0.10923648  0.00880546  0.94085646  1
  Ce3+  Ce20  1  0.11057707  0.50608987  0.93769880  1
  Ce3+  Ce21  1  0.48518665  0.13462384  0.05471117  1
  Ce3+  Ce22  1  0.88381199  0.75386194  0.44831482  1
  Ce3+  Ce23  1  0.64154014  0.75278836  0.43656725  1
  Ce3+  Ce24  1  0.38787415  0.75145284  0.44087260  1
  Ce3+  Ce25  1  0.24100097  0.89037159  0.06937590  1
  Pr3+  Pr26  1  0.88701793  0.01409964  0.43150039  1
  Pr3+  Pr27  1  0.03393889  0.37434332  0.61167555  1
  Pr3+  Pr28  1  0.23539059  0.63041844  0.06486612  1
  Pr3+  Pr29  1  0.64006896  0.50380063  0.44531598  1
  Pr3+  Pr30  1  0.72511327  0.87917995  0.07080799  1
  Pr3+  Pr31  1  0.51141549  0.12362498  0.56343297  1
  Pr3+  Pr32  1  0.13168805  0.00518055  0.43122604  1
  Pr3+  Pr33  1  -0.02475691  0.38644892  0.06425228  1
  Pr3+  Pr34  1  0.13637379  0.75297885  0.44115799  1
  Pr3+  Pr35  1  0.60483012  0.76064548  0.92298120  1
  Pr3+  Pr36  1  0.35718049  0.75787204  0.93103551  1
  Pr3+  Pr37  1  0.00877342  0.62725506  0.57025193  1
  Pr3+  Pr38  1  0.75395456  0.63023844  0.58102566  1
  Nd3+  Nd39  1  0.64223893  0.01115804  0.41789511  1
  Nd3+  Nd40  1  0.25987267  0.87951747  0.55655858  1
  Nd3+  Nd41  1  0.85912364  0.00633731  0.93818438  1
  Nd3+  Nd42  1  0.86510630  0.25014276  0.92043289  1
  Nd3+  Nd43  1  0.76136404  0.12097810  0.57167574  1
  Nd3+  Nd44  1  0.88758156  0.25488241  0.45378405  1
  Nd3+  Nd45  1  0.26198338  0.37804794  0.56102464  1
  Nd3+  Nd46  1  -0.01692562  0.88209279  0.05561984  1
  Nd3+  Nd47  1  0.38723536  0.00399686  0.43501373  1
  Nd3+  Nd48  1  0.73350247  0.13191976  0.05512365  1
  Nd3+  Nd49  1  0.25799247  0.12748409  0.55609178  1
  Nd3+  Nd50  1  0.26178408  0.62750887  0.56868701  1
  Nd3+  Nd51  1  0.13430771  0.50429707  0.44344719  1
  Sm3+  Sm52  1  0.23830241  0.13694584  0.06631600  1
  Sm3+  Sm53  1  0.88326240  0.50216449  0.45561528  1
  Sm3+  Sm54  1  0.00980605  0.88086234  0.56134144  1
  Sm3+  Sm55  1  0.75802251  0.88199116  0.55692153  1
  Sm3+  Sm56  1  0.38634929  0.50386197  0.44218025  1
  Sm3+  Sm57  1  0.51191763  0.88112098  0.54810497  1
  Sm3+  Sm58  1  0.35888219  0.50761612  0.93836358  1
  Sm3+  Sm59  1  -0.01869697  0.63312540  0.05671892  1
  Sm3+  Sm60  1  0.38495346  0.25464442  0.44638950  1
  Sm3+  Sm61  1  0.85724692  0.75661748  0.94160609  1
  Sm3+  Sm62  1  0.48106217  0.88395569  0.05910480  1
  Sm3+  Sm63  1  0.11053400  0.25963492  0.94545061  1
  Bi2+  Bi64  1  0.01160657  0.13660090  0.29681967  1
  Bi2+  Bi65  1  0.04343302  0.06565205  0.81258654  1
  Bi2+  Bi66  1  -0.01005115  0.36242294  0.24211907  1
  Bi2+  Bi67  1  0.08101667  0.43533930  0.77167405  1
  Bi2+  Bi68  1  -0.03065435  0.54469908  0.28857342  1
  Bi2+  Bi69  1  -0.00477482  0.69969161  0.78094507  1
  Bi2+  Bi70  1  0.00755047  0.84399574  0.28995586  1
  Bi2+  Bi71  1  -0.04082860  0.89318408  0.79596952  1
  Bi2+  Bi72  1  0.20495317  0.08377035  0.28621859  1
  Bi2+  Bi73  1  0.29264495  0.13098099  0.80097574  1
  Bi2+  Bi74  1  0.22743602  0.35504653  0.30057281  1
  Bi2+  Bi75  1  0.24275598  0.47149348  0.82848955  1
  Bi2+  Bi76  1  0.28717380  0.60005654  0.30054281  1
  Bi2+  Bi77  1  0.27435163  0.65943364  0.80516295  1
  Bi2+  Bi78  1  0.19931116  0.88950069  0.32037439  1
  Bi2+  Bi79  1  0.22952377  0.84730908  0.79355643  1
  Bi2+  Bi80  1  0.52601783  0.09158419  0.28834967  1
  Bi2+  Bi81  1  0.53096811  0.09341960  0.79846528  1
  Bi2+  Bi82  1  0.46958878  0.35666202  0.29229247  1
  Bi2+  Bi83  1  0.40715867  0.38302601  0.78751066  1
  Bi2+  Bi84  1  0.49207942  0.61453503  0.22732566  1
  Bi2+  Bi85  1  0.48932167  0.63717222  0.78654732  1
  Bi2+  Bi86  1  0.38442458  0.87226454  0.28014007  1
  Bi2+  Bi87  1  0.48970245  0.82296386  0.75045155  1
  Bi2+  Bi88  1  0.76616904  0.13247188  0.29478340  1
  Bi2+  Bi89  1  0.77382832  0.06925595  0.77863330  1
  Bi2+  Bi90  1  0.73623938  0.39324240  0.29248118  1
  Bi2+  Bi91  1  0.74095696  0.33226739  0.78558043  1
  Bi2+  Bi92  1  0.72268256  0.60755108  0.31319988  1
  Bi2+  Bi93  1  0.75497614  0.64557767  0.78035007  1
  Bi2+  Bi94  1  0.71759083  0.85439886  0.29985965  1
  Bi2+  Bi95  1  0.76270403  0.87724657  0.80316115  1
  Bi2+  Bi96  1  0.13168054  -0.07309681  0.21063539  1
  Bi2+  Bi97  1  0.12811750  -0.03348746  0.72600114  1
  Bi2+  Bi98  1  0.14272699  0.20986848  0.20409349  1
  Bi2+  Bi99  1  0.12847306  0.24033839  0.77032984  1
  Bi2+  Bi100  1  0.11463438  0.50584203  0.20929963  1
  Bi2+  Bi101  1  0.15805207  0.62445432  0.69623876  1
  Bi2+  Bi102  1  0.15436413  0.73182759  0.23561936  1
  Bi2+  Bi103  1  0.05496796  0.78586046  0.67933285  1
  Bi2+  Bi104  1  0.36346302  0.01369439  0.20006403  1
  Bi2+  Bi105  1  0.37908292  0.01680445  0.69050180  1
  Bi2+  Bi106  1  0.33934973  0.21987744  0.24211050  1
  Bi2+  Bi107  1  0.30308345  0.27771038  0.71307476  1
  Bi2+  Bi108  1  0.37360561  0.45905725  0.21150903  1
  Bi2+  Bi109  1  0.30962332  0.49630808  0.70653463  1
  Bi2+  Bi110  1  0.33904488  0.73290343  0.20062399  1
  Bi2+  Bi111  1  0.31748520  0.75963439  0.70238026  1
  Bi2+  Bi112  1  0.63408801  -0.00070858  0.19167472  1
  Bi2+  Bi113  1  0.61286784  -0.01607648  0.71022800  1
  Bi2+  Bi114  1  0.61828444  0.26605199  0.23344738  1
  Bi2+  Bi115  1  0.53847296  0.28405834  0.71143720  1
  Bi2+  Bi116  1  0.61700918  0.46113430  0.20585293  1
  Bi2+  Bi117  1  0.62416206  0.51603773  0.71182592  1
  Bi2+  Bi118  1  0.64266364  0.73158045  0.20191028  1
  Bi2+  Bi119  1  0.67597292  0.78722198  0.70804687  1
  Bi2+  Bi120  1  0.88310005  0.01578481  0.19852841  1
  Bi2+  Bi121  1  0.87421157  -0.02894682  0.69615545  1
  Bi2+  Bi122  1  0.82203850  0.27884831  0.21213501  1
  Bi2+  Bi123  1  0.93520369  0.22111107  0.73023956  1
  Bi2+  Bi124  1  0.85734069  0.53398185  0.19201516  1
  Bi2+  Bi125  1  0.90364632  0.49033213  0.73041153  1
  Bi2+  Bi126  1  0.87735376  0.71188511  0.25454612  1
  Bi2+  Bi127  1  0.86626949  0.73775592  0.68904948  1
  S2-  S128  1  -0.00991399  0.14238211  0.16733825  1
  S2-  S129  1  0.05522780  0.22056749  0.66418947  1
  S2-  S130  1  0.07754270  0.37495689  0.14777174  1
  S2-  S131  1  -0.10583028  0.35743963  0.67236135  1
  S2-  S132  1  -0.00113794  0.60343823  0.15313936  1
  S2-  S133  1  0.01732941  0.53380217  0.65640570  1
  S2-  S134  1  -0.01657078  0.90695115  0.15384336  1
  S2-  S135  1  0.02620268  0.98209496  0.64219434  1
  S2-  S136  1  0.22384275  0.02066880  0.14001703  1
  S2-  S137  1  0.27892172  0.12895995  0.65560646  1
  S2-  S138  1  0.26863963  0.25054688  0.14351274  1
  S2-  S139  1  0.20048971  0.38837754  0.65412716  1
  S2-  S140  1  0.24719718  0.52068533  0.14496867  1
  S2-  S141  1  0.37829485  0.62734757  0.64432796  1
  S2-  S142  1  0.37010684  0.87392187  0.13834822  1
  S2-  S143  1  0.26503732  0.91511996  0.65434435  1
  S2-  S144  1  0.49991346  0.09142904  0.15086173  1
  S2-  S145  1  0.51285286  0.13147648  0.66513322  1
  S2-  S146  1  0.49211558  0.38692843  0.14891391  1
  S2-  S147  1  0.50861775  0.42734156  0.65382447  1
  S2-  S148  1  0.58666971  0.61850242  0.13292067  1
  S2-  S149  1  0.61299028  0.64811114  0.64994707  1
  S2-  S150  1  0.58530963  0.86391333  0.14027618  1
  S2-  S151  1  0.49534030  0.90056673  0.64601763  1
  S2-  S152  1  0.75282497  0.11305168  0.15427053  1
  S2-  S153  1  0.86758047  0.12856306  0.65381119  1
  S2-  S154  1  0.82908773  0.38787206  0.13047360  1
  S2-  S155  1  0.69066672  0.29171051  0.68426061  1
  S2-  S156  1  0.78382247  0.68111456  0.15551912  1
  S2-  S157  1  0.76578124  0.51928926  0.66451280  1
  S2-  S158  1  0.77367961  0.90620938  0.17061265  1
  S2-  S159  1  0.72869464  0.98198216  0.63573898  1
  S2-  S160  1  0.01019012  0.00869851  0.35628031  1
  S2-  S161  1  0.20473906  0.01649691  0.85932755  1
  S2-  S162  1  0.11403601  0.25921659  0.34670120  1
  S2-  S163  1  0.20991941  0.25231506  0.86263543  1
  S2-  S164  1  0.16673389  0.49454595  0.34461661  1
  S2-  S165  1  0.02120961  0.50558112  0.85353032  1
  S2-  S166  1  0.10217543  0.73099588  0.34300776  1
  S2-  S167  1  0.12535476  0.74729502  0.85147385  1
  S2-  S168  1  0.39748994  0.02884897  0.33605272  1
  S2-  S169  1  0.40480343  0.00757295  0.82889853  1
  S2-  S170  1  0.36331424  0.26098512  0.34838047  1
  S2-  S171  1  0.45576462  0.23531541  0.84285326  1
  S2-  S172  1  0.39381068  0.49969258  0.34356682  1
  S2-  S173  1  0.45362925  0.51636100  0.85260294  1
  S2-  S174  1  0.36701239  0.73403261  0.34467301  1
  S2-  S175  1  0.46792439  0.77455307  0.85113205  1
  S2-  S176  1  0.59107075  -0.05474955  0.32451702  1
  S2-  S177  1  0.62248558  -0.05354113  0.84156269  1
  S2-  S178  1  0.63381463  0.16522020  0.36145903  1
  S2-  S179  1  0.67636002  0.18208666  0.82770433  1
  S2-  S180  1  0.61873856  0.49235088  0.34487822  1
  S2-  S181  1  0.62159330  0.38783656  0.83948170  1
  S2-  S182  1  0.61209167  0.73045938  0.33944011  1
  S2-  S183  1  0.63208766  0.64353176  0.84655842  1
  S2-  S184  1  0.78153780  -0.00768471  0.35009403  1
  S2-  S185  1  0.88238014  0.10127758  0.85566336  1
  S2-  S186  1  0.88036262  0.19208778  0.35839241  1
  S2-  S187  1  0.89428494  0.30215787  0.82427010  1
  S2-  S188  1  0.84818633  0.49989612  0.35761115  1
  S2-  S189  1  0.80082272  0.48931523  0.81565931  1
  S2-  S190  1  0.82595824  0.74768758  0.35642194  1
  S2-  S191  1  0.87280989  0.67867185  0.85366957  1
  S2-  S192  1  0.01431311  0.13215462  0.46450171  1
  S2-  S193  1  -0.01086894  0.13348685  0.95762742  1
  S2-  S194  1  0.00830287  0.38345867  0.44845228  1
  S2-  S195  1  -0.01511978  0.37782093  0.95295336  1
  S2-  S196  1  0.00832715  0.62683116  0.45932314  1
  S2-  S197  1  -0.01176661  0.63780895  0.95422614  1
  S2-  S198  1  0.01046231  0.87583040  0.45638502  1
  S2-  S199  1  -0.01702608  0.88117002  0.94832028  1
  S2-  S200  1  0.26085842  0.12895977  0.44888290  1
  S2-  S201  1  0.23047371  0.13358615  0.96286593  1
  S2-  S202  1  0.26277323  0.38050633  0.45451311  1
  S2-  S203  1  0.23233077  0.38557280  0.96343276  1
  S2-  S204  1  0.26197154  0.62667584  0.45892686  1
  S2-  S205  1  0.23611370  0.63121518  0.95648723  1
  S2-  S206  1  0.26180202  0.87954265  0.45032710  1
  S2-  S207  1  0.23475136  0.88113448  0.95951991  1
  S2-  S208  1  0.50498139  0.13039022  0.45581074  1
  S2-  S209  1  0.48382458  0.13299976  0.94881371  1
  S2-  S210  1  0.50909599  0.37734437  0.45332746  1
  S2-  S211  1  0.48100435  0.38113058  0.94649904  1
  S2-  S212  1  0.51096367  0.62619680  0.45701925  1
  S2-  S213  1  0.48076439  0.63413532  0.95093928  1
  S2-  S214  1  0.51167599  0.87910789  0.44353761  1
  S2-  S215  1  0.47950019  0.88655405  0.95349193  1
  S2-  S216  1  0.76182737  0.13047351  0.46441425  1
  S2-  S217  1  0.73518920  0.13383434  0.94930043  1
  S2-  S218  1  0.76115033  0.37592460  0.45711309  1
  S2-  S219  1  0.74510381  0.37964797  0.93968368  1
  S2-  S220  1  0.76147934  0.62849697  0.46752926  1
  S2-  S221  1  0.73571491  0.63510526  0.95175028  1
  S2-  S222  1  0.76075866  0.88066885  0.45453409  1
  S2-  S223  1  0.73645281  0.88067566  0.95365092  1
  S2-  S224  1  0.10627886  0.00701298  0.04458190  1
  S2-  S225  1  0.13732005  0.00243012  0.53953625  1
  S2-  S226  1  0.10701636  0.25474831  0.04787873  1
  S2-  S227  1  0.13630801  0.25572694  0.55006800  1
  S2-  S228  1  0.10466096  0.51138094  0.04387881  1
  S2-  S229  1  0.13709977  0.50354164  0.54961391  1
  S2-  S230  1  0.11032014  0.75776638  0.05768481  1
  S2-  S231  1  0.13684076  0.75248912  0.54923074  1
  S2-  S232  1  0.36250838  0.01284227  0.03899496  1
  S2-  S233  1  0.38435224  0.00321358  0.54151367  1
  S2-  S234  1  0.36310962  0.25851537  0.03802898  1
  S2-  S235  1  0.38536161  0.25171440  0.55171656  1
  S2-  S236  1  0.36355019  0.50748237  0.04268168  1
  S2-  S237  1  0.38479694  0.49956687  0.54617975  1
  S2-  S238  1  0.35948050  0.75348483  0.03997008  1
  S2-  S239  1  0.38591580  0.75789879  0.54619524  1
  S2-  S240  1  0.60904882  0.00771092  0.04210511  1
  S2-  S241  1  0.63146779  0.00313051  0.53303453  1
  S2-  S242  1  0.61357636  0.25818621  0.04257191  1
  S2-  S243  1  0.63821587  0.25013113  0.55483390  1
  S2-  S244  1  0.61125000  0.50192374  0.03005676  1
  S2-  S245  1  0.63890180  0.49764254  0.55212812  1
  S2-  S246  1  0.60576030  0.75948252  0.03291148  1
  S2-  S247  1  0.63486061  0.75969693  0.54505903  1
  S2-  S248  1  0.85540968  0.00346159  0.04430311  1
  S2-  S249  1  0.88553334  -0.00125963  0.54079344  1
  S2-  S250  1  0.86013597  0.25232570  0.03650751  1
  S2-  S251  1  0.88501696  0.25875578  0.55707775  1
  S2-  S252  1  0.86041145  0.51498490  0.03311946  1
  S2-  S253  1  0.88250219  0.50356507  0.55738164  1
  S2-  S254  1  0.85853996  0.75918659  0.04600236  1
  S2-  S255  1  0.88346227  0.75712780  0.55390109  1
