# generated using pymatgen
data_La12Ce14Pr13Nd13Sm12(BiS2)64
_symmetry_space_group_name_H-M   'P 1'
_cell_length_a   16.17782513
_cell_length_b   16.12631017
_cell_length_c   27.26387354
_cell_angle_alpha   89.91916103
_cell_angle_beta   90.12444158
_cell_angle_gamma   90.02980095
_symmetry_Int_Tables_number   1
_chemical_formula_structural   La12Ce14Pr13Nd13Sm12(BiS2)64
_chemical_formula_sum   'La12 Ce14 Pr13 Nd13 Sm12 Bi64 S128'
_cell_volume   7112.80969922
_cell_formula_units_Z   1
loop_
 _symmetry_equiv_pos_site_id
 _symmetry_equiv_pos_as_xyz
  1  'x, y, z'
loop_
 _atom_type_symbol
 _atom_type_oxidation_number
  La3+  3.0
  Ce3+  3.0
  Pr3+  3.0
  Nd3+  3.0
  Sm3+  3.0
  Bi2+  2.0
  S2-  -2.0
loop_
 _atom_site_type_symbol
 _atom_site_label
 _atom_site_symmetry_multiplicity
 _atom_site_fract_x
 _atom_site_fract_y
 _atom_site_fract_z
 _atom_site_occupancy
  La3+  La0  1  0.74929147  0.60283566  0.58034477  1
  La3+  La1  1  0.48061969  0.60157791  0.58439605  1
  La3+  La2  1  0.64541837  0.76371101  0.90377526  1
  La3+  La3  1  0.27102036  0.64308721  0.09080330  1
  La3+  La4  1  0.75881226  0.87908028  0.07161371  1
  La3+  La5  1  0.36916377  0.49145221  0.42264094  1
  La3+  La6  1  0.12141125  -0.01097835  0.43211897  1
  La3+  La7  1  0.86731025  0.48247055  0.42987531  1
  La3+  La8  1  0.36626000  0.24014737  0.40399679  1
  La3+  La9  1  0.37941415  -0.01303469  0.39595301  1
  La3+  La10  1  0.38328226  0.25699275  0.93977724  1
  La3+  La11  1  0.11002685  0.73745584  0.43264869  1
  Ce3+  Ce12  1  0.74181937  0.85949763  0.56786451  1
  Ce3+  Ce13  1  0.13360380  0.26053951  0.94879476  1
  Ce3+  Ce14  1  0.49288376  0.85985153  0.56146872  1
  Ce3+  Ce15  1  -0.00506615  0.86436465  0.56265244  1
  Ce3+  Ce16  1  0.13576356  0.00475694  0.93863287  1
  Ce3+  Ce17  1  0.88654564  0.25971896  0.94410744  1
  Ce3+  Ce18  1  0.88470348  0.75547914  0.94351956  1
  Ce3+  Ce19  1  0.51799347  0.12344555  0.07165633  1
  Ce3+  Ce20  1  0.86878045  -0.01279350  0.43963915  1
  Ce3+  Ce21  1  0.75996703  0.12750797  0.05863363  1
  Ce3+  Ce22  1  0.61640885  0.48955296  0.44528916  1
  Ce3+  Ce23  1  0.61721597  0.73487481  0.45403225  1
  Ce3+  Ce24  1  0.51030932  0.63209876  0.04863744  1
  Ce3+  Ce25  1  0.38588320  0.00597615  0.94346440  1
  Pr3+  Pr26  1  0.38390373  0.75541227  0.92600244  1
  Pr3+  Pr27  1  0.61473828  0.23535773  0.43937078  1
  Pr3+  Pr28  1  0.75941693  0.62846232  0.06046262  1
  Pr3+  Pr29  1  0.51345406  0.37927669  0.06873171  1
  Pr3+  Pr30  1  0.26899961  0.38275386  0.07287208  1
  Pr3+  Pr31  1  0.24504923  0.86056952  0.55904295  1
  Pr3+  Pr32  1  0.11861423  0.23395909  0.43162492  1
  Pr3+  Pr33  1  0.64316475  0.50473952  0.93041496  1
  Pr3+  Pr34  1  0.01235502  0.12819857  0.05889290  1
  Pr3+  Pr35  1  0.63736244  0.00676230  0.93216567  1
  Pr3+  Pr36  1  -0.00417749  0.60057627  0.57072518  1
  Pr3+  Pr37  1  0.01325575  0.62799888  0.07317567  1
  Pr3+  Pr38  1  0.75916362  0.37701103  0.07033909  1
  Nd3+  Nd39  1  0.01049389  0.87520066  0.07366245  1
  Nd3+  Nd40  1  0.88550885  0.00335227  0.94165802  1
  Nd3+  Nd41  1  0.13234323  0.74603333  0.93208880  1
  Nd3+  Nd42  1  0.50952673  0.87686082  0.05283222  1
  Nd3+  Nd43  1  0.86347669  0.73261335  0.44308127  1
  Nd3+  Nd44  1  0.24606398  0.11074052  0.55313944  1
  Nd3+  Nd45  1  0.63496178  0.25470991  0.94242799  1
  Nd3+  Nd46  1  0.13593286  0.50796987  0.94630451  1
  Nd3+  Nd47  1  0.36857900  0.73641982  0.42927193  1
  Nd3+  Nd48  1  0.87059264  0.23616228  0.43529117  1
  Nd3+  Nd49  1  0.26092916  0.13014853  0.06515620  1
  Nd3+  Nd50  1  0.01102729  0.38443234  0.07768748  1
  Nd3+  Nd51  1  -0.01430684  0.10756639  0.57455852  1
  Sm3+  Sm52  1  0.11886640  0.48546784  0.44165866  1
  Sm3+  Sm53  1  0.74377099  0.36086105  0.55807561  1
  Sm3+  Sm54  1  -0.00320071  0.35350937  0.56043306  1
  Sm3+  Sm55  1  0.26147200  0.87720793  0.05194199  1
  Sm3+  Sm56  1  0.62610513  -0.01883863  0.43562648  1
  Sm3+  Sm57  1  0.88428018  0.50751599  0.94452244  1
  Sm3+  Sm58  1  0.49098354  0.36027121  0.55459430  1
  Sm3+  Sm59  1  0.38778733  0.50806578  0.94251243  1
  Sm3+  Sm60  1  0.49199826  0.10939745  0.55053749  1
  Sm3+  Sm61  1  0.24451980  0.61128353  0.55231736  1
  Sm3+  Sm62  1  0.74089113  0.11146209  0.55665640  1
  Sm3+  Sm63  1  0.24665842  0.35732201  0.55149881  1
  Bi2+  Bi64  1  -0.01032512  0.10612334  0.35042997  1
  Bi2+  Bi65  1  0.00984232  0.16074775  0.78512706  1
  Bi2+  Bi66  1  -0.00236403  0.29577005  0.30903918  1
  Bi2+  Bi67  1  -0.02295086  0.37285887  0.80477692  1
  Bi2+  Bi68  1  -0.02344318  0.63920062  0.29590797  1
  Bi2+  Bi69  1  -0.05432511  0.56578380  0.81745752  1
  Bi2+  Bi70  1  -0.00049487  0.92324568  0.30325152  1
  Bi2+  Bi71  1  0.02962950  0.83042477  0.78395626  1
  Bi2+  Bi72  1  0.16331740  0.11735584  0.28543938  1
  Bi2+  Bi73  1  0.26805691  0.11768822  0.81381884  1
  Bi2+  Bi74  1  0.25223760  0.37978913  0.28412938  1
  Bi2+  Bi75  1  0.16778787  0.40227439  0.80690588  1
  Bi2+  Bi76  1  0.24135098  0.61764157  0.29076534  1
  Bi2+  Bi77  1  0.20613345  0.64665142  0.78776544  1
  Bi2+  Bi78  1  0.29003561  0.89781975  0.26852773  1
  Bi2+  Bi79  1  0.29774719  0.87505156  0.78543759  1
  Bi2+  Bi80  1  0.52491470  0.11636832  0.27698328  1
  Bi2+  Bi81  1  0.53084648  0.16367584  0.80389043  1
  Bi2+  Bi82  1  0.54433651  0.36631068  0.28585616  1
  Bi2+  Bi83  1  0.48117944  0.36976871  0.73301711  1
  Bi2+  Bi84  1  0.52956479  0.65626909  0.25417056  1
  Bi2+  Bi85  1  0.46348272  0.59521995  0.80348069  1
  Bi2+  Bi86  1  0.54148249  0.84861700  0.29619799  1
  Bi2+  Bi87  1  0.53073732  0.98357777  0.76836897  1
  Bi2+  Bi88  1  0.78952507  0.12143015  0.29850473  1
  Bi2+  Bi89  1  0.74851092  0.13706851  0.80434388  1
  Bi2+  Bi90  1  0.75179884  0.43673567  0.29087260  1
  Bi2+  Bi91  1  0.73879147  0.35452715  0.73387445  1
  Bi2+  Bi92  1  0.72647969  0.68130592  0.24612918  1
  Bi2+  Bi93  1  0.71483785  0.59531965  0.79570596  1
  Bi2+  Bi94  1  0.78826687  0.83993052  0.30821171  1
  Bi2+  Bi95  1  0.77584295  0.87876996  0.78906996  1
  Bi2+  Bi96  1  0.12347415  -0.03365408  0.21248995  1
  Bi2+  Bi97  1  0.13977457  -0.03060488  0.70996363  1
  Bi2+  Bi98  1  0.07753414  0.23421168  0.20776000  1
  Bi2+  Bi99  1  0.13358445  0.22371443  0.70542931  1
  Bi2+  Bi100  1  0.07519040  0.44801116  0.24886307  1
  Bi2+  Bi101  1  0.12216020  0.50037672  0.70850902  1
  Bi2+  Bi102  1  0.10211701  0.77803034  0.24424125  1
  Bi2+  Bi103  1  0.08461815  0.69671735  0.70133935  1
  Bi2+  Bi104  1  0.40366992  0.02032175  0.20805770  1
  Bi2+  Bi105  1  0.37585812  0.07033595  0.71607653  1
  Bi2+  Bi106  1  0.33285663  0.25551580  0.20215967  1
  Bi2+  Bi107  1  0.32406702  0.26151512  0.71404362  1
  Bi2+  Bi108  1  0.38973107  0.51723142  0.21313202  1
  Bi2+  Bi109  1  0.31095298  0.49641071  0.74352955  1
  Bi2+  Bi110  1  0.38624655  0.76622894  0.20407186  1
  Bi2+  Bi111  1  0.35638804  0.73942635  0.69084140  1
  Bi2+  Bi112  1  0.69738673  -0.00434397  0.22498968  1
  Bi2+  Bi113  1  0.68865940  0.04408139  0.70715948  1
  Bi2+  Bi114  1  0.68959627  0.22635247  0.20904914  1
  Bi2+  Bi115  1  0.60222688  0.22664236  0.69722187  1
  Bi2+  Bi116  1  0.61986329  0.49660514  0.21059369  1
  Bi2+  Bi117  1  0.61780378  0.50885478  0.70256827  1
  Bi2+  Bi118  1  0.64362316  0.82356945  0.18435207  1
  Bi2+  Bi119  1  0.60407688  0.78021532  0.70923584  1
  Bi2+  Bi120  1  0.89509511  0.01520973  0.21750000  1
  Bi2+  Bi121  1  0.94901369  -0.00817626  0.74035313  1
  Bi2+  Bi122  1  0.87834120  0.22967784  0.21461453  1
  Bi2+  Bi123  1  0.87424741  0.22454151  0.70890450  1
  Bi2+  Bi124  1  0.89269888  0.48795879  0.21480666  1
  Bi2+  Bi125  1  0.89508755  0.48334091  0.71707512  1
  Bi2+  Bi126  1  0.90288468  0.74663405  0.20283318  1
  Bi2+  Bi127  1  0.89781315  0.72322288  0.73043915  1
  S2-  S128  1  0.03157318  0.07684736  0.15433316  1
  S2-  S129  1  0.00609164  0.23893252  0.63897164  1
  S2-  S130  1  -0.12429867  0.36568923  0.14606337  1
  S2-  S131  1  0.00319313  0.46062222  0.63863948  1
  S2-  S132  1  0.02782043  0.50820134  0.15010307  1
  S2-  S133  1  -0.11338673  0.63019303  0.64849881  1
  S2-  S134  1  0.04179603  0.74936349  0.14432382  1
  S2-  S135  1  -0.00054591  0.97051160  0.64207778  1
  S2-  S136  1  0.27180899  0.10216749  0.16353564  1
  S2-  S137  1  0.21575711  0.09404479  0.65251627  1
  S2-  S138  1  0.19833869  0.33010796  0.16273143  1
  S2-  S139  1  0.22601265  0.35072401  0.64955885  1
  S2-  S140  1  0.24440686  0.57445359  0.18553531  1
  S2-  S141  1  0.31399094  0.60495094  0.64118620  1
  S2-  S142  1  0.26819066  0.80248397  0.14025198  1
  S2-  S143  1  0.22490960  0.85501926  0.66088642  1
  S2-  S144  1  0.47228235  0.16314814  0.16555944  1
  S2-  S145  1  0.49479776  0.11513206  0.64941945  1
  S2-  S146  1  0.39999906  0.38455446  0.14751636  1
  S2-  S147  1  0.48388289  0.44401459  0.64038141  1
  S2-  S148  1  0.43912105  0.64029144  0.13753975  1
  S2-  S149  1  0.49407601  0.65378779  0.68504209  1
  S2-  S150  1  0.49391401  0.89456169  0.15267337  1
  S2-  S151  1  0.47220544  0.86073412  0.65909276  1
  S2-  S152  1  0.66818434  0.10085324  0.14022321  1
  S2-  S153  1  0.81718403  0.11239714  0.64447653  1
  S2-  S154  1  0.63706392  0.36310138  0.14554426  1
  S2-  S155  1  0.74874108  0.44773339  0.64288438  1
  S2-  S156  1  0.80725465  0.61309097  0.15690041  1
  S2-  S157  1  0.69109213  0.65569143  0.67610928  1
  S2-  S158  1  0.87993687  0.88610592  0.14660666  1
  S2-  S159  1  0.72578703  0.88262388  0.66568229  1
  S2-  S160  1  0.21976630  -0.01339360  0.34663318  1
  S2-  S161  1  0.14145425  0.02589420  0.84122639  1
  S2-  S162  1  0.21293003  0.25326032  0.34506858  1
  S2-  S163  1  0.17667636  0.25263344  0.85453143  1
  S2-  S164  1  0.12517717  0.51051191  0.34385983  1
  S2-  S165  1  0.10184233  0.60641220  0.86363450  1
  S2-  S166  1  0.17535434  0.74204709  0.33859605  1
  S2-  S167  1  0.18192268  0.80292785  0.83904759  1
  S2-  S168  1  0.39024117  0.12684919  0.32768141  1
  S2-  S169  1  0.38280886  -0.00978965  0.84613714  1
  S2-  S170  1  0.39204581  0.38095440  0.33999979  1
  S2-  S171  1  0.39607059  0.23986012  0.84035592  1
  S2-  S172  1  0.36862815  0.61650682  0.35135547  1
  S2-  S173  1  0.36074938  0.48431709  0.84643657  1
  S2-  S174  1  0.39166880  0.83272389  0.34553277  1
  S2-  S175  1  0.39220873  0.75883495  0.82376315  1
  S2-  S176  1  0.54425627  -0.01256230  0.34728647  1
  S2-  S177  1  0.63420016  -0.08372541  0.84488603  1
  S2-  S178  1  0.60675415  0.23736328  0.33834671  1
  S2-  S179  1  0.65963284  0.26298894  0.84389980  1
  S2-  S180  1  0.61410331  0.48895404  0.34675438  1
  S2-  S181  1  0.58317146  0.49930867  0.83359990  1
  S2-  S182  1  0.65588484  0.75906186  0.35939000  1
  S2-  S183  1  0.59947072  0.71194712  0.80880491  1
  S2-  S184  1  0.75884813  -0.02236343  0.36257432  1
  S2-  S185  1  0.84889158  -0.00007924  0.84379063  1
  S2-  S186  1  0.85322025  0.34827771  0.35761973  1
  S2-  S187  1  0.88465475  0.23678641  0.84669595  1
  S2-  S188  1  0.85243377  0.57636379  0.34414533  1
  S2-  S189  1  0.78932862  0.49427541  0.86207608  1
  S2-  S190  1  0.94157194  0.77278738  0.35651989  1
  S2-  S191  1  0.80526391  0.76063606  0.85526655  1
  S2-  S192  1  -0.00844944  0.11214262  0.46501060  1
  S2-  S193  1  0.01013580  0.13045187  0.95141721  1
  S2-  S194  1  -0.00130019  0.36009333  0.45470680  1
  S2-  S195  1  0.00943816  0.38577314  0.96034851  1
  S2-  S196  1  -0.00610451  0.60828773  0.45708543  1
  S2-  S197  1  0.00401425  0.62925270  0.96573289  1
  S2-  S198  1  -0.00743030  0.86600317  0.45887018  1
  S2-  S199  1  0.01132766  0.87857963  0.95211463  1
  S2-  S200  1  0.25158374  0.11384109  0.44806626  1
  S2-  S201  1  0.25846754  0.12979139  0.95880070  1
  S2-  S202  1  0.24390307  0.36426938  0.44779532  1
  S2-  S203  1  0.26203484  0.38562167  0.95999381  1
  S2-  S204  1  0.23767939  0.61274215  0.45046837  1
  S2-  S205  1  0.26443000  0.62896237  0.94704746  1
  S2-  S206  1  0.24401333  0.85854431  0.45193175  1
  S2-  S207  1  0.26020612  0.87978297  0.94871963  1
  S2-  S208  1  0.49186113  0.10908522  0.44742619  1
  S2-  S209  1  0.51147028  0.12901035  0.95528795  1
  S2-  S210  1  0.49143432  0.35976364  0.45119117  1
  S2-  S211  1  0.51171624  0.38237237  0.95399196  1
  S2-  S212  1  0.49324531  0.61265491  0.45779126  1
  S2-  S213  1  0.51555094  0.63366711  0.94233828  1
  S2-  S214  1  0.49748051  0.86404376  0.45547871  1
  S2-  S215  1  0.51228576  0.87715077  0.94666791  1
  S2-  S216  1  0.74346286  0.11589360  0.45396496  1
  S2-  S217  1  0.76200627  0.13033443  0.95274803  1
  S2-  S218  1  0.73764939  0.36013223  0.45562577  1
  S2-  S219  1  0.76014733  0.37757037  0.96201354  1
  S2-  S220  1  0.74305734  0.60986706  0.46293699  1
  S2-  S221  1  0.75857161  0.63444140  0.95486816  1
  S2-  S222  1  0.74438833  0.85811571  0.46347245  1
  S2-  S223  1  0.75983905  0.88096060  0.95975204  1
  S2-  S224  1  0.13680104  -0.00116263  0.04758764  1
  S2-  S225  1  0.12194962  -0.01304451  0.54090411  1
  S2-  S226  1  0.13436302  0.25755998  0.05303736  1
  S2-  S227  1  0.12347566  0.23478279  0.53872611  1
  S2-  S228  1  0.14746457  0.50920405  0.05123629  1
  S2-  S229  1  0.12744625  0.48352761  0.54440910  1
  S2-  S230  1  0.14121260  0.75345705  0.03891279  1
  S2-  S231  1  0.11664316  0.73277477  0.54690629  1
  S2-  S232  1  0.38420765  0.00403759  0.04954943  1
  S2-  S233  1  0.37028078  -0.01292648  0.55292567  1
  S2-  S234  1  0.38846538  0.24991157  0.04776392  1
  S2-  S235  1  0.37155914  0.23587974  0.54935052  1
  S2-  S236  1  0.38570310  0.50954404  0.04518984  1
  S2-  S237  1  0.36474943  0.48271676  0.53592071  1
  S2-  S238  1  0.38538156  0.75610598  0.03376600  1
  S2-  S239  1  0.36919972  0.73518578  0.54252453  1
  S2-  S240  1  0.63506454  -0.00121036  0.03899077  1
  S2-  S241  1  0.61908962  -0.01185767  0.54571796  1
  S2-  S242  1  0.63464766  0.24952656  0.04597618  1
  S2-  S243  1  0.61738993  0.23735862  0.54743277  1
  S2-  S244  1  0.63393797  0.50619793  0.04385721  1
  S2-  S245  1  0.61649693  0.48469777  0.54799025  1
  S2-  S246  1  0.63460568  0.75430408  0.05079319  1
  S2-  S247  1  0.61578497  0.73055711  0.55930343  1
  S2-  S248  1  0.88688740  0.00429762  0.04681168  1
  S2-  S249  1  0.86203228  -0.01518531  0.54532424  1
  S2-  S250  1  0.88696914  0.25038865  0.04856989  1
  S2-  S251  1  0.86370514  0.23854113  0.54198805  1
  S2-  S252  1  0.88426971  0.50333866  0.04727512  1
  S2-  S253  1  0.87142930  0.47744953  0.53947357  1
  S2-  S254  1  0.88499375  0.75391558  0.04770142  1
  S2-  S255  1  0.87038477  0.74023872  0.54872717  1
