# generated using pymatgen
data_La12Ce14Pr13Nd13Sm12(BiS2)64
_symmetry_space_group_name_H-M   'P 1'
_cell_length_a   16.11706632
_cell_length_b   16.12531404
_cell_length_c   27.24728441
_cell_angle_alpha   90.07944656
_cell_angle_beta   89.86321238
_cell_angle_gamma   89.88909589
_symmetry_Int_Tables_number   1
_chemical_formula_structural   La12Ce14Pr13Nd13Sm12(BiS2)64
_chemical_formula_sum   'La12 Ce14 Pr13 Nd13 Sm12 Bi64 S128'
_cell_volume   7081.33153314
_cell_formula_units_Z   1
loop_
 _symmetry_equiv_pos_site_id
 _symmetry_equiv_pos_as_xyz
  1  'x, y, z'
loop_
 _atom_type_symbol
 _atom_type_oxidation_number
  La3+  3.0
  Ce3+  3.0
  Pr3+  3.0
  Nd3+  3.0
  Sm3+  3.0
  Bi2+  2.0
  S2-  -2.0
loop_
 _atom_site_type_symbol
 _atom_site_label
 _atom_site_symmetry_multiplicity
 _atom_site_fract_x
 _atom_site_fract_y
 _atom_site_fract_z
 _atom_site_occupancy
  La3+  La0  1  0.13496289  0.75170085  0.42144743  1
  La3+  La1  1  0.12743044  0.00153179  0.42529674  1
  La3+  La2  1  0.74990319  0.11990268  0.07650020  1
  La3+  La3  1  0.13293925  0.49887160  0.43907522  1
  La3+  La4  1  0.74032699  0.61695213  0.06885006  1
  La3+  La5  1  0.24938935  0.12420860  0.06580204  1
  La3+  La6  1  -0.00141210  0.88328864  0.60644697  1
  La3+  La7  1  -0.00362585  0.85969664  0.08245098  1
  La3+  La8  1  0.87276696  0.00462871  0.39491961  1
  La3+  La9  1  0.39135076  0.24196632  0.43015912  1
  La3+  La10  1  0.86873469  0.73967635  0.91340755  1
  La3+  La11  1  0.49682808  0.11798993  0.58984301  1
  Ce3+  Ce12  1  0.25312843  0.62610640  0.55719052  1
  Ce3+  Ce13  1  0.63595773  0.22940761  0.91525272  1
  Ce3+  Ce14  1  0.75876641  0.11866915  0.56124445  1
  Ce3+  Ce15  1  0.00536639  0.11852844  0.55144627  1
  Ce3+  Ce16  1  0.25398516  0.36918320  0.55719378  1
  Ce3+  Ce17  1  0.25298795  0.12126058  0.55764530  1
  Ce3+  Ce18  1  -0.01446278  0.61481255  0.07419185  1
  Ce3+  Ce19  1  0.12197691  0.24394766  0.93728886  1
  Ce3+  Ce20  1  0.38060438  0.75096597  0.44022422  1
  Ce3+  Ce21  1  0.38440378  0.49843839  0.44066222  1
  Ce3+  Ce22  1  0.50743032  0.87322939  0.56560386  1
  Ce3+  Ce23  1  0.00482599  0.37050152  0.56138987  1
  Ce3+  Ce24  1  0.87457433  0.49631661  0.93668502  1
  Ce3+  Ce25  1  0.49550690  0.36178145  0.04840362  1
  Pr3+  Pr26  1  0.87482021  0.24195557  0.93771522  1
  Pr3+  Pr27  1  0.25737379  0.87790607  0.07902820  1
  Pr3+  Pr28  1  0.62815984  0.24932976  0.45575133  1
  Pr3+  Pr29  1  0.49129312  0.61548449  0.07294994  1
  Pr3+  Pr30  1  0.63065906  -0.00262354  0.44043364  1
  Pr3+  Pr31  1  0.37254784  0.49117052  0.93878051  1
  Pr3+  Pr32  1  0.50048122  0.38375624  0.57981361  1
  Pr3+  Pr33  1  0.13666579  0.25001493  0.42718499  1
  Pr3+  Pr34  1  0.00624050  0.63211012  0.55550072  1
  Pr3+  Pr35  1  0.87863208  0.24860334  0.43872115  1
  Pr3+  Pr36  1  0.76043004  0.37643955  0.57569764  1
  Pr3+  Pr37  1  0.36584090  0.23572304  0.91197152  1
  Pr3+  Pr38  1  0.88036647  0.49599015  0.43487937  1
  Nd3+  Nd39  1  0.87209654  -0.01247827  0.94454444  1
  Nd3+  Nd40  1  -0.00575884  0.36994504  0.06238174  1
  Nd3+  Nd41  1  0.24936615  0.87226060  0.56002362  1
  Nd3+  Nd42  1  0.87473711  0.74088031  0.41113055  1
  Nd3+  Nd43  1  0.12453186  0.74381938  0.94446968  1
  Nd3+  Nd44  1  0.76208583  0.63097953  0.56255126  1
  Nd3+  Nd45  1  0.63109588  0.74983250  0.43790467  1
  Nd3+  Nd46  1  0.24725078  0.62196095  0.07020340  1
  Nd3+  Nd47  1  0.74732782  0.87178546  0.07389338  1
  Nd3+  Nd48  1  0.36941398  0.74250764  0.93844056  1
  Nd3+  Nd49  1  0.63194297  0.49861618  0.45009588  1
  Nd3+  Nd50  1  0.38231476  -0.00202203  0.44059762  1
  Nd3+  Nd51  1  0.36736364  -0.00645170  0.93403945  1
  Sm3+  Sm52  1  0.62022830  0.49133987  0.93893856  1
  Sm3+  Sm53  1  0.61918644  0.74124426  0.94821665  1
  Sm3+  Sm54  1  0.24661114  0.36475817  0.05954533  1
  Sm3+  Sm55  1  0.12131295  -0.01043681  0.94784251  1
  Sm3+  Sm56  1  -0.00420843  0.11379951  0.06207705  1
  Sm3+  Sm57  1  0.49706116  0.12252126  0.04654062  1
  Sm3+  Sm58  1  0.49433134  0.87212635  0.05303398  1
  Sm3+  Sm59  1  0.74292724  0.36667565  0.05079586  1
  Sm3+  Sm60  1  0.76375942  0.87385467  0.55064689  1
  Sm3+  Sm61  1  0.50604263  0.62766036  0.56005044  1
  Sm3+  Sm62  1  0.62615374  -0.00930333  0.94293795  1
  Sm3+  Sm63  1  0.12172324  0.49598478  0.95062931  1
  Bi2+  Bi64  1  0.03691088  0.19851888  0.26974195  1
  Bi2+  Bi65  1  0.04455853  0.21876924  0.79092585  1
  Bi2+  Bi66  1  -0.10548447  0.34186037  0.31343009  1
  Bi2+  Bi67  1  -0.09818377  0.35237258  0.81366466  1
  Bi2+  Bi68  1  0.00050662  0.55356962  0.28460916  1
  Bi2+  Bi69  1  0.00061511  0.60116257  0.79962921  1
  Bi2+  Bi70  1  0.04143978  0.86035262  0.29468911  1
  Bi2+  Bi71  1  0.00867558  0.89386685  0.81806108  1
  Bi2+  Bi72  1  0.27168584  0.12611563  0.30562257  1
  Bi2+  Bi73  1  0.23504727  0.10169935  0.79060348  1
  Bi2+  Bi74  1  0.17360034  0.34756475  0.27998203  1
  Bi2+  Bi75  1  0.20082970  0.39293631  0.79148474  1
  Bi2+  Bi76  1  0.25015014  0.59891483  0.30564179  1
  Bi2+  Bi77  1  0.29937867  0.63746121  0.79194440  1
  Bi2+  Bi78  1  0.35155596  0.89155898  0.30530176  1
  Bi2+  Bi79  1  0.26218223  0.86092032  0.78715534  1
  Bi2+  Bi80  1  0.54066540  0.14860871  0.24249547  1
  Bi2+  Bi81  1  0.51552431  0.13236850  0.79218539  1
  Bi2+  Bi82  1  0.49427618  0.35483410  0.28999657  1
  Bi2+  Bi83  1  0.49102885  0.41107276  0.80187197  1
  Bi2+  Bi84  1  0.52432753  0.64835468  0.29662836  1
  Bi2+  Bi85  1  0.48062010  0.69455780  0.82756394  1
  Bi2+  Bi86  1  0.53242755  0.84545374  0.33034678  1
  Bi2+  Bi87  1  0.46242719  0.88495357  0.79746328  1
  Bi2+  Bi88  1  0.72892443  0.14342733  0.28309314  1
  Bi2+  Bi89  1  0.77603094  0.15125286  0.76270957  1
  Bi2+  Bi90  1  0.69795561  0.33872921  0.30352730  1
  Bi2+  Bi91  1  0.74347076  0.44368243  0.77234911  1
  Bi2+  Bi92  1  0.73005443  0.60297292  0.29007715  1
  Bi2+  Bi93  1  0.65733756  0.70843588  0.77010014  1
  Bi2+  Bi94  1  0.72755564  0.86813361  0.28658253  1
  Bi2+  Bi95  1  0.74654193  0.92537317  0.81729363  1
  Bi2+  Bi96  1  0.16281669  -0.04468608  0.22075732  1
  Bi2+  Bi97  1  0.13786075  0.12355434  0.69671768  1
  Bi2+  Bi98  1  0.09865983  0.29464766  0.17591438  1
  Bi2+  Bi99  1  0.12258606  0.31248978  0.67819870  1
  Bi2+  Bi100  1  0.14290326  0.49003937  0.19733462  1
  Bi2+  Bi101  1  0.08741658  0.49122095  0.71811736  1
  Bi2+  Bi102  1  0.16264439  0.68598270  0.21812484  1
  Bi2+  Bi103  1  0.12848466  0.75395453  0.70869137  1
  Bi2+  Bi104  1  0.40402918  0.01890627  0.20488544  1
  Bi2+  Bi105  1  0.36437880  -0.03126906  0.70557979  1
  Bi2+  Bi106  1  0.37291237  0.29836139  0.21027813  1
  Bi2+  Bi107  1  0.37816254  0.24571852  0.70850727  1
  Bi2+  Bi108  1  0.34086315  0.49641706  0.21106350  1
  Bi2+  Bi109  1  0.32850023  0.52226386  0.70158992  1
  Bi2+  Bi110  1  0.43868883  0.77241243  0.22615682  1
  Bi2+  Bi111  1  0.37645282  0.77439618  0.70347261  1
  Bi2+  Bi112  1  0.59936661  -0.06693209  0.20922197  1
  Bi2+  Bi113  1  0.62400776  -0.09841425  0.72744685  1
  Bi2+  Bi114  1  0.68540986  0.25787274  0.19281295  1
  Bi2+  Bi115  1  0.64750543  0.28361442  0.71198892  1
  Bi2+  Bi116  1  0.54102715  0.50262414  0.21653403  1
  Bi2+  Bi117  1  0.52476691  0.57312594  0.73563289  1
  Bi2+  Bi118  1  0.64616176  0.74110734  0.20992514  1
  Bi2+  Bi119  1  0.56455050  0.74242876  0.66918834  1
  Bi2+  Bi120  1  0.87891568  -0.00331086  0.20502273  1
  Bi2+  Bi121  1  0.86748674  0.01280847  0.70807294  1
  Bi2+  Bi122  1  0.89761803  0.27659701  0.20189987  1
  Bi2+  Bi123  1  0.91275941  0.25775724  0.70900335  1
  Bi2+  Bi124  1  0.86142330  0.47728959  0.21237667  1
  Bi2+  Bi125  1  0.89044664  0.52001212  0.71215557  1
  Bi2+  Bi126  1  0.90082012  0.72627984  0.21528725  1
  Bi2+  Bi127  1  0.87297542  0.75772863  0.71278735  1
  S2-  S128  1  -0.10675467  0.13144472  0.14233116  1
  S2-  S129  1  0.00066511  0.05436743  0.64459873  1
  S2-  S130  1  -0.01211112  0.47877115  0.14136706  1
  S2-  S131  1  -0.09917123  0.38573233  0.64058204  1
  S2-  S132  1  0.02917935  0.71915439  0.15175474  1
  S2-  S133  1  0.00167717  0.71403658  0.64564400  1
  S2-  S134  1  0.03045919  0.97720917  0.16202576  1
  S2-  S135  1  0.00371708  0.87909122  0.72107352  1
  S2-  S136  1  0.25307539  0.02132641  0.14875335  1
  S2-  S137  1  0.33268864  0.11416123  0.64562238  1
  S2-  S138  1  0.26318187  0.25576766  0.13643386  1
  S2-  S139  1  0.29349762  0.36847301  0.65324222  1
  S2-  S140  1  0.36436069  0.62136852  0.14519305  1
  S2-  S141  1  0.23162131  0.64146600  0.65423282  1
  S2-  S142  1  0.22334207  0.81233044  0.17295817  1
  S2-  S143  1  0.16582821  0.87436616  0.64713235  1
  S2-  S144  1  0.47631812  0.13204424  0.14489789  1
  S2-  S145  1  0.52884270  0.15464978  0.69335264  1
  S2-  S146  1  0.48674601  0.37731602  0.14617574  1
  S2-  S147  1  0.49873628  0.34376556  0.68032795  1
  S2-  S148  1  0.61432150  0.60827144  0.14541370  1
  S2-  S149  1  0.47471997  0.53551940  0.64115245  1
  S2-  S150  1  0.42426526  0.87571587  0.14256943  1
  S2-  S151  1  0.51260480  0.96526030  0.64808107  1
  S2-  S152  1  0.72117421  -0.00145627  0.14968747  1
  S2-  S153  1  0.75262481  0.10252835  0.65908475  1
  S2-  S154  1  0.74069451  0.40179198  0.14763204  1
  S2-  S155  1  0.69345582  0.41903641  0.66885983  1
  S2-  S156  1  0.84401429  0.61923301  0.15086874  1
  S2-  S157  1  0.78937370  0.63610762  0.66227373  1
  S2-  S158  1  0.85860596  0.84996817  0.15394565  1
  S2-  S159  1  0.82496605  0.87358256  0.64544928  1
  S2-  S160  1  0.18953705  -0.05496169  0.33157481  1
  S2-  S161  1  0.15559987  -0.01484811  0.84955974  1
  S2-  S162  1  0.11381889  0.13544708  0.35043906  1
  S2-  S163  1  0.21095982  0.24928274  0.85330919  1
  S2-  S164  1  0.09232627  0.44528970  0.34604684  1
  S2-  S165  1  0.10804843  0.48667569  0.85197124  1
  S2-  S166  1  0.09121273  0.69182274  0.32695332  1
  S2-  S167  1  0.03219903  0.73764778  0.85854957  1
  S2-  S168  1  0.40118364  0.09121083  0.35675370  1
  S2-  S169  1  0.37267644  0.08560379  0.84920628  1
  S2-  S170  1  0.27571671  0.26688879  0.35276803  1
  S2-  S171  1  0.40132531  0.27690147  0.81078029  1
  S2-  S172  1  0.35549390  0.49229785  0.34400275  1
  S2-  S173  1  0.34147109  0.48399606  0.83968694  1
  S2-  S174  1  0.29193488  0.74733645  0.35530513  1
  S2-  S175  1  0.24712207  0.74705919  0.86579216  1
  S2-  S176  1  0.71102766  0.00667975  0.34953714  1
  S2-  S177  1  0.63132085  0.05613133  0.85146196  1
  S2-  S178  1  0.53859232  0.26268638  0.36856480  1
  S2-  S179  1  0.59436823  0.27979257  0.82227697  1
  S2-  S180  1  0.65814733  0.48605952  0.35160365  1
  S2-  S181  1  0.63389827  0.50318760  0.84027156  1
  S2-  S182  1  0.72168948  0.73005915  0.35409981  1
  S2-  S183  1  0.69545762  0.77314559  0.86272685  1
  S2-  S184  1  0.95079513  -0.00357732  0.29900420  1
  S2-  S185  1  0.89160217  0.01154255  0.84465363  1
  S2-  S186  1  0.86107280  0.17040106  0.34894380  1
  S2-  S187  1  0.78513545  0.22396064  0.85364108  1
  S2-  S188  1  0.87827513  0.58897788  0.34938877  1
  S2-  S189  1  0.86298919  0.59094222  0.85541306  1
  S2-  S190  1  0.89404785  0.80249996  0.31339712  1
  S2-  S191  1  0.86722573  0.80937864  0.81346321  1
  S2-  S192  1  -0.00267185  0.11911386  0.44764240  1
  S2-  S193  1  -0.00177975  0.11571106  0.95463282  1
  S2-  S194  1  0.00625043  0.37067627  0.45461183  1
  S2-  S195  1  -0.00114331  0.36976217  0.95470640  1
  S2-  S196  1  0.00593492  0.62477321  0.44848991  1
  S2-  S197  1  -0.00151495  0.61628377  0.96400021  1
  S2-  S198  1  -0.00018151  0.87421954  0.42333964  1
  S2-  S199  1  -0.00239269  0.86733499  0.95723239  1
  S2-  S200  1  0.25645670  0.12183405  0.45442130  1
  S2-  S201  1  0.24271124  0.11596633  0.95543315  1
  S2-  S202  1  0.25947967  0.37430045  0.45380038  1
  S2-  S203  1  0.24510732  0.36984956  0.95519495  1
  S2-  S204  1  0.25825369  0.62259130  0.45278286  1
  S2-  S205  1  0.24869473  0.61370004  0.96282101  1
  S2-  S206  1  0.25732796  0.87693538  0.45356552  1
  S2-  S207  1  0.24967795  0.87386406  0.96355813  1
  S2-  S208  1  0.50929213  0.11828726  0.47018745  1
  S2-  S209  1  0.50042962  0.11819672  0.94483442  1
  S2-  S210  1  0.50618870  0.37966378  0.46941192  1
  S2-  S211  1  0.49865658  0.36254183  0.94104592  1
  S2-  S212  1  0.50761661  0.62535555  0.45443229  1
  S2-  S213  1  0.49646714  0.61703252  0.96001703  1
  S2-  S214  1  0.50584330  0.87278750  0.45906897  1
  S2-  S215  1  0.49692484  0.87029454  0.94798546  1
  S2-  S216  1  0.75358733  0.12310821  0.45607278  1
  S2-  S217  1  0.75012309  0.11188000  0.96274632  1
  S2-  S218  1  0.75532684  0.37400528  0.46217833  1
  S2-  S219  1  0.74512123  0.37014954  0.94603508  1
  S2-  S220  1  0.75606901  0.62176595  0.45732266  1
  S2-  S221  1  0.73849323  0.61688619  0.95806421  1
  S2-  S222  1  0.76050372  0.87418793  0.44708427  1
  S2-  S223  1  0.74588573  0.86859197  0.96416957  1
  S2-  S224  1  0.12043898  -0.00548880  0.04961322  1
  S2-  S225  1  0.12877853  -0.00392384  0.53820091  1
  S2-  S226  1  0.11540581  0.24374635  0.04201091  1
  S2-  S227  1  0.12929198  0.24570352  0.53941630  1
  S2-  S228  1  0.12810981  0.49253308  0.05301535  1
  S2-  S229  1  0.12843635  0.49844192  0.54910600  1
  S2-  S230  1  0.13117893  0.74843098  0.05031786  1
  S2-  S231  1  0.13132306  0.75033747  0.53393697  1
  S2-  S232  1  0.37621263  -0.00012680  0.03867297  1
  S2-  S233  1  0.37777586  -0.00642308  0.54575979  1
  S2-  S234  1  0.37231075  0.24336308  0.02969966  1
  S2-  S235  1  0.38216611  0.24850599  0.54843277  1
  S2-  S236  1  0.36809445  0.48705774  0.04570285  1
  S2-  S237  1  0.37444170  0.50135032  0.54403346  1
  S2-  S238  1  0.37207376  0.74647017  0.04305727  1
  S2-  S239  1  0.38036472  0.74866990  0.54898317  1
  S2-  S240  1  0.61605308  -0.00434782  0.04563193  1
  S2-  S241  1  0.63572632  -0.00569814  0.54800182  1
  S2-  S242  1  0.62434552  0.24041635  0.04047417  1
  S2-  S243  1  0.62948818  0.24996371  0.56288412  1
  S2-  S244  1  0.61605311  0.48781586  0.04258478  1
  S2-  S245  1  0.63396327  0.50597838  0.55461687  1
  S2-  S246  1  0.61624676  0.75137721  0.05178804  1
  S2-  S247  1  0.63420362  0.75013423  0.54378973  1
  S2-  S248  1  0.87605981  -0.00941338  0.04847495  1
  S2-  S249  1  0.88264169  -0.00494965  0.54440241  1
  S2-  S250  1  0.87143011  0.24715257  0.04366994  1
  S2-  S251  1  0.88006275  0.24509065  0.54649608  1
  S2-  S252  1  0.86418829  0.48843253  0.04056610  1
  S2-  S253  1  0.88183635  0.50379382  0.54232095  1
  S2-  S254  1  0.86692713  0.74301235  0.04612805  1
  S2-  S255  1  0.88234538  0.75288589  0.53735790  1
