# generated using pymatgen
data_La12Ce14Pr13Nd13Sm12(BiS2)64
_symmetry_space_group_name_H-M   'P 1'
_cell_length_a   16.12982299
_cell_length_b   16.15143543
_cell_length_c   27.20705720
_cell_angle_alpha   90.24447180
_cell_angle_beta   90.04544501
_cell_angle_gamma   90.05223565
_symmetry_Int_Tables_number   1
_chemical_formula_structural   La12Ce14Pr13Nd13Sm12(BiS2)64
_chemical_formula_sum   'La12 Ce14 Pr13 Nd13 Sm12 Bi64 S128'
_cell_volume   7087.90723204
_cell_formula_units_Z   1
loop_
 _symmetry_equiv_pos_site_id
 _symmetry_equiv_pos_as_xyz
  1  'x, y, z'
loop_
 _atom_type_symbol
 _atom_type_oxidation_number
  La3+  3.0
  Ce3+  3.0
  Pr3+  3.0
  Nd3+  3.0
  Sm3+  3.0
  Bi2+  2.0
  S2-  -2.0
loop_
 _atom_site_type_symbol
 _atom_site_label
 _atom_site_symmetry_multiplicity
 _atom_site_fract_x
 _atom_site_fract_y
 _atom_site_fract_z
 _atom_site_occupancy
  La3+  La0  1  0.62035205  0.51767484  0.91676494  1
  La3+  La1  1  0.13455634  0.47321577  0.41980753  1
  La3+  La2  1  0.25137365  0.35502782  0.55861706  1
  La3+  La3  1  0.01198712  0.11020057  0.59742844  1
  La3+  La4  1  0.37696614  -0.01782213  0.41005604  1
  La3+  La5  1  0.49458144  0.39312668  0.07637504  1
  La3+  La6  1  0.50028016  0.13278124  0.10964983  1
  La3+  La7  1  0.74589571  0.35691624  0.58054593  1
  La3+  La8  1  0.26419252  0.85153628  0.56934577  1
  La3+  La9  1  0.88464484  0.47900098  0.41912322  1
  La3+  La10  1  0.74183576  0.39199500  0.07288806  1
  La3+  La11  1  0.87876154  -0.01557524  0.43573252  1
  Ce3+  Ce12  1  0.37743792  0.50900191  0.94075704  1
  Ce3+  Ce13  1  0.38079651  0.26169984  0.94882344  1
  Ce3+  Ce14  1  0.50247406  0.63909180  0.06464632  1
  Ce3+  Ce15  1  0.62539802  0.76041642  0.94408986  1
  Ce3+  Ce16  1  0.37812468  0.48305395  0.43323397  1
  Ce3+  Ce17  1  0.12556466  0.76453352  0.93614236  1
  Ce3+  Ce18  1  0.00353465  0.88934235  0.05234315  1
  Ce3+  Ce19  1  0.25069786  0.89081724  0.06071799  1
  Ce3+  Ce20  1  0.50069841  0.10565997  0.55895440  1
  Ce3+  Ce21  1  0.12454085  0.25987747  0.94098219  1
  Ce3+  Ce22  1  0.12569413  0.50817990  0.93813754  1
  Ce3+  Ce23  1  0.25110141  0.63739956  0.05491109  1
  Ce3+  Ce24  1  0.62700759  0.01325246  0.94788430  1
  Ce3+  Ce25  1  0.87914593  0.23759288  0.44711896  1
  Pr3+  Pr26  1  0.62494647  0.23440536  0.43321759  1
  Pr3+  Pr27  1  0.50945375  0.60561587  0.55881442  1
  Pr3+  Pr28  1  0.00834672  0.63596465  0.06249594  1
  Pr3+  Pr29  1  0.75684120  0.14038554  0.07366174  1
  Pr3+  Pr30  1  0.25159564  0.38355829  0.06436985  1
  Pr3+  Pr31  1  0.37431603  0.76192195  0.94215069  1
  Pr3+  Pr32  1  0.62790417  0.26273372  0.94696914  1
  Pr3+  Pr33  1  0.37609249  0.73167559  0.42804856  1
  Pr3+  Pr34  1  0.37926377  0.01187507  0.93864314  1
  Pr3+  Pr35  1  0.86679355  0.25343275  0.91983771  1
  Pr3+  Pr36  1  0.63282830  -0.01714867  0.43264895  1
  Pr3+  Pr37  1  0.87464900  0.50855934  0.93813746  1
  Pr3+  Pr38  1  0.13003884  -0.01467305  0.43967589  1
  Nd3+  Nd39  1  0.63105250  0.47937876  0.43586377  1
  Nd3+  Nd40  1  0.75689947  0.85941167  0.56584957  1
  Nd3+  Nd41  1  -0.00007053  0.36818988  0.56813462  1
  Nd3+  Nd42  1  0.88117122  0.73087936  0.44407391  1
  Nd3+  Nd43  1  0.50752927  0.85901094  0.55203970  1
  Nd3+  Nd44  1  0.25640534  0.60856696  0.55873464  1
  Nd3+  Nd45  1  0.13547723  0.02079661  0.91517119  1
  Nd3+  Nd46  1  0.75411764  0.10967240  0.56380584  1
  Nd3+  Nd47  1  0.63015454  0.73168366  0.43768755  1
  Nd3+  Nd48  1  -0.00369985  0.38399945  0.05688043  1
  Nd3+  Nd49  1  0.38120220  0.22900677  0.43181897  1
  Nd3+  Nd50  1  0.25950716  0.09908563  0.56986571  1
  Nd3+  Nd51  1  0.87686361  0.75978079  0.94190376  1
  Sm3+  Sm52  1  -0.00248509  0.13752649  0.05999951  1
  Sm3+  Sm53  1  0.25342474  0.13428986  0.06107765  1
  Sm3+  Sm54  1  0.50105555  0.35648716  0.56069449  1
  Sm3+  Sm55  1  0.00324803  0.60360728  0.55216741  1
  Sm3+  Sm56  1  0.75657866  0.60482261  0.55195095  1
  Sm3+  Sm57  1  0.87670502  0.01298424  0.94007889  1
  Sm3+  Sm58  1  0.75300474  0.88719509  0.05441751  1
  Sm3+  Sm59  1  0.75242355  0.63521108  0.06145297  1
  Sm3+  Sm60  1  0.12599757  0.22931357  0.44455630  1
  Sm3+  Sm61  1  0.13087043  0.73339212  0.44344145  1
  Sm3+  Sm62  1  0.50216517  0.88827050  0.06546420  1
  Sm3+  Sm63  1  0.00596675  0.86270845  0.55904062  1
  Bi2+  Bi64  1  -0.00847781  0.12011890  0.35165499  1
  Bi2+  Bi65  1  0.00545211  0.15336802  0.79231594  1
  Bi2+  Bi66  1  0.00726485  0.37381455  0.28972566  1
  Bi2+  Bi67  1  0.05627332  0.38322036  0.75129163  1
  Bi2+  Bi68  1  -0.06018510  0.63295065  0.28662509  1
  Bi2+  Bi69  1  -0.03013380  0.63352025  0.77558797  1
  Bi2+  Bi70  1  -0.00233774  0.94245939  0.30415609  1
  Bi2+  Bi71  1  -0.00810588  0.88516978  0.74581383  1
  Bi2+  Bi72  1  0.17218845  0.11010848  0.30138931  1
  Bi2+  Bi73  1  0.28666102  0.15217820  0.79402279  1
  Bi2+  Bi74  1  0.20830393  0.36216942  0.26988158  1
  Bi2+  Bi75  1  0.24900768  0.40725974  0.80806100  1
  Bi2+  Bi76  1  0.23351758  0.61892571  0.28758215  1
  Bi2+  Bi77  1  0.26289822  0.60968063  0.78838497  1
  Bi2+  Bi78  1  0.24665052  0.85181926  0.28155787  1
  Bi2+  Bi79  1  0.23592131  0.86393591  0.80729818  1
  Bi2+  Bi80  1  0.50117643  0.13595883  0.30152799  1
  Bi2+  Bi81  1  0.49714149  0.12193331  0.79818804  1
  Bi2+  Bi82  1  0.45644550  0.42681280  0.30003537  1
  Bi2+  Bi83  1  0.43984252  0.39382783  0.78170186  1
  Bi2+  Bi84  1  0.42866214  0.61997138  0.30780102  1
  Bi2+  Bi85  1  0.46476300  0.66416742  0.79850545  1
  Bi2+  Bi86  1  0.51644096  0.84777665  0.28810287  1
  Bi2+  Bi87  1  0.53325815  0.92774134  0.77766468  1
  Bi2+  Bi88  1  0.76854221  0.10019792  0.28538474  1
  Bi2+  Bi89  1  0.75228808  0.08833179  0.78429396  1
  Bi2+  Bi90  1  0.75395490  0.38164645  0.30547008  1
  Bi2+  Bi91  1  0.78996002  0.37536934  0.79686620  1
  Bi2+  Bi92  1  0.68532871  0.66895294  0.24373261  1
  Bi2+  Bi93  1  0.76032119  0.62404789  0.80089643  1
  Bi2+  Bi94  1  0.76814824  0.83909750  0.29398225  1
  Bi2+  Bi95  1  0.80026572  0.87589452  0.79123783  1
  Bi2+  Bi96  1  0.10604901  0.00803587  0.20943490  1
  Bi2+  Bi97  1  0.13629560  0.01294088  0.71389154  1
  Bi2+  Bi98  1  0.12055459  0.20824277  0.20675136  1
  Bi2+  Bi99  1  0.20789744  0.27232298  0.71979465  1
  Bi2+  Bi100  1  0.10734283  0.52500350  0.19947154  1
  Bi2+  Bi101  1  0.14050795  0.54076236  0.70090639  1
  Bi2+  Bi102  1  0.03028576  0.78746476  0.23393711  1
  Bi2+  Bi103  1  0.11520694  0.73161278  0.72610738  1
  Bi2+  Bi104  1  0.35145562  -0.01796393  0.21379238  1
  Bi2+  Bi105  1  0.38726817  -0.01907895  0.70637824  1
  Bi2+  Bi106  1  0.33210357  0.24461933  0.22113603  1
  Bi2+  Bi107  1  0.42883244  0.24185938  0.70831690  1
  Bi2+  Bi108  1  0.36239441  0.50943074  0.21034839  1
  Bi2+  Bi109  1  0.34690037  0.50568760  0.70209724  1
  Bi2+  Bi110  1  0.36606484  0.72865780  0.21590912  1
  Bi2+  Bi111  1  0.37727714  0.73431751  0.70704020  1
  Bi2+  Bi112  1  0.63351542  -0.07401489  0.21245037  1
  Bi2+  Bi113  1  0.57892505  0.03478147  0.68014613  1
  Bi2+  Bi114  1  0.67026718  0.25224387  0.21281090  1
  Bi2+  Bi115  1  0.62645300  0.21024711  0.72779876  1
  Bi2+  Bi116  1  0.60989292  0.49718705  0.21575726  1
  Bi2+  Bi117  1  0.60706773  0.51165242  0.70505144  1
  Bi2+  Bi118  1  0.54894577  0.75647076  0.17807109  1
  Bi2+  Bi119  1  0.64226954  0.76887564  0.75492127  1
  Bi2+  Bi120  1  0.89407641  0.01214597  0.21223433  1
  Bi2+  Bi121  1  0.76442478  -0.02386388  0.68820638  1
  Bi2+  Bi122  1  0.93010532  0.20015442  0.24671813  1
  Bi2+  Bi123  1  0.87557350  0.25623238  0.70300982  1
  Bi2+  Bi124  1  0.87023565  0.46399312  0.19418100  1
  Bi2+  Bi125  1  0.86318849  0.57121863  0.68615908  1
  Bi2+  Bi126  1  0.84535793  0.75448921  0.19952433  1
  Bi2+  Bi127  1  0.85442941  0.77542115  0.69243706  1
  S2-  S128  1  -0.10264528  0.12989902  0.14052319  1
  S2-  S129  1  -0.05809618  0.11150966  0.69567165  1
  S2-  S130  1  0.02077697  0.39366210  0.15576714  1
  S2-  S131  1  0.01784988  0.29864586  0.66037317  1
  S2-  S132  1  -0.02852944  0.60667229  0.15981595  1
  S2-  S133  1  0.00743763  0.51195787  0.63462155  1
  S2-  S134  1  0.03038449  0.87832471  0.14895424  1
  S2-  S135  1  0.02140727  0.94049700  0.64621942  1
  S2-  S136  1  0.32629398  0.11965306  0.15091816  1
  S2-  S137  1  0.16260404  0.13750835  0.65269738  1
  S2-  S138  1  0.34815083  0.37293528  0.14885710  1
  S2-  S139  1  0.32010569  0.35601881  0.65156026  1
  S2-  S140  1  0.19501200  0.62623567  0.14669722  1
  S2-  S141  1  0.25720783  0.71498482  0.63924535  1
  S2-  S142  1  0.27386117  0.87245113  0.15865560  1
  S2-  S143  1  0.24567943  0.94949247  0.65349709  1
  S2-  S144  1  0.49659787  0.21104797  0.20603754  1
  S2-  S145  1  0.39373226  0.11605444  0.63891883  1
  S2-  S146  1  0.60720784  0.37036321  0.15277692  1
  S2-  S147  1  0.58830752  0.38822874  0.64496145  1
  S2-  S148  1  0.49523326  0.53925998  0.14490051  1
  S2-  S149  1  0.48183610  0.60534006  0.65907376  1
  S2-  S150  1  0.48905415  0.97267444  0.15247992  1
  S2-  S151  1  0.43778653  0.84850966  0.64372758  1
  S2-  S152  1  0.66171725  0.12097359  0.15842374  1
  S2-  S153  1  0.73955980  0.21171132  0.64518465  1
  S2-  S154  1  0.80692447  0.32629512  0.16157369  1
  S2-  S155  1  0.81167280  0.41682003  0.67126409  1
  S2-  S156  1  0.75001779  0.53865969  0.14405262  1
  S2-  S157  1  0.69876872  0.59571894  0.64552646  1
  S2-  S158  1  0.76728962  0.89129415  0.15239956  1
  S2-  S159  1  0.69161011  0.82064151  0.65588379  1
  S2-  S160  1  0.22066713  -0.03000362  0.35263875  1
  S2-  S161  1  0.09255152  -0.06591162  0.83139875  1
  S2-  S162  1  0.12690073  0.31689600  0.35716456  1
  S2-  S163  1  0.13127830  0.16930450  0.85590916  1
  S2-  S164  1  0.02449901  0.51429727  0.34426316  1
  S2-  S165  1  0.10190637  0.46643762  0.84409228  1
  S2-  S166  1  0.16445926  0.73485594  0.34601426  1
  S2-  S167  1  0.15342276  0.72453876  0.84240940  1
  S2-  S168  1  0.35795430  0.12709353  0.34747028  1
  S2-  S169  1  0.28806273  0.01170436  0.85176592  1
  S2-  S170  1  0.49951068  0.27031311  0.35582850  1
  S2-  S171  1  0.40173497  0.25235442  0.85096270  1
  S2-  S172  1  0.27427156  0.48197188  0.35274139  1
  S2-  S173  1  0.46707217  0.51319214  0.85677951  1
  S2-  S174  1  0.37853679  0.83673395  0.34682903  1
  S2-  S175  1  0.39227107  0.79767145  0.84401451  1
  S2-  S176  1  0.53206860  -0.00881735  0.34795883  1
  S2-  S177  1  0.63052498  0.02102433  0.84939931  1
  S2-  S178  1  0.69882604  0.21771900  0.33776951  1
  S2-  S179  1  0.72126625  0.27024987  0.85924477  1
  S2-  S180  1  0.60907267  0.46999979  0.33594244  1
  S2-  S181  1  0.66954786  0.47873712  0.81630411  1
  S2-  S182  1  0.63712715  0.73931884  0.33844525  1
  S2-  S183  1  0.62222260  0.68126708  0.85732949  1
  S2-  S184  1  0.76001551  -0.02878824  0.35839222  1
  S2-  S185  1  0.87682364  0.09478825  0.85337931  1
  S2-  S186  1  0.88332139  0.32934254  0.36181462  1
  S2-  S187  1  0.94472896  0.29271099  0.82858237  1
  S2-  S188  1  0.81574741  0.52892854  0.32628272  1
  S2-  S189  1  0.87821403  0.51304365  0.83678251  1
  S2-  S190  1  0.89979938  0.75469488  0.34647563  1
  S2-  S191  1  0.88501820  0.74625359  0.84286914  1
  S2-  S192  1  0.00350872  0.10827978  0.46212184  1
  S2-  S193  1  0.00269331  0.13275239  0.95592583  1
  S2-  S194  1  0.00781762  0.35791804  0.46093981  1
  S2-  S195  1  -0.00131208  0.38178894  0.95082338  1
  S2-  S196  1  0.00769335  0.60969179  0.44999247  1
  S2-  S197  1  0.00236800  0.63537191  0.95190406  1
  S2-  S198  1  0.00515996  0.85721799  0.45378362  1
  S2-  S199  1  -0.00002041  0.89019800  0.94601867  1
  S2-  S200  1  0.25128953  0.11072494  0.45918865  1
  S2-  S201  1  0.25461400  0.13807733  0.95808110  1
  S2-  S202  1  0.25852114  0.35084666  0.45286064  1
  S2-  S203  1  0.25164957  0.38353682  0.95640521  1
  S2-  S204  1  0.25280963  0.61007060  0.45335647  1
  S2-  S205  1  0.25082237  0.63405168  0.94859161  1
  S2-  S206  1  0.25287372  0.85355777  0.45836099  1
  S2-  S207  1  0.24753350  0.88929533  0.95395606  1
  S2-  S208  1  0.50456932  0.10416614  0.45431113  1
  S2-  S209  1  0.50312893  0.13575655  0.94998722  1
  S2-  S210  1  0.50150353  0.36351987  0.45804916  1
  S2-  S211  1  0.50372214  0.38797617  0.95895874  1
  S2-  S212  1  0.50589719  0.60622052  0.44831436  1
  S2-  S213  1  0.49830221  0.63938887  0.95944140  1
  S2-  S214  1  0.50671969  0.85514726  0.44771777  1
  S2-  S215  1  0.50253122  0.88603363  0.95689001  1
  S2-  S216  1  0.75459112  0.11214571  0.45797195  1
  S2-  S217  1  0.75206269  0.13253069  0.96134303  1
  S2-  S218  1  0.74967252  0.35667814  0.45804027  1
  S2-  S219  1  0.74747331  0.39358323  0.95795900  1
  S2-  S220  1  0.75502532  0.60713739  0.44700269  1
  S2-  S221  1  0.75240671  0.63642005  0.95639605  1
  S2-  S222  1  0.75638855  0.85240540  0.45830090  1
  S2-  S223  1  0.75354451  0.88613964  0.94902009  1
  S2-  S224  1  0.12592467  0.01727517  0.04917431  1
  S2-  S225  1  0.12989063  -0.01749598  0.54509987  1
  S2-  S226  1  0.12625049  0.25747486  0.05035525  1
  S2-  S227  1  0.12492768  0.23375593  0.54784464  1
  S2-  S228  1  0.12656602  0.50604973  0.04461928  1
  S2-  S229  1  0.13393106  0.48599336  0.53782522  1
  S2-  S230  1  0.12770316  0.76384103  0.04344258  1
  S2-  S231  1  0.12137623  0.73178560  0.54768503  1
  S2-  S232  1  0.37842706  0.01081523  0.04494276  1
  S2-  S233  1  0.38303710  -0.02034841  0.53867076  1
  S2-  S234  1  0.38163530  0.25305442  0.05238865  1
  S2-  S235  1  0.38077920  0.23514518  0.53978758  1
  S2-  S236  1  0.37062791  0.51380574  0.04463910  1
  S2-  S237  1  0.38047663  0.48380404  0.54323938  1
  S2-  S238  1  0.37631558  0.76480349  0.05041834  1
  S2-  S239  1  0.38762622  0.72810471  0.53557293  1
  S2-  S240  1  0.62783116  0.00760895  0.05188741  1
  S2-  S241  1  0.63349994  -0.01833892  0.54356906  1
  S2-  S242  1  0.62209977  0.25528246  0.05219365  1
  S2-  S243  1  0.62169687  0.23255637  0.54327434  1
  S2-  S244  1  0.62456914  0.52028064  0.04079038  1
  S2-  S245  1  0.63111223  0.48244926  0.54022572  1
  S2-  S246  1  0.63084940  0.76327035  0.04948665  1
  S2-  S247  1  0.63306303  0.73143945  0.54335070  1
  S2-  S248  1  0.87670559  0.00850843  0.04313438  1
  S2-  S249  1  0.88036899  -0.01486258  0.54834422  1
  S2-  S250  1  0.87688538  0.26179389  0.03838680  1
  S2-  S251  1  0.88385534  0.23215474  0.55331566  1
  S2-  S252  1  0.87943806  0.51434001  0.04457589  1
  S2-  S253  1  0.87452151  0.48396960  0.53689583  1
  S2-  S254  1  0.87722394  0.76060390  0.04845924  1
  S2-  S255  1  0.88210193  0.73133462  0.55042544  1
