# generated using pymatgen
data_La12Ce14Pr13Nd13Sm12(BiS2)64
_symmetry_space_group_name_H-M   'P 1'
_cell_length_a   16.16052293
_cell_length_b   16.16522119
_cell_length_c   27.15624712
_cell_angle_alpha   90.17430687
_cell_angle_beta   90.07632241
_cell_angle_gamma   90.11935513
_symmetry_Int_Tables_number   1
_chemical_formula_structural   La12Ce14Pr13Nd13Sm12(BiS2)64
_chemical_formula_sum   'La12 Ce14 Pr13 Nd13 Sm12 Bi64 S128'
_cell_volume   7094.20072159
_cell_formula_units_Z   1
loop_
 _symmetry_equiv_pos_site_id
 _symmetry_equiv_pos_as_xyz
  1  'x, y, z'
loop_
 _atom_type_symbol
 _atom_type_oxidation_number
  La3+  3.0
  Ce3+  3.0
  Pr3+  3.0
  Nd3+  3.0
  Sm3+  3.0
  Bi2+  2.0
  S2-  -2.0
loop_
 _atom_site_type_symbol
 _atom_site_label
 _atom_site_symmetry_multiplicity
 _atom_site_fract_x
 _atom_site_fract_y
 _atom_site_fract_z
 _atom_site_occupancy
  La3+  La0  1  0.11490845  0.00554101  0.92634345  1
  La3+  La1  1  0.37682992  0.25309838  0.38164283  1
  La3+  La2  1  0.11852830  0.52163531  0.43006339  1
  La3+  La3  1  0.74307100  0.39202931  0.07669866  1
  La3+  La4  1  0.62637030  0.26104897  0.42926841  1
  La3+  La5  1  0.37687997  0.50904154  0.43410880  1
  La3+  La6  1  -0.00163642  0.62355065  0.07374003  1
  La3+  La7  1  0.48598054  0.38859230  0.08059898  1
  La3+  La8  1  0.86182583  0.76623745  0.41450036  1
  La3+  La9  1  0.75534024  0.62207253  0.60688809  1
  La3+  La10  1  0.50020748  0.38753517  0.56401004  1
  La3+  La11  1  0.36283783  0.49716616  0.89529924  1
  Ce3+  Ce12  1  0.12238312  0.76233262  0.44624032  1
  Ce3+  Ce13  1  0.74243402  0.13039330  0.06125532  1
  Ce3+  Ce14  1  0.37256125  0.00648971  0.43060582  1
  Ce3+  Ce15  1  0.36899947  0.25601296  0.94404199  1
  Ce3+  Ce16  1  0.12163515  0.25440670  0.94844604  1
  Ce3+  Ce17  1  0.49208400  0.87361503  0.06087929  1
  Ce3+  Ce18  1  0.74669922  0.87855659  0.56647713  1
  Ce3+  Ce19  1  -0.00782611  0.88314720  0.55792464  1
  Ce3+  Ce20  1  0.12105748  0.50513552  0.93583952  1
  Ce3+  Ce21  1  0.49525401  0.12830508  0.05593760  1
  Ce3+  Ce22  1  0.87198430  0.25721182  0.42776898  1
  Ce3+  Ce23  1  0.24341395  0.88101894  0.05594624  1
  Ce3+  Ce24  1  0.11983561  0.75085098  0.94399256  1
  Ce3+  Ce25  1  -0.00398464  0.88151036  0.06139230  1
  Pr3+  Pr26  1  0.24721289  0.38690841  0.55720181  1
  Pr3+  Pr27  1  0.62112684  0.75933334  0.44526952  1
  Pr3+  Pr28  1  0.87067303  0.75083204  0.93994432  1
  Pr3+  Pr29  1  0.87008244  0.51309287  0.44020712  1
  Pr3+  Pr30  1  0.36641583  -0.00011507  0.92455151  1
  Pr3+  Pr31  1  0.37453547  0.75874918  0.43722941  1
  Pr3+  Pr32  1  0.86889939  0.25484429  0.94724534  1
  Pr3+  Pr33  1  0.36854906  0.75384352  0.93027493  1
  Pr3+  Pr34  1  0.61617685  0.49394216  0.93250513  1
  Pr3+  Pr35  1  0.87045413  0.50369917  0.93505341  1
  Pr3+  Pr36  1  0.24783070  0.89300615  0.56770918  1
  Pr3+  Pr37  1  0.49727120  0.88884177  0.56942046  1
  Pr3+  Pr38  1  0.24858424  0.63679247  0.56433038  1
  Nd3+  Nd39  1  -0.00370675  0.38541991  0.55141427  1
  Nd3+  Nd40  1  0.12585772  0.26022319  0.43403740  1
  Nd3+  Nd41  1  0.49498828  0.13677044  0.55065416  1
  Nd3+  Nd42  1  0.61708427  0.74920683  0.93086403  1
  Nd3+  Nd43  1  -0.00542847  0.13079136  0.06543758  1
  Nd3+  Nd44  1  0.12228366  0.00930197  0.44163575  1
  Nd3+  Nd45  1  -0.00444565  0.13651724  0.56019153  1
  Nd3+  Nd46  1  0.61712969  0.25586181  0.94631714  1
  Nd3+  Nd47  1  0.74394198  0.63187908  0.05567244  1
  Nd3+  Nd48  1  0.62061460  0.00716913  0.43634904  1
  Nd3+  Nd49  1  -0.00810569  0.63638497  0.55978635  1
  Nd3+  Nd50  1  0.61987893  0.00234100  0.94368898  1
  Nd3+  Nd51  1  0.49706791  0.64311169  0.57685315  1
  Sm3+  Sm52  1  -0.00402509  0.38012156  0.05424350  1
  Sm3+  Sm53  1  0.87121889  0.00820051  0.44432293  1
  Sm3+  Sm54  1  0.24763083  0.62827235  0.05650782  1
  Sm3+  Sm55  1  0.74558341  0.13298503  0.55953733  1
  Sm3+  Sm56  1  0.87221653  0.00471573  0.93984032  1
  Sm3+  Sm57  1  0.24599910  0.38432409  0.06082562  1
  Sm3+  Sm58  1  0.74802241  0.87825003  0.05412042  1
  Sm3+  Sm59  1  0.24862131  0.13696208  0.55237267  1
  Sm3+  Sm60  1  0.75004061  0.37250614  0.56107327  1
  Sm3+  Sm61  1  0.24535454  0.12750637  0.05882057  1
  Sm3+  Sm62  1  0.62507230  0.51291592  0.44845114  1
  Sm3+  Sm63  1  0.49371763  0.63131488  0.05817943  1
  Bi2+  Bi64  1  -0.00326337  0.15950806  0.32630315  1
  Bi2+  Bi65  1  0.01421078  0.14928419  0.79944667  1
  Bi2+  Bi66  1  0.00018603  0.34204649  0.28640912  1
  Bi2+  Bi67  1  -0.01786164  0.36607243  0.79295836  1
  Bi2+  Bi68  1  0.00357400  0.58470223  0.30083291  1
  Bi2+  Bi69  1  -0.02050403  0.58452780  0.82382976  1
  Bi2+  Bi70  1  0.00019595  0.94992913  0.28904976  1
  Bi2+  Bi71  1  -0.00726696  0.91701619  0.76627358  1
  Bi2+  Bi72  1  0.24561357  0.05780607  0.26362964  1
  Bi2+  Bi73  1  0.28047330  0.10905337  0.76762385  1
  Bi2+  Bi74  1  0.25168915  0.37419749  0.27975993  1
  Bi2+  Bi75  1  0.24298934  0.30098326  0.77657945  1
  Bi2+  Bi76  1  0.28076678  0.67635246  0.29173103  1
  Bi2+  Bi77  1  0.23759683  0.62680600  0.78734434  1
  Bi2+  Bi78  1  0.30686609  0.86873365  0.32629573  1
  Bi2+  Bi79  1  0.25716933  0.87672415  0.79362442  1
  Bi2+  Bi80  1  0.51809528  0.06728524  0.29582970  1
  Bi2+  Bi81  1  0.47078963  0.14092439  0.79943401  1
  Bi2+  Bi82  1  0.51377370  0.38661574  0.28394632  1
  Bi2+  Bi83  1  0.50129882  0.33230329  0.79417037  1
  Bi2+  Bi84  1  0.50979886  0.69520770  0.28602043  1
  Bi2+  Bi85  1  0.50668859  0.63505152  0.78116964  1
  Bi2+  Bi86  1  0.50434410  0.87852514  0.33674464  1
  Bi2+  Bi87  1  0.48869191  0.95161911  0.77316454  1
  Bi2+  Bi88  1  0.80884139  0.14052595  0.29425841  1
  Bi2+  Bi89  1  0.73641817  0.10234395  0.80460055  1
  Bi2+  Bi90  1  0.79523732  0.37031680  0.26545908  1
  Bi2+  Bi91  1  0.71716492  0.29007782  0.77654186  1
  Bi2+  Bi92  1  0.73809470  0.60226775  0.31054257  1
  Bi2+  Bi93  1  0.74520742  0.64871585  0.80812381  1
  Bi2+  Bi94  1  0.72801437  0.89673187  0.29700700  1
  Bi2+  Bi95  1  0.75309470  0.90967837  0.78424606  1
  Bi2+  Bi96  1  0.13169132  -0.05764952  0.19467060  1
  Bi2+  Bi97  1  0.11900748  -0.00006198  0.69688727  1
  Bi2+  Bi98  1  0.11786564  0.19469018  0.22808326  1
  Bi2+  Bi99  1  0.08664180  0.27891742  0.70712123  1
  Bi2+  Bi100  1  0.10784805  0.47458668  0.22525947  1
  Bi2+  Bi101  1  0.07586356  0.50890950  0.73122698  1
  Bi2+  Bi102  1  0.13626257  0.80347807  0.27728472  1
  Bi2+  Bi103  1  0.07835292  0.71239287  0.75160054  1
  Bi2+  Bi104  1  0.39368985  -0.06419211  0.22541144  1
  Bi2+  Bi105  1  0.37972913  -0.02275025  0.68149724  1
  Bi2+  Bi106  1  0.38961283  0.22639785  0.17955446  1
  Bi2+  Bi107  1  0.38487568  0.23984597  0.70527254  1
  Bi2+  Bi108  1  0.35313324  0.53551333  0.19603029  1
  Bi2+  Bi109  1  0.37605053  0.48533744  0.68938498  1
  Bi2+  Bi110  1  0.37885821  0.73488159  0.19807363  1
  Bi2+  Bi111  1  0.34947336  0.77506264  0.71345328  1
  Bi2+  Bi112  1  0.59301825  -0.05475438  0.21821276  1
  Bi2+  Bi113  1  0.67101895  -0.00688434  0.67023061  1
  Bi2+  Bi114  1  0.63771529  0.21087808  0.20211274  1
  Bi2+  Bi115  1  0.62636467  0.17392626  0.70280772  1
  Bi2+  Bi116  1  0.61846236  0.56613454  0.22192980  1
  Bi2+  Bi117  1  0.62660163  0.46307448  0.71145503  1
  Bi2+  Bi118  1  0.64709084  0.75757720  0.20593425  1
  Bi2+  Bi119  1  0.61419578  0.82568727  0.71563653  1
  Bi2+  Bi120  1  0.86426897  0.01151697  0.21286121  1
  Bi2+  Bi121  1  0.85056222  0.03446925  0.71556510  1
  Bi2+  Bi122  1  0.92729219  0.21886845  0.20568043  1
  Bi2+  Bi123  1  0.88626283  0.23737763  0.71046785  1
  Bi2+  Bi124  1  0.87444080  0.51002624  0.20159941  1
  Bi2+  Bi125  1  0.87601525  0.49863040  0.71415581  1
  Bi2+  Bi126  1  0.88953620  0.76711947  0.21611376  1
  Bi2+  Bi127  1  0.89435343  0.76952679  0.71362270  1
  S2-  S128  1  0.00547214  0.07510727  0.15936811  1
  S2-  S129  1  0.02566784  0.13150021  0.65859111  1
  S2-  S130  1  0.00356863  0.42945499  0.14783964  1
  S2-  S131  1  0.00043416  0.40493166  0.65047722  1
  S2-  S132  1  -0.02784075  0.64527412  0.17375380  1
  S2-  S133  1  -0.08133984  0.63395767  0.65086170  1
  S2-  S134  1  -0.00267892  0.84417136  0.15759161  1
  S2-  S135  1  -0.00489720  0.88398867  0.65645515  1
  S2-  S136  1  0.24279744  0.13486978  0.15771646  1
  S2-  S137  1  0.24464444  0.07449503  0.64453678  1
  S2-  S138  1  0.32697726  0.38137812  0.14818860  1
  S2-  S139  1  0.25496597  0.39715888  0.65825845  1
  S2-  S140  1  0.21947318  0.59944094  0.15309060  1
  S2-  S141  1  0.29480385  0.62911155  0.66174553  1
  S2-  S142  1  0.27202038  0.86549791  0.15236917  1
  S2-  S143  1  0.22630229  0.85681516  0.66670491  1
  S2-  S144  1  0.51359743  0.11564890  0.15356420  1
  S2-  S145  1  0.47506882  0.11757503  0.65040059  1
  S2-  S146  1  0.53477121  0.32875606  0.17803161  1
  S2-  S147  1  0.50338686  0.36244656  0.66451593  1
  S2-  S148  1  0.50229533  0.53516744  0.14302706  1
  S2-  S149  1  0.52981073  0.57473106  0.66928981  1
  S2-  S150  1  0.50847577  0.75612815  0.13220671  1
  S2-  S151  1  0.49225610  0.77905250  0.64850361  1
  S2-  S152  1  0.74807433  0.09481763  0.15670157  1
  S2-  S153  1  0.76235717  0.23461388  0.63920581  1
  S2-  S154  1  0.74912892  0.32985910  0.17199397  1
  S2-  S155  1  0.76092175  0.44860143  0.64874828  1
  S2-  S156  1  0.74550200  0.54546828  0.14306389  1
  S2-  S157  1  0.72979135  0.60000433  0.71437978  1
  S2-  S158  1  0.76942596  0.83400064  0.14870976  1
  S2-  S159  1  0.75626535  0.78617273  0.65151301  1
  S2-  S160  1  0.12667613  0.02812599  0.34236982  1
  S2-  S161  1  0.23406962  0.01224669  0.85105517  1
  S2-  S162  1  0.20929335  0.26278068  0.34640627  1
  S2-  S163  1  0.13451494  0.23047982  0.85177465  1
  S2-  S164  1  0.14814997  0.48757432  0.33176826  1
  S2-  S165  1  0.20364059  0.50102120  0.84890017  1
  S2-  S166  1  0.11181785  0.68668824  0.35872041  1
  S2-  S167  1  0.14367206  0.77386093  0.84736437  1
  S2-  S168  1  0.36449840  0.08865310  0.34354420  1
  S2-  S169  1  0.39200382  -0.12624834  0.85222765  1
  S2-  S170  1  0.38546575  0.26799930  0.27060731  1
  S2-  S171  1  0.36035356  0.33058566  0.85616580  1
  S2-  S172  1  0.38352037  0.42160007  0.34446604  1
  S2-  S173  1  0.42538215  0.48637612  0.79064276  1
  S2-  S174  1  0.39763914  0.63829720  0.36237137  1
  S2-  S175  1  0.37442444  0.65493362  0.84569994  1
  S2-  S176  1  0.67178388  0.05074965  0.34351545  1
  S2-  S177  1  0.62319968  -0.01496471  0.84467305  1
  S2-  S178  1  0.54378342  0.26176246  0.33992562  1
  S2-  S179  1  0.63280142  0.34777295  0.86261619  1
  S2-  S180  1  0.62095676  0.49731754  0.34764326  1
  S2-  S181  1  0.61122444  0.55454199  0.83548751  1
  S2-  S182  1  0.70600504  0.75929575  0.35458788  1
  S2-  S183  1  0.60971196  0.75359411  0.83076897  1
  S2-  S184  1  0.86691345  -0.07947647  0.35806432  1
  S2-  S185  1  0.97605490  0.00551991  0.85978052  1
  S2-  S186  1  0.75938275  0.27427997  0.35384826  1
  S2-  S187  1  0.89613370  0.24570814  0.84769927  1
  S2-  S188  1  0.86561178  0.49566684  0.33886930  1
  S2-  S189  1  0.82606549  0.50069947  0.83703603  1
  S2-  S190  1  0.89774547  0.70550661  0.31629072  1
  S2-  S191  1  0.88673621  0.73596705  0.84006974  1
  S2-  S192  1  -0.00297560  0.13252793  0.45359000  1
  S2-  S193  1  -0.00635855  0.13138490  0.95971093  1
  S2-  S194  1  -0.00163858  0.38500949  0.44406837  1
  S2-  S195  1  -0.00331235  0.37881531  0.94974915  1
  S2-  S196  1  -0.01142408  0.64314308  0.45432632  1
  S2-  S197  1  -0.00392949  0.62729550  0.95998895  1
  S2-  S198  1  -0.00289408  0.88457979  0.45189318  1
  S2-  S199  1  -0.00667979  0.87623965  0.95492062  1
  S2-  S200  1  0.24688417  0.13394705  0.44987381  1
  S2-  S201  1  0.24651246  0.12935148  0.95447382  1
  S2-  S202  1  0.24080127  0.39196831  0.45094437  1
  S2-  S203  1  0.24404640  0.38038409  0.95684373  1
  S2-  S204  1  0.24743657  0.63760326  0.45718465  1
  S2-  S205  1  0.24460753  0.62724104  0.95115272  1
  S2-  S206  1  0.24593762  0.88525969  0.45769659  1
  S2-  S207  1  0.24079002  0.87899424  0.95243135  1
  S2-  S208  1  0.49619352  0.13382501  0.44566655  1
  S2-  S209  1  0.49433742  0.12679238  0.94841720  1
  S2-  S210  1  0.50309549  0.38770615  0.45584340  1
  S2-  S211  1  0.49045457  0.37753584  0.96119668  1
  S2-  S212  1  0.50204511  0.63428833  0.46726235  1
  S2-  S213  1  0.49492339  0.62594025  0.95092319  1
  S2-  S214  1  0.49696966  0.88502945  0.46154602  1
  S2-  S215  1  0.49856992  0.87794082  0.95482077  1
  S2-  S216  1  0.75069333  0.13061724  0.45534296  1
  S2-  S217  1  0.74500832  0.12760691  0.95305582  1
  S2-  S218  1  0.74820613  0.38887099  0.45667164  1
  S2-  S219  1  0.74803339  0.37965192  0.96409871  1
  S2-  S220  1  0.74710309  0.63500677  0.45078402  1
  S2-  S221  1  0.74280719  0.62686288  0.94912976  1
  S2-  S222  1  0.74493098  0.88835672  0.46008047  1
  S2-  S223  1  0.74716546  0.87961181  0.94756053  1
  S2-  S224  1  0.11936925  0.00764128  0.04321926  1
  S2-  S225  1  0.11838150  0.01115788  0.54696114  1
  S2-  S226  1  0.12191189  0.25604578  0.05653093  1
  S2-  S227  1  0.12226999  0.25848910  0.54366437  1
  S2-  S228  1  0.12225252  0.50256723  0.04394407  1
  S2-  S229  1  0.11909178  0.51383783  0.54472717  1
  S2-  S230  1  0.12065695  0.75195275  0.05170947  1
  S2-  S231  1  0.12085563  0.76054876  0.55410387  1
  S2-  S232  1  0.36942397  0.00442703  0.04365917  1
  S2-  S233  1  0.37166383  0.01193989  0.53963333  1
  S2-  S234  1  0.36774307  0.25242549  0.04882353  1
  S2-  S235  1  0.37015676  0.25972241  0.55169549  1
  S2-  S236  1  0.36597574  0.50915851  0.04525515  1
  S2-  S237  1  0.37418866  0.51328580  0.54827468  1
  S2-  S238  1  0.36540515  0.75390111  0.03883511  1
  S2-  S239  1  0.36885714  0.76454649  0.54650100  1
  S2-  S240  1  0.62116295  -0.00179672  0.05000440  1
  S2-  S241  1  0.62128443  0.01204242  0.54428089  1
  S2-  S242  1  0.61905725  0.25724620  0.05219047  1
  S2-  S243  1  0.62249556  0.25673220  0.54249892  1
  S2-  S244  1  0.61801618  0.50826603  0.04105763  1
  S2-  S245  1  0.63031274  0.51260512  0.55374788  1
  S2-  S246  1  0.62613514  0.75586343  0.03728081  1
  S2-  S247  1  0.62368692  0.75847302  0.55150936  1
  S2-  S248  1  0.86956756  0.00461964  0.04547000  1
  S2-  S249  1  0.87046119  0.01162587  0.55068199  1
  S2-  S250  1  0.87071440  0.25738675  0.05520485  1
  S2-  S251  1  0.87552198  0.25857480  0.53662098  1
  S2-  S252  1  0.87392228  0.50473905  0.04304736  1
  S2-  S253  1  0.87141018  0.50829119  0.54602473  1
  S2-  S254  1  0.87243653  0.75200159  0.04682020  1
  S2-  S255  1  0.87029372  0.75935417  0.54421064  1
