# generated using pymatgen
data_La12Ce14Pr13Nd13Sm12(BiS2)64
_symmetry_space_group_name_H-M   'P 1'
_cell_length_a   16.18668869
_cell_length_b   16.15632112
_cell_length_c   27.03892103
_cell_angle_alpha   90.01929618
_cell_angle_beta   89.92602798
_cell_angle_gamma   89.97513748
_symmetry_Int_Tables_number   1
_chemical_formula_structural   La12Ce14Pr13Nd13Sm12(BiS2)64
_chemical_formula_sum   'La12 Ce14 Pr13 Nd13 Sm12 Bi64 S128'
_cell_volume   7071.13975344
_cell_formula_units_Z   1
loop_
 _symmetry_equiv_pos_site_id
 _symmetry_equiv_pos_as_xyz
  1  'x, y, z'
loop_
 _atom_type_symbol
 _atom_type_oxidation_number
  La3+  3.0
  Ce3+  3.0
  Pr3+  3.0
  Nd3+  3.0
  Sm3+  3.0
  Bi2+  2.0
  S2-  -2.0
loop_
 _atom_site_type_symbol
 _atom_site_label
 _atom_site_symmetry_multiplicity
 _atom_site_fract_x
 _atom_site_fract_y
 _atom_site_fract_z
 _atom_site_occupancy
  La3+  La0  1  0.60845258  0.48870061  0.41354107  1
  La3+  La1  1  -0.01939367  0.86162294  0.57640462  1
  La3+  La2  1  0.26730808  0.38746189  0.08296538  1
  La3+  La3  1  0.88531037  -0.00261643  0.89857020  1
  La3+  La4  1  0.74280073  0.37524438  0.55968139  1
  La3+  La5  1  0.00756735  0.11776407  0.07026228  1
  La3+  La6  1  0.35950267  0.25161827  0.41774032  1
  La3+  La7  1  0.89016622  0.25299492  0.93547857  1
  La3+  La8  1  0.35934106  0.74932483  0.42833812  1
  La3+  La9  1  0.01004520  0.37737418  0.09704721  1
  La3+  La10  1  0.48420721  0.86801367  0.57411236  1
  La3+  La11  1  0.39203499  0.49283265  0.91682712  1
  Ce3+  Ce12  1  0.38922439  0.00192815  0.94865142  1
  Ce3+  Ce13  1  0.24057573  0.86611343  0.56912479  1
  Ce3+  Ce14  1  0.26631502  0.62292819  0.04848676  1
  Ce3+  Ce15  1  0.86637326  0.74678858  0.42907937  1
  Ce3+  Ce16  1  0.76436366  0.62400530  0.05875574  1
  Ce3+  Ce17  1  0.88609099  0.49692231  0.93653221  1
  Ce3+  Ce18  1  0.51183513  0.12424160  0.06771386  1
  Ce3+  Ce19  1  0.13792875  0.74922530  0.94131332  1
  Ce3+  Ce20  1  0.74358681  0.12107802  0.56337422  1
  Ce3+  Ce21  1  0.13334757  0.00224537  0.94054918  1
  Ce3+  Ce22  1  0.88895853  0.75261061  0.94129572  1
  Ce3+  Ce23  1  0.86604656  -0.00767333  0.43384575  1
  Ce3+  Ce24  1  0.63678869  0.50156157  0.93684482  1
  Ce3+  Ce25  1  0.73990420  0.86695910  0.55563680  1
  Pr3+  Pr26  1  0.49391347  0.61060794  0.56722497  1
  Pr3+  Pr27  1  0.36111655  0.49811934  0.44125130  1
  Pr3+  Pr28  1  0.26379058  0.87118263  0.05695731  1
  Pr3+  Pr29  1  0.13625871  0.25374788  0.95374831  1
  Pr3+  Pr30  1  0.61682803  0.24458229  0.43899542  1
  Pr3+  Pr31  1  0.76354405  0.12392002  0.05707901  1
  Pr3+  Pr32  1  0.26125385  0.12862552  0.06637376  1
  Pr3+  Pr33  1  0.23555879  0.36724213  0.56600699  1
  Pr3+  Pr34  1  0.86625908  0.50195987  0.42481068  1
  Pr3+  Pr35  1  0.10898724  0.23985642  0.41678280  1
  Pr3+  Pr36  1  0.61311984  -0.00597574  0.44579052  1
  Pr3+  Pr37  1  0.13721466  0.49664173  0.94074516  1
  Pr3+  Pr38  1  0.48773424  0.36681038  0.56131351  1
  Nd3+  Nd39  1  0.11645877  0.49646823  0.44285738  1
  Nd3+  Nd40  1  0.63920737  0.75112276  0.94089024  1
  Nd3+  Nd41  1  -0.01227973  0.61843331  0.56012464  1
  Nd3+  Nd42  1  0.51320569  0.87117764  0.07101922  1
  Nd3+  Nd43  1  0.24766143  0.61747463  0.57683037  1
  Nd3+  Nd44  1  0.11236650  -0.00601653  0.44087243  1
  Nd3+  Nd45  1  0.48733065  0.12295781  0.55018567  1
  Nd3+  Nd46  1  0.86511079  0.24208035  0.42277264  1
  Nd3+  Nd47  1  0.51237303  0.62543329  0.06411131  1
  Nd3+  Nd48  1  0.76219515  0.37606459  0.06219006  1
  Nd3+  Nd49  1  0.39718099  0.75815648  0.92465534  1
  Nd3+  Nd50  1  0.51144435  0.38297576  0.07136211  1
  Nd3+  Nd51  1  0.23639630  0.12527266  0.55747603  1
  Sm3+  Sm52  1  0.36184968  -0.00581693  0.43962774  1
  Sm3+  Sm53  1  0.38715086  0.25169189  0.94666045  1
  Sm3+  Sm54  1  0.63415221  0.00229173  0.94377171  1
  Sm3+  Sm55  1  0.01136062  0.62184454  0.05658947  1
  Sm3+  Sm56  1  0.01285379  0.87469022  0.06196863  1
  Sm3+  Sm57  1  0.60897160  0.74381515  0.44189895  1
  Sm3+  Sm58  1  -0.01319641  0.11655029  0.55796083  1
  Sm3+  Sm59  1  0.76423298  0.87554056  0.05188843  1
  Sm3+  Sm60  1  0.63492677  0.25020926  0.94870746  1
  Sm3+  Sm61  1  0.11598080  0.74763600  0.44344290  1
  Sm3+  Sm62  1  0.73799390  0.61630380  0.54676813  1
  Sm3+  Sm63  1  -0.01035570  0.36479328  0.54790067  1
  Bi2+  Bi64  1  -0.02591246  0.03790492  0.29670965  1
  Bi2+  Bi65  1  0.02250297  0.14152447  0.79015905  1
  Bi2+  Bi66  1  -0.00506856  0.40861818  0.30542378  1
  Bi2+  Bi67  1  0.01288720  0.39527535  0.79852963  1
  Bi2+  Bi68  1  0.01494986  0.67116155  0.28867366  1
  Bi2+  Bi69  1  -0.05663977  0.60521679  0.79662285  1
  Bi2+  Bi70  1  0.01485618  0.86145180  0.35021773  1
  Bi2+  Bi71  1  0.02681307  0.86941032  0.78994334  1
  Bi2+  Bi72  1  0.24158977  0.05565152  0.28931892  1
  Bi2+  Bi73  1  0.24021134  0.10817690  0.80094516  1
  Bi2+  Bi74  1  0.24788640  0.43142614  0.29018452  1
  Bi2+  Bi75  1  0.24222137  0.30383218  0.78969493  1
  Bi2+  Bi76  1  0.29633666  0.67291187  0.27070893  1
  Bi2+  Bi77  1  0.22894204  0.64078194  0.78970191  1
  Bi2+  Bi78  1  0.21017466  0.86811809  0.30947658  1
  Bi2+  Bi79  1  0.22314123  0.91736027  0.76398894  1
  Bi2+  Bi80  1  0.51332602  0.10356347  0.28452681  1
  Bi2+  Bi81  1  0.43466711  0.10557021  0.82161272  1
  Bi2+  Bi82  1  0.49386225  0.37150713  0.28131258  1
  Bi2+  Bi83  1  0.51026751  0.29940188  0.80177752  1
  Bi2+  Bi84  1  0.54342741  0.64833912  0.26768528  1
  Bi2+  Bi85  1  0.48353591  0.62786266  0.79978526  1
  Bi2+  Bi86  1  0.50543189  0.85484194  0.30216278  1
  Bi2+  Bi87  1  0.51941366  0.88977920  0.79131319  1
  Bi2+  Bi88  1  0.71025059  0.09517780  0.28747035  1
  Bi2+  Bi89  1  0.74222425  0.14029159  0.79152615  1
  Bi2+  Bi90  1  0.74603508  0.28661737  0.29687244  1
  Bi2+  Bi91  1  0.77250097  0.39451144  0.75366800  1
  Bi2+  Bi92  1  0.76766660  0.70431280  0.28289996  1
  Bi2+  Bi93  1  0.75849346  0.55454790  0.82340200  1
  Bi2+  Bi94  1  0.83490305  0.88560301  0.31114236  1
  Bi2+  Bi95  1  0.74602580  0.74679819  0.80502738  1
  Bi2+  Bi96  1  0.10699148  -0.02873481  0.21909165  1
  Bi2+  Bi97  1  0.12606814  0.05633818  0.70574463  1
  Bi2+  Bi98  1  0.11090004  0.24497438  0.23234363  1
  Bi2+  Bi99  1  0.12389793  0.29897613  0.69731902  1
  Bi2+  Bi100  1  0.14823116  0.58385804  0.21194876  1
  Bi2+  Bi101  1  0.12216726  0.51056874  0.72857514  1
  Bi2+  Bi102  1  0.09672193  0.76937108  0.19566153  1
  Bi2+  Bi103  1  0.11344631  0.75984067  0.71566668  1
  Bi2+  Bi104  1  0.38699088  -0.01752276  0.22302566  1
  Bi2+  Bi105  1  0.38373018  0.02546050  0.72024988  1
  Bi2+  Bi106  1  0.34201463  0.24357867  0.21203385  1
  Bi2+  Bi107  1  0.38667834  0.28316243  0.70793024  1
  Bi2+  Bi108  1  0.40573204  0.51909007  0.20667806  1
  Bi2+  Bi109  1  0.37980062  0.47947390  0.70639366  1
  Bi2+  Bi110  1  0.36383699  0.79436181  0.19181255  1
  Bi2+  Bi111  1  0.38177611  0.76677863  0.69925560  1
  Bi2+  Bi112  1  0.56235086  0.00414349  0.17950624  1
  Bi2+  Bi113  1  0.59935473  0.03747780  0.73726950  1
  Bi2+  Bi114  1  0.60832786  0.24672562  0.21916469  1
  Bi2+  Bi115  1  0.57741476  0.22409149  0.70663248  1
  Bi2+  Bi116  1  0.67551698  0.49202011  0.20948948  1
  Bi2+  Bi117  1  0.62660315  0.50852859  0.72473381  1
  Bi2+  Bi118  1  0.62301116  0.82977106  0.20870166  1
  Bi2+  Bi119  1  0.65560748  0.69675531  0.70506492  1
  Bi2+  Bi120  1  0.84870521  0.00103445  0.20473631  1
  Bi2+  Bi121  1  0.86803810  -0.02076582  0.70981515  1
  Bi2+  Bi122  1  0.87020346  0.25400348  0.21028799  1
  Bi2+  Bi123  1  0.88191100  0.24907413  0.69200240  1
  Bi2+  Bi124  1  0.88763533  0.58941671  0.21130751  1
  Bi2+  Bi125  1  0.90973088  0.50980813  0.69960094  1
  Bi2+  Bi126  1  0.90391590  0.78527276  0.20717761  1
  Bi2+  Bi127  1  0.86048038  0.72133503  0.71178979  1
  S2-  S128  1  0.00708670  0.19561045  0.16171842  1
  S2-  S129  1  0.02542898  0.17222690  0.64977107  1
  S2-  S130  1  -0.00583516  0.36830789  0.20397138  1
  S2-  S131  1  -0.02050949  0.38090688  0.64723536  1
  S2-  S132  1  0.01234319  0.54297569  0.14472257  1
  S2-  S133  1  -0.01174197  0.71900797  0.64292642  1
  S2-  S134  1  -0.00434299  0.97896488  0.14128136  1
  S2-  S135  1  0.00916642  0.95244957  0.66186855  1
  S2-  S136  1  0.24534533  0.13477680  0.16789019  1
  S2-  S137  1  0.24114345  0.23754685  0.63643382  1
  S2-  S138  1  0.20390130  0.34325392  0.18129671  1
  S2-  S139  1  0.23445347  0.48391865  0.64842491  1
  S2-  S140  1  0.27477633  0.55800608  0.14019440  1
  S2-  S141  1  0.22969019  0.74548094  0.64645466  1
  S2-  S142  1  0.22412668  0.88030749  0.15510546  1
  S2-  S143  1  0.35579975  0.90789744  0.64330728  1
  S2-  S144  1  0.48467153  0.18142457  0.15990713  1
  S2-  S145  1  0.45366093  0.14236985  0.64749208  1
  S2-  S146  1  0.39967941  0.37401073  0.15211937  1
  S2-  S147  1  0.51739583  0.45883667  0.64626097  1
  S2-  S148  1  0.54046955  0.51431952  0.14409801  1
  S2-  S149  1  0.39552957  0.62647729  0.65237489  1
  S2-  S150  1  0.50548778  0.74488472  0.14180805  1
  S2-  S151  1  0.54059933  0.80841116  0.66713293  1
  S2-  S152  1  0.77798117  0.13280892  0.15810783  1
  S2-  S153  1  0.80873201  0.10589801  0.65503174  1
  S2-  S154  1  0.77674406  0.38842776  0.16294543  1
  S2-  S155  1  0.74802616  0.31599254  0.65527085  1
  S2-  S156  1  0.73794696  0.62129642  0.15708631  1
  S2-  S157  1  0.72822290  0.56897019  0.64163926  1
  S2-  S158  1  0.75973629  0.87732271  0.15142378  1
  S2-  S159  1  0.80656028  0.85989580  0.64600705  1
  S2-  S160  1  0.11709812  0.08998807  0.35496384  1
  S2-  S161  1  0.04551808  0.00559886  0.85444069  1
  S2-  S162  1  0.19361160  0.29565143  0.32804934  1
  S2-  S163  1  0.09531184  0.26415152  0.85420853  1
  S2-  S164  1  0.13036402  0.50825061  0.34256459  1
  S2-  S165  1  0.13721474  0.50656513  0.83871986  1
  S2-  S166  1  0.21687400  0.72383465  0.36225526  1
  S2-  S167  1  0.12157272  0.75151198  0.84391240  1
  S2-  S168  1  0.36799324  -0.10399911  0.35901042  1
  S2-  S169  1  0.39890052  -0.06098759  0.85814765  1
  S2-  S170  1  0.39847281  0.23213069  0.31730960  1
  S2-  S171  1  0.36437701  0.33644963  0.86162580  1
  S2-  S172  1  0.39729818  0.46012046  0.34394603  1
  S2-  S173  1  0.35500937  0.52663110  0.81016623  1
  S2-  S174  1  0.43149847  0.68606944  0.33702617  1
  S2-  S175  1  0.35217850  0.73339060  0.82670236  1
  S2-  S176  1  0.60405282  -0.01218750  0.34433801  1
  S2-  S177  1  0.60448893  0.01161789  0.84607846  1
  S2-  S178  1  0.60330515  0.33738238  0.35378979  1
  S2-  S179  1  0.65466753  0.26265219  0.85027133  1
  S2-  S180  1  0.63609755  0.53590354  0.31290694  1
  S2-  S181  1  0.54103085  0.49927150  0.85642431  1
  S2-  S182  1  0.63183276  0.75920479  0.34383806  1
  S2-  S183  1  0.55544323  0.76083942  0.85360430  1
  S2-  S184  1  0.84494153  0.10231946  0.35726373  1
  S2-  S185  1  0.80158923  -0.00868877  0.80434072  1
  S2-  S186  1  0.98075869  0.26286516  0.34454251  1
  S2-  S187  1  0.88401836  0.15818439  0.84824375  1
  S2-  S188  1  0.84243832  0.42553162  0.33240434  1
  S2-  S189  1  0.88867392  0.38215798  0.86157978  1
  S2-  S190  1  0.87837342  0.63550003  0.35277529  1
  S2-  S191  1  0.89367544  0.82538737  0.85254532  1
  S2-  S192  1  -0.01387897  0.11759207  0.45417439  1
  S2-  S193  1  0.01236395  0.12564782  0.96076763  1
  S2-  S194  1  -0.01094502  0.37407996  0.44548496  1
  S2-  S195  1  0.01256746  0.37876671  0.96521961  1
  S2-  S196  1  -0.00485731  0.62350997  0.45403393  1
  S2-  S197  1  0.01102082  0.62402109  0.95081040  1
  S2-  S198  1  -0.01041812  0.86869437  0.46426116  1
  S2-  S199  1  0.01426955  0.87414287  0.95747699  1
  S2-  S200  1  0.24373762  0.12103758  0.45034695  1
  S2-  S201  1  0.26297441  0.12732840  0.95653864  1
  S2-  S202  1  0.23730809  0.36993192  0.45225671  1
  S2-  S203  1  0.26242283  0.37642803  0.96426792  1
  S2-  S204  1  0.23826770  0.61861858  0.46467527  1
  S2-  S205  1  0.26604965  0.62450575  0.94273556  1
  S2-  S206  1  0.23682426  0.87433114  0.46196787  1
  S2-  S207  1  0.26103292  0.87499481  0.94928733  1
  S2-  S208  1  0.48539462  0.12089457  0.44273107  1
  S2-  S209  1  0.51198846  0.12766814  0.95958737  1
  S2-  S210  1  0.48525608  0.36752566  0.45349319  1
  S2-  S211  1  0.51364389  0.37098288  0.96191239  1
  S2-  S212  1  0.49131839  0.61769339  0.45321760  1
  S2-  S213  1  0.51236539  0.62863646  0.95535702  1
  S2-  S214  1  0.48973853  0.87036781  0.46156358  1
  S2-  S215  1  0.51548767  0.87790300  0.96314517  1
  S2-  S216  1  0.73663478  0.11957869  0.45686797  1
  S2-  S217  1  0.75777873  0.12341621  0.95042305  1
  S2-  S218  1  0.74450484  0.36889194  0.44965472  1
  S2-  S219  1  0.75586893  0.37451730  0.95647950  1
  S2-  S220  1  0.73096944  0.61872556  0.44255549  1
  S2-  S221  1  0.76411146  0.62740267  0.95220666  1
  S2-  S222  1  0.73663886  0.86718850  0.44931612  1
  S2-  S223  1  0.75887110  0.88092313  0.94654951  1
  S2-  S224  1  0.14065569  -0.00203820  0.04706593  1
  S2-  S225  1  0.11535935  -0.00278475  0.54906537  1
  S2-  S226  1  0.13556782  0.25614295  0.06029024  1
  S2-  S227  1  0.10860334  0.24313352  0.53242840  1
  S2-  S228  1  0.13557901  0.50023256  0.04779575  1
  S2-  S229  1  0.10873745  0.49291036  0.54902372  1
  S2-  S230  1  0.13420507  0.74630112  0.04898631  1
  S2-  S231  1  0.11431230  0.74268231  0.54562520  1
  S2-  S232  1  0.38687145  -0.00138698  0.05702509  1
  S2-  S233  1  0.36208074  0.00316059  0.54191713  1
  S2-  S234  1  0.38685422  0.25124631  0.05016292  1
  S2-  S235  1  0.36459528  0.24595331  0.53342167  1
  S2-  S236  1  0.39241413  0.50313488  0.03750986  1
  S2-  S237  1  0.36459850  0.48984330  0.54654070  1
  S2-  S238  1  0.38719334  0.74964578  0.03640443  1
  S2-  S239  1  0.36875527  0.74082691  0.54279411  1
  S2-  S240  1  0.63783312  -0.00297629  0.04891492  1
  S2-  S241  1  0.61308395  -0.00358905  0.55571703  1
  S2-  S242  1  0.63581704  0.25194659  0.05546406  1
  S2-  S243  1  0.61557791  0.24501533  0.54684487  1
  S2-  S244  1  0.64122564  0.50187590  0.04202408  1
  S2-  S245  1  0.61523159  0.49144364  0.53242319  1
  S2-  S246  1  0.64178213  0.75117851  0.04657119  1
  S2-  S247  1  0.61603896  0.74009294  0.54765519  1
  S2-  S248  1  0.88272173  -0.00476767  0.04123537  1
  S2-  S249  1  0.86359304  -0.00543184  0.54282972  1
  S2-  S250  1  0.88702291  0.25382750  0.05057093  1
  S2-  S251  1  0.86680161  0.24362993  0.53832139  1
  S2-  S252  1  0.88692856  0.49817323  0.04640377  1
  S2-  S253  1  0.86758648  0.49606569  0.53703550  1
  S2-  S254  1  0.88990919  0.75075704  0.05016578  1
  S2-  S255  1  0.85864689  0.73796615  0.53781624  1
