# generated using pymatgen
data_La12Ce14Pr13Nd13Sm12(BiS2)64
_symmetry_space_group_name_H-M   'P 1'
_cell_length_a   16.16574253
_cell_length_b   16.17878904
_cell_length_c   27.27274406
_cell_angle_alpha   89.94748671
_cell_angle_beta   90.25724536
_cell_angle_gamma   89.93622696
_symmetry_Int_Tables_number   1
_chemical_formula_structural   La12Ce14Pr13Nd13Sm12(BiS2)64
_chemical_formula_sum   'La12 Ce14 Pr13 Nd13 Sm12 Bi64 S128'
_cell_volume   7132.89245074
_cell_formula_units_Z   1
loop_
 _symmetry_equiv_pos_site_id
 _symmetry_equiv_pos_as_xyz
  1  'x, y, z'
loop_
 _atom_type_symbol
 _atom_type_oxidation_number
  La3+  3.0
  Ce3+  3.0
  Pr3+  3.0
  Nd3+  3.0
  Sm3+  3.0
  Bi2+  2.0
  S2-  -2.0
loop_
 _atom_site_type_symbol
 _atom_site_label
 _atom_site_symmetry_multiplicity
 _atom_site_fract_x
 _atom_site_fract_y
 _atom_site_fract_z
 _atom_site_occupancy
  La3+  La0  1  0.36734686  0.51149525  0.41789758  1
  La3+  La1  1  0.37652091  0.76128658  0.41384241  1
  La3+  La2  1  0.26404869  0.38956937  0.57113642  1
  La3+  La3  1  0.12768522  0.76233730  0.43035249  1
  La3+  La4  1  0.50289464  0.36333535  0.08291697  1
  La3+  La5  1  0.24475180  0.11174840  0.09978570  1
  La3+  La6  1  0.62877783  0.75894202  0.42212262  1
  La3+  La7  1  0.48913454  0.62677576  0.09682106  1
  La3+  La8  1  0.27338082  0.13649408  0.57340500  1
  La3+  La9  1  0.50276632  0.11308908  0.07273407  1
  La3+  La10  1  0.37344011  0.01674813  0.42652233  1
  La3+  La11  1  0.26322899  0.64780720  0.57516256  1
  Ce3+  Ce12  1  0.75176496  0.11561387  0.06222831  1
  Ce3+  Ce13  1  0.50112060  0.38877360  0.55175191  1
  Ce3+  Ce14  1  0.87407690  0.74106728  0.94257467  1
  Ce3+  Ce15  1  0.13303667  0.26247254  0.45085886  1
  Ce3+  Ce16  1  0.01073001  0.13263109  0.57006083  1
  Ce3+  Ce17  1  0.62269505  0.73777464  0.94265162  1
  Ce3+  Ce18  1  0.62842961  0.26344057  0.43936566  1
  Ce3+  Ce19  1  0.63158130  0.01564008  0.43450572  1
  Ce3+  Ce20  1  0.75275522  0.36764492  0.06850581  1
  Ce3+  Ce21  1  0.12404261  0.74273230  0.94070467  1
  Ce3+  Ce22  1  0.50710179  0.88486041  0.54551484  1
  Ce3+  Ce23  1  0.62552256  -0.00589426  0.93909594  1
  Ce3+  Ce24  1  0.49613175  0.86342012  0.05393868  1
  Ce3+  Ce25  1  0.61978651  0.49377454  0.95504026  1
  Pr3+  Pr26  1  0.75619199  0.39128605  0.56117442  1
  Pr3+  Pr27  1  0.88130403  0.01575168  0.43923613  1
  Pr3+  Pr28  1  0.37435586  -0.00407533  0.94021767  1
  Pr3+  Pr29  1  0.87579167  -0.00574268  0.93460514  1
  Pr3+  Pr30  1  0.00131472  0.86616980  0.06239119  1
  Pr3+  Pr31  1  0.00960974  0.39702470  0.57618937  1
  Pr3+  Pr32  1  0.13575243  0.48925546  0.92514152  1
  Pr3+  Pr33  1  0.87588764  0.75721756  0.42165820  1
  Pr3+  Pr34  1  0.75685426  0.64569985  0.56375344  1
  Pr3+  Pr35  1  0.87458740  0.24412287  0.94274029  1
  Pr3+  Pr36  1  0.37080101  0.73999421  0.93387067  1
  Pr3+  Pr37  1  0.62336431  0.24507556  0.94559850  1
  Pr3+  Pr38  1  0.88170891  0.51067376  0.43793835  1
  Nd3+  Nd39  1  0.12882682  0.01409759  0.44632074  1
  Nd3+  Nd40  1  0.00936094  0.88926579  0.56556222  1
  Nd3+  Nd41  1  0.87069593  0.49148656  0.93627085  1
  Nd3+  Nd42  1  0.62717559  0.50940772  0.44074380  1
  Nd3+  Nd43  1  0.36866899  0.26348716  0.42542179  1
  Nd3+  Nd44  1  0.12619236  -0.00567246  0.94475036  1
  Nd3+  Nd45  1  0.00709751  0.64535116  0.56400586  1
  Nd3+  Nd46  1  -0.00186169  0.11398519  0.06704377  1
  Nd3+  Nd47  1  0.75110604  0.61646567  0.06463659  1
  Nd3+  Nd48  1  0.37043036  0.24389262  0.95552106  1
  Nd3+  Nd49  1  0.74838464  0.86623783  0.05808131  1
  Nd3+  Nd50  1  0.75554407  0.13703174  0.56208736  1
  Nd3+  Nd51  1  0.00136714  0.61490253  0.05201415  1
  Sm3+  Sm52  1  0.37376022  0.49156203  0.95707939  1
  Sm3+  Sm53  1  0.24682957  0.61628989  0.06309988  1
  Sm3+  Sm54  1  0.50075905  0.63898483  0.54918015  1
  Sm3+  Sm55  1  0.26414467  0.88397794  0.55393528  1
  Sm3+  Sm56  1  0.23721525  0.37022466  0.07662586  1
  Sm3+  Sm57  1  0.25018532  0.86581685  0.06117163  1
  Sm3+  Sm58  1  0.00125954  0.36771770  0.05451872  1
  Sm3+  Sm59  1  0.13222170  0.51299369  0.44770041  1
  Sm3+  Sm60  1  0.51023636  0.13570448  0.54823004  1
  Sm3+  Sm61  1  0.12744553  0.24338024  0.94802591  1
  Sm3+  Sm62  1  0.75710777  0.88475982  0.55027595  1
  Sm3+  Sm63  1  0.88331091  0.26299963  0.45195057  1
  Bi2+  Bi64  1  -0.01239276  0.14173263  0.28832814  1
  Bi2+  Bi65  1  -0.05364059  0.09891041  0.80067486  1
  Bi2+  Bi66  1  0.00951249  0.42558736  0.29925699  1
  Bi2+  Bi67  1  -0.05356358  0.29518053  0.76912853  1
  Bi2+  Bi68  1  0.02207377  0.63195838  0.28953662  1
  Bi2+  Bi69  1  -0.02844892  0.66223527  0.77213979  1
  Bi2+  Bi70  1  0.00759467  0.81995610  0.31710774  1
  Bi2+  Bi71  1  -0.01443528  0.85741112  0.77878503  1
  Bi2+  Bi72  1  0.26587770  0.13382285  0.30674905  1
  Bi2+  Bi73  1  0.26372902  0.11157707  0.81263756  1
  Bi2+  Bi74  1  0.19547872  0.41408967  0.26616675  1
  Bi2+  Bi75  1  0.24466529  0.35992260  0.81170371  1
  Bi2+  Bi76  1  0.21626111  0.62900607  0.28836442  1
  Bi2+  Bi77  1  0.25331185  0.61285867  0.80471722  1
  Bi2+  Bi78  1  0.19371842  0.89066194  0.27691939  1
  Bi2+  Bi79  1  0.25561375  0.86364208  0.80653341  1
  Bi2+  Bi80  1  0.53232315  0.12043617  0.30221827  1
  Bi2+  Bi81  1  0.50153800  0.13147565  0.74033343  1
  Bi2+  Bi82  1  0.58393496  0.39624116  0.29552212  1
  Bi2+  Bi83  1  0.46300069  0.41070046  0.75966368  1
  Bi2+  Bi84  1  0.51363704  0.61170473  0.30310790  1
  Bi2+  Bi85  1  0.52142096  0.60097542  0.78431680  1
  Bi2+  Bi86  1  0.49212541  0.88553690  0.26747784  1
  Bi2+  Bi87  1  0.50724873  0.93057591  0.73902549  1
  Bi2+  Bi88  1  0.79594749  0.07934312  0.28855941  1
  Bi2+  Bi89  1  0.67620307  0.12275078  0.80188023  1
  Bi2+  Bi90  1  0.82562639  0.36436701  0.30085927  1
  Bi2+  Bi91  1  0.71578797  0.37510539  0.81163560  1
  Bi2+  Bi92  1  0.79217859  0.64583720  0.27782369  1
  Bi2+  Bi93  1  0.73871374  0.61658483  0.81257919  1
  Bi2+  Bi94  1  0.82407377  0.86115820  0.27615673  1
  Bi2+  Bi95  1  0.77619650  0.87532652  0.78261019  1
  Bi2+  Bi96  1  0.05139085  0.00134747  0.22120854  1
  Bi2+  Bi97  1  0.10845121  -0.01272389  0.73400663  1
  Bi2+  Bi98  1  0.06779783  0.28144957  0.22251592  1
  Bi2+  Bi99  1  0.10647130  0.18089132  0.75146368  1
  Bi2+  Bi100  1  0.12421060  0.60804729  0.18369092  1
  Bi2+  Bi101  1  0.09402404  0.48240764  0.71708908  1
  Bi2+  Bi102  1  0.14280822  0.80151981  0.17528109  1
  Bi2+  Bi103  1  0.11609820  0.74549731  0.71123638  1
  Bi2+  Bi104  1  0.41028622  0.02754900  0.20024830  1
  Bi2+  Bi105  1  0.33538264  0.03689002  0.70811334  1
  Bi2+  Bi106  1  0.39805159  0.27573012  0.22408448  1
  Bi2+  Bi107  1  0.35886308  0.24825136  0.70237043  1
  Bi2+  Bi108  1  0.37470743  0.51245465  0.21643972  1
  Bi2+  Bi109  1  0.32872521  0.50176594  0.69581341  1
  Bi2+  Bi110  1  0.33839957  0.82030195  0.20608564  1
  Bi2+  Bi111  1  0.38061520  0.76076478  0.69815894  1
  Bi2+  Bi112  1  0.64823818  -0.02482322  0.21717149  1
  Bi2+  Bi113  1  0.68641886  -0.05118163  0.68844232  1
  Bi2+  Bi114  1  0.70448686  0.25974811  0.23521490  1
  Bi2+  Bi115  1  0.61561731  0.31343170  0.71464335  1
  Bi2+  Bi116  1  0.74594576  0.48061839  0.21884388  1
  Bi2+  Bi117  1  0.61276555  0.50667163  0.70408496  1
  Bi2+  Bi118  1  0.62551856  0.73845658  0.20260426  1
  Bi2+  Bi119  1  0.61437633  0.76231592  0.74299608  1
  Bi2+  Bi120  1  0.86535753  0.08104689  0.18060228  1
  Bi2+  Bi121  1  0.88243539  -0.02040968  0.70193353  1
  Bi2+  Bi122  1  0.87779548  0.27517882  0.17731094  1
  Bi2+  Bi123  1  0.82655562  0.16641587  0.71369224  1
  Bi2+  Bi124  1  0.94467940  0.45915085  0.18573740  1
  Bi2+  Bi125  1  0.86085809  0.46233666  0.70139561  1
  Bi2+  Bi126  1  0.94918121  0.76875569  0.20534750  1
  Bi2+  Bi127  1  0.85171352  0.72890206  0.69644665  1
  S2-  S128  1  0.09182503  0.11527921  0.15088502  1
  S2-  S129  1  0.01932512  0.01231968  0.64136537  1
  S2-  S130  1  0.09026864  0.38318515  0.13708907  1
  S2-  S131  1  -0.01640095  0.33786157  0.67219783  1
  S2-  S132  1  -0.05075713  0.61779884  0.14662638  1
  S2-  S133  1  -0.00921624  0.53565703  0.64364987  1
  S2-  S134  1  -0.05832503  0.92404598  0.15147469  1
  S2-  S135  1  -0.00181878  0.76856264  0.63861925  1
  S2-  S136  1  0.28536127  0.14515525  0.20051415  1
  S2-  S137  1  0.21878486  0.15579346  0.66852995  1
  S2-  S138  1  0.28433803  0.37828345  0.17383242  1
  S2-  S139  1  0.19824670  0.39499385  0.66758275  1
  S2-  S140  1  0.33206164  0.62072410  0.14862323  1
  S2-  S141  1  0.19304535  0.60599577  0.67110941  1
  S2-  S142  1  0.27841613  0.95270452  0.14585888  1
  S2-  S143  1  0.25387523  0.80371850  0.64218186  1
  S2-  S144  1  0.48824754  0.17296938  0.16730574  1
  S2-  S145  1  0.43344479  0.13390598  0.63528928  1
  S2-  S146  1  0.47948440  0.39561167  0.18128529  1
  S2-  S147  1  0.40873694  0.38109012  0.63476392  1
  S2-  S148  1  0.52581741  0.59748264  0.19733632  1
  S2-  S149  1  0.41343850  0.63656589  0.63695103  1
  S2-  S150  1  0.48894327  0.79165964  0.14230629  1
  S2-  S151  1  0.47285133  0.86867375  0.64094085  1
  S2-  S152  1  0.68335939  0.08878701  0.14981800  1
  S2-  S153  1  0.69352107  0.11321060  0.65386480  1
  S2-  S154  1  0.66931663  0.36117985  0.15312587  1
  S2-  S155  1  0.75732627  0.34994578  0.65891309  1
  S2-  S156  1  0.72951694  0.63311480  0.16298666  1
  S2-  S157  1  0.76058042  0.56742503  0.65734051  1
  S2-  S158  1  0.72004416  0.85642785  0.15681206  1
  S2-  S159  1  0.74589216  0.78566419  0.63056329  1
  S2-  S160  1  0.17457399  0.02359715  0.35014436  1
  S2-  S161  1  0.14723328  -0.01075404  0.84558964  1
  S2-  S162  1  0.21697472  0.25643881  0.36456041  1
  S2-  S163  1  0.12651685  0.27828070  0.85144275  1
  S2-  S164  1  0.20781048  0.49600172  0.35750425  1
  S2-  S165  1  0.12027936  0.50138098  0.82334545  1
  S2-  S166  1  0.23379313  0.77686179  0.34896618  1
  S2-  S167  1  0.15448901  0.73778318  0.84522679  1
  S2-  S168  1  0.40245765  0.00860035  0.32681467  1
  S2-  S169  1  0.36153183  -0.01562499  0.84009640  1
  S2-  S170  1  0.41657080  0.22657535  0.32826276  1
  S2-  S171  1  0.34920093  0.25011496  0.85552521  1
  S2-  S172  1  0.44227748  0.45156639  0.32527989  1
  S2-  S173  1  0.31822047  0.49869006  0.86311187  1
  S2-  S174  1  0.36786840  0.63247101  0.34076626  1
  S2-  S175  1  0.36364063  0.74618131  0.83173975  1
  S2-  S176  1  0.65645982  0.00796224  0.33812162  1
  S2-  S177  1  0.58000832  0.01419568  0.84694417  1
  S2-  S178  1  0.63453661  0.24285662  0.34224314  1
  S2-  S179  1  0.60146781  0.25897685  0.84640799  1
  S2-  S180  1  0.65498384  0.53229205  0.34343635  1
  S2-  S181  1  0.61655384  0.50395196  0.85683090  1
  S2-  S182  1  0.51530640  0.77126952  0.34313136  1
  S2-  S183  1  0.61220731  0.73731681  0.84506098  1
  S2-  S184  1  0.91128006  -0.02543320  0.34308479  1
  S2-  S185  1  0.80377298  0.01715018  0.84396166  1
  S2-  S186  1  0.89453973  0.22921074  0.35606900  1
  S2-  S187  1  0.82767778  0.27321175  0.84768183  1
  S2-  S188  1  0.88337805  0.61184432  0.35556363  1
  S2-  S189  1  0.84576734  0.50051623  0.83697381  1
  S2-  S190  1  0.74684025  0.76808787  0.34658074  1
  S2-  S191  1  0.85691130  0.73034971  0.84569829  1
  S2-  S192  1  0.00662820  0.13865982  0.46189609  1
  S2-  S193  1  0.00176286  0.11966063  0.95572609  1
  S2-  S194  1  0.00732798  0.38736552  0.46076117  1
  S2-  S195  1  0.00193290  0.36970505  0.94937046  1
  S2-  S196  1  0.00807962  0.63482516  0.45513131  1
  S2-  S197  1  0.00090523  0.61298824  0.94435035  1
  S2-  S198  1  0.00525361  0.88988958  0.45596457  1
  S2-  S199  1  -0.00038674  0.86856981  0.95121029  1
  S2-  S200  1  0.25463006  0.13631818  0.46326861  1
  S2-  S201  1  0.24688416  0.11942829  0.95662840  1
  S2-  S202  1  0.25398649  0.38714382  0.46266398  1
  S2-  S203  1  0.24773655  0.36752689  0.96715793  1
  S2-  S204  1  0.24998497  0.63796198  0.45664129  1
  S2-  S205  1  0.24845640  0.61712250  0.95839641  1
  S2-  S206  1  0.25430297  0.89142598  0.45105935  1
  S2-  S207  1  0.24942293  0.86851611  0.95572335  1
  S2-  S208  1  0.50319238  0.13905154  0.44498767  1
  S2-  S209  1  0.49755140  0.12069789  0.96135165  1
  S2-  S210  1  0.50114552  0.38477673  0.44626119  1
  S2-  S211  1  0.49499892  0.36784591  0.96785790  1
  S2-  S212  1  0.50280417  0.63157876  0.44626367  1
  S2-  S213  1  0.49284106  0.61568730  0.95414841  1
  S2-  S214  1  0.50453774  0.89437395  0.44115283  1
  S2-  S215  1  0.49702231  0.86607665  0.94775478  1
  S2-  S216  1  0.75701550  0.14118488  0.45465231  1
  S2-  S217  1  0.74919615  0.11976226  0.95541865  1
  S2-  S218  1  0.75710621  0.38527949  0.45298418  1
  S2-  S219  1  0.74800492  0.37043902  0.96102928  1
  S2-  S220  1  0.75287598  0.63239607  0.45560472  1
  S2-  S221  1  0.74975564  0.61567218  0.95775350  1
  S2-  S222  1  0.75650096  0.88977224  0.44749056  1
  S2-  S223  1  0.74884050  0.86636561  0.95046542  1
  S2-  S224  1  0.12594223  -0.00946482  0.04974040  1
  S2-  S225  1  0.14406656  0.01006170  0.55071734  1
  S2-  S226  1  0.12459965  0.23840035  0.05066701  1
  S2-  S227  1  0.13241423  0.26154450  0.55783484  1
  S2-  S228  1  0.12559871  0.49506225  0.03672785  1
  S2-  S229  1  0.13613187  0.51787172  0.55026881  1
  S2-  S230  1  0.12560195  0.74137056  0.04565276  1
  S2-  S231  1  0.13365696  0.76764225  0.53958621  1
  S2-  S232  1  0.37475977  -0.00673872  0.04652947  1
  S2-  S233  1  0.38564193  0.00934377  0.53673003  1
  S2-  S234  1  0.36528564  0.24152034  0.06262714  1
  S2-  S235  1  0.38683678  0.25912049  0.53362239  1
  S2-  S236  1  0.37083623  0.48825121  0.05855474  1
  S2-  S237  1  0.38183195  0.51574298  0.53456615  1
  S2-  S238  1  0.36817823  0.74083913  0.04183423  1
  S2-  S239  1  0.38349424  0.76365485  0.52855249  1
  S2-  S240  1  0.62245273  -0.01325066  0.04570350  1
  S2-  S241  1  0.63274220  0.01022393  0.54124743  1
  S2-  S242  1  0.62643921  0.24042295  0.05214905  1
  S2-  S243  1  0.62939620  0.26237943  0.54750283  1
  S2-  S244  1  0.61802738  0.50071114  0.06042284  1
  S2-  S245  1  0.62661215  0.51526904  0.54764869  1
  S2-  S246  1  0.62365952  0.73852712  0.04773348  1
  S2-  S247  1  0.62614139  0.76006487  0.53205649  1
  S2-  S248  1  0.87340183  -0.00853803  0.04105810  1
  S2-  S249  1  0.87691635  0.01146480  0.54660542  1
  S2-  S250  1  0.87832617  0.24281884  0.04822712  1
  S2-  S251  1  0.88310820  0.26078704  0.55591169  1
  S2-  S252  1  0.87642079  0.49044614  0.04423516  1
  S2-  S253  1  0.87896348  0.51476580  0.54329415  1
  S2-  S254  1  0.87438051  0.74240628  0.04847740  1
  S2-  S255  1  0.88187602  0.76567784  0.53141993  1
