# generated using pymatgen
data_La12Ce14Pr13Nd13Sm12(BiS2)64
_symmetry_space_group_name_H-M   'P 1'
_cell_length_a   16.10023020
_cell_length_b   16.13982473
_cell_length_c   27.27681181
_cell_angle_alpha   90.18678350
_cell_angle_beta   89.81554915
_cell_angle_gamma   89.98084342
_symmetry_Int_Tables_number   1
_chemical_formula_structural   La12Ce14Pr13Nd13Sm12(BiS2)64
_chemical_formula_sum   'La12 Ce14 Pr13 Nd13 Sm12 Bi64 S128'
_cell_volume   7087.93821576
_cell_formula_units_Z   1
loop_
 _symmetry_equiv_pos_site_id
 _symmetry_equiv_pos_as_xyz
  1  'x, y, z'
loop_
 _atom_type_symbol
 _atom_type_oxidation_number
  La3+  3.0
  Ce3+  3.0
  Pr3+  3.0
  Nd3+  3.0
  Sm3+  3.0
  Bi2+  2.0
  S2-  -2.0
loop_
 _atom_site_type_symbol
 _atom_site_label
 _atom_site_symmetry_multiplicity
 _atom_site_fract_x
 _atom_site_fract_y
 _atom_site_fract_z
 _atom_site_occupancy
  La3+  La0  1  0.39677919  0.74768135  0.92081242  1
  La3+  La1  1  0.12742944  0.49261350  0.42714936  1
  La3+  La2  1  0.23538485  0.13050947  0.61250044  1
  La3+  La3  1  0.76354623  0.61670783  0.61433515  1
  La3+  La4  1  0.36625904  -0.00959512  0.43259869  1
  La3+  La5  1  0.86134546  0.24825123  0.41070483  1
  La3+  La6  1  -0.00393236  0.36477470  0.55141045  1
  La3+  La7  1  0.74684705  0.13215902  0.09070583  1
  La3+  La8  1  0.13116970  0.23779252  0.42260032  1
  La3+  La9  1  0.62014339  -0.01100562  0.43010590  1
  La3+  La10  1  0.89070206  0.76715013  0.90044893  1
  La3+  La11  1  0.87251238  -0.01540472  0.43047012  1
  Ce3+  Ce12  1  0.25768399  0.12533787  0.05232543  1
  Ce3+  Ce13  1  0.12886340  0.25189367  0.94094720  1
  Ce3+  Ce14  1  0.50608949  0.12593786  0.05881408  1
  Ce3+  Ce15  1  0.74355763  0.11819090  0.55640389  1
  Ce3+  Ce16  1  0.74152519  0.86130049  0.55799809  1
  Ce3+  Ce17  1  0.88477705  0.00404728  0.95785762  1
  Ce3+  Ce18  1  0.36834890  0.23986212  0.44539057  1
  Ce3+  Ce19  1  0.88817209  0.24677037  0.96331953  1
  Ce3+  Ce20  1  0.48874806  0.11290252  0.56355756  1
  Ce3+  Ce21  1  0.89094194  0.50297041  0.93589117  1
  Ce3+  Ce22  1  0.50612775  0.37388915  0.04547294  1
  Ce3+  Ce23  1  0.49575857  0.86390608  0.55017245  1
  Ce3+  Ce24  1  0.86830973  0.49230554  0.43884041  1
  Ce3+  Ce25  1  0.26061829  0.62605503  0.05141326  1
  Pr3+  Pr26  1  0.63712718  0.74892881  0.94923978  1
  Pr3+  Pr27  1  0.64850175  0.24563629  0.93502537  1
  Pr3+  Pr28  1  -0.00346977  0.11683368  0.54632985  1
  Pr3+  Pr29  1  0.38933181  0.24106275  0.92166122  1
  Pr3+  Pr30  1  0.02085217  0.38495694  0.08380097  1
  Pr3+  Pr31  1  0.76147028  0.37551601  0.06528665  1
  Pr3+  Pr32  1  0.24621748  0.37075874  0.56273726  1
  Pr3+  Pr33  1  0.36736227  0.73672780  0.42729696  1
  Pr3+  Pr34  1  0.61733639  0.73982190  0.42340408  1
  Pr3+  Pr35  1  0.38309699  0.49923280  0.92549017  1
  Pr3+  Pr36  1  0.26002089  0.87303130  0.05719158  1
  Pr3+  Pr37  1  0.74398499  0.36147305  0.56504641  1
  Pr3+  Pr38  1  0.38723951  -0.00410072  0.92904580  1
  Nd3+  Nd39  1  0.50094286  0.61908055  0.56328285  1
  Nd3+  Nd40  1  0.13143826  0.75099030  0.93862357  1
  Nd3+  Nd41  1  0.12507347  -0.00064074  0.93709008  1
  Nd3+  Nd42  1  0.49934312  0.87505725  0.07490722  1
  Nd3+  Nd43  1  0.24613054  0.86652251  0.56196840  1
  Nd3+  Nd44  1  0.50654404  0.62258815  0.06148619  1
  Nd3+  Nd45  1  0.49390934  0.36428224  0.55593055  1
  Nd3+  Nd46  1  -0.00648046  0.61728198  0.55325326  1
  Nd3+  Nd47  1  0.02213255  0.11833865  0.08927068  1
  Nd3+  Nd48  1  0.63832510  -0.00190169  0.94886254  1
  Nd3+  Nd49  1  0.25944547  0.37572176  0.05287214  1
  Nd3+  Nd50  1  0.00638513  0.87205507  0.07030817  1
  Nd3+  Nd51  1  0.75799626  0.87444088  0.06372550  1
  Sm3+  Sm52  1  0.37296124  0.48967674  0.43749583  1
  Sm3+  Sm53  1  0.11960973  -0.01180372  0.44063272  1
  Sm3+  Sm54  1  0.62271954  0.49020705  0.44684477  1
  Sm3+  Sm55  1  0.12870829  0.50145616  0.93635237  1
  Sm3+  Sm56  1  -0.00760240  0.86439694  0.56100250  1
  Sm3+  Sm57  1  0.12361347  0.74137676  0.43587966  1
  Sm3+  Sm58  1  0.61778727  0.23285816  0.43162498  1
  Sm3+  Sm59  1  0.63975181  0.49839762  0.94447497  1
  Sm3+  Sm60  1  0.00829954  0.62661970  0.05969446  1
  Sm3+  Sm61  1  0.86859040  0.73873806  0.43690579  1
  Sm3+  Sm62  1  0.75975806  0.62414073  0.06241793  1
  Sm3+  Sm63  1  0.24597157  0.62172761  0.56303212  1
  Bi2+  Bi64  1  -0.00040506  0.11087905  0.29280067  1
  Bi2+  Bi65  1  -0.04624692  0.14132375  0.79830439  1
  Bi2+  Bi66  1  -0.01304788  0.39328764  0.28712428  1
  Bi2+  Bi67  1  0.02356523  0.40308189  0.76859186  1
  Bi2+  Bi68  1  0.00973303  0.66488516  0.28720978  1
  Bi2+  Bi69  1  0.01763257  0.60533969  0.80380155  1
  Bi2+  Bi70  1  0.03695423  0.85474102  0.30727523  1
  Bi2+  Bi71  1  0.02087256  0.91195392  0.79477950  1
  Bi2+  Bi72  1  0.28626317  0.11201108  0.23335293  1
  Bi2+  Bi73  1  0.24516692  0.13146888  0.81516209  1
  Bi2+  Bi74  1  0.24157174  0.35146765  0.29878449  1
  Bi2+  Bi75  1  0.22660331  0.41526026  0.78243529  1
  Bi2+  Bi76  1  0.27386358  0.61379899  0.28068721  1
  Bi2+  Bi77  1  0.21371766  0.60084711  0.81195823  1
  Bi2+  Bi78  1  0.28441630  0.85923372  0.29104752  1
  Bi2+  Bi79  1  0.26086441  0.85815439  0.78161675  1
  Bi2+  Bi80  1  0.47384216  0.14806358  0.27487405  1
  Bi2+  Bi81  1  0.48225521  0.09108545  0.74375990  1
  Bi2+  Bi82  1  0.43720303  0.38612273  0.31105588  1
  Bi2+  Bi83  1  0.43404969  0.40498903  0.79598286  1
  Bi2+  Bi84  1  0.51415705  0.57173939  0.28954405  1
  Bi2+  Bi85  1  0.47155832  0.58881154  0.76017719  1
  Bi2+  Bi86  1  0.51857374  0.84177215  0.28756637  1
  Bi2+  Bi87  1  0.52841735  0.85382337  0.79069209  1
  Bi2+  Bi88  1  0.71866316  0.11263685  0.29453113  1
  Bi2+  Bi89  1  0.69853071  0.13058900  0.82175052  1
  Bi2+  Bi90  1  0.74794441  0.46393365  0.27303966  1
  Bi2+  Bi91  1  0.71103113  0.35704973  0.79764520  1
  Bi2+  Bi92  1  0.81207118  0.65094024  0.31407423  1
  Bi2+  Bi93  1  0.71217222  0.65149448  0.81056172  1
  Bi2+  Bi94  1  0.77050624  0.83522119  0.27993875  1
  Bi2+  Bi95  1  0.74542808  0.94840634  0.77872683  1
  Bi2+  Bi96  1  0.15123941  -0.03716808  0.23043469  1
  Bi2+  Bi97  1  0.09778328  -0.00867212  0.70423756  1
  Bi2+  Bi98  1  0.11633200  0.26189723  0.19931125  1
  Bi2+  Bi99  1  0.08386664  0.24688886  0.70990655  1
  Bi2+  Bi100  1  0.14872192  0.52477173  0.20728989  1
  Bi2+  Bi101  1  0.16147577  0.53235293  0.69539365  1
  Bi2+  Bi102  1  0.15066585  0.77089741  0.20500746  1
  Bi2+  Bi103  1  0.14785889  0.72377237  0.72532241  1
  Bi2+  Bi104  1  0.44277798  0.02645234  0.18507588  1
  Bi2+  Bi105  1  0.38018465  -0.05052449  0.70571306  1
  Bi2+  Bi106  1  0.36979094  0.28708285  0.21300504  1
  Bi2+  Bi107  1  0.37523916  0.35397519  0.69140785  1
  Bi2+  Bi108  1  0.39762244  0.50165008  0.20426604  1
  Bi2+  Bi109  1  0.35533032  0.54362557  0.66483761  1
  Bi2+  Bi110  1  0.36102254  0.74534762  0.20717735  1
  Bi2+  Bi111  1  0.35800891  0.73055825  0.71064610  1
  Bi2+  Bi112  1  0.64912896  -0.01852798  0.19765643  1
  Bi2+  Bi113  1  0.66188924  0.01586472  0.68319812  1
  Bi2+  Bi114  1  0.60311332  0.30056761  0.27081455  1
  Bi2+  Bi115  1  0.62297281  0.20282657  0.70250030  1
  Bi2+  Bi116  1  0.60190286  0.44774055  0.19654048  1
  Bi2+  Bi117  1  0.59568708  0.44786969  0.72606273  1
  Bi2+  Bi118  1  0.65645196  0.68858897  0.24265099  1
  Bi2+  Bi119  1  0.60944103  0.77031603  0.70154621  1
  Bi2+  Bi120  1  0.90668435  -0.07041325  0.21710687  1
  Bi2+  Bi121  1  0.86255117  0.04381057  0.70811490  1
  Bi2+  Bi122  1  0.84326041  0.24797071  0.20992242  1
  Bi2+  Bi123  1  0.82218670  0.23462895  0.73278193  1
  Bi2+  Bi124  1  0.87198910  0.57508225  0.20571681  1
  Bi2+  Bi125  1  0.88792709  0.47793195  0.70358421  1
  Bi2+  Bi126  1  0.96088003  0.74717015  0.18096647  1
  Bi2+  Bi127  1  0.88897964  0.75485921  0.71361959  1
  S2-  S128  1  -0.00629272  0.15709798  0.19066996  1
  S2-  S129  1  0.05549022  0.12428871  0.64136894  1
  S2-  S130  1  -0.03112333  0.35506708  0.18224568  1
  S2-  S131  1  -0.02318076  0.35561343  0.65164552  1
  S2-  S132  1  0.02244596  0.53958951  0.14481641  1
  S2-  S133  1  -0.06145940  0.62639877  0.64824616  1
  S2-  S134  1  0.03081509  0.97025997  0.15143103  1
  S2-  S135  1  -0.00590054  0.85927972  0.66016571  1
  S2-  S136  1  0.18924183  0.13502039  0.14182500  1
  S2-  S137  1  0.20742523  0.12627314  0.72177959  1
  S2-  S138  1  0.18522241  0.39249691  0.14270469  1
  S2-  S139  1  0.22006635  0.29655120  0.65236372  1
  S2-  S140  1  0.23113251  0.64189632  0.14668480  1
  S2-  S141  1  0.23654579  0.74278312  0.63564989  1
  S2-  S142  1  0.35598449  0.88423278  0.14086706  1
  S2-  S143  1  0.23337158  0.96221336  0.64669838  1
  S2-  S144  1  0.57870813  0.12472453  0.14751185  1
  S2-  S145  1  0.40514058  0.11213550  0.65135368  1
  S2-  S146  1  0.47747677  0.36832286  0.14172611  1
  S2-  S147  1  0.53910398  0.34141709  0.65139106  1
  S2-  S148  1  0.46758425  0.63787821  0.15825666  1
  S2-  S149  1  0.59476522  0.63303023  0.64792511  1
  S2-  S150  1  0.55940575  0.85789286  0.17158765  1
  S2-  S151  1  0.48561161  0.84283285  0.64795796  1
  S2-  S152  1  0.79434347  0.08812436  0.18656963  1
  S2-  S153  1  0.75629695  0.22661427  0.63313220  1
  S2-  S154  1  0.72736976  0.29049322  0.14967327  1
  S2-  S155  1  0.75092778  0.45246436  0.65286402  1
  S2-  S156  1  0.72124675  0.61519981  0.15924705  1
  S2-  S157  1  0.77982072  0.61858025  0.72613458  1
  S2-  S158  1  0.77102260  0.86871476  0.16268186  1
  S2-  S159  1  0.76346104  0.79124578  0.64823932  1
  S2-  S160  1  0.12051134  0.00605701  0.34184733  1
  S2-  S161  1  0.16883642  -0.02391474  0.84059942  1
  S2-  S162  1  0.09834459  0.26323164  0.32220508  1
  S2-  S163  1  0.08855479  0.19314182  0.85075926  1
  S2-  S164  1  0.05327987  0.51485365  0.33434557  1
  S2-  S165  1  0.01456933  0.45888788  0.86655782  1
  S2-  S166  1  0.23283872  0.73009667  0.35725362  1
  S2-  S167  1  0.04560975  0.76364243  0.85093531  1
  S2-  S168  1  0.40342477  -0.04746068  0.33512522  1
  S2-  S169  1  0.40034336  0.10728384  0.85027933  1
  S2-  S170  1  0.29406143  0.22600400  0.35873472  1
  S2-  S171  1  0.30532381  0.28922120  0.83600432  1
  S2-  S172  1  0.26897883  0.49943408  0.35776816  1
  S2-  S173  1  0.38400446  0.61747357  0.85011973  1
  S2-  S174  1  0.48616918  0.72095657  0.35008843  1
  S2-  S175  1  0.39116512  0.87725403  0.85240428  1
  S2-  S176  1  0.58655902  0.10187275  0.35360626  1
  S2-  S177  1  0.61366867  -0.02331389  0.85080752  1
  S2-  S178  1  0.71056411  0.25890683  0.34952040  1
  S2-  S179  1  0.58650547  0.25143266  0.84041911  1
  S2-  S180  1  0.62864715  0.49451006  0.34729654  1
  S2-  S181  1  0.65103917  0.49947438  0.84668653  1
  S2-  S182  1  0.63931024  0.87317199  0.35012806  1
  S2-  S183  1  0.57200437  0.73757992  0.85589867  1
  S2-  S184  1  0.85326352  0.05479218  0.33699855  1
  S2-  S185  1  0.92026161  -0.04447373  0.86643284  1
  S2-  S186  1  0.90643864  0.23774814  0.31041449  1
  S2-  S187  1  0.83986036  0.20750289  0.87155690  1
  S2-  S188  1  0.85786519  0.42002350  0.35073749  1
  S2-  S189  1  0.86351952  0.60751200  0.85539408  1
  S2-  S190  1  0.88478829  0.84733249  0.35915455  1
  S2-  S191  1  0.81114108  0.79318396  0.80795874  1
  S2-  S192  1  -0.00347549  0.11639256  0.44005444  1
  S2-  S193  1  0.01112273  0.12338015  0.96921900  1
  S2-  S194  1  0.00050862  0.36525054  0.44372077  1
  S2-  S195  1  0.00919838  0.37274963  0.97114906  1
  S2-  S196  1  -0.00309233  0.61969413  0.44683152  1
  S2-  S197  1  0.00873334  0.62933763  0.95645212  1
  S2-  S198  1  0.00061848  0.86075349  0.45609105  1
  S2-  S199  1  0.00710728  0.87184704  0.96479759  1
  S2-  S200  1  0.24152154  0.10842855  0.45118438  1
  S2-  S201  1  0.25387401  0.12375602  0.94832499  1
  S2-  S202  1  0.24910224  0.36798140  0.45653149  1
  S2-  S203  1  0.25453446  0.37866796  0.94673750  1
  S2-  S204  1  0.24658064  0.61627711  0.46049597  1
  S2-  S205  1  0.25495986  0.62495748  0.94777689  1
  S2-  S206  1  0.24219339  0.86526680  0.45376435  1
  S2-  S207  1  0.25569024  0.87308441  0.95129992  1
  S2-  S208  1  0.48973354  0.11598759  0.45710151  1
  S2-  S209  1  0.51736941  0.12437039  0.95395479  1
  S2-  S210  1  0.49671627  0.36471068  0.44897732  1
  S2-  S211  1  0.51139830  0.37490636  0.94140162  1
  S2-  S212  1  0.49546441  0.60947894  0.45457910  1
  S2-  S213  1  0.51344402  0.61628644  0.95570141  1
  S2-  S214  1  0.49179793  0.86379762  0.44733371  1
  S2-  S215  1  0.51279859  0.87522823  0.96322293  1
  S2-  S216  1  0.74654475  0.11449924  0.45047430  1
  S2-  S217  1  0.75945873  0.12222101  0.97629018  1
  S2-  S218  1  0.74080781  0.36590032  0.45679386  1
  S2-  S219  1  0.76517152  0.37697016  0.95747966  1
  S2-  S220  1  0.74395184  0.61665203  0.44361191  1
  S2-  S221  1  0.75961289  0.62379606  0.95947442  1
  S2-  S222  1  0.74575023  0.86119331  0.45465864  1
  S2-  S223  1  0.76422874  0.87148641  0.95614693  1
  S2-  S224  1  0.13586379  -0.00357008  0.04461163  1
  S2-  S225  1  0.11448586  -0.01527148  0.54389368  1
  S2-  S226  1  0.13293002  0.25154918  0.04614539  1
  S2-  S227  1  0.12390918  0.24117364  0.53794888  1
  S2-  S228  1  0.13579845  0.50520857  0.03864937  1
  S2-  S229  1  0.12251547  0.49663024  0.54331796  1
  S2-  S230  1  0.13196302  0.74995505  0.04567937  1
  S2-  S231  1  0.11586608  0.74145560  0.54020321  1
  S2-  S232  1  0.38252130  0.00310049  0.03822100  1
  S2-  S233  1  0.37173319  -0.01356451  0.54162601  1
  S2-  S234  1  0.38056452  0.24918270  0.03607195  1
  S2-  S235  1  0.36636697  0.24000418  0.55032524  1
  S2-  S236  1  0.38238250  0.50027654  0.03715012  1
  S2-  S237  1  0.37232711  0.49410293  0.54169281  1
  S2-  S238  1  0.38612482  0.74747074  0.03748502  1
  S2-  S239  1  0.37265941  0.73814147  0.53798676  1
  S2-  S240  1  0.62953387  -0.00585307  0.05448801  1
  S2-  S241  1  0.61933432  -0.00880748  0.54159966  1
  S2-  S242  1  0.63004690  0.25318701  0.04206071  1
  S2-  S243  1  0.61362715  0.23640321  0.53808145  1
  S2-  S244  1  0.63457691  0.49932466  0.04965472  1
  S2-  S245  1  0.61744957  0.48831098  0.54882918  1
  S2-  S246  1  0.63261094  0.74720949  0.05580068  1
  S2-  S247  1  0.61882783  0.74165446  0.53525962  1
  S2-  S248  1  0.88189614  0.00171748  0.06209246  1
  S2-  S249  1  0.86994941  -0.01160417  0.54432282  1
  S2-  S250  1  0.89253856  0.24812774  0.06704854  1
  S2-  S251  1  0.87223171  0.24037318  0.53142754  1
  S2-  S252  1  0.88344931  0.50267560  0.04932220  1
  S2-  S253  1  0.86814745  0.49415372  0.54438531  1
  S2-  S254  1  0.88157190  0.74695654  0.05641106  1
  S2-  S255  1  0.87021800  0.74076418  0.54071202  1
