# generated using pymatgen
data_La12Ce14Pr13Nd13Sm12(BiS2)64
_symmetry_space_group_name_H-M   'P 1'
_cell_length_a   16.11983448
_cell_length_b   16.11894041
_cell_length_c   27.44524485
_cell_angle_alpha   89.93060325
_cell_angle_beta   89.79882884
_cell_angle_gamma   89.98686327
_symmetry_Int_Tables_number   1
_chemical_formula_structural   La12Ce14Pr13Nd13Sm12(BiS2)64
_chemical_formula_sum   'La12 Ce14 Pr13 Nd13 Sm12 Bi64 S128'
_cell_volume   7131.17626224
_cell_formula_units_Z   1
loop_
 _symmetry_equiv_pos_site_id
 _symmetry_equiv_pos_as_xyz
  1  'x, y, z'
loop_
 _atom_type_symbol
 _atom_type_oxidation_number
  La3+  3.0
  Ce3+  3.0
  Pr3+  3.0
  Nd3+  3.0
  Sm3+  3.0
  Bi2+  2.0
  S2-  -2.0
loop_
 _atom_site_type_symbol
 _atom_site_label
 _atom_site_symmetry_multiplicity
 _atom_site_fract_x
 _atom_site_fract_y
 _atom_site_fract_z
 _atom_site_occupancy
  La3+  La0  1  0.24958938  0.12421970  0.07121798  1
  La3+  La1  1  0.75554719  0.13128218  0.61146860  1
  La3+  La2  1  0.25230599  0.89095342  0.56291555  1
  La3+  La3  1  0.63262375  0.74438773  0.93826557  1
  La3+  La4  1  0.62789868  0.01882254  0.43381411  1
  La3+  La5  1  0.13271188  0.00272424  0.38644591  1
  La3+  La6  1  0.26317492  0.63712665  0.60253609  1
  La3+  La7  1  0.88361592  -0.00131510  0.92273063  1
  La3+  La8  1  0.24370313  0.38984791  0.56671600  1
  La3+  La9  1  0.50204413  0.39236876  0.56174719  1
  La3+  La10  1  0.37224522  0.76417851  0.43475666  1
  La3+  La11  1  0.50014218  0.13756088  0.56746283  1
  Ce3+  Ce12  1  0.38154353  0.24765642  0.94003024  1
  Ce3+  Ce13  1  0.74848413  0.63578269  0.56180439  1
  Ce3+  Ce14  1  0.75436458  0.87234934  0.05566434  1
  Ce3+  Ce15  1  0.87986344  0.49799567  0.93385973  1
  Ce3+  Ce16  1  0.24927681  0.13282896  0.56200398  1
  Ce3+  Ce17  1  0.50856313  0.64279497  0.56279741  1
  Ce3+  Ce18  1  0.50535747  0.37116095  0.06517027  1
  Ce3+  Ce19  1  0.37462036  0.02333467  0.42844615  1
  Ce3+  Ce20  1  0.13003269  0.51655252  0.43660207  1
  Ce3+  Ce21  1  0.62851934  0.76305103  0.43025612  1
  Ce3+  Ce22  1  0.00422956  0.61985236  0.06638977  1
  Ce3+  Ce23  1  0.13271632  0.24729278  0.93781855  1
  Ce3+  Ce24  1  0.13213812  0.74546933  0.94444216  1
  Ce3+  Ce25  1  0.12781371  0.25850450  0.43726667  1
  Pr3+  Pr26  1  0.75616932  0.62000504  0.07360776  1
  Pr3+  Pr27  1  -0.00006303  0.88916000  0.56238130  1
  Pr3+  Pr28  1  0.50419516  0.61777150  0.09370428  1
  Pr3+  Pr29  1  0.13091398  -0.00264825  0.93284299  1
  Pr3+  Pr30  1  0.87469674  0.51267233  0.43302921  1
  Pr3+  Pr31  1  0.00058963  0.12436864  0.06335660  1
  Pr3+  Pr32  1  0.38400187  0.51327015  0.43499839  1
  Pr3+  Pr33  1  0.88302386  0.25267488  0.92675012  1
  Pr3+  Pr34  1  0.63409449  -0.00236572  0.92461254  1
  Pr3+  Pr35  1  0.25372738  0.62533749  0.07527703  1
  Pr3+  Pr36  1  0.75149624  0.89073146  0.55242970  1
  Pr3+  Pr37  1  0.25791859  0.37435854  0.05515319  1
  Pr3+  Pr38  1  0.37580726  0.26189060  0.44178556  1
  Nd3+  Nd39  1  0.62958696  0.49658250  0.94470996  1
  Nd3+  Nd40  1  0.00179697  0.38789524  0.55719240  1
  Nd3+  Nd41  1  0.00500266  0.87379863  0.05841241  1
  Nd3+  Nd42  1  0.88068391  0.76367185  0.44716442  1
  Nd3+  Nd43  1  0.00356228  0.63577665  0.56586736  1
  Nd3+  Nd44  1  0.38108733  0.74668086  0.94176646  1
  Nd3+  Nd45  1  0.38093497  -0.00220261  0.94138376  1
  Nd3+  Nd46  1  0.88433877  0.01336081  0.43604413  1
  Nd3+  Nd47  1  0.50375964  0.88939682  0.54877038  1
  Nd3+  Nd48  1  0.87883978  0.26180457  0.44178054  1
  Nd3+  Nd49  1  0.13286851  0.50045360  0.93975497  1
  Nd3+  Nd50  1  0.75806253  0.11850186  0.05983812  1
  Nd3+  Nd51  1  0.63085827  0.51359229  0.43442472  1
  Sm3+  Sm52  1  0.63442133  0.26276639  0.45106033  1
  Sm3+  Sm53  1  0.63087770  0.24683080  0.94739509  1
  Sm3+  Sm54  1  0.38371139  0.49980334  0.94373442  1
  Sm3+  Sm55  1  0.75536514  0.38527050  0.56896174  1
  Sm3+  Sm56  1  0.50631877  0.11894539  0.05262028  1
  Sm3+  Sm57  1  0.75600735  0.37092570  0.05799174  1
  Sm3+  Sm58  1  0.12723720  0.75624105  0.44149803  1
  Sm3+  Sm59  1  -0.00115087  0.13725754  0.55779289  1
  Sm3+  Sm60  1  0.25851154  0.87360666  0.05990382  1
  Sm3+  Sm61  1  0.00329544  0.37223479  0.05380399  1
  Sm3+  Sm62  1  0.88154363  0.74369824  0.94350662  1
  Sm3+  Sm63  1  0.50674079  0.87152152  0.05597000  1
  Bi2+  Bi64  1  0.00708567  0.13207262  0.28540722  1
  Bi2+  Bi65  1  -0.02109929  0.19242428  0.77091387  1
  Bi2+  Bi66  1  0.04372089  0.39441809  0.30040695  1
  Bi2+  Bi67  1  0.00888560  0.41674645  0.79139352  1
  Bi2+  Bi68  1  -0.03806810  0.57387731  0.31492229  1
  Bi2+  Bi69  1  -0.00558226  0.60927373  0.77971678  1
  Bi2+  Bi70  1  -0.00434550  0.85031253  0.29108258  1
  Bi2+  Bi71  1  0.01465744  0.87701742  0.79492014  1
  Bi2+  Bi72  1  0.26589734  0.22128646  0.28166452  1
  Bi2+  Bi73  1  0.22166917  0.07658208  0.81271816  1
  Bi2+  Bi74  1  0.24277218  0.40567189  0.31065181  1
  Bi2+  Bi75  1  0.23771166  0.27164533  0.78177730  1
  Bi2+  Bi76  1  0.20777841  0.62554945  0.27848687  1
  Bi2+  Bi77  1  0.25395516  0.63541381  0.82678232  1
  Bi2+  Bi78  1  0.26467041  0.85479290  0.28688087  1
  Bi2+  Bi79  1  0.20930635  0.88762704  0.78113195  1
  Bi2+  Bi80  1  0.50191346  0.07375200  0.31163140  1
  Bi2+  Bi81  1  0.48843276  0.17032845  0.73081354  1
  Bi2+  Bi82  1  0.50265392  0.37601804  0.27989524  1
  Bi2+  Bi83  1  0.50308176  0.36468834  0.81792035  1
  Bi2+  Bi84  1  0.47129491  0.62413251  0.30314073  1
  Bi2+  Bi85  1  0.50871148  0.56592652  0.77093601  1
  Bi2+  Bi86  1  0.55138756  0.89956772  0.26867009  1
  Bi2+  Bi87  1  0.48619350  0.88271820  0.80691592  1
  Bi2+  Bi88  1  0.76334815  0.07495547  0.27781294  1
  Bi2+  Bi89  1  0.70719415  0.12310821  0.80282028  1
  Bi2+  Bi90  1  0.77498636  0.33749681  0.30821509  1
  Bi2+  Bi91  1  0.75749544  0.45162110  0.78983676  1
  Bi2+  Bi92  1  0.77663217  0.56982369  0.26937366  1
  Bi2+  Bi93  1  0.82298742  0.62602543  0.82902767  1
  Bi2+  Bi94  1  0.79937577  0.84497354  0.28255382  1
  Bi2+  Bi95  1  0.75274241  0.84361103  0.79249077  1
  Bi2+  Bi96  1  0.14325014  -0.02277895  0.18109605  1
  Bi2+  Bi97  1  0.09837853  0.03374447  0.72783539  1
  Bi2+  Bi98  1  0.10412595  0.26092027  0.21607495  1
  Bi2+  Bi99  1  0.11896698  0.22248295  0.69098302  1
  Bi2+  Bi100  1  0.15095293  0.47841975  0.21151533  1
  Bi2+  Bi101  1  0.15400276  0.49173039  0.71088818  1
  Bi2+  Bi102  1  0.04020811  0.68612393  0.22976335  1
  Bi2+  Bi103  1  0.12250378  0.74927569  0.71199531  1
  Bi2+  Bi104  1  0.42080917  0.00770189  0.21374013  1
  Bi2+  Bi105  1  0.36176718  0.02768750  0.71978153  1
  Bi2+  Bi106  1  0.41082530  0.25563924  0.20759000  1
  Bi2+  Bi107  1  0.31717923  0.21267860  0.68049169  1
  Bi2+  Bi108  1  0.36253840  0.46453171  0.21152759  1
  Bi2+  Bi109  1  0.39630045  0.42745952  0.72822871  1
  Bi2+  Bi110  1  0.36942470  0.77007692  0.20533901  1
  Bi2+  Bi111  1  0.39437979  0.77604666  0.70383354  1
  Bi2+  Bi112  1  0.65354892  0.04921704  0.18515303  1
  Bi2+  Bi113  1  0.62019572  -0.03474455  0.70152354  1
  Bi2+  Bi114  1  0.61900002  0.21172489  0.25294403  1
  Bi2+  Bi115  1  0.62652113  0.32147845  0.72596573  1
  Bi2+  Bi116  1  0.63217085  0.47716378  0.21484699  1
  Bi2+  Bi117  1  0.66430930  0.51322913  0.69303629  1
  Bi2+  Bi118  1  0.64469501  0.73357989  0.23834090  1
  Bi2+  Bi119  1  0.64795742  0.70089981  0.73641918  1
  Bi2+  Bi120  1  0.87177266  -0.01629094  0.19908998  1
  Bi2+  Bi121  1  0.89124933  -0.02663417  0.69771028  1
  Bi2+  Bi122  1  0.83370780  0.24903092  0.20298337  1
  Bi2+  Bi123  1  0.89201021  0.36271648  0.70556484  1
  Bi2+  Bi124  1  0.89978995  0.43178977  0.22094879  1
  Bi2+  Bi125  1  0.86276073  0.53438810  0.65727075  1
  Bi2+  Bi126  1  0.84833086  0.71902235  0.20013465  1
  Bi2+  Bi127  1  0.85292853  0.70195327  0.72057348  1
  S2-  S128  1  0.10915592  0.13148208  0.14275376  1
  S2-  S129  1  -0.07749443  0.11022033  0.64575140  1
  S2-  S130  1  -0.01117509  0.34063136  0.15000693  1
  S2-  S131  1  0.09977808  0.38054881  0.64060722  1
  S2-  S132  1  -0.11159201  0.59160624  0.14076435  1
  S2-  S133  1  0.10164483  0.61942738  0.64768812  1
  S2-  S134  1  -0.00893052  0.89012608  0.15708679  1
  S2-  S135  1  0.00351614  0.85610690  0.66142249  1
  S2-  S136  1  0.29256500  0.04773796  0.15805022  1
  S2-  S137  1  0.27780705  0.02158537  0.63784340  1
  S2-  S138  1  0.29049366  0.33968408  0.15181681  1
  S2-  S139  1  0.28947363  0.47504045  0.65104216  1
  S2-  S140  1  0.12046528  0.61521610  0.14334249  1
  S2-  S141  1  0.24941900  0.63350389  0.73195944  1
  S2-  S142  1  0.23653646  0.83059667  0.15422094  1
  S2-  S143  1  0.25696978  0.79815860  0.65062837  1
  S2-  S144  1  0.50248708  0.13045105  0.14987657  1
  S2-  S145  1  0.58740699  0.11439614  0.65272834  1
  S2-  S146  1  0.50592251  0.46195487  0.14786257  1
  S2-  S147  1  0.50142502  0.35629585  0.66019457  1
  S2-  S148  1  0.36516366  0.62561284  0.15581542  1
  S2-  S149  1  0.42141701  0.65021164  0.64895539  1
  S2-  S150  1  0.48291460  0.86290034  0.15267573  1
  S2-  S151  1  0.50022352  0.88471187  0.64926371  1
  S2-  S152  1  0.87201451  0.12946755  0.13616369  1
  S2-  S153  1  0.75555841  0.08291731  0.71573520  1
  S2-  S154  1  0.72986288  0.36795193  0.15521358  1
  S2-  S155  1  0.75586328  0.29265931  0.65364981  1
  S2-  S156  1  0.64330925  0.63394217  0.15400689  1
  S2-  S157  1  0.63423579  0.66121122  0.63476857  1
  S2-  S158  1  0.73265385  0.90892433  0.14963899  1
  S2-  S159  1  0.74792805  0.90209899  0.65235613  1
  S2-  S160  1  0.12803056  0.01348074  0.27263164  1
  S2-  S161  1  0.01863549  0.00423187  0.85568926  1
  S2-  S162  1  0.13331126  0.17478745  0.35137113  1
  S2-  S163  1  0.08937134  0.24941695  0.84401562  1
  S2-  S164  1  0.11011629  0.62953533  0.36319438  1
  S2-  S165  1  0.14279925  0.49551888  0.84099030  1
  S2-  S166  1  0.12703187  0.83591044  0.35183895  1
  S2-  S167  1  0.12705862  0.75870533  0.84694981  1
  S2-  S168  1  0.29694513  -0.02301643  0.34634512  1
  S2-  S169  1  0.36392335  -0.00728878  0.84353752  1
  S2-  S170  1  0.38396487  0.17008947  0.35660641  1
  S2-  S171  1  0.37498171  0.24982661  0.84299165  1
  S2-  S172  1  0.32484429  0.56025219  0.34123337  1
  S2-  S173  1  0.37414047  0.51888345  0.84663572  1
  S2-  S174  1  0.38744301  0.77165813  0.33304885  1
  S2-  S175  1  0.37239059  0.75558739  0.84310083  1
  S2-  S176  1  0.65739071  -0.02968293  0.33778942  1
  S2-  S177  1  0.56822021  0.01637658  0.82825152  1
  S2-  S178  1  0.63667514  0.26780544  0.35325872  1
  S2-  S179  1  0.62494759  0.26093173  0.85062154  1
  S2-  S180  1  0.51633803  0.49738271  0.35783825  1
  S2-  S181  1  0.61203173  0.50736881  0.84580732  1
  S2-  S182  1  0.61553962  0.69785865  0.34116689  1
  S2-  S183  1  0.60910729  0.77179069  0.83986023  1
  S2-  S184  1  0.96289537  0.00118075  0.34755378  1
  S2-  S185  1  0.76068415  -0.01445617  0.85095119  1
  S2-  S186  1  0.89709478  0.23835614  0.34269176  1
  S2-  S187  1  0.86337068  0.16560034  0.83998081  1
  S2-  S188  1  0.75018822  0.49135856  0.36131452  1
  S2-  S189  1  0.87451487  0.38900398  0.85765084  1
  S2-  S190  1  0.88481834  0.74496882  0.34822953  1
  S2-  S191  1  0.88027980  0.80943012  0.85217559  1
  S2-  S192  1  0.00237622  0.13749823  0.45457599  1
  S2-  S193  1  0.00773489  0.12680516  0.95618943  1
  S2-  S194  1  0.00279960  0.38856882  0.45026754  1
  S2-  S195  1  0.01076837  0.37556235  0.95119995  1
  S2-  S196  1  -0.00261736  0.63603029  0.46162856  1
  S2-  S197  1  0.00536628  0.62185820  0.95517712  1
  S2-  S198  1  0.00440228  0.88733909  0.45611797  1
  S2-  S199  1  0.00638584  0.86722354  0.95431768  1
  S2-  S200  1  0.24866652  0.13624058  0.45659327  1
  S2-  S201  1  0.25637846  0.12234233  0.95641933  1
  S2-  S202  1  0.25249705  0.38811118  0.45427520  1
  S2-  S203  1  0.25842183  0.37542361  0.94862966  1
  S2-  S204  1  0.25441529  0.63759993  0.45283284  1
  S2-  S205  1  0.25876507  0.62199844  0.96184441  1
  S2-  S206  1  0.24618732  0.88890424  0.45486583  1
  S2-  S207  1  0.25642067  0.87287939  0.95271451  1
  S2-  S208  1  0.50695516  0.14348594  0.45928669  1
  S2-  S209  1  0.50674593  0.12229587  0.94840352  1
  S2-  S210  1  0.50641618  0.38101195  0.45630674  1
  S2-  S211  1  0.50538210  0.37249814  0.95864659  1
  S2-  S212  1  0.50591469  0.64112299  0.45453791  1
  S2-  S213  1  0.50482962  0.62197104  0.95082312  1
  S2-  S214  1  0.50205692  0.89093586  0.44206479  1
  S2-  S215  1  0.50618068  0.87379521  0.95118320  1
  S2-  S216  1  0.75661434  0.13787282  0.44259357  1
  S2-  S217  1  0.75389647  0.12564237  0.95442726  1
  S2-  S218  1  0.75534272  0.38411030  0.46360067  1
  S2-  S219  1  0.75083497  0.37145660  0.95460849  1
  S2-  S220  1  0.75376041  0.64115403  0.45470451  1
  S2-  S221  1  0.75638633  0.62057088  0.96127063  1
  S2-  S222  1  0.75602669  0.88876395  0.44589893  1
  S2-  S223  1  0.75659859  0.86841265  0.95290689  1
  S2-  S224  1  0.13200500  -0.00624907  0.04089589  1
  S2-  S225  1  0.11918595  0.01590808  0.55626837  1
  S2-  S226  1  0.12950787  0.25308103  0.04340964  1
  S2-  S227  1  0.12429245  0.25744629  0.54209408  1
  S2-  S228  1  0.12927577  0.49364725  0.04538627  1
  S2-  S229  1  0.12490268  0.51409566  0.54087099  1
  S2-  S230  1  0.13189409  0.75137098  0.04753452  1
  S2-  S231  1  0.12362715  0.76161275  0.54626729  1
  S2-  S232  1  0.38306464  -0.00421688  0.04592231  1
  S2-  S233  1  0.38228325  0.01436658  0.53576583  1
  S2-  S234  1  0.38317489  0.24333556  0.04634722  1
  S2-  S235  1  0.37419002  0.26438747  0.54837796  1
  S2-  S236  1  0.38271712  0.50092441  0.04797329  1
  S2-  S237  1  0.37892215  0.51654862  0.54247362  1
  S2-  S238  1  0.38336087  0.74814327  0.04786842  1
  S2-  S239  1  0.38012406  0.76507789  0.54249183  1
  S2-  S240  1  0.62903812  -0.00254779  0.03815539  1
  S2-  S241  1  0.63078378  0.01654752  0.54235971  1
  S2-  S242  1  0.63131781  0.24447433  0.05198607  1
  S2-  S243  1  0.63110175  0.26210714  0.55384170  1
  S2-  S244  1  0.63217952  0.49570142  0.04887768  1
  S2-  S245  1  0.63216072  0.50843382  0.54279562  1
  S2-  S246  1  0.62671497  0.74608032  0.04685712  1
  S2-  S247  1  0.62913182  0.76807794  0.53475521  1
  S2-  S248  1  0.87987198  -0.00540659  0.03678605  1
  S2-  S249  1  0.87324546  0.01635247  0.54168688  1
  S2-  S250  1  0.87805757  0.25203613  0.03679709  1
  S2-  S251  1  0.87688529  0.26286025  0.54801994  1
  S2-  S252  1  0.87856348  0.49064581  0.03994222  1
  S2-  S253  1  0.87647386  0.51003282  0.54044722  1
  S2-  S254  1  0.87977427  0.74879743  0.04759204  1
  S2-  S255  1  0.87519057  0.76045967  0.55301979  1
