# generated using pymatgen
data_La12Ce14Pr13Nd13Sm12(BiS2)64
_symmetry_space_group_name_H-M   'P 1'
_cell_length_a   16.19077844
_cell_length_b   16.20994840
_cell_length_c   27.16015338
_cell_angle_alpha   89.96936219
_cell_angle_beta   90.08691151
_cell_angle_gamma   89.95079384
_symmetry_Int_Tables_number   1
_chemical_formula_structural   La12Ce14Pr13Nd13Sm12(BiS2)64
_chemical_formula_sum   'La12 Ce14 Pr13 Nd13 Sm12 Bi64 S128'
_cell_volume   7128.21611314
_cell_formula_units_Z   1
loop_
 _symmetry_equiv_pos_site_id
 _symmetry_equiv_pos_as_xyz
  1  'x, y, z'
loop_
 _atom_type_symbol
 _atom_type_oxidation_number
  La3+  3.0
  Ce3+  3.0
  Pr3+  3.0
  Nd3+  3.0
  Sm3+  3.0
  Bi2+  2.0
  S2-  -2.0
loop_
 _atom_site_type_symbol
 _atom_site_label
 _atom_site_symmetry_multiplicity
 _atom_site_fract_x
 _atom_site_fract_y
 _atom_site_fract_z
 _atom_site_occupancy
  La3+  La0  1  0.63037988  0.51363160  0.42426670  1
  La3+  La1  1  0.00356298  0.35503794  0.07644181  1
  La3+  La2  1  0.11055271  0.50476347  0.39100060  1
  La3+  La3  1  0.63573234  0.23728017  0.90638025  1
  La3+  La4  1  0.62728818  -0.01195234  0.92933897  1
  La3+  La5  1  0.63159568  0.49987729  0.91802762  1
  La3+  La6  1  0.63427011  0.24415311  0.42701809  1
  La3+  La7  1  0.51642292  0.35353547  0.08937615  1
  La3+  La8  1  0.76390726  0.63517326  0.59262739  1
  La3+  La9  1  0.00169734  0.10737384  0.06599878  1
  La3+  La10  1  0.50580927  0.63337178  0.56612809  1
  La3+  La11  1  0.37448833  0.24218095  0.90782868  1
  Ce3+  Ce12  1  0.38341455  0.00498242  0.45077649  1
  Ce3+  Ce13  1  0.88286314  -0.01087191  0.93855666  1
  Ce3+  Ce14  1  0.25699856  0.38214308  0.54774327  1
  Ce3+  Ce15  1  0.13041526  0.75547279  0.43408700  1
  Ce3+  Ce16  1  0.38504487  0.48433729  0.94952403  1
  Ce3+  Ce17  1  0.74865677  0.36444389  0.04892713  1
  Ce3+  Ce18  1  0.50638895  0.11820008  0.04899658  1
  Ce3+  Ce19  1  0.63451693  0.75551926  0.44203619  1
  Ce3+  Ce20  1  0.88301166  0.24210310  0.93540048  1
  Ce3+  Ce21  1  0.50723185  0.88010941  0.56221828  1
  Ce3+  Ce22  1  0.88147480  0.00402778  0.44430101  1
  Ce3+  Ce23  1  0.00854671  0.38192454  0.55669520  1
  Ce3+  Ce24  1  0.13295407  -0.00820676  0.94432124  1
  Ce3+  Ce25  1  0.13041748  0.24056246  0.94355797  1
  Pr3+  Pr26  1  0.88369888  0.49013787  0.94573913  1
  Pr3+  Pr27  1  0.26161161  0.60226108  0.08013605  1
  Pr3+  Pr28  1  0.01414589  0.88555093  0.56399844  1
  Pr3+  Pr29  1  0.88254870  0.25959824  0.44174453  1
  Pr3+  Pr30  1  0.37685475  0.51300046  0.42273199  1
  Pr3+  Pr31  1  0.37002166  -0.00938849  0.92614510  1
  Pr3+  Pr32  1  0.38170212  0.75927570  0.43782831  1
  Pr3+  Pr33  1  0.13586844  0.48803750  0.94719758  1
  Pr3+  Pr34  1  0.76560373  0.88065790  0.57511225  1
  Pr3+  Pr35  1  0.50682601  0.13563431  0.57019255  1
  Pr3+  Pr36  1  0.13276555  0.00825725  0.42730205  1
  Pr3+  Pr37  1  0.50440629  0.86798764  0.06292780  1
  Pr3+  Pr38  1  0.88349072  0.75404114  0.44327262  1
  Nd3+  Nd39  1  0.75709808  0.13604173  0.56653919  1
  Nd3+  Nd40  1  0.38093118  0.73669823  0.94290276  1
  Nd3+  Nd41  1  0.25907330  0.86208694  0.06045804  1
  Nd3+  Nd42  1  0.88263493  0.74000633  0.93877332  1
  Nd3+  Nd43  1  0.25585745  0.62744746  0.54917421  1
  Nd3+  Nd44  1  0.25873076  0.35718819  0.06963913  1
  Nd3+  Nd45  1  0.26200385  0.11632173  0.06495234  1
  Nd3+  Nd46  1  0.13376721  0.25443467  0.43006535  1
  Nd3+  Nd47  1  0.75409944  0.61376121  0.05922789  1
  Nd3+  Nd48  1  0.00948110  0.62809205  0.56319762  1
  Nd3+  Nd49  1  0.38403351  0.25388043  0.43416963  1
  Nd3+  Nd50  1  0.50869325  0.38363856  0.55101324  1
  Nd3+  Nd51  1  0.51355399  0.61273804  0.06687723  1
  Sm3+  Sm52  1  0.13392037  0.73623432  0.95198639  1
  Sm3+  Sm53  1  0.63370160  0.00325311  0.45342894  1
  Sm3+  Sm54  1  0.75476697  0.86413563  0.05133477  1
  Sm3+  Sm55  1  0.25312602  0.88085824  0.56008865  1
  Sm3+  Sm56  1  0.00661915  0.61398440  0.06130800  1
  Sm3+  Sm57  1  0.62918020  0.73882657  0.94112359  1
  Sm3+  Sm58  1  0.25544867  0.13343074  0.55825672  1
  Sm3+  Sm59  1  0.74990579  0.11883987  0.05018187  1
  Sm3+  Sm60  1  0.00869656  0.13399626  0.55283809  1
  Sm3+  Sm61  1  0.00492141  0.86570375  0.06072181  1
  Sm3+  Sm62  1  0.88029483  0.50650566  0.44675150  1
  Sm3+  Sm63  1  0.75246298  0.38221298  0.55433284  1
  Bi2+  Bi64  1  0.00549377  0.10563936  0.28819023  1
  Bi2+  Bi65  1  0.03610306  0.10529016  0.79778950  1
  Bi2+  Bi66  1  -0.03893902  0.35771391  0.29307615  1
  Bi2+  Bi67  1  0.01711205  0.29246783  0.83043699  1
  Bi2+  Bi68  1  -0.02456736  0.65590308  0.27278549  1
  Bi2+  Bi69  1  0.02763729  0.60449991  0.78361834  1
  Bi2+  Bi70  1  -0.02343737  0.87979844  0.29094204  1
  Bi2+  Bi71  1  0.00518229  0.92186327  0.75899912  1
  Bi2+  Bi72  1  0.25154856  0.05559871  0.28508053  1
  Bi2+  Bi73  1  0.23646462  0.11652216  0.78998940  1
  Bi2+  Bi74  1  0.23504087  0.33871507  0.27434281  1
  Bi2+  Bi75  1  0.20683060  0.39054480  0.79103665  1
  Bi2+  Bi76  1  0.23179556  0.68404205  0.28836230  1
  Bi2+  Bi77  1  0.23519147  0.63335612  0.81332887  1
  Bi2+  Bi78  1  0.16954442  0.87961838  0.32031430  1
  Bi2+  Bi79  1  0.27863780  0.86584888  0.79667357  1
  Bi2+  Bi80  1  0.51044046  0.12342052  0.29688432  1
  Bi2+  Bi81  1  0.50018761  0.14359673  0.78047786  1
  Bi2+  Bi82  1  0.48339866  0.36670480  0.29090007  1
  Bi2+  Bi83  1  0.47971074  0.41451603  0.79967283  1
  Bi2+  Bi84  1  0.50315098  0.70788275  0.29034629  1
  Bi2+  Bi85  1  0.44868273  0.65273033  0.74595773  1
  Bi2+  Bi86  1  0.45017045  0.88844698  0.32547806  1
  Bi2+  Bi87  1  0.46880386  0.87143722  0.82949931  1
  Bi2+  Bi88  1  0.73824988  0.03939141  0.28712982  1
  Bi2+  Bi89  1  0.77116736  0.11358122  0.78784410  1
  Bi2+  Bi90  1  0.73370331  0.35979249  0.28725421  1
  Bi2+  Bi91  1  0.86003288  0.36416894  0.78216244  1
  Bi2+  Bi92  1  0.75976757  0.66320966  0.28784917  1
  Bi2+  Bi93  1  0.74648751  0.60008328  0.79800461  1
  Bi2+  Bi94  1  0.64650688  0.87102910  0.31601576  1
  Bi2+  Bi95  1  0.75353921  0.84451137  0.80111484  1
  Bi2+  Bi96  1  0.11380285  0.00453728  0.21180719  1
  Bi2+  Bi97  1  0.14941594  0.01894886  0.69979907  1
  Bi2+  Bi98  1  0.10878204  0.25838570  0.20938441  1
  Bi2+  Bi99  1  0.10142114  0.28033688  0.72436096  1
  Bi2+  Bi100  1  0.11697920  0.53078074  0.20368266  1
  Bi2+  Bi101  1  0.10804154  0.52876325  0.68867345  1
  Bi2+  Bi102  1  0.14214810  0.79877849  0.21195416  1
  Bi2+  Bi103  1  0.12265694  0.76439877  0.74603810  1
  Bi2+  Bi104  1  0.39361480  0.00781148  0.17791391  1
  Bi2+  Bi105  1  0.40766962  -0.05524869  0.72387734  1
  Bi2+  Bi106  1  0.35391437  0.17989634  0.21981214  1
  Bi2+  Bi107  1  0.36251895  0.26389236  0.68948993  1
  Bi2+  Bi108  1  0.36163693  0.52198336  0.21950086  1
  Bi2+  Bi109  1  0.29811091  0.51652962  0.71884021  1
  Bi2+  Bi110  1  0.38604353  0.82539032  0.22397555  1
  Bi2+  Bi111  1  0.32485153  0.77817076  0.69324347  1
  Bi2+  Bi112  1  0.57322513  -0.01362899  0.22628911  1
  Bi2+  Bi113  1  0.60439027  -0.04859018  0.76074941  1
  Bi2+  Bi114  1  0.64592723  0.23194410  0.20051918  1
  Bi2+  Bi115  1  0.62736051  0.23936605  0.69573878  1
  Bi2+  Bi116  1  0.60440847  0.50184788  0.19998805  1
  Bi2+  Bi117  1  0.61958322  0.46046269  0.69725206  1
  Bi2+  Bi118  1  0.64855811  0.75981629  0.21045383  1
  Bi2+  Bi119  1  0.60374726  0.76424221  0.72977086  1
  Bi2+  Bi120  1  0.86086636  -0.02750744  0.20736785  1
  Bi2+  Bi121  1  0.84659312  0.00664158  0.70590250  1
  Bi2+  Bi122  1  0.86901176  0.19127065  0.22459795  1
  Bi2+  Bi123  1  0.91936902  0.19838774  0.71585249  1
  Bi2+  Bi124  1  0.85044735  0.50494008  0.25034251  1
  Bi2+  Bi125  1  0.91535604  0.50583497  0.71037936  1
  Bi2+  Bi126  1  0.87336405  0.77867837  0.20514947  1
  Bi2+  Bi127  1  0.86529348  0.76736120  0.71715358  1
  S2-  S128  1  -0.01559835  0.21166666  0.14603822  1
  S2-  S129  1  0.02057657  0.11151768  0.64974954  1
  S2-  S130  1  0.02994913  0.40573031  0.17391925  1
  S2-  S131  1  0.01400546  0.38700549  0.65490893  1
  S2-  S132  1  0.00583783  0.62372446  0.15923573  1
  S2-  S133  1  -0.07821044  0.65059322  0.64953226  1
  S2-  S134  1  -0.00393072  0.97292611  0.13843310  1
  S2-  S135  1  -0.09171222  0.88565950  0.64553951  1
  S2-  S136  1  0.25101641  0.23042477  0.14423743  1
  S2-  S137  1  0.25909159  0.14833063  0.65661876  1
  S2-  S138  1  0.25425209  0.46672508  0.14877652  1
  S2-  S139  1  0.28037481  0.38251953  0.64571546  1
  S2-  S140  1  0.24468947  0.67576340  0.17379529  1
  S2-  S141  1  0.25156924  0.64104286  0.64943393  1
  S2-  S142  1  0.24888979  0.90876720  0.15601326  1
  S2-  S143  1  0.14370267  0.89340506  0.63490678  1
  S2-  S144  1  0.53173645  0.19168350  0.13772203  1
  S2-  S145  1  0.48645451  0.13702478  0.67093148  1
  S2-  S146  1  0.46254910  0.39283318  0.18636648  1
  S2-  S147  1  0.50529667  0.34562258  0.64874848  1
  S2-  S148  1  0.47096166  0.59143418  0.16367108  1
  S2-  S149  1  0.50533007  0.57351122  0.66088913  1
  S2-  S150  1  0.50858301  0.80074623  0.15541372  1
  S2-  S151  1  0.49859785  0.83022440  0.65456980  1
  S2-  S152  1  0.75896276  0.13817262  0.14930038  1
  S2-  S153  1  0.71565800  0.11268904  0.66275791  1
  S2-  S154  1  0.67762991  0.36881232  0.14045989  1
  S2-  S155  1  0.73300617  0.35050936  0.65071870  1
  S2-  S156  1  0.68551319  0.60991852  0.15064962  1
  S2-  S157  1  0.73414626  0.56488026  0.68753175  1
  S2-  S158  1  0.75155434  0.86841623  0.14927761  1
  S2-  S159  1  0.72982728  0.77487943  0.65479282  1
  S2-  S160  1  0.13721365  0.13114415  0.35360155  1
  S2-  S161  1  0.21172106  -0.01362463  0.85768867  1
  S2-  S162  1  0.10133848  0.34249467  0.34473055  1
  S2-  S163  1  0.21744302  0.24927795  0.85834595  1
  S2-  S164  1  0.19677332  0.50755075  0.29941783  1
  S2-  S165  1  0.11095908  0.49616711  0.84707836  1
  S2-  S166  1  0.09499593  0.67134913  0.35013687  1
  S2-  S167  1  0.12113307  0.74227691  0.85444668  1
  S2-  S168  1  0.38641299  0.05014343  0.35660797  1
  S2-  S169  1  0.38226505  0.09871731  0.84596897  1
  S2-  S170  1  0.34951324  0.28216523  0.33722747  1
  S2-  S171  1  0.39403327  0.28067439  0.79546421  1
  S2-  S172  1  0.41175688  0.49580189  0.32245818  1
  S2-  S173  1  0.35318234  0.46378623  0.85318039  1
  S2-  S174  1  0.36619486  0.67589187  0.35060250  1
  S2-  S175  1  0.38443013  0.68935565  0.84600600  1
  S2-  S176  1  0.63476580  0.08353417  0.36721136  1
  S2-  S177  1  0.62616201  0.08531316  0.84575135  1
  S2-  S178  1  0.60362794  0.26066930  0.32734297  1
  S2-  S179  1  0.59294135  0.27602149  0.80197663  1
  S2-  S180  1  0.62312496  0.45968599  0.32533920  1
  S2-  S181  1  0.64979058  0.47287346  0.81525733  1
  S2-  S182  1  0.62664167  0.66009209  0.35959629  1
  S2-  S183  1  0.63035032  0.65711083  0.85549105  1
  S2-  S184  1  0.88723820  0.00706585  0.34672174  1
  S2-  S185  1  0.83878320  -0.01707649  0.84435414  1
  S2-  S186  1  0.84439446  0.25350631  0.34398338  1
  S2-  S187  1  0.79092699  0.24503008  0.85089851  1
  S2-  S188  1  0.93768999  0.50022206  0.35359471  1
  S2-  S189  1  0.86410815  0.50041436  0.84583286  1
  S2-  S190  1  0.87768946  0.75520551  0.34232710  1
  S2-  S191  1  0.86286294  0.73076008  0.83925070  1
  S2-  S192  1  0.00390302  0.13235101  0.44912726  1
  S2-  S193  1  0.00527266  0.11324857  0.95429123  1
  S2-  S194  1  0.00741182  0.38353281  0.45310858  1
  S2-  S195  1  0.00666555  0.36596556  0.96356154  1
  S2-  S196  1  0.00468645  0.62585566  0.45771824  1
  S2-  S197  1  0.00778288  0.61632327  0.95566645  1
  S2-  S198  1  0.00845153  0.88177523  0.45357509  1
  S2-  S199  1  0.00925649  0.86281576  0.95528835  1
  S2-  S200  1  0.26049372  0.13219573  0.45395556  1
  S2-  S201  1  0.25546385  0.11744496  0.95929442  1
  S2-  S202  1  0.25550668  0.38407707  0.44135297  1
  S2-  S203  1  0.25794235  0.36348349  0.96220617  1
  S2-  S204  1  0.24715892  0.62685822  0.44556431  1
  S2-  S205  1  0.25781958  0.61348704  0.96558207  1
  S2-  S206  1  0.25620838  0.88262988  0.45469895  1
  S2-  S207  1  0.25549570  0.85883972  0.95524523  1
  S2-  S208  1  0.50567829  0.12896396  0.46249091  1
  S2-  S209  1  0.50162337  0.11573390  0.94549271  1
  S2-  S210  1  0.50734347  0.38161534  0.44337382  1
  S2-  S211  1  0.50841660  0.36312735  0.92859361  1
  S2-  S212  1  0.50164557  0.63118355  0.45703059  1
  S2-  S213  1  0.50570519  0.61578526  0.95792772  1
  S2-  S214  1  0.51057749  0.88098192  0.45683654  1
  S2-  S215  1  0.50480455  0.86253462  0.95510673  1
  S2-  S216  1  0.76167376  0.12961808  0.45988313  1
  S2-  S217  1  0.75803956  0.11165111  0.94800627  1
  S2-  S218  1  0.75387160  0.38343928  0.44822417  1
  S2-  S219  1  0.75428972  0.37091623  0.94516256  1
  S2-  S220  1  0.76112635  0.62901456  0.45606155  1
  S2-  S221  1  0.75892247  0.61835226  0.95426288  1
  S2-  S222  1  0.75716192  0.88112101  0.46063937  1
  S2-  S223  1  0.75391668  0.86132448  0.94735085  1
  S2-  S224  1  0.13717944  -0.01134300  0.04817044  1
  S2-  S225  1  0.13464546  0.01471355  0.53569695  1
  S2-  S226  1  0.12958055  0.23487352  0.04731367  1
  S2-  S227  1  0.13209715  0.25510534  0.54159081  1
  S2-  S228  1  0.12583063  0.48906081  0.05301272  1
  S2-  S229  1  0.13184460  0.50475362  0.54870641  1
  S2-  S230  1  0.12840661  0.74066488  0.05673087  1
  S2-  S231  1  0.13210382  0.75197886  0.54229231  1
  S2-  S232  1  0.37977382  -0.01009685  0.03906100  1
  S2-  S233  1  0.37804296  0.00559185  0.55848364  1
  S2-  S234  1  0.38656631  0.24270492  0.04519328  1
  S2-  S235  1  0.38213281  0.25547183  0.54206022  1
  S2-  S236  1  0.39236810  0.48155433  0.05426902  1
  S2-  S237  1  0.38250121  0.50622886  0.53766067  1
  S2-  S238  1  0.38171206  0.73596330  0.05179806  1
  S2-  S239  1  0.37721037  0.75802325  0.54563249  1
  S2-  S240  1  0.63218720  -0.01088430  0.04161838  1
  S2-  S241  1  0.63261432  0.00496523  0.55819008  1
  S2-  S242  1  0.63013367  0.24072391  0.02889054  1
  S2-  S243  1  0.63192012  0.25590758  0.53952970  1
  S2-  S244  1  0.62919216  0.49026155  0.03656727  1
  S2-  S245  1  0.63461876  0.50834992  0.54546767  1
  S2-  S246  1  0.63165292  0.74208996  0.04547112  1
  S2-  S247  1  0.63343587  0.75500167  0.54852807  1
  S2-  S248  1  0.87173123  -0.01173300  0.04287756  1
  S2-  S249  1  0.88302811  0.01286909  0.54918271  1
  S2-  S250  1  0.87337537  0.23949844  0.04179979  1
  S2-  S251  1  0.88138511  0.25780110  0.55006059  1
  S2-  S252  1  0.88050744  0.49026965  0.05502981  1
  S2-  S253  1  0.87792764  0.50468324  0.55182738  1
  S2-  S254  1  0.88169844  0.74104440  0.04763798  1
  S2-  S255  1  0.88456668  0.75600526  0.54775845  1
