# generated using pymatgen
data_La12Ce14Pr13Nd13Sm12(BiS2)64
_symmetry_space_group_name_H-M   'P 1'
_cell_length_a   16.10621746
_cell_length_b   16.15799650
_cell_length_c   27.12651276
_cell_angle_alpha   90.04415993
_cell_angle_beta   89.91466957
_cell_angle_gamma   90.06385872
_symmetry_Int_Tables_number   1
_chemical_formula_structural   La12Ce14Pr13Nd13Sm12(BiS2)64
_chemical_formula_sum   'La12 Ce14 Pr13 Nd13 Sm12 Bi64 S128'
_cell_volume   7059.50345774
_cell_formula_units_Z   1
loop_
 _symmetry_equiv_pos_site_id
 _symmetry_equiv_pos_as_xyz
  1  'x, y, z'
loop_
 _atom_type_symbol
 _atom_type_oxidation_number
  La3+  3.0
  Ce3+  3.0
  Pr3+  3.0
  Nd3+  3.0
  Sm3+  3.0
  Bi2+  2.0
  S2-  -2.0
loop_
 _atom_site_type_symbol
 _atom_site_label
 _atom_site_symmetry_multiplicity
 _atom_site_fract_x
 _atom_site_fract_y
 _atom_site_fract_z
 _atom_site_occupancy
  La3+  La0  1  0.88069455  0.50026193  0.93310567  1
  La3+  La1  1  0.62424653  0.48538696  0.42803700  1
  La3+  La2  1  0.25100135  0.11939892  0.56547724  1
  La3+  La3  1  0.26292952  0.87705669  0.07805653  1
  La3+  La4  1  0.87360045  0.75103186  0.41993305  1
  La3+  La5  1  0.88066220  0.75215825  0.93403538  1
  La3+  La6  1  0.61948303  0.50611140  0.89576275  1
  La3+  La7  1  -0.00087026  0.11861718  0.07586030  1
  La3+  La8  1  0.88112387  0.24881804  0.40271329  1
  La3+  La9  1  0.74661387  0.11753621  0.57602766  1
  La3+  La10  1  0.88015097  0.24579537  0.93546378  1
  La3+  La11  1  0.63206298  0.00142965  0.93597120  1
  Ce3+  Ce12  1  0.88070524  0.00118409  0.94964594  1
  Ce3+  Ce13  1  0.11501889  0.24257461  0.45436933  1
  Ce3+  Ce14  1  0.51057707  0.62408438  0.05633385  1
  Ce3+  Ce15  1  0.11517963  -0.00044180  0.44462664  1
  Ce3+  Ce16  1  -0.00953130  0.37026530  0.58191148  1
  Ce3+  Ce17  1  0.12720348  0.75309619  0.93371025  1
  Ce3+  Ce18  1  0.50175799  0.86615121  0.55917454  1
  Ce3+  Ce19  1  0.49940482  0.12046210  0.56330224  1
  Ce3+  Ce20  1  0.12856179  0.50060636  0.92985315  1
  Ce3+  Ce21  1  0.00803856  0.62924934  0.05931672  1
  Ce3+  Ce22  1  0.24506719  0.86828004  0.55563523  1
  Ce3+  Ce23  1  0.37335580  -0.00481201  0.44449673  1
  Ce3+  Ce24  1  0.25548478  0.12454172  0.05572735  1
  Ce3+  Ce25  1  0.25539532  0.37717294  0.05887326  1
  Pr3+  Pr26  1  0.50274606  0.37141724  0.57181754  1
  Pr3+  Pr27  1  0.62202473  0.74485724  0.42241805  1
  Pr3+  Pr28  1  -0.01363594  0.86303307  0.57055483  1
  Pr3+  Pr29  1  0.37925234  -0.00212448  0.93261558  1
  Pr3+  Pr30  1  0.63174162  0.25260626  0.93316069  1
  Pr3+  Pr31  1  0.75036263  0.36770354  0.56636134  1
  Pr3+  Pr32  1  0.51022408  0.37696927  0.05254953  1
  Pr3+  Pr33  1  0.01179216  0.86592545  0.08017485  1
  Pr3+  Pr34  1  0.73532460  0.11817112  0.10580431  1
  Pr3+  Pr35  1  0.62490909  -0.00063222  0.43414547  1
  Pr3+  Pr36  1  0.00833281  0.11200755  0.59952466  1
  Pr3+  Pr37  1  0.37197128  0.49091338  0.44203325  1
  Pr3+  Pr38  1  0.00503383  0.37392602  0.06238203  1
  Nd3+  Nd39  1  0.24841605  0.62106053  0.55773073  1
  Nd3+  Nd40  1  0.75412566  0.62355477  0.05956882  1
  Nd3+  Nd41  1  0.62501622  0.23942532  0.43417978  1
  Nd3+  Nd42  1  0.11817701  0.48993764  0.45249800  1
  Nd3+  Nd43  1  0.12275127  0.74708605  0.43132140  1
  Nd3+  Nd44  1  0.49872490  0.61924822  0.54965103  1
  Nd3+  Nd45  1  0.25760633  0.62373257  0.05687935  1
  Nd3+  Nd46  1  0.87553522  0.48979868  0.44434001  1
  Nd3+  Nd47  1  0.37965184  0.74941774  0.93880832  1
  Nd3+  Nd48  1  0.63581937  0.74987941  0.92793777  1
  Nd3+  Nd49  1  0.12907565  -0.00143462  0.94347161  1
  Nd3+  Nd50  1  0.75553115  0.37547357  0.06139771  1
  Nd3+  Nd51  1  0.13005311  0.24902040  0.94266189  1
  Sm3+  Sm52  1  0.74595390  0.61910574  0.55040971  1
  Sm3+  Sm53  1  0.75343496  0.87356682  0.06576020  1
  Sm3+  Sm54  1  0.36751257  0.74733048  0.43154097  1
  Sm3+  Sm55  1  -0.00457539  0.62508715  0.55915156  1
  Sm3+  Sm56  1  0.37286467  0.24594031  0.44315883  1
  Sm3+  Sm57  1  0.37828605  0.50165417  0.93764709  1
  Sm3+  Sm58  1  0.38056201  0.25279911  0.94397434  1
  Sm3+  Sm59  1  0.73982400  0.86436892  0.56013827  1
  Sm3+  Sm60  1  0.24590585  0.37078331  0.56324580  1
  Sm3+  Sm61  1  0.50648632  0.12591444  0.05159589  1
  Sm3+  Sm62  1  0.87271767  -0.00048447  0.44431694  1
  Sm3+  Sm63  1  0.50512374  0.87408411  0.05611878  1
  Bi2+  Bi64  1  0.04342237  0.10895046  0.30395440  1
  Bi2+  Bi65  1  0.00789496  0.13807608  0.81405079  1
  Bi2+  Bi66  1  0.03904190  0.39066385  0.29467478  1
  Bi2+  Bi67  1  0.06016699  0.38771723  0.78057075  1
  Bi2+  Bi68  1  -0.03230611  0.63344558  0.27404773  1
  Bi2+  Bi69  1  -0.02623312  0.62909920  0.79436924  1
  Bi2+  Bi70  1  -0.01248097  0.87294433  0.29103896  1
  Bi2+  Bi71  1  0.03421076  0.88835987  0.78936652  1
  Bi2+  Bi72  1  0.23824690  0.14100874  0.28530710  1
  Bi2+  Bi73  1  0.28788716  0.14392569  0.78836208  1
  Bi2+  Bi74  1  0.28483674  0.32494669  0.31739455  1
  Bi2+  Bi75  1  0.24637895  0.44590741  0.81080830  1
  Bi2+  Bi76  1  0.30335098  0.62583800  0.28671384  1
  Bi2+  Bi77  1  0.19689559  0.63514541  0.82458357  1
  Bi2+  Bi78  1  0.29399117  0.87638894  0.29217587  1
  Bi2+  Bi79  1  0.22782186  0.82453114  0.80044149  1
  Bi2+  Bi80  1  0.52196128  0.11452330  0.24577872  1
  Bi2+  Bi81  1  0.48498490  0.11870672  0.77859066  1
  Bi2+  Bi82  1  0.50865342  0.41106076  0.30482595  1
  Bi2+  Bi83  1  0.44234421  0.36493953  0.77781317  1
  Bi2+  Bi84  1  0.49806969  0.67117549  0.28387463  1
  Bi2+  Bi85  1  0.39523530  0.62411058  0.78282099  1
  Bi2+  Bi86  1  0.48657175  0.85012403  0.32801107  1
  Bi2+  Bi87  1  0.52706172  0.85526019  0.79048168  1
  Bi2+  Bi88  1  0.75288739  0.08528930  0.29353267  1
  Bi2+  Bi89  1  0.75219324  0.10710754  0.79125913  1
  Bi2+  Bi90  1  0.76284931  0.41257583  0.28748064  1
  Bi2+  Bi91  1  0.75845981  0.35766816  0.79217719  1
  Bi2+  Bi92  1  0.76630810  0.63580385  0.26769815  1
  Bi2+  Bi93  1  0.74696737  0.64749109  0.79387844  1
  Bi2+  Bi94  1  0.67630395  0.89793817  0.31442892  1
  Bi2+  Bi95  1  0.72172651  0.86721747  0.76809551  1
  Bi2+  Bi96  1  0.11816444  0.02664931  0.20544538  1
  Bi2+  Bi97  1  0.15110967  -0.01643683  0.71669375  1
  Bi2+  Bi98  1  0.16651228  0.28410509  0.21308131  1
  Bi2+  Bi99  1  0.19839683  0.26264939  0.71872783  1
  Bi2+  Bi100  1  0.13634694  0.54514107  0.24852903  1
  Bi2+  Bi101  1  0.14539225  0.53640338  0.72204587  1
  Bi2+  Bi102  1  0.11832703  0.75042393  0.21394290  1
  Bi2+  Bi103  1  0.10314433  0.73394058  0.72526088  1
  Bi2+  Bi104  1  0.37028240  0.00284764  0.21584672  1
  Bi2+  Bi105  1  0.41137735  -0.06236743  0.70141644  1
  Bi2+  Bi106  1  0.36510304  0.25305649  0.21890477  1
  Bi2+  Bi107  1  0.37265401  0.12704563  0.67848334  1
  Bi2+  Bi108  1  0.39253623  0.44736129  0.20144546  1
  Bi2+  Bi109  1  0.36502176  0.48311165  0.70311240  1
  Bi2+  Bi110  1  0.36160217  0.75625247  0.20689477  1
  Bi2+  Bi111  1  0.35224606  0.75343689  0.69628420  1
  Bi2+  Bi112  1  0.58167878  -0.07492435  0.21899557  1
  Bi2+  Bi113  1  0.60252890  -0.02206619  0.70062557  1
  Bi2+  Bi114  1  0.62841998  0.26146788  0.21029127  1
  Bi2+  Bi115  1  0.51603717  0.25564580  0.69261237  1
  Bi2+  Bi116  1  0.61364518  0.52648304  0.19388619  1
  Bi2+  Bi117  1  0.62655655  0.50811921  0.70346665  1
  Bi2+  Bi118  1  0.59853507  0.72841427  0.18726336  1
  Bi2+  Bi119  1  0.55642122  0.72570706  0.70883487  1
  Bi2+  Bi120  1  0.85753880  -0.09100727  0.20952447  1
  Bi2+  Bi121  1  0.88066850  -0.00591301  0.71032845  1
  Bi2+  Bi122  1  0.89866691  0.24805305  0.21056412  1
  Bi2+  Bi123  1  0.89553675  0.26510658  0.70790151  1
  Bi2+  Bi124  1  0.87575431  0.50067484  0.20764738  1
  Bi2+  Bi125  1  0.86867831  0.53562038  0.71445997  1
  Bi2+  Bi126  1  0.78994106  0.74300936  0.17173226  1
  Bi2+  Bi127  1  0.86096202  0.73332933  0.70338991  1
  S2-  S128  1  0.04990380  0.18922895  0.16609355  1
  S2-  S129  1  -0.01260680  0.13349380  0.70918544  1
  S2-  S130  1  -0.02392031  0.39159214  0.16240008  1
  S2-  S131  1  0.05040629  0.33307644  0.67550555  1
  S2-  S132  1  0.00352006  0.71756809  0.14348050  1
  S2-  S133  1  -0.00026958  0.72511161  0.63924315  1
  S2-  S134  1  -0.01822948  0.98731993  0.15240390  1
  S2-  S135  1  0.01503240  0.96029741  0.65428959  1
  S2-  S136  1  0.26482901  0.06404271  0.14641449  1
  S2-  S137  1  0.16686178  0.11607897  0.65473120  1
  S2-  S138  1  0.24964663  0.42622391  0.15338440  1
  S2-  S139  1  0.29272391  0.34790370  0.65753228  1
  S2-  S140  1  0.24182003  0.67847087  0.15160985  1
  S2-  S141  1  0.26619111  0.61288821  0.65666337  1
  S2-  S142  1  0.14852568  0.87927909  0.15529684  1
  S2-  S143  1  0.23465365  0.87051858  0.65348384  1
  S2-  S144  1  0.56769288  0.13428212  0.14376285  1
  S2-  S145  1  0.60182646  0.12112586  0.64175119  1
  S2-  S146  1  0.53853896  0.37222867  0.15299742  1
  S2-  S147  1  0.63054643  0.37672214  0.64522719  1
  S2-  S148  1  0.46658803  0.59031254  0.15032717  1
  S2-  S149  1  0.51274306  0.58571361  0.64810324  1
  S2-  S150  1  0.41035891  0.88345718  0.13975877  1
  S2-  S151  1  0.61309989  0.83747598  0.63374761  1
  S2-  S152  1  0.82915559  0.10868529  0.19588664  1
  S2-  S153  1  0.78859583  0.13150890  0.68315721  1
  S2-  S154  1  0.75805494  0.28018556  0.14922066  1
  S2-  S155  1  0.85527235  0.39854003  0.65007014  1
  S2-  S156  1  0.74121394  0.50381865  0.13565918  1
  S2-  S157  1  0.74448077  0.61277725  0.65076982  1
  S2-  S158  1  0.71574795  0.95472033  0.15206200  1
  S2-  S159  1  0.83132798  0.86658018  0.64472953  1
  S2-  S160  1  0.11300178  -0.02969011  0.34607772  1
  S2-  S161  1  0.12041718  0.02080944  0.84368588  1
  S2-  S162  1  0.04852507  0.25753189  0.36245613  1
  S2-  S163  1  0.12443683  0.25488237  0.84283697  1
  S2-  S164  1  0.11734017  0.49934846  0.35253872  1
  S2-  S165  1  0.00830518  0.49362768  0.85665214  1
  S2-  S166  1  0.01426496  0.73130931  0.35240536  1
  S2-  S167  1  0.00475074  0.76808918  0.86039265  1
  S2-  S168  1  0.38555684  -0.00088335  0.34722696  1
  S2-  S169  1  0.37817205  0.01861133  0.83227875  1
  S2-  S170  1  0.43681746  0.26584158  0.35162543  1
  S2-  S171  1  0.39815150  0.24945725  0.84566276  1
  S2-  S172  1  0.35690035  0.48392233  0.34181280  1
  S2-  S173  1  0.44927892  0.50804358  0.84876041  1
  S2-  S174  1  0.24863343  0.74681987  0.35710243  1
  S2-  S175  1  0.38931948  0.78132275  0.84000130  1
  S2-  S176  1  0.63439871  0.11686239  0.35703433  1
  S2-  S177  1  0.65051458  -0.00612122  0.83516257  1
  S2-  S178  1  0.64162500  0.35498750  0.35755839  1
  S2-  S179  1  0.66530463  0.22389301  0.83279292  1
  S2-  S180  1  0.58602297  0.55350981  0.33509366  1
  S2-  S181  1  0.61251726  0.42836741  0.79736846  1
  S2-  S182  1  0.74004434  0.74043277  0.34613164  1
  S2-  S183  1  0.60772626  0.65642061  0.84278742  1
  S2-  S184  1  0.88801748  0.09259684  0.35561480  1
  S2-  S185  1  0.88137493  0.03808318  0.85113397  1
  S2-  S186  1  0.81064532  0.25601185  0.30047689  1
  S2-  S187  1  0.89488371  0.27010843  0.83358687  1
  S2-  S188  1  0.89278672  0.41859716  0.35360929  1
  S2-  S189  1  0.78194541  0.49473445  0.84813218  1
  S2-  S190  1  0.87936465  0.89618951  0.35976703  1
  S2-  S191  1  0.76963043  0.78414147  0.85536764  1
  S2-  S192  1  -0.00594414  0.12209805  0.46408318  1
  S2-  S193  1  0.00794740  0.12379530  0.96204108  1
  S2-  S194  1  -0.00589093  0.36723892  0.47081314  1
  S2-  S195  1  0.00784440  0.37151488  0.95539775  1
  S2-  S196  1  -0.00252858  0.61713180  0.45563792  1
  S2-  S197  1  0.00929551  0.62613509  0.95570416  1
  S2-  S198  1  0.00017980  0.87072395  0.46083913  1
  S2-  S199  1  0.00498235  0.87948712  0.96557668  1
  S2-  S200  1  0.24799301  0.12219349  0.45433312  1
  S2-  S201  1  0.25720030  0.12619702  0.94856947  1
  S2-  S202  1  0.24483401  0.36673691  0.45815865  1
  S2-  S203  1  0.25648624  0.37495585  0.95106169  1
  S2-  S204  1  0.24573304  0.61592750  0.45268550  1
  S2-  S205  1  0.25549856  0.62462835  0.94897818  1
  S2-  S206  1  0.24644602  0.87498486  0.45169595  1
  S2-  S207  1  0.25543704  0.87529748  0.95309666  1
  S2-  S208  1  0.49372909  0.12145186  0.45650506  1
  S2-  S209  1  0.50284057  0.12747676  0.94614571  1
  S2-  S210  1  0.49572083  0.36802076  0.46188628  1
  S2-  S211  1  0.50436001  0.37694464  0.94555831  1
  S2-  S212  1  0.49160570  0.62274984  0.44371850  1
  S2-  S213  1  0.50313017  0.62616803  0.95080058  1
  S2-  S214  1  0.49669001  0.86782197  0.45259998  1
  S2-  S215  1  0.50616989  0.87258651  0.95003950  1
  S2-  S216  1  0.75354082  0.12325909  0.46171229  1
  S2-  S217  1  0.75357606  0.12500841  0.94831507  1
  S2-  S218  1  0.75901286  0.36003017  0.45872860  1
  S2-  S219  1  0.75525970  0.37300452  0.95215851  1
  S2-  S220  1  0.74874467  0.61251579  0.44492876  1
  S2-  S221  1  0.75313010  0.62515945  0.95279427  1
  S2-  S222  1  0.74242574  0.87166608  0.45549579  1
  S2-  S223  1  0.75433204  0.87937777  0.96068019  1
  S2-  S224  1  0.13166463  -0.00101707  0.04888448  1
  S2-  S225  1  0.12231824  -0.00622720  0.54922829  1
  S2-  S226  1  0.13224569  0.24992345  0.04979469  1
  S2-  S227  1  0.12303547  0.24781105  0.55894237  1
  S2-  S228  1  0.13027797  0.50180311  0.04327996  1
  S2-  S229  1  0.12084816  0.49712345  0.55995264  1
  S2-  S230  1  0.13653633  0.75023671  0.04079610  1
  S2-  S231  1  0.12439892  0.74241087  0.54029392  1
  S2-  S232  1  0.38448429  0.00255955  0.03919289  1
  S2-  S233  1  0.37591932  -0.00964545  0.55153030  1
  S2-  S234  1  0.38201617  0.25075467  0.04993973  1
  S2-  S235  1  0.37358197  0.24958300  0.54880110  1
  S2-  S236  1  0.38207149  0.49980101  0.04204935  1
  S2-  S237  1  0.37211613  0.49264657  0.54958696  1
  S2-  S238  1  0.38251661  0.74767584  0.04411717  1
  S2-  S239  1  0.37279152  0.74392114  0.53940968  1
  S2-  S240  1  0.62381873  -0.00072315  0.04435498  1
  S2-  S241  1  0.62147677  -0.00747755  0.54128376  1
  S2-  S242  1  0.63132903  0.24673656  0.04083483  1
  S2-  S243  1  0.62235853  0.24522543  0.54180122  1
  S2-  S244  1  0.62983303  0.50090140  0.03592686  1
  S2-  S245  1  0.62407066  0.49556287  0.53776485  1
  S2-  S246  1  0.62987821  0.75274986  0.04137446  1
  S2-  S247  1  0.62308735  0.73725016  0.53060974  1
  S2-  S248  1  0.86244491  0.00606667  0.05364941  1
  S2-  S249  1  0.86962057  -0.00474613  0.55046121  1
  S2-  S250  1  0.88212721  0.24969799  0.04636987  1
  S2-  S251  1  0.87988232  0.23489917  0.57202661  1
  S2-  S252  1  0.88458824  0.50332519  0.04300704  1
  S2-  S253  1  0.87333003  0.50271945  0.54868524  1
  S2-  S254  1  0.87663242  0.75087295  0.04286769  1
  S2-  S255  1  0.86584214  0.73978081  0.53564602  1
