# generated using pymatgen
data_La12Ce14Pr13Nd13Sm12(BiS2)64
_symmetry_space_group_name_H-M   'P 1'
_cell_length_a   16.16113851
_cell_length_b   16.18289866
_cell_length_c   27.21016029
_cell_angle_alpha   89.82610890
_cell_angle_beta   90.02498063
_cell_angle_gamma   89.97419127
_symmetry_Int_Tables_number   1
_chemical_formula_structural   La12Ce14Pr13Nd13Sm12(BiS2)64
_chemical_formula_sum   'La12 Ce14 Pr13 Nd13 Sm12 Bi64 S128'
_cell_volume   7116.34969967
_cell_formula_units_Z   1
loop_
 _symmetry_equiv_pos_site_id
 _symmetry_equiv_pos_as_xyz
  1  'x, y, z'
loop_
 _atom_type_symbol
 _atom_type_oxidation_number
  La3+  3.0
  Ce3+  3.0
  Pr3+  3.0
  Nd3+  3.0
  Sm3+  3.0
  Bi2+  2.0
  S2-  -2.0
loop_
 _atom_site_type_symbol
 _atom_site_label
 _atom_site_symmetry_multiplicity
 _atom_site_fract_x
 _atom_site_fract_y
 _atom_site_fract_z
 _atom_site_occupancy
  La3+  La0  1  0.36337928  0.01492290  0.41902115  1
  La3+  La1  1  -0.00552707  0.38883052  0.56991886  1
  La3+  La2  1  0.12861573  0.50164253  0.40850081  1
  La3+  La3  1  0.50533441  0.63294205  0.05956219  1
  La3+  La4  1  0.24893148  0.38213190  0.56771452  1
  La3+  La5  1  0.63285388  0.50911696  0.93041390  1
  La3+  La6  1  0.37770990  0.76104540  0.41049784  1
  La3+  La7  1  0.63674241  0.76227545  0.90318980  1
  La3+  La8  1  0.24306765  0.12340665  0.57584974  1
  La3+  La9  1  0.63347225  0.25950131  0.92263435  1
  La3+  La10  1  0.76460162  0.38987718  0.11664733  1
  La3+  La11  1  -0.00497442  0.13768494  0.57755537  1
  Ce3+  Ce12  1  0.11973624  0.00964677  0.43956461  1
  Ce3+  Ce13  1  0.00736950  0.88448359  0.05793638  1
  Ce3+  Ce14  1  0.74578440  0.88009589  0.55976052  1
  Ce3+  Ce15  1  0.37925475  0.00395633  0.94332324  1
  Ce3+  Ce16  1  0.88063270  0.25887407  0.94764519  1
  Ce3+  Ce17  1  0.12791983  0.00447196  0.93818465  1
  Ce3+  Ce18  1  0.87257366  0.00972592  0.44553281  1
  Ce3+  Ce19  1  0.87429205  0.26327193  0.44285424  1
  Ce3+  Ce20  1  0.74480304  0.13351672  0.55705232  1
  Ce3+  Ce21  1  0.61476255  0.51110457  0.44177737  1
  Ce3+  Ce22  1  0.74096789  0.63346462  0.55659508  1
  Ce3+  Ce23  1  0.25078046  0.63446412  0.55573529  1
  Ce3+  Ce24  1  0.01418754  0.37294486  0.07980599  1
  Ce3+  Ce25  1  0.36833279  0.25617136  0.44132828  1
  Pr3+  Pr26  1  0.75250958  0.13703121  0.06073655  1
  Pr3+  Pr27  1  0.38593342  0.25265379  0.92688599  1
  Pr3+  Pr28  1  0.74204036  0.38612537  0.55757249  1
  Pr3+  Pr29  1  0.74996460  0.63553924  0.06726323  1
  Pr3+  Pr30  1  -0.00458222  0.87925658  0.55431479  1
  Pr3+  Pr31  1  0.12749952  0.75681091  0.94055875  1
  Pr3+  Pr32  1  0.49703031  0.37845901  0.56235461  1
  Pr3+  Pr33  1  0.61938393  0.75947491  0.43336891  1
  Pr3+  Pr34  1  0.62162068  0.00695884  0.44195694  1
  Pr3+  Pr35  1  0.87216028  0.51382079  0.42977579  1
  Pr3+  Pr36  1  0.25394104  0.88033815  0.05970972  1
  Pr3+  Pr37  1  0.48715896  0.64007741  0.57733792  1
  Pr3+  Pr38  1  0.00427693  0.62679492  0.06993409  1
  Nd3+  Nd39  1  0.12616028  0.25639843  0.92900875  1
  Nd3+  Nd40  1  0.38287865  0.75656613  0.93134623  1
  Nd3+  Nd41  1  0.87206486  0.75540468  0.43847464  1
  Nd3+  Nd42  1  0.49180909  0.88297609  0.55928082  1
  Nd3+  Nd43  1  0.62022768  0.25827793  0.43704447  1
  Nd3+  Nd44  1  0.11954658  0.25918071  0.44557052  1
  Nd3+  Nd45  1  0.12503204  0.50655772  0.93977882  1
  Nd3+  Nd46  1  -0.00161086  0.62895881  0.56491084  1
  Nd3+  Nd47  1  0.50518566  0.13331918  0.05610075  1
  Nd3+  Nd48  1  0.51200386  0.37961704  0.05563207  1
  Nd3+  Nd49  1  0.37825039  0.50393136  0.93803153  1
  Nd3+  Nd50  1  0.75309905  0.87977749  0.07245076  1
  Nd3+  Nd51  1  0.00609216  0.13359414  0.06136885  1
  Sm3+  Sm52  1  0.87886371  0.50361379  0.95453401  1
  Sm3+  Sm53  1  0.50455438  0.88090167  0.05839204  1
  Sm3+  Sm54  1  0.63099342  0.00034228  0.94484311  1
  Sm3+  Sm55  1  0.25637463  0.62993096  0.05385966  1
  Sm3+  Sm56  1  0.25311389  0.37832146  0.05387663  1
  Sm3+  Sm57  1  0.87759871  0.75509183  0.95009303  1
  Sm3+  Sm58  1  0.49465182  0.13024817  0.55731044  1
  Sm3+  Sm59  1  0.24845708  0.88142343  0.54979575  1
  Sm3+  Sm60  1  0.12223316  0.75373733  0.44361628  1
  Sm3+  Sm61  1  0.37147067  0.50996090  0.44085311  1
  Sm3+  Sm62  1  0.25664523  0.13319975  0.04940607  1
  Sm3+  Sm63  1  0.87816066  0.00651167  0.94807254  1
  Bi2+  Bi64  1  0.03429933  0.11691976  0.28515082  1
  Bi2+  Bi65  1  -0.03679283  0.09628239  0.79087874  1
  Bi2+  Bi66  1  -0.00542671  0.36120615  0.29901149  1
  Bi2+  Bi67  1  0.00710789  0.36933841  0.81406096  1
  Bi2+  Bi68  1  -0.00635776  0.70503229  0.28713212  1
  Bi2+  Bi69  1  -0.04735591  0.62790109  0.78513354  1
  Bi2+  Bi70  1  -0.00156802  0.92677656  0.28832540  1
  Bi2+  Bi71  1  0.07893909  0.87149021  0.81459044  1
  Bi2+  Bi72  1  0.23100428  0.14834888  0.29454680  1
  Bi2+  Bi73  1  0.27939411  0.03901507  0.78709252  1
  Bi2+  Bi74  1  0.27621045  0.35716102  0.26923438  1
  Bi2+  Bi75  1  0.24773747  0.38537604  0.79106146  1
  Bi2+  Bi76  1  0.22351116  0.60660881  0.28272544  1
  Bi2+  Bi77  1  0.22323395  0.65254086  0.78499674  1
  Bi2+  Bi78  1  0.26437554  0.88633968  0.28887799  1
  Bi2+  Bi79  1  0.27087491  0.83867531  0.80174513  1
  Bi2+  Bi80  1  0.49071155  0.13960549  0.28386152  1
  Bi2+  Bi81  1  0.46770661  0.10132330  0.76903724  1
  Bi2+  Bi82  1  0.47115761  0.36851288  0.29136799  1
  Bi2+  Bi83  1  0.50295058  0.35505457  0.80010768  1
  Bi2+  Bi84  1  0.49289917  0.56094340  0.30591622  1
  Bi2+  Bi85  1  0.50611861  0.62309575  0.78155832  1
  Bi2+  Bi86  1  0.57164432  0.87171343  0.30578977  1
  Bi2+  Bi87  1  0.51975729  0.87734911  0.78381363  1
  Bi2+  Bi88  1  0.75380908  0.08547997  0.28587490  1
  Bi2+  Bi89  1  0.73811039  0.10908697  0.76474577  1
  Bi2+  Bi90  1  0.73745090  0.35058425  0.31743006  1
  Bi2+  Bi91  1  0.75801350  0.29907508  0.79341762  1
  Bi2+  Bi92  1  0.74371876  0.66480490  0.29054001  1
  Bi2+  Bi93  1  0.74482760  0.68921239  0.77387169  1
  Bi2+  Bi94  1  0.75624334  0.84130417  0.33198864  1
  Bi2+  Bi95  1  0.77375685  0.88663229  0.79070962  1
  Bi2+  Bi96  1  0.07359046  0.01452144  0.18697674  1
  Bi2+  Bi97  1  0.14407894  -0.03990588  0.71952824  1
  Bi2+  Bi98  1  0.14495062  0.25689581  0.20476687  1
  Bi2+  Bi99  1  0.14399215  0.22677630  0.70645597  1
  Bi2+  Bi100  1  0.07472078  0.49649774  0.20456381  1
  Bi2+  Bi101  1  0.07757663  0.51806785  0.71745580  1
  Bi2+  Bi102  1  0.12218751  0.81918940  0.22116666  1
  Bi2+  Bi103  1  0.11346107  0.69729234  0.69055073  1
  Bi2+  Bi104  1  0.26668334  0.02685749  0.20633477  1
  Bi2+  Bi105  1  0.41928931  -0.03491335  0.69159895  1
  Bi2+  Bi106  1  0.40446316  0.25576100  0.20237351  1
  Bi2+  Bi107  1  0.38768591  0.29705613  0.69070546  1
  Bi2+  Bi108  1  0.36554581  0.51012885  0.21859123  1
  Bi2+  Bi109  1  0.35166693  0.53521408  0.73815324  1
  Bi2+  Bi110  1  0.37362091  0.72775441  0.19232574  1
  Bi2+  Bi111  1  0.33371334  0.76799864  0.69529587  1
  Bi2+  Bi112  1  0.61844716  0.00611747  0.21495902  1
  Bi2+  Bi113  1  0.61064806  -0.00858161  0.70821942  1
  Bi2+  Bi114  1  0.60151517  0.22424439  0.19962912  1
  Bi2+  Bi115  1  0.64309954  0.25341684  0.69190243  1
  Bi2+  Bi116  1  0.60994915  0.50105915  0.21644038  1
  Bi2+  Bi117  1  0.65930762  0.48914505  0.70109031  1
  Bi2+  Bi118  1  0.60319492  0.75989540  0.21030042  1
  Bi2+  Bi119  1  0.64184454  0.73976612  0.68495645  1
  Bi2+  Bi120  1  0.80198669  -0.01146435  0.18501252  1
  Bi2+  Bi121  1  0.89960278  -0.04226055  0.71696891  1
  Bi2+  Bi122  1  0.88659042  0.16051973  0.21110610  1
  Bi2+  Bi123  1  0.88772030  0.22325401  0.71519872  1
  Bi2+  Bi124  1  0.85491997  0.53246648  0.22978541  1
  Bi2+  Bi125  1  0.86199743  0.45704744  0.75611640  1
  Bi2+  Bi126  1  0.83581384  0.80411172  0.22679938  1
  Bi2+  Bi127  1  0.92667323  0.76078930  0.70377840  1
  S2-  S128  1  0.01211783  0.22788697  0.14437458  1
  S2-  S129  1  0.11062545  0.10000704  0.65183386  1
  S2-  S130  1  -0.06904261  0.42104407  0.16466710  1
  S2-  S131  1  0.00439679  0.27755740  0.65208662  1
  S2-  S132  1  0.00480572  0.63221163  0.17204487  1
  S2-  S133  1  -0.02341190  0.51524355  0.64104178  1
  S2-  S134  1  -0.00007693  0.86218846  0.15362294  1
  S2-  S135  1  0.01846526  0.89239261  0.65350711  1
  S2-  S136  1  0.26947532  0.16854615  0.14540613  1
  S2-  S137  1  0.29547178  0.16977904  0.67073196  1
  S2-  S138  1  0.16331609  0.39039695  0.13771390  1
  S2-  S139  1  0.23061735  0.36826641  0.66914036  1
  S2-  S140  1  0.26852599  0.61636584  0.15201916  1
  S2-  S141  1  0.33276011  0.62117586  0.64285867  1
  S2-  S142  1  0.26809221  0.83496859  0.15737558  1
  S2-  S143  1  0.26446222  0.91861196  0.64586940  1
  S2-  S144  1  0.51039550  0.09747963  0.15386391  1
  S2-  S145  1  0.51041020  0.18807023  0.65037631  1
  S2-  S146  1  0.58811345  0.38064350  0.14571817  1
  S2-  S147  1  0.52348659  0.39421632  0.66291957  1
  S2-  S148  1  0.51820807  0.62664359  0.16066391  1
  S2-  S149  1  0.54637454  0.59583175  0.67360443  1
  S2-  S150  1  0.49060732  0.84736146  0.15514898  1
  S2-  S151  1  0.48776637  0.78458063  0.64245876  1
  S2-  S152  1  0.75144438  0.22048452  0.14956143  1
  S2-  S153  1  0.76640583  0.13830391  0.65349989  1
  S2-  S154  1  0.74806650  0.39525252  0.22616726  1
  S2-  S155  1  0.76431373  0.37435684  0.65661141  1
  S2-  S156  1  0.74491065  0.55140780  0.15794271  1
  S2-  S157  1  0.75467120  0.61304167  0.65396899  1
  S2-  S158  1  0.73576338  0.75921655  0.14474981  1
  S2-  S159  1  0.72387426  0.88351940  0.65634694  1
  S2-  S160  1  0.20680832  0.00831481  0.35543874  1
  S2-  S161  1  0.11807064  0.04200624  0.84277839  1
  S2-  S162  1  0.12027326  0.33946262  0.35701257  1
  S2-  S163  1  0.13453908  0.26515028  0.82691206  1
  S2-  S164  1  0.06739379  0.52615800  0.31062805  1
  S2-  S165  1  0.13500072  0.47767153  0.84221125  1
  S2-  S166  1  0.11277251  0.74753560  0.34555938  1
  S2-  S167  1  0.07249145  0.70845843  0.84939445  1
  S2-  S168  1  0.40449939  -0.09110602  0.34280359  1
  S2-  S169  1  0.41746999  -0.00132888  0.84841869  1
  S2-  S170  1  0.37199472  0.16234543  0.35751274  1
  S2-  S171  1  0.34929276  0.27947251  0.82880584  1
  S2-  S172  1  0.28243091  0.50807194  0.35544936  1
  S2-  S173  1  0.41791962  0.50174709  0.83969148  1
  S2-  S174  1  0.31968405  0.72476788  0.31192499  1
  S2-  S175  1  0.48197179  0.75137620  0.84801287  1
  S2-  S176  1  0.60856547  0.04075301  0.34331728  1
  S2-  S177  1  0.64148505  -0.07657519  0.85693660  1
  S2-  S178  1  0.59097855  0.26067185  0.33844528  1
  S2-  S179  1  0.53789021  0.21025216  0.84084763  1
  S2-  S180  1  0.64356481  0.49430220  0.34548824  1
  S2-  S181  1  0.63652186  0.39415261  0.84923099  1
  S2-  S182  1  0.52371982  0.71962454  0.35153708  1
  S2-  S183  1  0.63982674  0.61296687  0.84468307  1
  S2-  S184  1  0.88034202  0.01744441  0.34739675  1
  S2-  S185  1  0.87853253  -0.00743207  0.85018824  1
  S2-  S186  1  0.87668567  0.25569565  0.34462204  1
  S2-  S187  1  0.90325196  0.23789546  0.85081843  1
  S2-  S188  1  0.86664944  0.45609566  0.33313390  1
  S2-  S189  1  0.89410468  0.50187193  0.85461387  1
  S2-  S190  1  0.88269766  0.65308247  0.35868619  1
  S2-  S191  1  0.80337104  0.76321021  0.86214533  1
  S2-  S192  1  -0.00372621  0.13470000  0.45910173  1
  S2-  S193  1  0.00465476  0.12968641  0.95465910  1
  S2-  S194  1  -0.00218321  0.38931037  0.45774209  1
  S2-  S195  1  0.00700891  0.38128797  0.95955315  1
  S2-  S196  1  0.00621568  0.62787854  0.45712104  1
  S2-  S197  1  0.00144480  0.63054291  0.96160371  1
  S2-  S198  1  -0.00301318  0.87914063  0.44722230  1
  S2-  S199  1  0.00030845  0.88088019  0.95280797  1
  S2-  S200  1  0.24130257  0.13483108  0.46190661  1
  S2-  S201  1  0.25466654  0.13298901  0.94402591  1
  S2-  S202  1  0.24832399  0.38309862  0.45884736  1
  S2-  S203  1  0.25283218  0.37926531  0.94891194  1
  S2-  S204  1  0.24758981  0.63491118  0.44970178  1
  S2-  S205  1  0.25518398  0.63093602  0.94724297  1
  S2-  S206  1  0.24559938  0.87701401  0.44731597  1
  S2-  S207  1  0.25474087  0.87985541  0.95095504  1
  S2-  S208  1  0.49808011  0.13299284  0.45430794  1
  S2-  S209  1  0.50724036  0.12451502  0.95120614  1
  S2-  S210  1  0.49276818  0.38207946  0.45174634  1
  S2-  S211  1  0.50160309  0.38096263  0.94996872  1
  S2-  S212  1  0.49090289  0.63226802  0.45903752  1
  S2-  S213  1  0.49981549  0.62876087  0.95161601  1
  S2-  S214  1  0.49569652  0.88564369  0.45363081  1
  S2-  S215  1  0.50460874  0.88052670  0.95403290  1
  S2-  S216  1  0.74674869  0.13515185  0.45003680  1
  S2-  S217  1  0.75317872  0.12744021  0.95080209  1
  S2-  S218  1  0.74376392  0.38510630  0.45058221  1
  S2-  S219  1  0.75996014  0.38190810  0.95001268  1
  S2-  S220  1  0.74106309  0.63415828  0.45098707  1
  S2-  S221  1  0.75917872  0.63058471  0.96002247  1
  S2-  S222  1  0.74887612  0.88297983  0.45543132  1
  S2-  S223  1  0.75840953  0.88336751  0.96595182  1
  S2-  S224  1  0.13306332  0.01013606  0.04608664  1
  S2-  S225  1  0.11942792  0.00232526  0.54349874  1
  S2-  S226  1  0.13463556  0.25300624  0.03657860  1
  S2-  S227  1  0.12371061  0.25774762  0.55046085  1
  S2-  S228  1  0.13334159  0.50909517  0.04451936  1
  S2-  S229  1  0.12867904  0.50991843  0.55191444  1
  S2-  S230  1  0.13098050  0.75206179  0.04916125  1
  S2-  S231  1  0.12373755  0.75711306  0.54876298  1
  S2-  S232  1  0.37896975  0.00612234  0.05025616  1
  S2-  S233  1  0.37098273  0.00856566  0.54075736  1
  S2-  S234  1  0.37978279  0.25806469  0.03858177  1
  S2-  S235  1  0.37144593  0.25306659  0.54791923  1
  S2-  S236  1  0.37753532  0.50170686  0.04624282  1
  S2-  S237  1  0.37494803  0.50457242  0.54521150  1
  S2-  S238  1  0.37751762  0.75641284  0.03975512  1
  S2-  S239  1  0.36893770  0.76178879  0.53657440  1
  S2-  S240  1  0.62920154  0.00490688  0.05023930  1
  S2-  S241  1  0.61882963  0.00761222  0.55006456  1
  S2-  S242  1  0.62573282  0.25255235  0.03555557  1
  S2-  S243  1  0.62015423  0.25509394  0.54353519  1
  S2-  S244  1  0.62820629  0.50776602  0.04264040  1
  S2-  S245  1  0.61444127  0.51024933  0.54865276  1
  S2-  S246  1  0.62369110  0.76194809  0.04298355  1
  S2-  S247  1  0.61932838  0.75916345  0.54181069  1
  S2-  S248  1  0.87973289  0.00896704  0.05317523  1
  S2-  S249  1  0.87222111  0.00776320  0.55317879  1
  S2-  S250  1  0.87869150  0.26089715  0.05071353  1
  S2-  S251  1  0.86845896  0.25993625  0.54855019  1
  S2-  S252  1  0.87731247  0.50519660  0.05631079  1
  S2-  S253  1  0.86479096  0.51076323  0.53849381  1
  S2-  S254  1  0.88399699  0.75795603  0.05354969  1
  S2-  S255  1  0.87145766  0.75331878  0.54590630  1
