# generated using pymatgen
data_La12Ce14Pr13Nd13Sm12(BiS2)64
_symmetry_space_group_name_H-M   'P 1'
_cell_length_a   16.12031312
_cell_length_b   16.12913928
_cell_length_c   27.19292164
_cell_angle_alpha   89.86845809
_cell_angle_beta   89.91910576
_cell_angle_gamma   90.03559668
_symmetry_Int_Tables_number   1
_chemical_formula_structural   La12Ce14Pr13Nd13Sm12(BiS2)64
_chemical_formula_sum   'La12 Ce14 Pr13 Nd13 Sm12 Bi64 S128'
_cell_volume   7070.31681010
_cell_formula_units_Z   1
loop_
 _symmetry_equiv_pos_site_id
 _symmetry_equiv_pos_as_xyz
  1  'x, y, z'
loop_
 _atom_type_symbol
 _atom_type_oxidation_number
  La3+  3.0
  Ce3+  3.0
  Pr3+  3.0
  Nd3+  3.0
  Sm3+  3.0
  Bi2+  2.0
  S2-  -2.0
loop_
 _atom_site_type_symbol
 _atom_site_label
 _atom_site_symmetry_multiplicity
 _atom_site_fract_x
 _atom_site_fract_y
 _atom_site_fract_z
 _atom_site_occupancy
  La3+  La0  1  0.88196828  0.49265602  0.91176315  1
  La3+  La1  1  0.61799249  0.50462514  0.39206399  1
  La3+  La2  1  0.75471160  0.37869401  0.07037888  1
  La3+  La3  1  0.49779650  0.12430154  0.09528338  1
  La3+  La4  1  0.00128484  0.60999203  0.57507065  1
  La3+  La5  1  0.63216577  0.76391636  0.88837737  1
  La3+  La6  1  0.49830114  0.37434155  0.07882439  1
  La3+  La7  1  0.25182082  0.62847649  0.07355733  1
  La3+  La8  1  0.51318358  0.63579546  0.07342656  1
  La3+  La9  1  0.25308796  0.11346979  0.55618864  1
  La3+  La10  1  0.61558242  0.49639473  0.91897856  1
  La3+  La11  1  0.88657048  -0.00055579  0.92328967  1
  Ce3+  Ce12  1  0.00059081  0.36215875  0.56702466  1
  Ce3+  Ce13  1  0.38128972  -0.00914154  0.43401271  1
  Ce3+  Ce14  1  0.12766394  0.74925702  0.93563640  1
  Ce3+  Ce15  1  0.62860941  0.73967454  0.44419178  1
  Ce3+  Ce16  1  -0.00002615  0.11433904  0.57278543  1
  Ce3+  Ce17  1  0.62564607  0.00158680  0.94100541  1
  Ce3+  Ce18  1  0.38125062  0.24444318  0.43493891  1
  Ce3+  Ce19  1  0.12914757  0.50079462  0.94144603  1
  Ce3+  Ce20  1  0.50177564  0.36597778  0.56027419  1
  Ce3+  Ce21  1  0.87869391  -0.01141274  0.43466738  1
  Ce3+  Ce22  1  0.24281659  0.87100485  0.07581012  1
  Ce3+  Ce23  1  0.75008810  0.61197901  0.56167173  1
  Ce3+  Ce24  1  0.37974220  0.73984485  0.44240483  1
  Ce3+  Ce25  1  0.87799216  0.74122411  0.44667097  1
  Pr3+  Pr26  1  0.50478183  0.11406947  0.55610855  1
  Pr3+  Pr27  1  0.25562529  0.61544898  0.56410559  1
  Pr3+  Pr28  1  0.00233455  0.86200533  0.57426373  1
  Pr3+  Pr29  1  0.12371407  -0.01144162  0.43275910  1
  Pr3+  Pr30  1  0.87590195  0.49134038  0.43901590  1
  Pr3+  Pr31  1  0.88176220  0.75004059  0.92633903  1
  Pr3+  Pr32  1  0.87729861  0.24250095  0.44011670  1
  Pr3+  Pr33  1  0.62430882  0.25343040  0.94456070  1
  Pr3+  Pr34  1  0.75242969  0.86764896  0.56389157  1
  Pr3+  Pr35  1  0.74405646  0.36454163  0.56802874  1
  Pr3+  Pr36  1  -0.00361625  0.87271513  0.06573657  1
  Pr3+  Pr37  1  0.62525679  -0.00409754  0.40430913  1
  Pr3+  Pr38  1  0.24954961  0.38312514  0.07771214  1
  Nd3+  Nd39  1  0.12693494  0.24166019  0.44438050  1
  Nd3+  Nd40  1  0.12967239  0.25409182  0.94645237  1
  Nd3+  Nd41  1  0.37682264  0.25170869  0.94805378  1
  Nd3+  Nd42  1  0.38141197  0.74885447  0.94325182  1
  Nd3+  Nd43  1  0.75059588  0.11356388  0.55150801  1
  Nd3+  Nd44  1  0.75231383  0.12446151  0.05289234  1
  Nd3+  Nd45  1  0.75413255  0.87553095  0.05382826  1
  Nd3+  Nd46  1  0.00157851  0.12524807  0.05771258  1
  Nd3+  Nd47  1  0.50429526  0.87510174  0.05967104  1
  Nd3+  Nd48  1  0.74677220  0.62391207  0.03815117  1
  Nd3+  Nd49  1  0.25390627  0.86628280  0.55866844  1
  Nd3+  Nd50  1  0.25875836  0.36608579  0.56674310  1
  Nd3+  Nd51  1  0.00145242  0.37694550  0.06639991  1
  Sm3+  Sm52  1  0.50342248  0.61376050  0.55913295  1
  Sm3+  Sm53  1  0.25179861  0.12455263  0.06778496  1
  Sm3+  Sm54  1  0.37313634  0.49146950  0.43437356  1
  Sm3+  Sm55  1  0.62807046  0.24657615  0.42987802  1
  Sm3+  Sm56  1  0.50456672  0.86655377  0.55384354  1
  Sm3+  Sm57  1  0.12998212  0.49248116  0.44098255  1
  Sm3+  Sm58  1  0.13336676  -0.00045059  0.94273990  1
  Sm3+  Sm59  1  0.87654814  0.25502023  0.94299698  1
  Sm3+  Sm60  1  0.12636137  0.74124902  0.45165982  1
  Sm3+  Sm61  1  0.37632479  -0.00022854  0.95277249  1
  Sm3+  Sm62  1  -0.00392811  0.62517394  0.05313722  1
  Sm3+  Sm63  1  0.37844671  0.50377399  0.94927914  1
  Bi2+  Bi64  1  0.03455050  0.12576860  0.28990690  1
  Bi2+  Bi65  1  0.02691146  0.16338609  0.77055033  1
  Bi2+  Bi66  1  -0.04656069  0.37411221  0.29698264  1
  Bi2+  Bi67  1  0.00535561  0.36026947  0.79358030  1
  Bi2+  Bi68  1  0.01227443  0.54829406  0.33566381  1
  Bi2+  Bi69  1  0.07643405  0.63163855  0.78700657  1
  Bi2+  Bi70  1  0.01180653  0.85594065  0.29197914  1
  Bi2+  Bi71  1  -0.04556936  0.88849865  0.80074014  1
  Bi2+  Bi72  1  0.23222789  0.10479767  0.29553571  1
  Bi2+  Bi73  1  0.28719013  0.14724482  0.80143325  1
  Bi2+  Bi74  1  0.20428322  0.36962013  0.28905427  1
  Bi2+  Bi75  1  0.26645748  0.39533059  0.79605985  1
  Bi2+  Bi76  1  0.18313746  0.62662750  0.30280670  1
  Bi2+  Bi77  1  0.24250715  0.58641163  0.83770755  1
  Bi2+  Bi78  1  0.21518385  0.91337551  0.30913276  1
  Bi2+  Bi79  1  0.29492104  0.78384820  0.82086750  1
  Bi2+  Bi80  1  0.49788794  0.10774975  0.28415895  1
  Bi2+  Bi81  1  0.56101452  0.08328445  0.79327357  1
  Bi2+  Bi82  1  0.49471408  0.36126373  0.28437721  1
  Bi2+  Bi83  1  0.48887807  0.36225203  0.79234074  1
  Bi2+  Bi84  1  0.49743472  0.63747255  0.29149449  1
  Bi2+  Bi85  1  0.42192050  0.61413093  0.78964358  1
  Bi2+  Bi86  1  0.47709917  0.86107947  0.23479738  1
  Bi2+  Bi87  1  0.42309517  0.93575728  0.78335347  1
  Bi2+  Bi88  1  0.77002028  0.12371397  0.28449496  1
  Bi2+  Bi89  1  0.74734160  0.15569000  0.78348234  1
  Bi2+  Bi90  1  0.75820242  0.38532175  0.28246903  1
  Bi2+  Bi91  1  0.74099861  0.42016277  0.79631309  1
  Bi2+  Bi92  1  0.85060209  0.63523062  0.29132048  1
  Bi2+  Bi93  1  0.75177193  0.66318121  0.76705223  1
  Bi2+  Bi94  1  0.65321903  0.87776592  0.28959629  1
  Bi2+  Bi95  1  0.72082661  0.90598475  0.77257011  1
  Bi2+  Bi96  1  0.12705139  0.04075041  0.20076429  1
  Bi2+  Bi97  1  0.15121435  0.00776779  0.77400921  1
  Bi2+  Bi98  1  0.12239699  0.30735604  0.18197266  1
  Bi2+  Bi99  1  0.18466632  0.27790928  0.71281083  1
  Bi2+  Bi100  1  0.08362650  0.49377946  0.22204322  1
  Bi2+  Bi101  1  0.13643040  0.47188191  0.72114624  1
  Bi2+  Bi102  1  0.10839001  0.75679629  0.20658849  1
  Bi2+  Bi103  1  0.14016078  0.81023735  0.74801000  1
  Bi2+  Bi104  1  0.31435257  -0.02952276  0.21248200  1
  Bi2+  Bi105  1  0.31064291  0.00121171  0.70257833  1
  Bi2+  Bi106  1  0.29795026  0.24671713  0.21793865  1
  Bi2+  Bi107  1  0.36672976  0.20918334  0.69874872  1
  Bi2+  Bi108  1  0.33628500  0.49704015  0.21911058  1
  Bi2+  Bi109  1  0.37618962  0.47533893  0.71186375  1
  Bi2+  Bi110  1  0.30478271  0.75782915  0.24929988  1
  Bi2+  Bi111  1  0.30391649  0.72727588  0.70275270  1
  Bi2+  Bi112  1  0.68680865  -0.03028959  0.18658201  1
  Bi2+  Bi113  1  0.62720860  0.01421317  0.68757265  1
  Bi2+  Bi114  1  0.65763030  0.22431909  0.20789363  1
  Bi2+  Bi115  1  0.60120848  0.24513773  0.72883745  1
  Bi2+  Bi116  1  0.59097863  0.50542506  0.18296080  1
  Bi2+  Bi117  1  0.63870033  0.49461922  0.68615712  1
  Bi2+  Bi118  1  0.66064363  0.75177421  0.20271694  1
  Bi2+  Bi119  1  0.49367760  0.76543896  0.70543163  1
  Bi2+  Bi120  1  0.84993458  -0.04853401  0.25270521  1
  Bi2+  Bi121  1  0.89163220  0.06597141  0.70347973  1
  Bi2+  Bi122  1  0.94261450  0.24473885  0.20852833  1
  Bi2+  Bi123  1  0.87820132  0.26645610  0.71825859  1
  Bi2+  Bi124  1  0.89610505  0.52804091  0.19921871  1
  Bi2+  Bi125  1  0.89028954  0.53357259  0.70382295  1
  Bi2+  Bi126  1  0.86117364  0.76577344  0.20462904  1
  Bi2+  Bi127  1  0.91339084  0.84326359  0.69726629  1
  S2-  S128  1  -0.01631465  0.10124393  0.15575635  1
  S2-  S129  1  -0.00738574  0.24191391  0.64162481  1
  S2-  S130  1  -0.10649855  0.38455458  0.14443669  1
  S2-  S131  1  0.00884293  0.47775247  0.64547121  1
  S2-  S132  1  -0.01485553  0.66617241  0.14973020  1
  S2-  S133  1  -0.00289636  0.72497709  0.65339284  1
  S2-  S134  1  0.10710507  0.88995163  0.14486163  1
  S2-  S135  1  0.00470167  0.98918165  0.64574904  1
  S2-  S136  1  0.33987497  0.12158405  0.15321818  1
  S2-  S137  1  0.21827857  0.12871920  0.65472010  1
  S2-  S138  1  0.36643445  0.37472611  0.15503222  1
  S2-  S139  1  0.38244111  0.35912637  0.63885533  1
  S2-  S140  1  0.21581244  0.51767273  0.15100567  1
  S2-  S141  1  0.24660866  0.57359957  0.66169277  1
  S2-  S142  1  0.25592597  0.74803988  0.14922797  1
  S2-  S143  1  0.22132205  0.86983119  0.65594269  1
  S2-  S144  1  0.54249558  0.04626294  0.18609271  1
  S2-  S145  1  0.50060361  0.13370035  0.65684191  1
  S2-  S146  1  0.52535237  0.25833829  0.15938900  1
  S2-  S147  1  0.60664712  0.35160273  0.64130200  1
  S2-  S148  1  0.43658055  0.59051096  0.16632080  1
  S2-  S149  1  0.51831757  0.60166419  0.65847659  1
  S2-  S150  1  0.51420416  0.78842537  0.14631478  1
  S2-  S151  1  0.49981707  0.90062511  0.65061142  1
  S2-  S152  1  0.75870485  0.12486162  0.15253362  1
  S2-  S153  1  0.74450936  0.12298953  0.65138864  1
  S2-  S154  1  0.69359662  0.37936021  0.16756308  1
  S2-  S155  1  0.79679578  0.41574413  0.66589796  1
  S2-  S156  1  0.69372209  0.62706905  0.13619208  1
  S2-  S157  1  0.75411375  0.62900651  0.66127646  1
  S2-  S158  1  0.86233551  0.88492268  0.13374381  1
  S2-  S159  1  0.74253365  0.88287313  0.66545189  1
  S2-  S160  1  0.00075543  -0.00322720  0.36080740  1
  S2-  S161  1  0.04157229  -0.00580034  0.85950506  1
  S2-  S162  1  0.10868782  0.25651990  0.34536944  1
  S2-  S163  1  0.11477608  0.25256691  0.84753810  1
  S2-  S164  1  0.24091771  0.49145141  0.36327387  1
  S2-  S165  1  0.04155311  0.49131296  0.85646484  1
  S2-  S166  1  0.12694676  0.76981489  0.35448150  1
  S2-  S167  1  0.01864314  0.75022092  0.85568815  1
  S2-  S168  1  0.46853045  -0.00912109  0.34820087  1
  S2-  S169  1  0.32664381  0.00185092  0.85797159  1
  S2-  S170  1  0.41732515  0.24703348  0.33662892  1
  S2-  S171  1  0.40290353  0.24128621  0.84881947  1
  S2-  S172  1  0.45471962  0.49457021  0.34519530  1
  S2-  S173  1  0.45988729  0.48766764  0.86110019  1
  S2-  S174  1  0.38652397  0.72808489  0.34480800  1
  S2-  S175  1  0.46655531  0.73899564  0.85512586  1
  S2-  S176  1  0.62485236  0.14001695  0.34338642  1
  S2-  S177  1  0.61509650  -0.06708652  0.85136414  1
  S2-  S178  1  0.62592070  0.34485175  0.34598609  1
  S2-  S179  1  0.62686918  0.34365287  0.85778185  1
  S2-  S180  1  0.62524310  0.51652364  0.27413148  1
  S2-  S181  1  0.65419741  0.55399973  0.81918931  1
  S2-  S182  1  0.61706466  0.67579802  0.35333658  1
  S2-  S183  1  0.62317785  0.76423744  0.77614233  1
  S2-  S184  1  0.77799503  -0.01544245  0.35130007  1
  S2-  S185  1  0.82524543  0.01540940  0.82729983  1
  S2-  S186  1  0.84232089  0.25078329  0.34031451  1
  S2-  S187  1  0.86569932  0.33693312  0.85653974  1
  S2-  S188  1  0.78349119  0.49683379  0.35234745  1
  S2-  S189  1  0.85741498  0.54542805  0.80989524  1
  S2-  S190  1  0.88466921  0.77242293  0.35021450  1
  S2-  S191  1  0.79305760  0.77461929  0.83903621  1
  S2-  S192  1  0.00321866  0.11914093  0.46156933  1
  S2-  S193  1  0.00415208  0.13206401  0.95142290  1
  S2-  S194  1  0.00535115  0.36827210  0.45585288  1
  S2-  S195  1  0.00266111  0.37293879  0.96036400  1
  S2-  S196  1  0.00580563  0.61611392  0.46334850  1
  S2-  S197  1  0.00115103  0.62126457  0.95081368  1
  S2-  S198  1  0.00361493  0.86275736  0.46364702  1
  S2-  S199  1  0.00759927  0.87534128  0.95886372  1
  S2-  S200  1  0.25263873  0.11537688  0.44627221  1
  S2-  S201  1  0.25135307  0.12526111  0.96146286  1
  S2-  S202  1  0.25388916  0.36332296  0.45899896  1
  S2-  S203  1  0.25418739  0.37801932  0.96029818  1
  S2-  S204  1  0.25153661  0.62097996  0.45805102  1
  S2-  S205  1  0.25285017  0.62680145  0.96174209  1
  S2-  S206  1  0.25345687  0.86561647  0.45249229  1
  S2-  S207  1  0.25131911  0.87525903  0.96183360  1
  S2-  S208  1  0.50373335  0.11693277  0.44973219  1
  S2-  S209  1  0.49886423  0.12381241  0.95492898  1
  S2-  S210  1  0.50010475  0.37022314  0.45184103  1
  S2-  S211  1  0.49718196  0.37391849  0.96645497  1
  S2-  S212  1  0.50043780  0.61394057  0.45478938  1
  S2-  S213  1  0.50249366  0.62376273  0.96051662  1
  S2-  S214  1  0.50632964  0.86609578  0.44883085  1
  S2-  S215  1  0.49956270  0.87940341  0.95412358  1
  S2-  S216  1  0.75014702  0.11748596  0.44727962  1
  S2-  S217  1  0.75364228  0.12916632  0.94531090  1
  S2-  S218  1  0.75163076  0.36393736  0.45686826  1
  S2-  S219  1  0.75215603  0.37738294  0.95956298  1
  S2-  S220  1  0.75243108  0.61770496  0.45574344  1
  S2-  S221  1  0.74946913  0.62385694  0.93403473  1
  S2-  S222  1  0.74950052  0.86538301  0.45554724  1
  S2-  S223  1  0.75368072  0.87892789  0.94781069  1
  S2-  S224  1  0.12758303  0.00462461  0.04533334  1
  S2-  S225  1  0.12884716  -0.01161150  0.54161165  1
  S2-  S226  1  0.12903085  0.24995035  0.05285028  1
  S2-  S227  1  0.13280120  0.24352398  0.54905407  1
  S2-  S228  1  0.11986539  0.50177991  0.04684721  1
  S2-  S229  1  0.13439480  0.48750527  0.54529773  1
  S2-  S230  1  0.12059695  0.74718047  0.04289858  1
  S2-  S231  1  0.13084668  0.73982033  0.55497584  1
  S2-  S232  1  0.37504788  -0.00266519  0.05644410  1
  S2-  S233  1  0.37941517  -0.01180873  0.54252868  1
  S2-  S234  1  0.37239451  0.24714001  0.05264155  1
  S2-  S235  1  0.37815447  0.23735973  0.54029540  1
  S2-  S236  1  0.37777558  0.50466489  0.05142810  1
  S2-  S237  1  0.37833128  0.49438251  0.54182049  1
  S2-  S238  1  0.37827092  0.75421429  0.04779916  1
  S2-  S239  1  0.38106129  0.74198708  0.55088214  1
  S2-  S240  1  0.62534609  0.00302060  0.04885743  1
  S2-  S241  1  0.62680384  -0.01145397  0.54439841  1
  S2-  S242  1  0.62685867  0.24621244  0.05048298  1
  S2-  S243  1  0.62630935  0.23764096  0.53703468  1
  S2-  S244  1  0.62368247  0.49652201  0.04594592  1
  S2-  S245  1  0.62441034  0.49411948  0.54838343  1
  S2-  S246  1  0.63146646  0.75782528  0.03799098  1
  S2-  S247  1  0.62485987  0.74093982  0.55204726  1
  S2-  S248  1  0.87891957  0.00514261  0.03372837  1
  S2-  S249  1  0.87574295  -0.01006657  0.54385914  1
  S2-  S250  1  0.87787262  0.24832170  0.04660141  1
  S2-  S251  1  0.87071350  0.24091260  0.54602611  1
  S2-  S252  1  0.87624499  0.50413023  0.03898080  1
  S2-  S253  1  0.87328935  0.48780310  0.54566464  1
  S2-  S254  1  0.87310160  0.74656081  0.03468718  1
  S2-  S255  1  0.87381194  0.73942084  0.55192435  1
