# generated using pymatgen
data_La12Ce14Pr13Nd13Sm12(BiS2)64
_symmetry_space_group_name_H-M   'P 1'
_cell_length_a   16.11197618
_cell_length_b   16.02729453
_cell_length_c   27.39035600
_cell_angle_alpha   89.59461378
_cell_angle_beta   89.71899453
_cell_angle_gamma   89.94735720
_symmetry_Int_Tables_number   1
_chemical_formula_structural   La12Ce14Pr13Nd13Sm12(BiS2)64
_chemical_formula_sum   'La12 Ce14 Pr13 Nd13 Sm12 Bi64 S128'
_cell_volume   7072.78476962
_cell_formula_units_Z   1
loop_
 _symmetry_equiv_pos_site_id
 _symmetry_equiv_pos_as_xyz
  1  'x, y, z'
loop_
 _atom_type_symbol
 _atom_type_oxidation_number
  La3+  3.0
  Ce3+  3.0
  Pr3+  3.0
  Nd3+  3.0
  Sm3+  3.0
  Bi2+  2.0
  S2-  -2.0
loop_
 _atom_site_type_symbol
 _atom_site_label
 _atom_site_symmetry_multiplicity
 _atom_site_fract_x
 _atom_site_fract_y
 _atom_site_fract_z
 _atom_site_occupancy
  La3+  La0  1  0.25630631  0.35682624  0.06485969  1
  La3+  La1  1  0.10286740  0.76227816  0.42046851  1
  La3+  La2  1  0.60444838  0.51780672  0.38640922  1
  La3+  La3  1  0.88102424  -0.02504392  0.92950761  1
  La3+  La4  1  0.59806199  0.76531919  0.42105989  1
  La3+  La5  1  0.35032080  0.76398385  0.42484571  1
  La3+  La6  1  0.88189884  0.49121804  0.93955800  1
  La3+  La7  1  0.62104931  -0.01843529  0.89000307  1
  La3+  La8  1  0.89198632  0.22993285  0.92606360  1
  La3+  La9  1  -0.02926387  0.62812817  0.56704458  1
  La3+  La10  1  0.39238693  0.24443474  0.92457139  1
  La3+  La11  1  0.38795949  0.49433908  0.93310195  1
  Ce3+  Ce12  1  0.38560867  0.73732627  0.94210965  1
  Ce3+  Ce13  1  0.35369145  0.25704944  0.44280335  1
  Ce3+  Ce14  1  0.75658409  0.11100321  0.05131972  1
  Ce3+  Ce15  1  0.22716465  0.87727154  0.56271881  1
  Ce3+  Ce16  1  0.10783320  0.50315817  0.44421650  1
  Ce3+  Ce17  1  0.00954832  0.60345009  0.07418020  1
  Ce3+  Ce18  1  0.85481562  0.26305159  0.43652726  1
  Ce3+  Ce19  1  0.72145488  0.13272510  0.55728743  1
  Ce3+  Ce20  1  0.85055161  0.75802947  0.44365615  1
  Ce3+  Ce21  1  0.13785778  0.24256326  0.93197288  1
  Ce3+  Ce22  1  0.59904981  0.00883348  0.44012508  1
  Ce3+  Ce23  1  0.63255652  0.74240871  0.94620846  1
  Ce3+  Ce24  1  0.63529977  0.23658246  0.93639704  1
  Ce3+  Ce25  1  0.47551012  0.12657441  0.57455963  1
  Pr3+  Pr26  1  0.13462823  0.49035486  0.93642415  1
  Pr3+  Pr27  1  0.75767686  0.35748496  0.07014382  1
  Pr3+  Pr28  1  0.25361273  0.11042446  0.06114848  1
  Pr3+  Pr29  1  0.12979827  0.73377174  0.94045879  1
  Pr3+  Pr30  1  0.22976836  0.13461871  0.57821940  1
  Pr3+  Pr31  1  -0.02314166  0.88243225  0.56168083  1
  Pr3+  Pr32  1  0.00385717  0.10925799  0.06704539  1
  Pr3+  Pr33  1  0.50655171  0.11514863  0.06064223  1
  Pr3+  Pr34  1  0.00365843  0.35632285  0.06014862  1
  Pr3+  Pr35  1  0.60081645  0.25968443  0.43206943  1
  Pr3+  Pr36  1  -0.02839525  0.37910010  0.56370546  1
  Pr3+  Pr37  1  0.46937508  0.86759075  0.57152042  1
  Pr3+  Pr38  1  0.72393140  0.38267705  0.55331074  1
  Nd3+  Nd39  1  0.24094429  0.38639531  0.57729693  1
  Nd3+  Nd40  1  0.10293918  0.00941309  0.44254211  1
  Nd3+  Nd41  1  0.50559704  0.36028819  0.06547514  1
  Nd3+  Nd42  1  0.34762139  0.49971665  0.41474261  1
  Nd3+  Nd43  1  0.85539789  0.51055515  0.42788765  1
  Nd3+  Nd44  1  0.72290451  0.63058009  0.55319022  1
  Nd3+  Nd45  1  0.75391474  0.85918036  0.07049297  1
  Nd3+  Nd46  1  0.71980631  0.88237154  0.56610036  1
  Nd3+  Nd47  1  0.50821937  0.86175815  0.06114899  1
  Nd3+  Nd48  1  -0.02970637  0.13090020  0.56854780  1
  Nd3+  Nd49  1  0.37872409  -0.00475418  0.93670180  1
  Nd3+  Nd50  1  0.50468522  0.60635136  0.08331714  1
  Nd3+  Nd51  1  0.85199116  0.01173429  0.44063117  1
  Sm3+  Sm52  1  0.25697832  0.86016197  0.05314841  1
  Sm3+  Sm53  1  0.75781351  0.60971915  0.08394838  1
  Sm3+  Sm54  1  0.10578929  0.25653691  0.45116992  1
  Sm3+  Sm55  1  0.47635840  0.63084843  0.54285732  1
  Sm3+  Sm56  1  0.47689805  0.38297130  0.55027662  1
  Sm3+  Sm57  1  0.00697902  0.86221758  0.06903539  1
  Sm3+  Sm58  1  0.35397368  0.01005281  0.44577547  1
  Sm3+  Sm59  1  0.63432005  0.48981719  0.95006772  1
  Sm3+  Sm60  1  0.22790175  0.62631821  0.55712326  1
  Sm3+  Sm61  1  0.12525308  -0.01298364  0.93626375  1
  Sm3+  Sm62  1  0.26122014  0.60476246  0.06966791  1
  Sm3+  Sm63  1  0.87940655  0.73821077  0.95883763  1
  Bi2+  Bi64  1  -0.00948125  0.10449219  0.31027999  1
  Bi2+  Bi65  1  -0.04818634  0.10243811  0.80029392  1
  Bi2+  Bi66  1  0.01856760  0.33164974  0.28026176  1
  Bi2+  Bi67  1  0.03741486  0.38574350  0.78431438  1
  Bi2+  Bi68  1  0.04413187  0.60983104  0.28583040  1
  Bi2+  Bi69  1  -0.03436706  0.64432705  0.82280141  1
  Bi2+  Bi70  1  0.00842547  0.80638468  0.29330472  1
  Bi2+  Bi71  1  0.09062969  0.82947519  0.81165950  1
  Bi2+  Bi72  1  0.25953612  0.11760744  0.28724925  1
  Bi2+  Bi73  1  0.21364058  0.07442739  0.78517540  1
  Bi2+  Bi74  1  0.21816063  0.35876698  0.30042260  1
  Bi2+  Bi75  1  0.26702025  0.39747696  0.77720440  1
  Bi2+  Bi76  1  0.24156818  0.65543703  0.25954089  1
  Bi2+  Bi77  1  0.25853329  0.61806619  0.79258213  1
  Bi2+  Bi78  1  0.22635898  0.87787673  0.29007939  1
  Bi2+  Bi79  1  0.27799213  0.88622947  0.80171107  1
  Bi2+  Bi80  1  0.44536907  0.12730542  0.34389009  1
  Bi2+  Bi81  1  0.45614085  0.11174625  0.79466422  1
  Bi2+  Bi82  1  0.48688184  0.30267010  0.28513686  1
  Bi2+  Bi83  1  0.51963153  0.36625938  0.79326394  1
  Bi2+  Bi84  1  0.50572569  0.65798339  0.27617016  1
  Bi2+  Bi85  1  0.52133752  0.58220648  0.79857518  1
  Bi2+  Bi86  1  0.48152865  0.91876075  0.29960322  1
  Bi2+  Bi87  1  0.53116387  0.76789493  0.76762417  1
  Bi2+  Bi88  1  0.63639553  0.14411662  0.31717172  1
  Bi2+  Bi89  1  0.75320250  0.15636359  0.78163822  1
  Bi2+  Bi90  1  0.78513475  0.34828673  0.30618942  1
  Bi2+  Bi91  1  0.75470868  0.45506481  0.77166612  1
  Bi2+  Bi92  1  0.78201523  0.67349706  0.27401574  1
  Bi2+  Bi93  1  0.78044236  0.65371029  0.76990837  1
  Bi2+  Bi94  1  0.74293470  0.97976027  0.28948917  1
  Bi2+  Bi95  1  0.77559460  0.85084929  0.79263789  1
  Bi2+  Bi96  1  0.14992940  0.00743774  0.21407579  1
  Bi2+  Bi97  1  0.14623125  -0.06172485  0.71499766  1
  Bi2+  Bi98  1  0.11591296  0.20102881  0.21073328  1
  Bi2+  Bi99  1  0.15721609  0.24518539  0.74125517  1
  Bi2+  Bi100  1  0.14184527  0.47875797  0.21976017  1
  Bi2+  Bi101  1  0.13717906  0.52101288  0.72245751  1
  Bi2+  Bi102  1  0.09356728  0.73535928  0.19608646  1
  Bi2+  Bi103  1  0.16303546  0.73796265  0.71388163  1
  Bi2+  Bi104  1  0.40791051  0.05190148  0.22066533  1
  Bi2+  Bi105  1  0.39038911  -0.04822788  0.71419178  1
  Bi2+  Bi106  1  0.36349150  0.24518263  0.20805561  1
  Bi2+  Bi107  1  0.38933082  0.23659403  0.69665671  1
  Bi2+  Bi108  1  0.38283628  0.50497562  0.21046710  1
  Bi2+  Bi109  1  0.39426054  0.51706199  0.70085138  1
  Bi2+  Bi110  1  0.34931918  0.79493852  0.20097635  1
  Bi2+  Bi111  1  0.37181361  0.71398312  0.70699151  1
  Bi2+  Bi112  1  0.60174172  0.05760796  0.21556191  1
  Bi2+  Bi113  1  0.64424318  0.04213314  0.69047763  1
  Bi2+  Bi114  1  0.62975547  0.25210975  0.20772993  1
  Bi2+  Bi115  1  0.65599829  0.30745936  0.71660955  1
  Bi2+  Bi116  1  0.64093846  0.49982950  0.21387534  1
  Bi2+  Bi117  1  0.59946471  0.50170189  0.69930766  1
  Bi2+  Bi118  1  0.64437452  0.80732179  0.20117575  1
  Bi2+  Bi119  1  0.64384335  0.69381071  0.68697639  1
  Bi2+  Bi120  1  0.87333633  0.08650459  0.22542180  1
  Bi2+  Bi121  1  0.88211463  0.00402703  0.69626767  1
  Bi2+  Bi122  1  0.86116894  0.28244687  0.20566477  1
  Bi2+  Bi123  1  0.89440923  0.25856889  0.69512645  1
  Bi2+  Bi124  1  0.91573995  0.50004083  0.21193224  1
  Bi2+  Bi125  1  0.90221645  0.51708951  0.69674513  1
  Bi2+  Bi126  1  0.91947528  0.89469586  0.20881830  1
  Bi2+  Bi127  1  0.94376094  0.75491581  0.73022534  1
  S2-  S128  1  -0.00593386  0.23471753  0.13958434  1
  S2-  S129  1  0.00046223  0.12975484  0.66711028  1
  S2-  S130  1  0.02149400  0.45835035  0.14320484  1
  S2-  S131  1  0.00011219  0.37432771  0.66325609  1
  S2-  S132  1  -0.04368268  0.64827463  0.16453733  1
  S2-  S133  1  0.03066786  0.63059810  0.66426606  1
  S2-  S134  1  0.02226619  0.97898854  0.14174861  1
  S2-  S135  1  -0.01894842  0.88687542  0.66220226  1
  S2-  S136  1  0.24285733  0.22577506  0.13797486  1
  S2-  S137  1  0.35344301  0.09790045  0.65103615  1
  S2-  S138  1  0.26609428  0.46440118  0.14506572  1
  S2-  S139  1  0.21789366  0.26515988  0.65022589  1
  S2-  S140  1  0.36540275  0.63891246  0.14755121  1
  S2-  S141  1  0.24634163  0.52784797  0.64037599  1
  S2-  S142  1  0.24802798  0.89598646  0.14918812  1
  S2-  S143  1  0.32730964  0.86250569  0.64139249  1
  S2-  S144  1  0.49971222  0.23259871  0.13772059  1
  S2-  S145  1  0.54910400  0.18633470  0.65983321  1
  S2-  S146  1  0.50632783  0.45758006  0.15202725  1
  S2-  S147  1  0.40648874  0.37922828  0.64107077  1
  S2-  S148  1  0.57347111  0.64835932  0.17712408  1
  S2-  S149  1  0.49243699  0.70966096  0.63119317  1
  S2-  S150  1  0.49269634  0.86284138  0.16025046  1
  S2-  S151  1  0.53065086  0.94098864  0.65748090  1
  S2-  S152  1  0.75011726  0.21281384  0.13366654  1
  S2-  S153  1  0.78710485  0.13311076  0.64866691  1
  S2-  S154  1  0.76093202  0.47576037  0.15166062  1
  S2-  S155  1  0.78207762  0.36360080  0.64784874  1
  S2-  S156  1  0.75917656  0.70649294  0.16863050  1
  S2-  S157  1  0.82599667  0.61100560  0.63401930  1
  S2-  S158  1  0.75883099  0.91920393  0.16345527  1
  S2-  S159  1  0.75305956  0.90772687  0.66460085  1
  S2-  S160  1  0.10241552  -0.08775904  0.35886634  1
  S2-  S161  1  0.01629812  -0.02534151  0.85764440  1
  S2-  S162  1  0.10067882  0.22893720  0.35333750  1
  S2-  S163  1  0.03744002  0.19326007  0.85891216  1
  S2-  S164  1  0.19515667  0.49431848  0.36009896  1
  S2-  S165  1  0.14778806  0.37649226  0.85676689  1
  S2-  S166  1  0.23114817  0.73367534  0.34939954  1
  S2-  S167  1  0.12790344  0.61717086  0.86377483  1
  S2-  S168  1  0.34180928  -0.07366657  0.35996224  1
  S2-  S169  1  0.45539380  -0.02836551  0.84932362  1
  S2-  S170  1  0.34935544  0.34515254  0.35721326  1
  S2-  S171  1  0.32138469  0.15218659  0.84979829  1
  S2-  S172  1  0.45404493  0.53270723  0.33073976  1
  S2-  S173  1  0.38528191  0.38449043  0.85295830  1
  S2-  S174  1  0.46348803  0.76424825  0.34540015  1
  S2-  S175  1  0.38822309  0.63373501  0.86326859  1
  S2-  S176  1  0.62087849  -0.08689955  0.35793822  1
  S2-  S177  1  0.61266430  0.04022517  0.78729842  1
  S2-  S178  1  0.61282585  0.35388269  0.34553913  1
  S2-  S179  1  0.54169090  0.23037526  0.85420439  1
  S2-  S180  1  0.72847736  0.51248477  0.30515339  1
  S2-  S181  1  0.63396979  0.47355092  0.85079306  1
  S2-  S182  1  0.64560433  0.67968443  0.33520581  1
  S2-  S183  1  0.63220875  0.81267938  0.85360325  1
  S2-  S184  1  0.88334245  -0.02322134  0.34549741  1
  S2-  S185  1  0.78514358  -0.00998368  0.84339018  1
  S2-  S186  1  0.85695950  0.20164435  0.34697436  1
  S2-  S187  1  0.84523004  0.25664820  0.82762310  1
  S2-  S188  1  0.91567599  0.43012092  0.34614637  1
  S2-  S189  1  0.92145830  0.48063181  0.84136738  1
  S2-  S190  1  0.86775305  0.72854317  0.34728603  1
  S2-  S191  1  0.87886780  0.78816500  0.86530492  1
  S2-  S192  1  -0.02124446  0.13308533  0.46067058  1
  S2-  S193  1  0.00477804  0.10221567  0.96132791  1
  S2-  S194  1  -0.01765437  0.38013937  0.45705040  1
  S2-  S195  1  0.00636072  0.36458000  0.95332137  1
  S2-  S196  1  -0.01880660  0.63256170  0.45228538  1
  S2-  S197  1  0.00302545  0.61588037  0.96626602  1
  S2-  S198  1  -0.02366964  0.88285109  0.45692473  1
  S2-  S199  1  0.00932325  0.85715970  0.96607187  1
  S2-  S200  1  0.22782688  0.13108608  0.46050586  1
  S2-  S201  1  0.24704348  0.10708030  0.95570605  1
  S2-  S202  1  0.22744671  0.37644228  0.46638471  1
  S2-  S203  1  0.26294519  0.36535316  0.95733234  1
  S2-  S204  1  0.22506796  0.63221322  0.45498863  1
  S2-  S205  1  0.25949753  0.61645347  0.96496017  1
  S2-  S206  1  0.22385047  0.88462950  0.46054899  1
  S2-  S207  1  0.25585084  0.86280936  0.94828628  1
  S2-  S208  1  0.47791602  0.13375587  0.46320799  1
  S2-  S209  1  0.51364718  0.10415667  0.95420930  1
  S2-  S210  1  0.48097162  0.38846723  0.44872599  1
  S2-  S211  1  0.51531148  0.36651700  0.95894709  1
  S2-  S212  1  0.47937163  0.62615771  0.44209766  1
  S2-  S213  1  0.51416238  0.61593253  0.96408016  1
  S2-  S214  1  0.47519510  0.88697527  0.46081532  1
  S2-  S215  1  0.50630355  0.86670945  0.95599767  1
  S2-  S216  1  0.72681025  0.13427764  0.45204005  1
  S2-  S217  1  0.75470026  0.10803309  0.94606485  1
  S2-  S218  1  0.72790567  0.38873121  0.44691887  1
  S2-  S219  1  0.75832951  0.36290683  0.95180889  1
  S2-  S220  1  0.72613683  0.62800941  0.44795807  1
  S2-  S221  1  0.75594024  0.61677637  0.95491741  1
  S2-  S222  1  0.73179119  0.88497063  0.45842782  1
  S2-  S223  1  0.75314987  0.86334033  0.96379014  1
  S2-  S224  1  0.13397551  -0.01753414  0.04062053  1
  S2-  S225  1  0.10367202  0.00982794  0.55225154  1
  S2-  S226  1  0.12703382  0.23347408  0.03739646  1
  S2-  S227  1  0.09815317  0.25366826  0.55280665  1
  S2-  S228  1  0.13603128  0.48787908  0.04254211  1
  S2-  S229  1  0.10038443  0.50298349  0.54940175  1
  S2-  S230  1  0.13379417  0.73660790  0.05192458  1
  S2-  S231  1  0.10201991  0.75224842  0.55009463  1
  S2-  S232  1  0.38076115  -0.01357594  0.04618352  1
  S2-  S233  1  0.34922243  0.00359836  0.54665574  1
  S2-  S234  1  0.38055913  0.23386071  0.03490358  1
  S2-  S235  1  0.35524021  0.25465905  0.54587919  1
  S2-  S236  1  0.38586041  0.48867221  0.04268704  1
  S2-  S237  1  0.35619669  0.50869913  0.53367644  1
  S2-  S238  1  0.38225885  0.73920439  0.04572196  1
  S2-  S239  1  0.34646869  0.74884216  0.53549045  1
  S2-  S240  1  0.63041403  -0.01118921  0.05955465  1
  S2-  S241  1  0.59973776  0.00631891  0.54628515  1
  S2-  S242  1  0.63184493  0.23877696  0.03854094  1
  S2-  S243  1  0.59938036  0.25931095  0.54148300  1
  S2-  S244  1  0.63596593  0.48926020  0.05183205  1
  S2-  S245  1  0.59863646  0.50784190  0.55247739  1
  S2-  S246  1  0.63150281  0.73148965  0.05405206  1
  S2-  S247  1  0.60469550  0.75719317  0.53398439  1
  S2-  S248  1  0.88021842  -0.01848659  0.04646057  1
  S2-  S249  1  0.84870876  0.00552363  0.54734025  1
  S2-  S250  1  0.87899945  0.23561898  0.03432487  1
  S2-  S251  1  0.84980629  0.25451501  0.54219223  1
  S2-  S252  1  0.87575369  0.49015271  0.04701885  1
  S2-  S253  1  0.85110307  0.50279562  0.53337858  1
  S2-  S254  1  0.88155933  0.73725616  0.06003707  1
  S2-  S255  1  0.84856202  0.76158721  0.54868890  1
