# generated using pymatgen
data_La12Ce14Pr13Nd13Sm12(BiS2)64
_symmetry_space_group_name_H-M   'P 1'
_cell_length_a   16.16726769
_cell_length_b   16.18953330
_cell_length_c   27.05064818
_cell_angle_alpha   90.09418607
_cell_angle_beta   90.09895284
_cell_angle_gamma   89.96720226
_symmetry_Int_Tables_number   1
_chemical_formula_structural   La12Ce14Pr13Nd13Sm12(BiS2)64
_chemical_formula_sum   'La12 Ce14 Pr13 Nd13 Sm12 Bi64 S128'
_cell_volume   7080.22941050
_cell_formula_units_Z   1
loop_
 _symmetry_equiv_pos_site_id
 _symmetry_equiv_pos_as_xyz
  1  'x, y, z'
loop_
 _atom_type_symbol
 _atom_type_oxidation_number
  La3+  3.0
  Ce3+  3.0
  Pr3+  3.0
  Nd3+  3.0
  Sm3+  3.0
  Bi2+  2.0
  S2-  -2.0
loop_
 _atom_site_type_symbol
 _atom_site_label
 _atom_site_symmetry_multiplicity
 _atom_site_fract_x
 _atom_site_fract_y
 _atom_site_fract_z
 _atom_site_occupancy
  La3+  La0  1  0.49095484  0.62063474  0.11537082  1
  La3+  La1  1  0.62792605  0.50953295  0.43077024  1
  La3+  La2  1  0.13778548  0.48812108  0.91343024  1
  La3+  La3  1  0.50976472  0.36846146  0.07461219  1
  La3+  La4  1  0.12242486  0.76744982  0.40846995  1
  La3+  La5  1  0.13736364  0.75181716  0.91017891  1
  La3+  La6  1  0.88512235  0.27208148  0.42849959  1
  La3+  La7  1  0.25950078  0.64385021  0.59217650  1
  La3+  La8  1  0.76207593  0.14070208  0.58500061  1
  La3+  La9  1  0.00615631  0.87052117  0.05847367  1
  La3+  La10  1  0.87215276  0.74446805  0.91943427  1
  La3+  La11  1  0.75237772  0.86822929  0.05528786  1
  Ce3+  Ce12  1  0.37953171  0.00828482  0.43785600  1
  Ce3+  Ce13  1  0.12915991  0.26588999  0.43238409  1
  Ce3+  Ce14  1  0.50545718  0.12226998  0.06853477  1
  Ce3+  Ce15  1  0.87434308  -0.00318330  0.93691832  1
  Ce3+  Ce16  1  0.50239969  0.64366949  0.56417783  1
  Ce3+  Ce17  1  0.87569859  0.24606164  0.94208593  1
  Ce3+  Ce18  1  0.12689781  -0.00609774  0.93618148  1
  Ce3+  Ce19  1  0.75141854  0.38731980  0.56412091  1
  Ce3+  Ce20  1  0.87942140  0.49631966  0.94220052  1
  Ce3+  Ce21  1  0.75641639  0.37010177  0.06343203  1
  Ce3+  Ce22  1  0.25185287  0.37132180  0.06209080  1
  Ce3+  Ce23  1  0.25391493  0.12110777  0.05516423  1
  Ce3+  Ce24  1  0.38043800  0.24689624  0.94421058  1
  Ce3+  Ce25  1  0.88056736  0.76222332  0.44061792  1
  Pr3+  Pr26  1  0.00632882  0.37360034  0.05681659  1
  Pr3+  Pr27  1  0.75136859  0.62215195  0.06488861  1
  Pr3+  Pr28  1  0.38260629  0.26208574  0.43650483  1
  Pr3+  Pr29  1  0.37891619  0.49536489  0.94468524  1
  Pr3+  Pr30  1  0.24309203  0.61750144  0.06539111  1
  Pr3+  Pr31  1  0.38125154  -0.00380657  0.94238842  1
  Pr3+  Pr32  1  0.62063418  -0.00390891  0.92871034  1
  Pr3+  Pr33  1  0.75312257  0.11705349  0.06176155  1
  Pr3+  Pr34  1  0.50275151  0.88822284  0.56561847  1
  Pr3+  Pr35  1  0.25402589  0.88668120  0.56261377  1
  Pr3+  Pr36  1  0.12735479  0.24298086  0.93448956  1
  Pr3+  Pr37  1  0.25340624  0.37878896  0.57142196  1
  Pr3+  Pr38  1  0.50315267  0.38936841  0.55711646  1
  Nd3+  Nd39  1  0.62851967  0.24887851  0.94031524  1
  Nd3+  Nd40  1  0.37383500  0.51706892  0.44187580  1
  Nd3+  Nd41  1  0.13430407  0.51786371  0.44951003  1
  Nd3+  Nd42  1  0.25444458  0.86726342  0.06077439  1
  Nd3+  Nd43  1  0.75327708  0.63678491  0.55747394  1
  Nd3+  Nd44  1  0.62296547  0.74415933  0.93924464  1
  Nd3+  Nd45  1  0.62988724  0.76259081  0.44049725  1
  Nd3+  Nd46  1  0.00361872  0.14027160  0.55893274  1
  Nd3+  Nd47  1  0.50751810  0.13666478  0.55407922  1
  Nd3+  Nd48  1  0.37950774  0.76934187  0.42769665  1
  Nd3+  Nd49  1  0.50406497  0.86922194  0.06756123  1
  Nd3+  Nd50  1  0.00607424  0.63993914  0.56720933  1
  Nd3+  Nd51  1  0.00602391  0.38900765  0.56442997  1
  Sm3+  Sm52  1  0.00770195  0.88287113  0.55971682  1
  Sm3+  Sm53  1  0.00895932  0.62331997  0.04386692  1
  Sm3+  Sm54  1  0.87852387  0.01364911  0.44916129  1
  Sm3+  Sm55  1  0.37700094  0.74256967  0.94640802  1
  Sm3+  Sm56  1  0.12811449  0.01043850  0.44287865  1
  Sm3+  Sm57  1  0.88223879  0.51192362  0.44620271  1
  Sm3+  Sm58  1  0.63416884  0.01142254  0.44986342  1
  Sm3+  Sm59  1  0.75676178  0.88460345  0.56135881  1
  Sm3+  Sm60  1  0.00508238  0.12094298  0.05387776  1
  Sm3+  Sm61  1  0.62683182  0.49853937  0.94638141  1
  Sm3+  Sm62  1  0.25305509  0.13805243  0.55422938  1
  Sm3+  Sm63  1  0.64489414  0.25153512  0.43769619  1
  Bi2+  Bi64  1  0.00639589  0.13700413  0.28920435  1
  Bi2+  Bi65  1  0.05357869  0.13300322  0.80303725  1
  Bi2+  Bi66  1  -0.00259585  0.41781377  0.29833364  1
  Bi2+  Bi67  1  -0.02143629  0.37709372  0.80003647  1
  Bi2+  Bi68  1  -0.01410784  0.63253246  0.28310553  1
  Bi2+  Bi69  1  -0.03807151  0.62583109  0.78295801  1
  Bi2+  Bi70  1  -0.00816764  0.89920376  0.29020191  1
  Bi2+  Bi71  1  0.01910283  0.94654917  0.77427343  1
  Bi2+  Bi72  1  0.20881775  0.13384051  0.30287363  1
  Bi2+  Bi73  1  0.24706218  0.11715537  0.80005062  1
  Bi2+  Bi74  1  0.23512296  0.32059737  0.26750960  1
  Bi2+  Bi75  1  0.26732681  0.36113980  0.78975339  1
  Bi2+  Bi76  1  0.24740014  0.58392444  0.30217576  1
  Bi2+  Bi77  1  0.23494441  0.61607955  0.79445948  1
  Bi2+  Bi78  1  0.26501034  0.94816926  0.29010724  1
  Bi2+  Bi79  1  0.27080854  0.92279948  0.78383073  1
  Bi2+  Bi80  1  0.48625132  0.10508294  0.28837409  1
  Bi2+  Bi81  1  0.47429082  0.08089184  0.77450312  1
  Bi2+  Bi82  1  0.49020692  0.37523157  0.29480289  1
  Bi2+  Bi83  1  0.48176045  0.34506485  0.76948830  1
  Bi2+  Bi84  1  0.51337894  0.63174144  0.32170538  1
  Bi2+  Bi85  1  0.50568514  0.61773910  0.78915679  1
  Bi2+  Bi86  1  0.52698906  0.91495230  0.27791436  1
  Bi2+  Bi87  1  0.53157332  0.82719619  0.81227823  1
  Bi2+  Bi88  1  0.74974487  0.06274892  0.29544317  1
  Bi2+  Bi89  1  0.77657300  0.13110595  0.81107786  1
  Bi2+  Bi90  1  0.74692808  0.32424879  0.29985987  1
  Bi2+  Bi91  1  0.68070322  0.36990992  0.78683051  1
  Bi2+  Bi92  1  0.76711350  0.66772826  0.28601047  1
  Bi2+  Bi93  1  0.70372291  0.60798226  0.78685496  1
  Bi2+  Bi94  1  0.80395954  0.85694930  0.26288218  1
  Bi2+  Bi95  1  0.70268873  0.87526909  0.76487564  1
  Bi2+  Bi96  1  0.11944488  0.01260020  0.22212989  1
  Bi2+  Bi97  1  0.15720493  0.01864959  0.69980014  1
  Bi2+  Bi98  1  0.10030929  0.23614766  0.20244399  1
  Bi2+  Bi99  1  0.11997203  0.20978323  0.70656529  1
  Bi2+  Bi100  1  0.07574660  0.49469341  0.19890697  1
  Bi2+  Bi101  1  0.10637176  0.48451734  0.70041594  1
  Bi2+  Bi102  1  0.11880139  0.74882069  0.20375660  1
  Bi2+  Bi103  1  0.11479083  0.75686777  0.70234443  1
  Bi2+  Bi104  1  0.39509865  0.00114964  0.20287981  1
  Bi2+  Bi105  1  0.35608844  -0.00800279  0.68534166  1
  Bi2+  Bi106  1  0.36938355  0.20571448  0.21239297  1
  Bi2+  Bi107  1  0.36175080  0.20427963  0.71531128  1
  Bi2+  Bi108  1  0.34808667  0.49877536  0.21653102  1
  Bi2+  Bi109  1  0.40317345  0.49950435  0.71439956  1
  Bi2+  Bi110  1  0.36624688  0.75575648  0.22050221  1
  Bi2+  Bi111  1  0.37580031  0.75975948  0.76197079  1
  Bi2+  Bi112  1  0.58671137  0.00500442  0.17636963  1
  Bi2+  Bi113  1  0.54347007  -0.05479694  0.70223036  1
  Bi2+  Bi114  1  0.62400218  0.18329341  0.21823359  1
  Bi2+  Bi115  1  0.62785582  0.21184529  0.70999998  1
  Bi2+  Bi116  1  0.63754447  0.49384541  0.21587123  1
  Bi2+  Bi117  1  0.65542573  0.47149218  0.68311394  1
  Bi2+  Bi118  1  0.65007352  0.78272316  0.20705239  1
  Bi2+  Bi119  1  0.61187902  0.66306507  0.68969571  1
  Bi2+  Bi120  1  0.87168832  0.06841874  0.20646267  1
  Bi2+  Bi121  1  0.86886091  0.04788228  0.72535598  1
  Bi2+  Bi122  1  0.88026297  0.26356973  0.22735000  1
  Bi2+  Bi123  1  0.87908137  0.27622219  0.71113677  1
  Bi2+  Bi124  1  0.86134627  0.52441581  0.21932929  1
  Bi2+  Bi125  1  0.83476284  0.46622074  0.73027791  1
  Bi2+  Bi126  1  0.87967068  0.71080093  0.18951209  1
  Bi2+  Bi127  1  0.85786244  0.78058720  0.71104830  1
  S2-  S128  1  0.01177809  0.05899408  0.14560628  1
  S2-  S129  1  -0.08230619  0.13868882  0.64592553  1
  S2-  S130  1  -0.00984572  0.35016492  0.15712071  1
  S2-  S131  1  0.02492852  0.34301136  0.66066538  1
  S2-  S132  1  0.09530720  0.62174155  0.13175747  1
  S2-  S133  1  0.00451292  0.61011500  0.66716986  1
  S2-  S134  1  -0.00141250  0.83074859  0.15749189  1
  S2-  S135  1  -0.00860991  0.84771201  0.65647261  1
  S2-  S136  1  0.23973817  0.16605750  0.14965199  1
  S2-  S137  1  0.24802153  0.23090280  0.63703101  1
  S2-  S138  1  0.22514751  0.43391849  0.15265959  1
  S2-  S139  1  0.25970352  0.42974177  0.66994439  1
  S2-  S140  1  0.32224378  0.63526343  0.15661792  1
  S2-  S141  1  0.20423910  0.61443845  0.69031609  1
  S2-  S142  1  0.23929081  0.83599857  0.16038889  1
  S2-  S143  1  0.24514447  0.79771554  0.64941862  1
  S2-  S144  1  0.50825072  0.23250543  0.14632010  1
  S2-  S145  1  0.50357946  0.16504710  0.65221512  1
  S2-  S146  1  0.48687953  0.46013738  0.16041224  1
  S2-  S147  1  0.50813175  0.38995989  0.65872956  1
  S2-  S148  1  0.47943001  0.62194142  0.22857284  1
  S2-  S149  1  0.41004596  0.61873101  0.64526180  1
  S2-  S150  1  0.49077502  0.78612834  0.15539872  1
  S2-  S151  1  0.51480797  0.79875266  0.65133245  1
  S2-  S152  1  0.76906786  0.18527008  0.15478788  1
  S2-  S153  1  0.71522218  0.08353927  0.68095000  1
  S2-  S154  1  0.69321226  0.39126659  0.15363091  1
  S2-  S155  1  0.75004751  0.28847877  0.64552568  1
  S2-  S156  1  0.66153006  0.62836664  0.15315044  1
  S2-  S157  1  0.77823080  0.65939329  0.65563597  1
  S2-  S158  1  0.73340474  0.90386701  0.15411289  1
  S2-  S159  1  0.76013708  0.87688137  0.66028908  1
  S2-  S160  1  0.12681925  -0.07757998  0.35677029  1
  S2-  S161  1  0.13549476  -0.09272578  0.85174489  1
  S2-  S162  1  0.01731004  0.27161586  0.35676111  1
  S2-  S163  1  0.14164277  0.33279083  0.84808504  1
  S2-  S164  1  0.14075689  0.48127188  0.35111899  1
  S2-  S165  1  0.09139940  0.51746258  0.81228997  1
  S2-  S166  1  0.15490455  0.71400434  0.30864175  1
  S2-  S167  1  0.09585521  0.71649546  0.80814479  1
  S2-  S168  1  0.38955024  -0.09094405  0.35843876  1
  S2-  S169  1  0.48006711  -0.01094380  0.85874710  1
  S2-  S170  1  0.36001705  0.29309237  0.33787400  1
  S2-  S171  1  0.39206930  0.28337790  0.84825209  1
  S2-  S172  1  0.39799161  0.50057436  0.34245409  1
  S2-  S173  1  0.29672230  0.49306588  0.85389842  1
  S2-  S174  1  0.36683651  0.71196023  0.32892055  1
  S2-  S175  1  0.29834555  0.73886628  0.85775748  1
  S2-  S176  1  0.62267341  0.00591721  0.35069273  1
  S2-  S177  1  0.69020117  -0.00056680  0.83335913  1
  S2-  S178  1  0.58997873  0.28596421  0.34455028  1
  S2-  S179  1  0.63858048  0.22263691  0.84132122  1
  S2-  S180  1  0.62972655  0.49619377  0.32766059  1
  S2-  S181  1  0.60843519  0.49662671  0.84704840  1
  S2-  S182  1  0.63593773  0.75042569  0.34092712  1
  S2-  S183  1  0.68845138  0.75050859  0.84608041  1
  S2-  S184  1  0.88401456  -0.00928305  0.35104807  1
  S2-  S185  1  0.89585131  -0.00550716  0.83992645  1
  S2-  S186  1  0.76791014  0.20254845  0.36482803  1
  S2-  S187  1  0.88387526  0.26490421  0.84392302  1
  S2-  S188  1  0.86078929  0.42700451  0.36011701  1
  S2-  S189  1  0.87388183  0.50414670  0.84435252  1
  S2-  S190  1  0.96364483  0.76106886  0.35493556  1
  S2-  S191  1  0.89171151  0.75797649  0.81799547  1
  S2-  S192  1  0.00423970  0.13264241  0.45300715  1
  S2-  S193  1  0.00155326  0.11946304  0.94881698  1
  S2-  S194  1  0.00963594  0.39591974  0.45941383  1
  S2-  S195  1  0.00190220  0.37062472  0.94919825  1
  S2-  S196  1  0.00494464  0.63572631  0.45705978  1
  S2-  S197  1  0.00656288  0.62313904  0.93864885  1
  S2-  S198  1  0.00291844  0.88936442  0.45709874  1
  S2-  S199  1  -0.00154957  0.86895528  0.94754903  1
  S2-  S200  1  0.25282633  0.13538078  0.44907716  1
  S2-  S201  1  0.25409341  0.11965981  0.94749919  1
  S2-  S202  1  0.25561696  0.38593572  0.45700149  1
  S2-  S203  1  0.25470412  0.36611908  0.95673286  1
  S2-  S204  1  0.25222122  0.64563757  0.44237751  1
  S2-  S205  1  0.25157187  0.62038783  0.95571138  1
  S2-  S206  1  0.25048666  0.88681179  0.45574097  1
  S2-  S207  1  0.25840793  0.87324428  0.95475313  1
  S2-  S208  1  0.50870862  0.13488415  0.44738477  1
  S2-  S209  1  0.50456321  0.12534266  0.95876340  1
  S2-  S210  1  0.50386476  0.38695404  0.45053874  1
  S2-  S211  1  0.50632431  0.37270495  0.95870630  1
  S2-  S212  1  0.50303834  0.63948192  0.45241760  1
  S2-  S213  1  0.50126941  0.62128574  0.94591482  1
  S2-  S214  1  0.51058742  0.88859140  0.45796203  1
  S2-  S215  1  0.50031905  0.86559504  0.95996072  1
  S2-  S216  1  0.75635238  0.12829044  0.47272903  1
  S2-  S217  1  0.75057731  0.12063023  0.95300903  1
  S2-  S218  1  0.75112403  0.38843770  0.45840632  1
  S2-  S219  1  0.75204984  0.37442841  0.95364792  1
  S2-  S220  1  0.75672044  0.63486687  0.44887763  1
  S2-  S221  1  0.75128312  0.62054285  0.95384217  1
  S2-  S222  1  0.75576378  0.88711302  0.45416630  1
  S2-  S223  1  0.75030503  0.87136985  0.94718422  1
  S2-  S224  1  0.13159469  -0.00423694  0.04397201  1
  S2-  S225  1  0.12750515  0.01373370  0.54920615  1
  S2-  S226  1  0.12662222  0.24453535  0.04279163  1
  S2-  S227  1  0.12600461  0.26078909  0.53956361  1
  S2-  S228  1  0.12576055  0.49342522  0.03108501  1
  S2-  S229  1  0.13413127  0.51557379  0.55682699  1
  S2-  S230  1  0.12928038  0.74968149  0.03327228  1
  S2-  S231  1  0.12811561  0.75910900  0.54687695  1
  S2-  S232  1  0.37923567  -0.00509040  0.05122502  1
  S2-  S233  1  0.37774397  0.01590161  0.54550131  1
  S2-  S234  1  0.37673270  0.24687287  0.04884371  1
  S2-  S235  1  0.38153864  0.25891712  0.54332114  1
  S2-  S236  1  0.37713557  0.49686464  0.05082489  1
  S2-  S237  1  0.37305791  0.51038619  0.54648032  1
  S2-  S238  1  0.37817491  0.74373742  0.04927848  1
  S2-  S239  1  0.37816978  0.76428652  0.53984709  1
  S2-  S240  1  0.62576482  -0.00503628  0.04008997  1
  S2-  S241  1  0.63268267  0.00930035  0.55580024  1
  S2-  S242  1  0.63460421  0.24442802  0.04626611  1
  S2-  S243  1  0.62731288  0.26304672  0.54333866  1
  S2-  S244  1  0.62955136  0.49693044  0.04878688  1
  S2-  S245  1  0.62681114  0.51573701  0.54248220  1
  S2-  S246  1  0.62595878  0.74597509  0.04580668  1
  S2-  S247  1  0.63365168  0.76375637  0.54681113  1
  S2-  S248  1  0.87986262  -0.00404683  0.04499369  1
  S2-  S249  1  0.88249469  0.00410321  0.55371012  1
  S2-  S250  1  0.88207067  0.24355832  0.04831922  1
  S2-  S251  1  0.88391062  0.26863797  0.54217956  1
  S2-  S252  1  0.88186567  0.50125697  0.05122665  1
  S2-  S253  1  0.87993802  0.51245254  0.55239902  1
  S2-  S254  1  0.87965488  0.74226890  0.03725241  1
  S2-  S255  1  0.87995645  0.76193487  0.54716416  1
