# generated using pymatgen
data_La12Ce14Pr13Nd13Sm12(BiS2)64
_symmetry_space_group_name_H-M   'P 1'
_cell_length_a   16.17991925
_cell_length_b   16.12978250
_cell_length_c   27.14777099
_cell_angle_alpha   90.06091081
_cell_angle_beta   89.84267304
_cell_angle_gamma   89.96659368
_symmetry_Int_Tables_number   1
_chemical_formula_structural   La12Ce14Pr13Nd13Sm12(BiS2)64
_chemical_formula_sum   'La12 Ce14 Pr13 Nd13 Sm12 Bi64 S128'
_cell_volume   7084.95475218
_cell_formula_units_Z   1
loop_
 _symmetry_equiv_pos_site_id
 _symmetry_equiv_pos_as_xyz
  1  'x, y, z'
loop_
 _atom_type_symbol
 _atom_type_oxidation_number
  La3+  3.0
  Ce3+  3.0
  Pr3+  3.0
  Nd3+  3.0
  Sm3+  3.0
  Bi2+  2.0
  S2-  -2.0
loop_
 _atom_site_type_symbol
 _atom_site_label
 _atom_site_symmetry_multiplicity
 _atom_site_fract_x
 _atom_site_fract_y
 _atom_site_fract_z
 _atom_site_occupancy
  La3+  La0  1  0.13087988  0.24196941  0.41871082  1
  La3+  La1  1  0.11724032  0.49987551  0.93512227  1
  La3+  La2  1  0.13255911  0.00458239  0.89597666  1
  La3+  La3  1  0.62352915  0.49816609  0.89297687  1
  La3+  La4  1  0.00059704  0.87973244  0.60164559  1
  La3+  La5  1  0.00551778  0.63123964  0.07921650  1
  La3+  La6  1  0.26615326  0.88215070  0.59618656  1
  La3+  La7  1  0.62634402  0.74944716  0.92970594  1
  La3+  La8  1  0.63536084  0.00081415  0.39084276  1
  La3+  La9  1  0.00221680  0.37297700  0.11268380  1
  La3+  La10  1  0.25438660  0.11742876  0.07113387  1
  La3+  La11  1  0.37400665  0.74535995  0.94040299  1
  Ce3+  Ce12  1  0.50241447  0.62167948  0.55623602  1
  Ce3+  Ce13  1  0.75333139  0.37278538  0.06541241  1
  Ce3+  Ce14  1  0.63039149  0.49741039  0.43802924  1
  Ce3+  Ce15  1  0.88263846  0.75095791  0.44858987  1
  Ce3+  Ce16  1  0.13207889  -0.00141372  0.44352339  1
  Ce3+  Ce17  1  0.50864373  0.12137495  0.06144385  1
  Ce3+  Ce18  1  0.00282352  0.87201632  0.05235203  1
  Ce3+  Ce19  1  0.00990234  0.37560947  0.55376889  1
  Ce3+  Ce20  1  0.63197383  0.75376925  0.44316634  1
  Ce3+  Ce21  1  0.50518025  0.62213891  0.05857461  1
  Ce3+  Ce22  1  0.87659732  -0.00470912  0.43932719  1
  Ce3+  Ce23  1  0.38036231  0.49248149  0.43299277  1
  Ce3+  Ce24  1  0.75580747  0.12133968  0.55560357  1
  Ce3+  Ce25  1  0.12857498  0.24541546  0.94674096  1
  Pr3+  Pr26  1  0.75428757  0.87331975  0.56931279  1
  Pr3+  Pr27  1  0.87774032  -0.00226670  0.94035973  1
  Pr3+  Pr28  1  0.37976517  -0.00016464  0.43126027  1
  Pr3+  Pr29  1  0.75456719  0.62474980  0.56126940  1
  Pr3+  Pr30  1  0.00115343  0.12390386  0.06299519  1
  Pr3+  Pr31  1  0.75715735  0.37204277  0.56753211  1
  Pr3+  Pr32  1  0.12697048  0.74731968  0.93323856  1
  Pr3+  Pr33  1  0.38240500  0.75751751  0.43934525  1
  Pr3+  Pr34  1  0.37653701  0.49497671  0.93808557  1
  Pr3+  Pr35  1  0.87687044  0.24862852  0.94126168  1
  Pr3+  Pr36  1  0.01537470  0.61858665  0.57282687  1
  Pr3+  Pr37  1  0.25073906  0.62063444  0.06636630  1
  Pr3+  Pr38  1  0.37749733  0.24559718  0.94679526  1
  Nd3+  Nd39  1  0.87560601  0.49539977  0.94772463  1
  Nd3+  Nd40  1  0.62801504  0.24981856  0.93603524  1
  Nd3+  Nd41  1  0.63351317  0.25213953  0.43477838  1
  Nd3+  Nd42  1  0.24989827  0.37337233  0.06489868  1
  Nd3+  Nd43  1  0.38388759  0.24267899  0.43006097  1
  Nd3+  Nd44  1  0.37583275  0.00077365  0.93354942  1
  Nd3+  Nd45  1  0.50340168  0.37169215  0.56099889  1
  Nd3+  Nd46  1  0.87939920  0.74522377  0.93444514  1
  Nd3+  Nd47  1  0.13711387  0.51613383  0.42069380  1
  Nd3+  Nd48  1  0.25368524  0.12897141  0.56474497  1
  Nd3+  Nd49  1  0.88389934  0.50192174  0.44247050  1
  Nd3+  Nd50  1  0.50509202  0.12171144  0.55355277  1
  Nd3+  Nd51  1  0.13126192  0.75486437  0.45668646  1
  Sm3+  Sm52  1  0.25321557  0.36952796  0.54946839  1
  Sm3+  Sm53  1  0.74880911  0.12172968  0.05307315  1
  Sm3+  Sm54  1  0.25254571  0.87473276  0.05381180  1
  Sm3+  Sm55  1  0.50493998  0.37309103  0.05925980  1
  Sm3+  Sm56  1  0.62585485  -0.00367246  0.92927004  1
  Sm3+  Sm57  1  0.50364853  0.87323390  0.05542237  1
  Sm3+  Sm58  1  0.75243161  0.62172215  0.05222364  1
  Sm3+  Sm59  1  0.50443538  0.87646480  0.55843465  1
  Sm3+  Sm60  1  0.25715009  0.62453180  0.56113836  1
  Sm3+  Sm61  1  0.87989216  0.25046139  0.43921939  1
  Sm3+  Sm62  1  0.00640580  0.12098713  0.55240013  1
  Sm3+  Sm63  1  0.75092203  0.87182144  0.05534658  1
  Bi2+  Bi64  1  -0.00694294  0.10109972  0.24283500  1
  Bi2+  Bi65  1  -0.05752649  0.19538674  0.76963254  1
  Bi2+  Bi66  1  -0.01209841  0.37303231  0.31575582  1
  Bi2+  Bi67  1  0.01634064  0.37144026  0.80188124  1
  Bi2+  Bi68  1  -0.02741084  0.63415033  0.31154842  1
  Bi2+  Bi69  1  -0.00218993  0.61809513  0.79045258  1
  Bi2+  Bi70  1  0.00669547  0.91912196  0.29399011  1
  Bi2+  Bi71  1  -0.00652722  0.87046589  0.78717863  1
  Bi2+  Bi72  1  0.25138841  0.07976938  0.28567108  1
  Bi2+  Bi73  1  0.22871772  0.22755953  0.78150459  1
  Bi2+  Bi74  1  0.28758175  0.40652409  0.28808674  1
  Bi2+  Bi75  1  0.21101059  0.41832208  0.82236906  1
  Bi2+  Bi76  1  0.24499037  0.68804400  0.29841900  1
  Bi2+  Bi77  1  0.28383147  0.60737585  0.81312564  1
  Bi2+  Bi78  1  0.21700239  0.89158009  0.31069671  1
  Bi2+  Bi79  1  0.26158788  0.87082835  0.78488640  1
  Bi2+  Bi80  1  0.50887243  0.15826269  0.28606471  1
  Bi2+  Bi81  1  0.47600340  0.10554853  0.82328084  1
  Bi2+  Bi82  1  0.52093302  0.41055824  0.28135624  1
  Bi2+  Bi83  1  0.50134888  0.29531003  0.77875181  1
  Bi2+  Bi84  1  0.50960620  0.59870286  0.31485272  1
  Bi2+  Bi85  1  0.48868231  0.59749467  0.77319041  1
  Bi2+  Bi86  1  0.47468453  0.78642361  0.28779661  1
  Bi2+  Bi87  1  0.48688442  0.91489058  0.79304035  1
  Bi2+  Bi88  1  0.75458678  0.08530617  0.27659324  1
  Bi2+  Bi89  1  0.66971221  0.10092535  0.81101060  1
  Bi2+  Bi90  1  0.73257302  0.36772425  0.28049011  1
  Bi2+  Bi91  1  0.74221332  0.33804019  0.77399920  1
  Bi2+  Bi92  1  0.70253767  0.61517970  0.29204719  1
  Bi2+  Bi93  1  0.74163790  0.65433075  0.78249878  1
  Bi2+  Bi94  1  0.74561232  0.81045177  0.28205876  1
  Bi2+  Bi95  1  0.74891260  0.91770036  0.78766793  1
  Bi2+  Bi96  1  0.12737020  -0.02951188  0.20504818  1
  Bi2+  Bi97  1  0.12298180  0.04709338  0.70996419  1
  Bi2+  Bi98  1  0.14484477  0.25960940  0.21799610  1
  Bi2+  Bi99  1  0.08900236  0.26152612  0.69774896  1
  Bi2+  Bi100  1  0.12195556  0.52148799  0.21431871  1
  Bi2+  Bi101  1  0.13854498  0.45721195  0.71204306  1
  Bi2+  Bi102  1  0.09742716  0.77664908  0.23087186  1
  Bi2+  Bi103  1  0.14101492  0.71250591  0.70944148  1
  Bi2+  Bi104  1  0.37050062  -0.07829771  0.22580362  1
  Bi2+  Bi105  1  0.39724850  0.03527126  0.71486951  1
  Bi2+  Bi106  1  0.39535284  0.23483594  0.20687697  1
  Bi2+  Bi107  1  0.36112183  0.28259283  0.69888625  1
  Bi2+  Bi108  1  0.38909664  0.54537153  0.22463028  1
  Bi2+  Bi109  1  0.33560329  0.47231690  0.73532626  1
  Bi2+  Bi110  1  0.34085897  0.72870102  0.20313865  1
  Bi2+  Bi111  1  0.45947366  0.77173714  0.71179441  1
  Bi2+  Bi112  1  0.60359114  -0.00665609  0.19051149  1
  Bi2+  Bi113  1  0.61817651  -0.01006465  0.71035662  1
  Bi2+  Bi114  1  0.62908043  0.25564667  0.19624753  1
  Bi2+  Bi115  1  0.61605743  0.18709996  0.70889269  1
  Bi2+  Bi116  1  0.64383465  0.44747681  0.18680474  1
  Bi2+  Bi117  1  0.60122707  0.50541248  0.69337901  1
  Bi2+  Bi118  1  0.61606047  0.72143108  0.21089047  1
  Bi2+  Bi119  1  0.65311049  0.79594522  0.69667192  1
  Bi2+  Bi120  1  0.86663792  -0.04087607  0.21000621  1
  Bi2+  Bi121  1  0.86045541  0.04427313  0.71249512  1
  Bi2+  Bi122  1  0.84507307  0.23890471  0.23238205  1
  Bi2+  Bi123  1  0.87771919  0.30674308  0.68090099  1
  Bi2+  Bi124  1  0.82012116  0.52966576  0.20970142  1
  Bi2+  Bi125  1  0.91941875  0.48184177  0.72247365  1
  Bi2+  Bi126  1  0.89198357  0.75374840  0.21190224  1
  Bi2+  Bi127  1  0.83959577  0.73724797  0.69972136  1
  S2-  S128  1  0.01870966  0.20150834  0.15295906  1
  S2-  S129  1  -0.00929748  0.05863172  0.64459662  1
  S2-  S130  1  0.02115449  0.37459418  0.22102414  1
  S2-  S131  1  0.01549213  0.47576445  0.63581051  1
  S2-  S132  1  -0.02171222  0.53148092  0.16072879  1
  S2-  S133  1  -0.01199931  0.71343770  0.65710284  1
  S2-  S134  1  -0.00231671  0.78882386  0.13820277  1
  S2-  S135  1  0.09090056  0.88359931  0.69065699  1
  S2-  S136  1  0.25399067  0.15504948  0.17028711  1
  S2-  S137  1  0.26451156  0.03333485  0.65009531  1
  S2-  S138  1  0.20510661  0.39194317  0.16134822  1
  S2-  S139  1  0.23669484  0.26791359  0.63064883  1
  S2-  S140  1  0.15601055  0.63636191  0.15012299  1
  S2-  S141  1  0.19844708  0.59405835  0.65197024  1
  S2-  S142  1  0.26580740  0.92111215  0.14880884  1
  S2-  S143  1  0.27895864  0.78716996  0.68716040  1
  S2-  S144  1  0.47401575  0.10292082  0.15740206  1
  S2-  S145  1  0.46689176  0.15305655  0.65050918  1
  S2-  S146  1  0.47191294  0.35462259  0.15645087  1
  S2-  S147  1  0.49267915  0.39354521  0.65983234  1
  S2-  S148  1  0.51174832  0.62464389  0.15706688  1
  S2-  S149  1  0.48365350  0.62020252  0.65386691  1
  S2-  S150  1  0.50356558  0.87995283  0.15391305  1
  S2-  S151  1  0.43125678  0.90239005  0.64629904  1
  S2-  S152  1  0.70163987  0.12714888  0.14797989  1
  S2-  S153  1  0.76175222  0.14325510  0.65323771  1
  S2-  S154  1  0.83731756  0.35396591  0.15080514  1
  S2-  S155  1  0.71577575  0.38022987  0.66672343  1
  S2-  S156  1  0.78193896  0.65441151  0.14828377  1
  S2-  S157  1  0.73931683  0.59991451  0.66138981  1
  S2-  S158  1  0.73407225  0.89873933  0.15234405  1
  S2-  S159  1  0.84898853  0.89621364  0.65494356  1
  S2-  S160  1  0.13929219  0.08899399  0.35728549  1
  S2-  S161  1  0.06343864  0.01421452  0.79791496  1
  S2-  S162  1  0.15041038  0.30118417  0.32247727  1
  S2-  S163  1  0.13482856  0.17508470  0.85818583  1
  S2-  S164  1  0.08465377  0.50218653  0.32172910  1
  S2-  S165  1  0.12506810  0.62466840  0.85840823  1
  S2-  S166  1  0.11472991  0.68828805  0.36419137  1
  S2-  S167  1  0.12927073  0.84143784  0.84454253  1
  S2-  S168  1  0.37427756  0.12083892  0.35321358  1
  S2-  S169  1  0.28737685  -0.00511839  0.84534740  1
  S2-  S170  1  0.40021134  0.35210025  0.35078515  1
  S2-  S171  1  0.37229898  0.24988918  0.84581178  1
  S2-  S172  1  0.28052048  0.52858569  0.35537416  1
  S2-  S173  1  0.46273078  0.49214527  0.84929330  1
  S2-  S174  1  0.37855396  0.86869067  0.35911698  1
  S2-  S175  1  0.35748333  0.75546550  0.83984019  1
  S2-  S176  1  0.55933238  0.00387147  0.29113195  1
  S2-  S177  1  0.62261923  -0.12244742  0.85528420  1
  S2-  S178  1  0.64368984  0.16575546  0.34564019  1
  S2-  S179  1  0.62098596  0.33505129  0.84831968  1
  S2-  S180  1  0.63768128  0.38427014  0.36301221  1
  S2-  S181  1  0.74004828  0.49936936  0.81404309  1
  S2-  S182  1  0.62976820  0.83154495  0.35567649  1
  S2-  S183  1  0.60804775  0.65856476  0.84275455  1
  S2-  S184  1  0.80042572  -0.00728324  0.35094308  1
  S2-  S185  1  0.88278549  -0.02667507  0.84023935  1
  S2-  S186  1  0.88065349  0.23385189  0.34080116  1
  S2-  S187  1  0.83578966  0.26138261  0.84245628  1
  S2-  S188  1  0.87461551  0.50127968  0.34242901  1
  S2-  S189  1  0.95552732  0.50397744  0.85857662  1
  S2-  S190  1  0.87431823  0.75198723  0.35037280  1
  S2-  S191  1  0.89075523  0.74007033  0.83345546  1
  S2-  S192  1  -0.00160769  0.12295516  0.44854183  1
  S2-  S193  1  0.00193507  0.11976049  0.95447110  1
  S2-  S194  1  0.00746214  0.37555589  0.44542537  1
  S2-  S195  1  0.00241547  0.36758548  0.95277269  1
  S2-  S196  1  0.00667243  0.62465621  0.46423568  1
  S2-  S197  1  -0.00216665  0.62582324  0.96486537  1
  S2-  S198  1  0.00630416  0.87561829  0.44786346  1
  S2-  S199  1  0.00224890  0.87406373  0.94753632  1
  S2-  S200  1  0.25611392  0.12460092  0.45854462  1
  S2-  S201  1  0.25296395  0.11922777  0.96108078  1
  S2-  S202  1  0.25269600  0.37052595  0.44675220  1
  S2-  S203  1  0.25166608  0.37190463  0.95752845  1
  S2-  S204  1  0.26073861  0.63218185  0.45886496  1
  S2-  S205  1  0.25267501  0.61830589  0.95939218  1
  S2-  S206  1  0.25402389  0.87627253  0.46103706  1
  S2-  S207  1  0.25153465  0.87676547  0.95131736  1
  S2-  S208  1  0.51609406  0.11866525  0.44822238  1
  S2-  S209  1  0.50615685  0.12087527  0.95381266  1
  S2-  S210  1  0.50529795  0.37327631  0.45670870  1
  S2-  S211  1  0.50292219  0.37180806  0.95561236  1
  S2-  S212  1  0.50375888  0.62597581  0.45047449  1
  S2-  S213  1  0.50178828  0.62074135  0.95286377  1
  S2-  S214  1  0.51183597  0.88220370  0.45610076  1
  S2-  S215  1  0.49693192  0.87505642  0.95102082  1
  S2-  S216  1  0.75730621  0.12560301  0.45148663  1
  S2-  S217  1  0.74895074  0.12059771  0.94825640  1
  S2-  S218  1  0.76203755  0.37472621  0.45921127  1
  S2-  S219  1  0.74962370  0.37462252  0.95467408  1
  S2-  S220  1  0.75481275  0.62425271  0.45288859  1
  S2-  S221  1  0.75163938  0.61971029  0.94624653  1
  S2-  S222  1  0.75471839  0.87409011  0.46140820  1
  S2-  S223  1  0.75498689  0.87255576  0.95026924  1
  S2-  S224  1  0.12516544  -0.00366554  0.05514038  1
  S2-  S225  1  0.12828023  -0.00427717  0.55013294  1
  S2-  S226  1  0.12852840  0.24910971  0.05256945  1
  S2-  S227  1  0.12395113  0.24730636  0.53136383  1
  S2-  S228  1  0.12370075  0.49351455  0.04936646  1
  S2-  S229  1  0.13920415  0.49762517  0.53416641  1
  S2-  S230  1  0.13375615  0.75224545  0.04097810  1
  S2-  S231  1  0.13732193  0.75525256  0.56158806  1
  S2-  S232  1  0.38119653  -0.00422088  0.04301557  1
  S2-  S233  1  0.38080109  0.00119158  0.54045335  1
  S2-  S234  1  0.37911420  0.24814659  0.05304437  1
  S2-  S235  1  0.38209358  0.24953588  0.53736954  1
  S2-  S236  1  0.37858137  0.49606571  0.05047443  1
  S2-  S237  1  0.37493007  0.49502044  0.54611195  1
  S2-  S238  1  0.37704559  0.74975189  0.04960114  1
  S2-  S239  1  0.37952112  0.75095424  0.54908797  1
  S2-  S240  1  0.62831624  -0.00553207  0.03686020  1
  S2-  S241  1  0.62854125  -0.00201765  0.56188271  1
  S2-  S242  1  0.62768434  0.24933090  0.04379331  1
  S2-  S243  1  0.63023217  0.24938742  0.54643563  1
  S2-  S244  1  0.62796727  0.49809456  0.05245514  1
  S2-  S245  1  0.62948997  0.49706789  0.54596668  1
  S2-  S246  1  0.62855817  0.74904445  0.04283784  1
  S2-  S247  1  0.62615920  0.74918583  0.55075000  1
  S2-  S248  1  0.87357403  -0.00191941  0.04867387  1
  S2-  S249  1  0.88096046  -0.00239194  0.54396672  1
  S2-  S250  1  0.87252315  0.24209271  0.04720195  1
  S2-  S251  1  0.88475280  0.24756238  0.54501136  1
  S2-  S252  1  0.87568938  0.49876845  0.05164140  1
  S2-  S253  1  0.87809476  0.49947264  0.54864612  1
  S2-  S254  1  0.87105674  0.74979385  0.04038189  1
  S2-  S255  1  0.88227034  0.74935182  0.55276817  1
