# generated using pymatgen
data_La12Ce14Pr13Nd13Sm12(BiS2)64
_symmetry_space_group_name_H-M   'P 1'
_cell_length_a   16.04948199
_cell_length_b   16.07185002
_cell_length_c   27.25518308
_cell_angle_alpha   89.90371943
_cell_angle_beta   90.14813948
_cell_angle_gamma   89.90574191
_symmetry_Int_Tables_number   1
_chemical_formula_structural   La12Ce14Pr13Nd13Sm12(BiS2)64
_chemical_formula_sum   'La12 Ce14 Pr13 Nd13 Sm12 Bi64 S128'
_cell_volume   7030.29159886
_cell_formula_units_Z   1
loop_
 _symmetry_equiv_pos_site_id
 _symmetry_equiv_pos_as_xyz
  1  'x, y, z'
loop_
 _atom_type_symbol
 _atom_type_oxidation_number
  La3+  3.0
  Ce3+  3.0
  Pr3+  3.0
  Nd3+  3.0
  Sm3+  3.0
  Bi2+  2.0
  S2-  -2.0
loop_
 _atom_site_type_symbol
 _atom_site_label
 _atom_site_symmetry_multiplicity
 _atom_site_fract_x
 _atom_site_fract_y
 _atom_site_fract_z
 _atom_site_occupancy
  La3+  La0  1  0.87682529  0.26800786  0.41486963  1
  La3+  La1  1  0.12939971  0.01957140  0.43933970  1
  La3+  La2  1  0.62351353  0.77802273  0.41235447  1
  La3+  La3  1  0.25961238  0.63439009  0.57301605  1
  La3+  La4  1  0.01207889  0.38297979  0.08441370  1
  La3+  La5  1  0.74894243  0.64276990  0.55997742  1
  La3+  La6  1  0.37890239  0.00767919  0.92717060  1
  La3+  La7  1  0.75489264  0.88146076  0.59706397  1
  La3+  La8  1  0.88548803  0.00548846  0.92409286  1
  La3+  La9  1  0.62896327  0.02184416  0.43876688  1
  La3+  La10  1  0.00059991  0.39029635  0.56488278  1
  La3+  La11  1  0.75976206  0.87114896  0.08778668  1
  Ce3+  Ce12  1  0.25937540  0.12572724  0.07275059  1
  Ce3+  Ce13  1  0.00329137  0.89048211  0.56108270  1
  Ce3+  Ce14  1  0.87506138  0.76813709  0.43860290  1
  Ce3+  Ce15  1  0.62618045  0.51719995  0.42703805  1
  Ce3+  Ce16  1  0.13028053  0.00718844  0.94511009  1
  Ce3+  Ce17  1  0.87712273  0.51580671  0.43465327  1
  Ce3+  Ce18  1  0.00069398  0.13997301  0.56007257  1
  Ce3+  Ce19  1  0.25635941  0.88478843  0.58038275  1
  Ce3+  Ce20  1  0.26082655  0.63670468  0.06376537  1
  Ce3+  Ce21  1  0.88427409  0.50257965  0.93429022  1
  Ce3+  Ce22  1  0.25856489  0.87720412  0.06169808  1
  Ce3+  Ce23  1  0.00622410  0.64211195  0.54784260  1
  Ce3+  Ce24  1  0.13361869  0.75352777  0.93977567  1
  Ce3+  Ce25  1  0.50436122  0.39237363  0.55327894  1
  Pr3+  Pr26  1  0.62956862  0.25893354  0.93653744  1
  Pr3+  Pr27  1  0.76328249  0.13949609  0.57974373  1
  Pr3+  Pr28  1  0.63079190  0.50182155  0.93159564  1
  Pr3+  Pr29  1  0.24943991  0.38445171  0.57922100  1
  Pr3+  Pr30  1  0.13354204  0.76851235  0.44116627  1
  Pr3+  Pr31  1  0.88108763  0.75308131  0.92846587  1
  Pr3+  Pr32  1  0.38272818  0.51720105  0.43333138  1
  Pr3+  Pr33  1  0.13846436  0.51522387  0.43511310  1
  Pr3+  Pr34  1  0.50492074  0.38349766  0.06540203  1
  Pr3+  Pr35  1  0.13171179  0.50014436  0.94547574  1
  Pr3+  Pr36  1  0.00220727  0.12766027  0.08205084  1
  Pr3+  Pr37  1  0.37614268  0.77197378  0.43742396  1
  Pr3+  Pr38  1  0.75839978  0.37819430  0.06337360  1
  Nd3+  Nd39  1  0.50851819  0.12280757  0.06598542  1
  Nd3+  Nd40  1  0.63579877  0.75725756  0.92946919  1
  Nd3+  Nd41  1  0.75360160  0.12507194  0.06511285  1
  Nd3+  Nd42  1  0.26201063  0.39199061  0.07954857  1
  Nd3+  Nd43  1  0.50791024  0.89712426  0.57702463  1
  Nd3+  Nd44  1  0.37010147  0.49507684  0.91989846  1
  Nd3+  Nd45  1  0.37449594  0.26375137  0.43570809  1
  Nd3+  Nd46  1  0.50802696  0.14199752  0.57053543  1
  Nd3+  Nd47  1  0.63321608  0.01313773  0.90989565  1
  Nd3+  Nd48  1  0.12761274  0.27328905  0.42941713  1
  Nd3+  Nd49  1  0.50922223  0.63137997  0.04716209  1
  Nd3+  Nd50  1  0.75544222  0.39491026  0.56330699  1
  Nd3+  Nd51  1  0.25209110  0.14215136  0.56876987  1
  Sm3+  Sm52  1  0.88422053  0.25482880  0.94210333  1
  Sm3+  Sm53  1  0.00167956  0.88065883  0.05595669  1
  Sm3+  Sm54  1  0.75733936  0.63081548  0.05509762  1
  Sm3+  Sm55  1  0.63108030  0.26197084  0.44616134  1
  Sm3+  Sm56  1  0.37895546  0.25503020  0.94708572  1
  Sm3+  Sm57  1  0.38000701  0.01658388  0.45225248  1
  Sm3+  Sm58  1  0.38148304  0.75332212  0.93510885  1
  Sm3+  Sm59  1  0.13026667  0.25300302  0.95697282  1
  Sm3+  Sm60  1  0.50596547  0.64781521  0.55181583  1
  Sm3+  Sm61  1  0.00412148  0.63074682  0.06187728  1
  Sm3+  Sm62  1  0.51192861  0.88071211  0.04672458  1
  Sm3+  Sm63  1  0.87481730  0.01588028  0.44632841  1
  Bi2+  Bi64  1  -0.00004472  0.10632449  0.29050402  1
  Bi2+  Bi65  1  0.02465869  0.17129073  0.79792505  1
  Bi2+  Bi66  1  -0.01671941  0.37720495  0.28675966  1
  Bi2+  Bi67  1  0.03729633  0.38784438  0.74638213  1
  Bi2+  Bi68  1  -0.06294820  0.58129978  0.28700103  1
  Bi2+  Bi69  1  -0.00415629  0.57825761  0.77788911  1
  Bi2+  Bi70  1  0.01733064  0.83611332  0.28628161  1
  Bi2+  Bi71  1  0.04315211  0.87828691  0.80155260  1
  Bi2+  Bi72  1  0.25439060  0.13697403  0.28036541  1
  Bi2+  Bi73  1  0.29515936  0.16451777  0.83351730  1
  Bi2+  Bi74  1  0.24830852  0.39811016  0.29977243  1
  Bi2+  Bi75  1  0.24402221  0.35193768  0.79993148  1
  Bi2+  Bi76  1  0.20666369  0.65380676  0.28528972  1
  Bi2+  Bi77  1  0.25440970  0.63687823  0.80588237  1
  Bi2+  Bi78  1  0.22173715  0.89596241  0.29519030  1
  Bi2+  Bi79  1  0.22349278  0.98730500  0.82337114  1
  Bi2+  Bi80  1  0.48833272  0.14462612  0.29624150  1
  Bi2+  Bi81  1  0.44665410  0.10972455  0.76812136  1
  Bi2+  Bi82  1  0.44024358  0.34114632  0.30956757  1
  Bi2+  Bi83  1  0.55452163  0.27656411  0.78809158  1
  Bi2+  Bi84  1  0.46714844  0.64326290  0.28122417  1
  Bi2+  Bi85  1  0.55415243  0.54902261  0.76990655  1
  Bi2+  Bi86  1  0.48573080  0.91164980  0.29038221  1
  Bi2+  Bi87  1  0.38926300  0.90620406  0.78107775  1
  Bi2+  Bi88  1  0.73510401  0.08228711  0.30414018  1
  Bi2+  Bi89  1  0.76722986  0.13653470  0.78685353  1
  Bi2+  Bi90  1  0.63183807  0.41246165  0.30720999  1
  Bi2+  Bi91  1  0.77836799  0.41482389  0.79978720  1
  Bi2+  Bi92  1  0.73607922  0.57013696  0.26975528  1
  Bi2+  Bi93  1  0.73242701  0.61555483  0.80348765  1
  Bi2+  Bi94  1  0.74432493  0.84339737  0.28357056  1
  Bi2+  Bi95  1  0.76526195  0.82596399  0.78407806  1
  Bi2+  Bi96  1  0.12956622  -0.05595609  0.18802770  1
  Bi2+  Bi97  1  0.09124918  0.01062561  0.66288947  1
  Bi2+  Bi98  1  0.11831041  0.23691189  0.21929212  1
  Bi2+  Bi99  1  0.16812398  0.16090202  0.72361434  1
  Bi2+  Bi100  1  0.12924950  0.52099510  0.21109150  1
  Bi2+  Bi101  1  0.13411373  0.53486167  0.69975649  1
  Bi2+  Bi102  1  0.10590469  0.74058024  0.19676391  1
  Bi2+  Bi103  1  0.15193340  0.83633744  0.71266821  1
  Bi2+  Bi104  1  0.32553327  -0.02330318  0.20727914  1
  Bi2+  Bi105  1  0.28524729  0.00775857  0.69651706  1
  Bi2+  Bi106  1  0.37362896  0.24021924  0.21088731  1
  Bi2+  Bi107  1  0.40678642  0.27328861  0.70764039  1
  Bi2+  Bi108  1  0.39105548  0.50667545  0.21493822  1
  Bi2+  Bi109  1  0.38418271  0.47057948  0.73067139  1
  Bi2+  Bi110  1  0.34506367  0.77117250  0.22986794  1
  Bi2+  Bi111  1  0.39104518  0.73821400  0.71097942  1
  Bi2+  Bi112  1  0.56839354  0.01091239  0.20291651  1
  Bi2+  Bi113  1  0.61209343  -0.01455013  0.72015413  1
  Bi2+  Bi114  1  0.57556989  0.28577283  0.22542362  1
  Bi2+  Bi115  1  0.67813393  0.21938773  0.69610985  1
  Bi2+  Bi116  1  0.58773648  0.48633988  0.19983287  1
  Bi2+  Bi117  1  0.64211463  0.41075170  0.70245588  1
  Bi2+  Bi118  1  0.60428555  0.76140235  0.18939443  1
  Bi2+  Bi119  1  0.63443079  0.69939957  0.70268939  1
  Bi2+  Bi120  1  0.93789369  -0.02137294  0.21632033  1
  Bi2+  Bi121  1  0.90811853  0.01502145  0.70732375  1
  Bi2+  Bi122  1  0.84677415  0.21897001  0.21281666  1
  Bi2+  Bi123  1  0.87736480  0.27381929  0.72037241  1
  Bi2+  Bi124  1  0.86022095  0.46390500  0.20543749  1
  Bi2+  Bi125  1  0.84636838  0.51610161  0.70624863  1
  Bi2+  Bi126  1  0.90778611  0.72352018  0.20711339  1
  Bi2+  Bi127  1  0.97274082  0.74916165  0.71719748  1
  S2-  S128  1  -0.13969703  0.09331782  0.14666194  1
  S2-  S129  1  -0.08512764  0.15707483  0.64600131  1
  S2-  S130  1  -0.02045005  0.25857469  0.15817934  1
  S2-  S131  1  0.10458458  0.38952965  0.64909850  1
  S2-  S132  1  -0.00688796  0.53168582  0.14561633  1
  S2-  S133  1  0.00631342  0.62938232  0.64551791  1
  S2-  S134  1  -0.08526763  0.86015498  0.14155630  1
  S2-  S135  1  -0.08196580  0.87832512  0.64915982  1
  S2-  S136  1  0.14262410  0.11412021  0.14995963  1
  S2-  S137  1  0.26548581  0.24755696  0.64887630  1
  S2-  S138  1  0.15080507  0.37443890  0.16014644  1
  S2-  S139  1  0.28207598  0.50967969  0.65077992  1
  S2-  S140  1  0.26790478  0.54313579  0.14709939  1
  S2-  S141  1  0.24528576  0.73428403  0.65562702  1
  S2-  S142  1  0.26786898  0.76257419  0.13745867  1
  S2-  S143  1  0.38437142  0.87691686  0.65042110  1
  S2-  S144  1  0.38683859  0.10577885  0.14238697  1
  S2-  S145  1  0.51454058  0.05041092  0.65579792  1
  S2-  S146  1  0.39784301  0.37687884  0.14596007  1
  S2-  S147  1  0.48124672  0.40287467  0.65034257  1
  S2-  S148  1  0.52107930  0.62812641  0.14706898  1
  S2-  S149  1  0.48209643  0.64872695  0.65211682  1
  S2-  S150  1  0.50268937  0.86837813  0.14657211  1
  S2-  S151  1  0.60756541  0.85607484  0.66063405  1
  S2-  S152  1  0.62682949  0.12489676  0.14362503  1
  S2-  S153  1  0.75288212  0.02101679  0.66089843  1
  S2-  S154  1  0.76076009  0.33478985  0.16225011  1
  S2-  S155  1  0.87644496  0.38725442  0.64083460  1
  S2-  S156  1  0.75343385  0.70611552  0.14377307  1
  S2-  S157  1  0.71746945  0.51816653  0.63679291  1
  S2-  S158  1  0.70436792  0.90795710  0.18560024  1
  S2-  S159  1  0.76752521  0.72542640  0.65300145  1
  S2-  S160  1  0.13931040  0.03896215  0.33924961  1
  S2-  S161  1  0.04563759  0.02555263  0.85934399  1
  S2-  S162  1  0.01541415  0.23571745  0.34980048  1
  S2-  S163  1  0.11095830  0.27560803  0.85782071  1
  S2-  S164  1  0.11295095  0.40979094  0.35449411  1
  S2-  S165  1  0.21677740  0.49920228  0.85663962  1
  S2-  S166  1  0.24542707  0.77172676  0.36333124  1
  S2-  S167  1  0.12736457  0.72908894  0.84257904  1
  S2-  S168  1  0.39985728  0.02251741  0.35340259  1
  S2-  S169  1  0.49033339  0.00038194  0.84781183  1
  S2-  S170  1  0.25841535  0.24869616  0.35822440  1
  S2-  S171  1  0.37408096  0.34422487  0.86063983  1
  S2-  S172  1  0.26793402  0.53832053  0.35635316  1
  S2-  S173  1  0.41231483  0.55860713  0.82633200  1
  S2-  S174  1  0.47229139  0.77962221  0.35048652  1
  S2-  S175  1  0.35892541  0.76518775  0.83710866  1
  S2-  S176  1  0.64292213  -0.06963493  0.34775950  1
  S2-  S177  1  0.70388560  -0.03091627  0.81458233  1
  S2-  S178  1  0.61736532  0.15669304  0.36659676  1
  S2-  S179  1  0.63735016  0.16141810  0.85211435  1
  S2-  S180  1  0.50406282  0.52998287  0.35387268  1
  S2-  S181  1  0.62667633  0.38333694  0.85740192  1
  S2-  S182  1  0.67386570  0.70882145  0.31920987  1
  S2-  S183  1  0.62632228  0.75530165  0.82889483  1
  S2-  S184  1  0.87029695  0.02363186  0.34667333  1
  S2-  S185  1  0.88662180  -0.13681286  0.84678613  1
  S2-  S186  1  0.80322020  0.22491773  0.31693829  1
  S2-  S187  1  0.87834941  0.14817975  0.85952984  1
  S2-  S188  1  0.86824863  0.42159305  0.35316468  1
  S2-  S189  1  0.89319011  0.37799342  0.86740422  1
  S2-  S190  1  0.87636218  0.79126504  0.34118590  1
  S2-  S191  1  0.88940872  0.62121931  0.85673766  1
  S2-  S192  1  0.00022674  0.13975527  0.45496695  1
  S2-  S193  1  0.00751220  0.13125183  0.96859708  1
  S2-  S194  1  0.00003630  0.39271246  0.45629174  1
  S2-  S195  1  0.00975024  0.37861698  0.97069031  1
  S2-  S196  1  0.00679174  0.64149625  0.44000592  1
  S2-  S197  1  0.01041253  0.62856837  0.95776362  1
  S2-  S198  1  0.00362066  0.89236733  0.45082090  1
  S2-  S199  1  0.00877153  0.87651016  0.95351713  1
  S2-  S200  1  0.25510699  0.13964508  0.46181626  1
  S2-  S201  1  0.25544663  0.13011440  0.96374538  1
  S2-  S202  1  0.25905479  0.38942597  0.46215644  1
  S2-  S203  1  0.25493474  0.37601007  0.96735403  1
  S2-  S204  1  0.25737483  0.64345611  0.46393547  1
  S2-  S205  1  0.25978976  0.63097477  0.95482310  1
  S2-  S206  1  0.25426383  0.89770667  0.46499346  1
  S2-  S207  1  0.25740697  0.87753591  0.95243041  1
  S2-  S208  1  0.49854938  0.14484583  0.46474721  1
  S2-  S209  1  0.50452068  0.13049687  0.95641548  1
  S2-  S210  1  0.50574935  0.38339988  0.44871549  1
  S2-  S211  1  0.50079089  0.38420325  0.95926083  1
  S2-  S212  1  0.50697611  0.64850562  0.45036113  1
  S2-  S213  1  0.50697086  0.63026699  0.94090338  1
  S2-  S214  1  0.50370628  0.89678998  0.46099124  1
  S2-  S215  1  0.50804229  0.87655710  0.94324939  1
  S2-  S216  1  0.75951755  0.14422900  0.45986211  1
  S2-  S217  1  0.75386133  0.13004675  0.95771668  1
  S2-  S218  1  0.74771239  0.38986731  0.45387517  1
  S2-  S219  1  0.75748047  0.38111269  0.95898787  1
  S2-  S220  1  0.74928348  0.64282040  0.44475777  1
  S2-  S221  1  0.75316481  0.62649523  0.95152930  1
  S2-  S222  1  0.75446793  0.89073378  0.45172583  1
  S2-  S223  1  0.75216028  0.88419567  0.94062251  1
  S2-  S224  1  0.13073833  -0.00155379  0.04886630  1
  S2-  S225  1  0.13109333  0.01514571  0.54773589  1
  S2-  S226  1  0.13759231  0.25597124  0.05778611  1
  S2-  S227  1  0.12602818  0.26102837  0.54211671  1
  S2-  S228  1  0.13307624  0.51320711  0.04940041  1
  S2-  S229  1  0.13021788  0.51612940  0.54264987  1
  S2-  S230  1  0.12524364  0.75575438  0.04544510  1
  S2-  S231  1  0.12930131  0.76804917  0.54758064  1
  S2-  S232  1  0.38288465  -0.00262325  0.03839680  1
  S2-  S233  1  0.37781118  0.01998780  0.55492891  1
  S2-  S234  1  0.38364991  0.25293774  0.04892795  1
  S2-  S235  1  0.38172255  0.26507481  0.54563295  1
  S2-  S236  1  0.38399381  0.51055426  0.03820297  1
  S2-  S237  1  0.38598554  0.51744107  0.54084470  1
  S2-  S238  1  0.38859175  0.75752663  0.03844331  1
  S2-  S239  1  0.38117980  0.76762571  0.54517664  1
  S2-  S240  1  0.63661269  -0.00493770  0.04588510  1
  S2-  S241  1  0.63466903  0.01945401  0.54972463  1
  S2-  S242  1  0.62792674  0.25799734  0.04570525  1
  S2-  S243  1  0.63241886  0.26563107  0.55121397  1
  S2-  S244  1  0.63388168  0.50578569  0.04291722  1
  S2-  S245  1  0.62323216  0.51724627  0.53297583  1
  S2-  S246  1  0.63557938  0.75659690  0.03703344  1
  S2-  S247  1  0.62723931  0.77074495  0.54537932  1
  S2-  S248  1  0.87637836  -0.00421178  0.03989610  1
  S2-  S249  1  0.87734866  0.01128082  0.54905828  1
  S2-  S250  1  0.88026734  0.25351924  0.04765046  1
  S2-  S251  1  0.87491143  0.26418014  0.53898122  1
  S2-  S252  1  0.87849208  0.50788413  0.04571011  1
  S2-  S253  1  0.87819539  0.52146104  0.53866383  1
  S2-  S254  1  0.88042661  0.75173932  0.03646152  1
  S2-  S255  1  0.88030935  0.76598591  0.54259321  1
