# generated using pymatgen
data_La12Ce14Pr13Nd13Sm12(BiS2)64
_symmetry_space_group_name_H-M   'P 1'
_cell_length_a   16.08341907
_cell_length_b   16.05240043
_cell_length_c   27.48089012
_cell_angle_alpha   89.83312196
_cell_angle_beta   89.87238723
_cell_angle_gamma   90.01505817
_symmetry_Int_Tables_number   1
_chemical_formula_structural   La12Ce14Pr13Nd13Sm12(BiS2)64
_chemical_formula_sum   'La12 Ce14 Pr13 Nd13 Sm12 Bi64 S128'
_cell_volume   7094.89910050
_cell_formula_units_Z   1
loop_
 _symmetry_equiv_pos_site_id
 _symmetry_equiv_pos_as_xyz
  1  'x, y, z'
loop_
 _atom_type_symbol
 _atom_type_oxidation_number
  La3+  3.0
  Ce3+  3.0
  Pr3+  3.0
  Nd3+  3.0
  Sm3+  3.0
  Bi2+  2.0
  S2-  -2.0
loop_
 _atom_site_type_symbol
 _atom_site_label
 _atom_site_symmetry_multiplicity
 _atom_site_fract_x
 _atom_site_fract_y
 _atom_site_fract_z
 _atom_site_occupancy
  La3+  La0  1  0.35174404  0.47782852  0.42354550  1
  La3+  La1  1  0.39762819  0.26317428  0.89693419  1
  La3+  La2  1  0.22338695  0.62150274  0.11845359  1
  La3+  La3  1  0.01878540  0.40253838  0.07319152  1
  La3+  La4  1  0.89342015  0.77483718  0.92201425  1
  La3+  La5  1  0.13344966  0.26958385  0.91090498  1
  La3+  La6  1  0.23039048  0.34677622  0.56956678  1
  La3+  La7  1  0.76357380  0.12169575  0.11582782  1
  La3+  La8  1  0.50506688  0.64034219  0.06273806  1
  La3+  La9  1  0.10163687  0.46747121  0.42517315  1
  La3+  La10  1  0.64056046  0.76539269  0.92264206  1
  La3+  La11  1  0.38003011  0.00851633  0.91990263  1
  Ce3+  Ce12  1  0.75868463  0.89002356  0.05620040  1
  Ce3+  Ce13  1  0.38513225  0.51451017  0.92997368  1
  Ce3+  Ce14  1  0.48169119  0.60053299  0.56342259  1
  Ce3+  Ce15  1  0.72758955  0.84907865  0.54779328  1
  Ce3+  Ce16  1  0.26569411  0.13953672  0.05264249  1
  Ce3+  Ce17  1  0.23212467  0.09689107  0.56533195  1
  Ce3+  Ce18  1  0.88554436  0.51428274  0.94771334  1
  Ce3+  Ce19  1  0.72865593  0.09686354  0.55597865  1
  Ce3+  Ce20  1  -0.01891275  0.34840556  0.57014148  1
  Ce3+  Ce21  1  0.88908607  0.01769398  0.94607908  1
  Ce3+  Ce22  1  0.13663807  0.02085890  0.93371578  1
  Ce3+  Ce23  1  0.47494847  0.35084960  0.56557645  1
  Ce3+  Ce24  1  -0.02521568  0.10268064  0.56539913  1
  Ce3+  Ce25  1  -0.02103600  0.59547971  0.56164137  1
  Pr3+  Pr26  1  0.85049501  -0.01880065  0.42122824  1
  Pr3+  Pr27  1  0.35278947  0.22708880  0.43277518  1
  Pr3+  Pr28  1  0.26395760  0.39256840  0.04883915  1
  Pr3+  Pr29  1  0.59898911  -0.02641225  0.42163164  1
  Pr3+  Pr30  1  0.73039091  0.58959974  0.59923905  1
  Pr3+  Pr31  1  0.85607393  0.46969967  0.43670637  1
  Pr3+  Pr32  1  0.75626238  0.38313015  0.06512785  1
  Pr3+  Pr33  1  0.34367761  -0.03200563  0.42171745  1
  Pr3+  Pr34  1  0.85569925  0.72337860  0.44516114  1
  Pr3+  Pr35  1  0.01026710  0.88921712  0.06661385  1
  Pr3+  Pr36  1  0.60252151  0.22709470  0.43910999  1
  Pr3+  Pr37  1  0.23015837  0.85196252  0.57318245  1
  Pr3+  Pr38  1  -0.03128602  0.85014113  0.57113994  1
  Nd3+  Nd39  1  0.35464268  0.72339494  0.43990288  1
  Nd3+  Nd40  1  0.85623854  0.22620724  0.43598287  1
  Nd3+  Nd41  1  0.51095227  0.89305148  0.05620811  1
  Nd3+  Nd42  1  0.22827077  0.59740640  0.55722546  1
  Nd3+  Nd43  1  0.50692359  0.13998782  0.06101392  1
  Nd3+  Nd44  1  0.75327185  0.64426770  0.06347766  1
  Nd3+  Nd45  1  0.00292967  0.64777710  0.05964545  1
  Nd3+  Nd46  1  0.47634153  0.09537375  0.55683805  1
  Nd3+  Nd47  1  0.01345251  0.14294525  0.06381201  1
  Nd3+  Nd48  1  0.63709066  0.26137664  0.93785827  1
  Nd3+  Nd49  1  0.60699778  0.47549430  0.45071025  1
  Nd3+  Nd50  1  0.88575678  0.26737383  0.94723318  1
  Nd3+  Nd51  1  0.72723168  0.33860403  0.57460287  1
  Sm3+  Sm52  1  0.60698654  0.72035357  0.43494667  1
  Sm3+  Sm53  1  0.13566133  0.76427958  0.94469448  1
  Sm3+  Sm54  1  0.51017411  0.38613787  0.04847361  1
  Sm3+  Sm55  1  0.10234253  -0.02559974  0.45050675  1
  Sm3+  Sm56  1  0.63460813  0.01868368  0.94390079  1
  Sm3+  Sm57  1  0.63776092  0.51559291  0.93993178  1
  Sm3+  Sm58  1  0.10527402  0.22326336  0.44507173  1
  Sm3+  Sm59  1  0.38548761  0.76454314  0.93878521  1
  Sm3+  Sm60  1  0.13624805  0.51506819  0.93530436  1
  Sm3+  Sm61  1  0.48148908  0.84853948  0.55041163  1
  Sm3+  Sm62  1  0.26185854  0.88527097  0.06171956  1
  Sm3+  Sm63  1  0.10273873  0.72851904  0.44787834  1
  Bi2+  Bi64  1  0.05280146  0.07799818  0.29052663  1
  Bi2+  Bi65  1  -0.00626947  0.10383901  0.76752520  1
  Bi2+  Bi66  1  -0.03492818  0.36297232  0.29885203  1
  Bi2+  Bi67  1  -0.01124751  0.32376437  0.79067044  1
  Bi2+  Bi68  1  -0.02506271  0.63208689  0.28946625  1
  Bi2+  Bi69  1  0.08568986  0.64690470  0.78954853  1
  Bi2+  Bi70  1  0.00843471  0.90753955  0.33238603  1
  Bi2+  Bi71  1  0.03491747  0.90789637  0.80224965  1
  Bi2+  Bi72  1  0.30426980  0.14166835  0.30675818  1
  Bi2+  Bi73  1  0.24011298  0.10744729  0.79536927  1
  Bi2+  Bi74  1  0.23351299  0.36057955  0.30044542  1
  Bi2+  Bi75  1  0.20514339  0.39391000  0.77415334  1
  Bi2+  Bi76  1  0.24598028  0.67082450  0.31122129  1
  Bi2+  Bi77  1  0.26500033  0.57311787  0.81772235  1
  Bi2+  Bi78  1  0.23948286  0.88730160  0.23601008  1
  Bi2+  Bi79  1  0.27300006  0.77585908  0.80131723  1
  Bi2+  Bi80  1  0.49495738  0.13314018  0.28378233  1
  Bi2+  Bi81  1  0.54393558  0.12716482  0.78492910  1
  Bi2+  Bi82  1  0.48897894  0.39848732  0.24775405  1
  Bi2+  Bi83  1  0.47673906  0.36065878  0.77114897  1
  Bi2+  Bi84  1  0.52011626  0.62989136  0.29640586  1
  Bi2+  Bi85  1  0.44485518  0.64088059  0.78978262  1
  Bi2+  Bi86  1  0.43328613  0.86221516  0.28943752  1
  Bi2+  Bi87  1  0.52027289  0.88792104  0.78670812  1
  Bi2+  Bi88  1  0.73284727  0.14081641  0.31736566  1
  Bi2+  Bi89  1  0.80794921  0.13732053  0.72953842  1
  Bi2+  Bi90  1  0.76271777  0.40762085  0.26879286  1
  Bi2+  Bi91  1  0.75768930  0.39269860  0.80915080  1
  Bi2+  Bi92  1  0.73987800  0.59529418  0.30976334  1
  Bi2+  Bi93  1  0.71245352  0.63878602  0.79205395  1
  Bi2+  Bi94  1  0.84415578  0.85898548  0.27385685  1
  Bi2+  Bi95  1  0.83556170  0.88410419  0.76641905  1
  Bi2+  Bi96  1  0.18567878  0.03016856  0.16257232  1
  Bi2+  Bi97  1  0.11967840  -0.03369358  0.70752590  1
  Bi2+  Bi98  1  0.16528000  0.19801196  0.22775250  1
  Bi2+  Bi99  1  0.10974902  0.24528175  0.70469856  1
  Bi2+  Bi100  1  0.10508324  0.45617133  0.21024035  1
  Bi2+  Bi101  1  0.10562136  0.52028872  0.70083684  1
  Bi2+  Bi102  1  0.04610254  0.80212329  0.23517922  1
  Bi2+  Bi103  1  0.18437519  0.77492415  0.69895532  1
  Bi2+  Bi104  1  0.37421982  0.02556574  0.20913691  1
  Bi2+  Bi105  1  0.39315620  -0.02542517  0.70850466  1
  Bi2+  Bi106  1  0.35972050  0.25155306  0.21381414  1
  Bi2+  Bi107  1  0.39463070  0.24342692  0.69245475  1
  Bi2+  Bi108  1  0.34518191  0.51094773  0.22146787  1
  Bi2+  Bi109  1  0.35675158  0.51338118  0.71000995  1
  Bi2+  Bi110  1  0.40727202  0.76218887  0.19825213  1
  Bi2+  Bi111  1  0.38659130  0.77658815  0.70496528  1
  Bi2+  Bi112  1  0.62442820  -0.01020687  0.20903325  1
  Bi2+  Bi113  1  0.67170746  -0.00349949  0.74288507  1
  Bi2+  Bi114  1  0.61838146  0.26841790  0.20751501  1
  Bi2+  Bi115  1  0.68083891  0.30040520  0.71723216  1
  Bi2+  Bi116  1  0.64933796  0.52915629  0.20281076  1
  Bi2+  Bi117  1  0.55455199  0.52019621  0.72509740  1
  Bi2+  Bi118  1  0.67225946  0.76043507  0.25468000  1
  Bi2+  Bi119  1  0.64911683  0.77866104  0.68413969  1
  Bi2+  Bi120  1  1.00255970  -0.02076692  0.19363950  1
  Bi2+  Bi121  1  0.92791110  -0.01112237  0.67889723  1
  Bi2+  Bi122  1  0.88762091  0.24704883  0.21962953  1
  Bi2+  Bi123  1  0.87767029  0.34356229  0.69331748  1
  Bi2+  Bi124  1  0.85107968  0.55723611  0.20855754  1
  Bi2+  Bi125  1  0.91352787  0.50796985  0.75557727  1
  Bi2+  Bi126  1  0.82432900  0.74630414  0.17934430  1
  Bi2+  Bi127  1  0.92897309  0.72606360  0.73383617  1
  S2-  S128  1  -0.06745434  0.13002744  0.15232830  1
  S2-  S129  1  -0.02714566  0.21624583  0.64048597  1
  S2-  S130  1  0.00921855  0.34314696  0.16908353  1
  S2-  S131  1  0.10744133  0.38031397  0.64157162  1
  S2-  S132  1  0.05450834  0.55273912  0.13815054  1
  S2-  S133  1  -0.04413419  0.54726902  0.65289990  1
  S2-  S134  1  -0.00871485  0.76562856  0.13950707  1
  S2-  S135  1  0.01800871  0.77531639  0.65815288  1
  S2-  S136  1  0.37485499  0.14510565  0.13254842  1
  S2-  S137  1  0.24013487  0.20179568  0.64490887  1
  S2-  S138  1  0.24990674  0.44305354  0.14653263  1
  S2-  S139  1  0.35308905  0.38530165  0.63939885  1
  S2-  S140  1  0.20549675  0.61377982  0.22509269  1
  S2-  S141  1  0.24159429  0.61163545  0.65640404  1
  S2-  S142  1  0.25936968  0.79353432  0.14804524  1
  S2-  S143  1  0.25878316  0.98158634  0.64107115  1
  S2-  S144  1  0.59342785  0.12932541  0.15100247  1
  S2-  S145  1  0.47204651  0.09824338  0.65763925  1
  S2-  S146  1  0.53316547  0.38564143  0.14736059  1
  S2-  S147  1  0.54321635  0.31015968  0.65311313  1
  S2-  S148  1  0.39899284  0.61782470  0.14543428  1
  S2-  S149  1  0.57257854  0.62774396  0.64639409  1
  S2-  S150  1  0.51642385  0.89033076  0.15724076  1
  S2-  S151  1  0.50529718  0.86983809  0.64711056  1
  S2-  S152  1  0.76561259  0.11465819  0.22578561  1
  S2-  S153  1  0.73145512  0.18595914  0.63950117  1
  S2-  S154  1  0.75886442  0.29393919  0.15151694  1
  S2-  S155  1  0.74230305  0.44049999  0.65549097  1
  S2-  S156  1  0.63164927  0.65142877  0.13749921  1
  S2-  S157  1  0.76979940  0.66853101  0.68981959  1
  S2-  S158  1  0.74344365  0.94837535  0.14865169  1
  S2-  S159  1  0.75774952  0.88148830  0.64049425  1
  S2-  S160  1  0.16004481  -0.01172015  0.35776572  1
  S2-  S161  1  0.23190641  -0.01661391  0.85401730  1
  S2-  S162  1  0.09319061  0.30870924  0.35901024  1
  S2-  S163  1  0.09319173  0.12832242  0.85124246  1
  S2-  S164  1  0.21404561  0.50541126  0.34779406  1
  S2-  S165  1  0.09693839  0.41853900  0.85387145  1
  S2-  S166  1  0.09680296  0.71399393  0.35003336  1
  S2-  S167  1  0.04104180  0.76414181  0.85988534  1
  S2-  S168  1  0.47119781  -0.00995856  0.34982753  1
  S2-  S169  1  0.40375683  0.11239327  0.83589752  1
  S2-  S170  1  0.36797043  0.34482611  0.35626579  1
  S2-  S171  1  0.25565432  0.26298676  0.83407098  1
  S2-  S172  1  0.39020975  0.61610339  0.35772132  1
  S2-  S173  1  0.39809093  0.42461539  0.84733274  1
  S2-  S174  1  0.31662950  0.82376411  0.35947842  1
  S2-  S175  1  0.39842188  0.86161424  0.85588219  1
  S2-  S176  1  0.71898066  -0.01576980  0.34692668  1
  S2-  S177  1  0.62413299  0.00058855  0.84595803  1
  S2-  S178  1  0.58717668  0.24158097  0.33892777  1
  S2-  S179  1  0.56661802  0.25569902  0.84580152  1
  S2-  S180  1  0.59779779  0.51513934  0.35185437  1
  S2-  S181  1  0.63595118  0.51096454  0.84164827  1
  S2-  S182  1  0.58465808  0.78104793  0.34260500  1
  S2-  S183  1  0.57950792  0.73869824  0.82594601  1
  S2-  S184  1  0.88148859  0.11804716  0.35576510  1
  S2-  S185  1  0.89268792  -0.05830075  0.85805858  1
  S2-  S186  1  0.82618239  0.34462118  0.36150698  1
  S2-  S187  1  0.85310096  0.26938301  0.84780440  1
  S2-  S188  1  0.96965802  0.50307591  0.35606491  1
  S2-  S189  1  0.85944786  0.51824407  0.85121035  1
  S2-  S190  1  0.85620433  0.72503670  0.34426597  1
  S2-  S191  1  0.77499933  0.74685739  0.85008017  1
  S2-  S192  1  -0.01677284  0.09850469  0.45900449  1
  S2-  S193  1  0.01086666  0.14635596  0.95937973  1
  S2-  S194  1  -0.02018120  0.34454124  0.46302203  1
  S2-  S195  1  0.01166480  0.39025619  0.96251714  1
  S2-  S196  1  -0.01860476  0.60253403  0.45795797  1
  S2-  S197  1  0.01098177  0.63699232  0.95462816  1
  S2-  S198  1  -0.02338622  0.85192655  0.46169606  1
  S2-  S199  1  0.01726843  0.89429476  0.96107365  1
  S2-  S200  1  0.22920523  0.09918215  0.45712423  1
  S2-  S201  1  0.26107459  0.14677285  0.94851526  1
  S2-  S202  1  0.22833335  0.34713786  0.45937702  1
  S2-  S203  1  0.25889572  0.39035140  0.94491639  1
  S2-  S204  1  0.22416393  0.60529451  0.45435217  1
  S2-  S205  1  0.25920215  0.64256370  0.94009692  1
  S2-  S206  1  0.22363769  0.84942537  0.46616616  1
  S2-  S207  1  0.25817485  0.88306097  0.95871985  1
  S2-  S208  1  0.47587068  0.10040409  0.45031603  1
  S2-  S209  1  0.50927268  0.13807291  0.95220515  1
  S2-  S210  1  0.48068984  0.35306163  0.45808290  1
  S2-  S211  1  0.51565918  0.38950252  0.94681367  1
  S2-  S212  1  0.48509948  0.60220774  0.46042790  1
  S2-  S213  1  0.51139558  0.63965338  0.94788564  1
  S2-  S214  1  0.48107394  0.84503084  0.44921757  1
  S2-  S215  1  0.51541615  0.88988332  0.95175302  1
  S2-  S216  1  0.72536555  0.10088041  0.45222076  1
  S2-  S217  1  0.76211514  0.13847221  0.94303164  1
  S2-  S218  1  0.72571817  0.34886117  0.46545900  1
  S2-  S219  1  0.75777370  0.38972405  0.95779140  1
  S2-  S220  1  0.73184295  0.59879006  0.44967038  1
  S2-  S221  1  0.76031094  0.63714787  0.95751652  1
  S2-  S222  1  0.72873141  0.84819292  0.44371220  1
  S2-  S223  1  0.75906677  0.89558873  0.95208816  1
  S2-  S224  1  0.13641446  0.01316564  0.04272007  1
  S2-  S225  1  0.09740291  -0.02710516  0.55440524  1
  S2-  S226  1  0.13950423  0.26521870  0.05820615  1
  S2-  S227  1  0.10472203  0.21927037  0.54529407  1
  S2-  S228  1  0.14374641  0.52445984  0.03681092  1
  S2-  S229  1  0.10397366  0.47756798  0.53905875  1
  S2-  S230  1  0.13886176  0.76032783  0.04694333  1
  S2-  S231  1  0.10342513  0.72614967  0.55092363  1
  S2-  S232  1  0.38286681  0.00894950  0.03742243  1
  S2-  S233  1  0.35777451  -0.03115444  0.53529289  1
  S2-  S234  1  0.38742355  0.26841602  0.03781983  1
  S2-  S235  1  0.35758294  0.22087576  0.53972908  1
  S2-  S236  1  0.39177858  0.51065045  0.03471946  1
  S2-  S237  1  0.35612048  0.48269994  0.53679527  1
  S2-  S238  1  0.38851495  0.77030888  0.04039632  1
  S2-  S239  1  0.35516673  0.72650801  0.55007486  1
  S2-  S240  1  0.63797970  0.01891297  0.04588925  1
  S2-  S241  1  0.60253737  -0.02586254  0.53658735  1
  S2-  S242  1  0.63323332  0.26128887  0.04199447  1
  S2-  S243  1  0.60015733  0.21995819  0.54351494  1
  S2-  S244  1  0.63497519  0.51144126  0.04330458  1
  S2-  S245  1  0.60745420  0.47498861  0.55434612  1
  S2-  S246  1  0.63438026  0.76938026  0.03556868  1
  S2-  S247  1  0.60706894  0.72385813  0.53984625  1
  S2-  S248  1  0.88426825  0.01635631  0.04991679  1
  S2-  S249  1  0.85225301  -0.02400242  0.53579833  1
  S2-  S250  1  0.89122269  0.26921506  0.05080553  1
  S2-  S251  1  0.85208717  0.22180401  0.54071185  1
  S2-  S252  1  0.87818605  0.51731523  0.05410953  1
  S2-  S253  1  0.85166332  0.47348821  0.54657161  1
  S2-  S254  1  0.87953508  0.76820952  0.03482490  1
  S2-  S255  1  0.84748040  0.71718142  0.55331885  1
