# generated using pymatgen
data_La12Ce14Pr13Nd13Sm12(BiS2)64
_symmetry_space_group_name_H-M   'P 1'
_cell_length_a   16.13659633
_cell_length_b   16.14249380
_cell_length_c   27.28255495
_cell_angle_alpha   90.14127517
_cell_angle_beta   89.65794265
_cell_angle_gamma   89.98334721
_symmetry_Int_Tables_number   1
_chemical_formula_structural   La12Ce14Pr13Nd13Sm12(BiS2)64
_chemical_formula_sum   'La12 Ce14 Pr13 Nd13 Sm12 Bi64 S128'
_cell_volume   7106.54518685
_cell_formula_units_Z   1
loop_
 _symmetry_equiv_pos_site_id
 _symmetry_equiv_pos_as_xyz
  1  'x, y, z'
loop_
 _atom_type_symbol
 _atom_type_oxidation_number
  La3+  3.0
  Ce3+  3.0
  Pr3+  3.0
  Nd3+  3.0
  Sm3+  3.0
  Bi2+  2.0
  S2-  -2.0
loop_
 _atom_site_type_symbol
 _atom_site_label
 _atom_site_symmetry_multiplicity
 _atom_site_fract_x
 _atom_site_fract_y
 _atom_site_fract_z
 _atom_site_occupancy
  La3+  La0  1  0.14442947  0.51826010  0.93788186  1
  La3+  La1  1  0.14920918  0.00085948  0.91268860  1
  La3+  La2  1  0.25240889  0.89913719  0.07884309  1
  La3+  La3  1  0.25609884  0.64674379  0.08215358  1
  La3+  La4  1  0.76161271  0.14354118  0.07275135  1
  La3+  La5  1  0.63974946  0.75495168  0.41105772  1
  La3+  La6  1  0.14135452  0.27230208  0.91515396  1
  La3+  La7  1  -0.01236158  0.12079005  0.60918497  1
  La3+  La8  1  0.61787468  0.74997144  0.88257961  1
  La3+  La9  1  0.75116833  0.37795947  0.57138304  1
  La3+  La10  1  0.26173907  0.39226467  0.06959776  1
  La3+  La11  1  0.75841432  0.64680599  0.07980296  1
  Ce3+  Ce12  1  0.37973857  0.50905444  0.42692023  1
  Ce3+  Ce13  1  0.12745803  0.74525402  0.43370169  1
  Ce3+  Ce14  1  0.87635996  0.76207956  0.94821316  1
  Ce3+  Ce15  1  0.88567316  0.51588599  0.94814347  1
  Ce3+  Ce16  1  0.00536107  0.62467050  0.56481944  1
  Ce3+  Ce17  1  0.50362169  0.38997365  0.07097014  1
  Ce3+  Ce18  1  0.25171758  0.62895349  0.55502700  1
  Ce3+  Ce19  1  0.88251118  0.75306598  0.44201202  1
  Ce3+  Ce20  1  0.63696230  0.26588237  0.94990552  1
  Ce3+  Ce21  1  0.01536926  0.14446966  0.04528942  1
  Ce3+  Ce22  1  0.63952469  0.51766194  0.95148772  1
  Ce3+  Ce23  1  0.50380691  0.88043196  0.54828020  1
  Ce3+  Ce24  1  0.64822678  0.01004815  0.93002447  1
  Ce3+  Ce25  1  0.13842421  0.25497621  0.43317676  1
  Pr3+  Pr26  1  0.51391710  0.89281261  0.05951875  1
  Pr3+  Pr27  1  0.38940257  0.26535981  0.93185602  1
  Pr3+  Pr28  1  0.63479292  0.00515806  0.42242390  1
  Pr3+  Pr29  1  0.50262279  0.38163776  0.56299575  1
  Pr3+  Pr30  1  0.75459801  0.88382082  0.55697995  1
  Pr3+  Pr31  1  0.50338653  0.63557783  0.55137984  1
  Pr3+  Pr32  1  0.51041195  0.13841775  0.05045918  1
  Pr3+  Pr33  1  0.88799779  0.01576547  0.94283961  1
  Pr3+  Pr34  1  0.00936787  0.37756775  0.57365053  1
  Pr3+  Pr35  1  0.76414660  0.39081838  0.06931986  1
  Pr3+  Pr36  1  0.25250521  0.88116077  0.56401559  1
  Pr3+  Pr37  1  0.75408217  0.63286372  0.55940906  1
  Pr3+  Pr38  1  0.12961845  0.49779911  0.42598264  1
  Nd3+  Nd39  1  0.63077296  0.50158706  0.43858649  1
  Nd3+  Nd40  1  0.38968496  0.51620357  0.94661199  1
  Nd3+  Nd41  1  0.00769345  0.88154574  0.55748149  1
  Nd3+  Nd42  1  0.74443946  0.12711561  0.56201334  1
  Nd3+  Nd43  1  0.14102477  0.76239171  0.94592377  1
  Nd3+  Nd44  1  0.01499157  0.38174574  0.07111947  1
  Nd3+  Nd45  1  0.88524050  0.26873896  0.93380585  1
  Nd3+  Nd46  1  0.37319304  0.75540798  0.42261157  1
  Nd3+  Nd47  1  0.25042222  0.13307360  0.56840580  1
  Nd3+  Nd48  1  0.87967497  0.49945378  0.44151622  1
  Nd3+  Nd49  1  0.88503753  0.25252305  0.44782767  1
  Nd3+  Nd50  1  0.25349190  0.38072613  0.55767373  1
  Nd3+  Nd51  1  0.25740252  0.13923660  0.05102187  1
  Sm3+  Sm52  1  0.62853460  0.25176786  0.44162322  1
  Sm3+  Sm53  1  0.75924386  0.89551445  0.06891031  1
  Sm3+  Sm54  1  0.88249850  0.00797028  0.43642679  1
  Sm3+  Sm55  1  0.01219481  0.89426387  0.05345494  1
  Sm3+  Sm56  1  0.51156847  0.64578278  0.05973030  1
  Sm3+  Sm57  1  0.13249876  0.00543825  0.44447288  1
  Sm3+  Sm58  1  0.01139900  0.63721003  0.06096486  1
  Sm3+  Sm59  1  0.38912550  0.76595074  0.94604060  1
  Sm3+  Sm60  1  0.50335750  0.12682025  0.55495211  1
  Sm3+  Sm61  1  0.37188542  -0.00040360  0.42451390  1
  Sm3+  Sm62  1  0.38913126  0.00948564  0.93770962  1
  Sm3+  Sm63  1  0.37886038  0.25226771  0.44058082  1
  Bi2+  Bi64  1  -0.02299593  0.07226606  0.30326360  1
  Bi2+  Bi65  1  -0.04794187  0.11857529  0.81962453  1
  Bi2+  Bi66  1  0.01817974  0.27538789  0.27745385  1
  Bi2+  Bi67  1  -0.01146884  0.38352541  0.80192225  1
  Bi2+  Bi68  1  0.00557307  0.67696983  0.27476540  1
  Bi2+  Bi69  1  0.02843589  0.63540632  0.78675214  1
  Bi2+  Bi70  1  0.00897023  0.87587922  0.30006175  1
  Bi2+  Bi71  1  -0.04248572  0.81820229  0.76450708  1
  Bi2+  Bi72  1  0.19337529  0.13309631  0.29321156  1
  Bi2+  Bi73  1  0.29777006  0.12960472  0.78100226  1
  Bi2+  Bi74  1  0.22894503  0.35638263  0.29159986  1
  Bi2+  Bi75  1  0.26218490  0.41034345  0.79094838  1
  Bi2+  Bi76  1  0.24837223  0.62781240  0.29913457  1
  Bi2+  Bi77  1  0.20828840  0.68111765  0.81855593  1
  Bi2+  Bi78  1  0.25896377  0.88998204  0.28816368  1
  Bi2+  Bi79  1  0.26218271  0.86973397  0.78044279  1
  Bi2+  Bi80  1  0.46748370  0.07677548  0.30944013  1
  Bi2+  Bi81  1  0.49109542  0.15309218  0.79437268  1
  Bi2+  Bi82  1  0.44859602  0.35239526  0.30222065  1
  Bi2+  Bi83  1  0.47215238  0.35489479  0.81895606  1
  Bi2+  Bi84  1  0.51961466  0.54337937  0.29298688  1
  Bi2+  Bi85  1  0.42841666  0.54163822  0.79741720  1
  Bi2+  Bi86  1  0.50714699  0.87938504  0.27162512  1
  Bi2+  Bi87  1  0.45564773  0.87079192  0.77092850  1
  Bi2+  Bi88  1  0.66044667  0.11193879  0.29531240  1
  Bi2+  Bi89  1  0.69079521  0.11393999  0.79330047  1
  Bi2+  Bi90  1  0.78655413  0.36151004  0.30921383  1
  Bi2+  Bi91  1  0.65475026  0.38385432  0.78326744  1
  Bi2+  Bi92  1  0.77327038  0.60193228  0.30144745  1
  Bi2+  Bi93  1  0.77178836  0.61386926  0.79788765  1
  Bi2+  Bi94  1  0.77581756  0.88854411  0.29242127  1
  Bi2+  Bi95  1  0.75158615  0.86464635  0.78420158  1
  Bi2+  Bi96  1  0.08514402  0.02819000  0.21042735  1
  Bi2+  Bi97  1  0.09923199  -0.00836560  0.71724600  1
  Bi2+  Bi98  1  0.14908122  0.21933432  0.19265874  1
  Bi2+  Bi99  1  0.13125911  0.25767733  0.71473433  1
  Bi2+  Bi100  1  0.10239650  0.50372211  0.20274539  1
  Bi2+  Bi101  1  0.15130980  0.51313708  0.70972795  1
  Bi2+  Bi102  1  0.13212992  0.78702204  0.21368223  1
  Bi2+  Bi103  1  0.08765992  0.73445120  0.68924899  1
  Bi2+  Bi104  1  0.34479280  0.02122406  0.22148780  1
  Bi2+  Bi105  1  0.37770017  0.01485377  0.69970167  1
  Bi2+  Bi106  1  0.41706948  0.20786872  0.22305081  1
  Bi2+  Bi107  1  0.39139232  0.21139869  0.68512678  1
  Bi2+  Bi108  1  0.37992669  0.47126032  0.21727363  1
  Bi2+  Bi109  1  0.40003668  0.40874438  0.70434158  1
  Bi2+  Bi110  1  0.40843212  0.74932411  0.21321645  1
  Bi2+  Bi111  1  0.35511491  0.70517401  0.74529099  1
  Bi2+  Bi112  1  0.60091838  0.01010183  0.20284635  1
  Bi2+  Bi113  1  0.57525637  0.01437042  0.71931005  1
  Bi2+  Bi114  1  0.60556406  0.27268051  0.23587798  1
  Bi2+  Bi115  1  0.60166632  0.23923546  0.70710879  1
  Bi2+  Bi116  1  0.57495552  0.44439462  0.19537073  1
  Bi2+  Bi117  1  0.57820654  0.50602947  0.70942303  1
  Bi2+  Bi118  1  0.65240419  0.70476791  0.21152457  1
  Bi2+  Bi119  1  0.62175487  0.74651559  0.67444645  1
  Bi2+  Bi120  1  0.88316713  -0.00161297  0.20602723  1
  Bi2+  Bi121  1  0.83734122  -0.01617190  0.70858270  1
  Bi2+  Bi122  1  0.87904563  0.19675525  0.21143724  1
  Bi2+  Bi123  1  0.85815348  0.25699448  0.71802920  1
  Bi2+  Bi124  1  0.80974349  0.42290161  0.20504174  1
  Bi2+  Bi125  1  0.89906229  0.51189111  0.71694153  1
  Bi2+  Bi126  1  0.89247494  0.79756957  0.21527506  1
  Bi2+  Bi127  1  0.88592158  0.70062477  0.68375650  1
  S2-  S128  1  0.00465277  0.20851558  0.13667122  1
  S2-  S129  1  -0.02560948  0.10856757  0.72399630  1
  S2-  S130  1  -0.04378339  0.45487271  0.15836551  1
  S2-  S131  1  0.00025064  0.27727992  0.65836130  1
  S2-  S132  1  0.06868112  0.64950768  0.15319384  1
  S2-  S133  1  0.01456334  0.51529616  0.64238120  1
  S2-  S134  1  0.09521383  0.90753615  0.13967203  1
  S2-  S135  1  -0.02401866  0.95274323  0.64679882  1
  S2-  S136  1  0.26475310  0.04868675  0.13699162  1
  S2-  S137  1  0.15497024  0.12002819  0.65389718  1
  S2-  S138  1  0.14264535  0.37451918  0.14394295  1
  S2-  S139  1  0.18647802  0.37041421  0.65074923  1
  S2-  S140  1  0.25735046  0.54772792  0.16616260  1
  S2-  S141  1  0.23054223  0.62514496  0.65322989  1
  S2-  S142  1  0.27674375  0.77670205  0.15350556  1
  S2-  S143  1  0.17713205  0.87066960  0.65571423  1
  S2-  S144  1  0.51765131  0.12900319  0.15086270  1
  S2-  S145  1  0.60586395  0.10763542  0.63443335  1
  S2-  S146  1  0.38517606  0.35697427  0.14119328  1
  S2-  S147  1  0.61448640  0.37729662  0.64054641  1
  S2-  S148  1  0.50821215  0.65084621  0.15938718  1
  S2-  S149  1  0.50440752  0.62303489  0.65231248  1
  S2-  S150  1  0.49005777  0.88418682  0.16125778  1
  S2-  S151  1  0.50655964  0.84604613  0.64393821  1
  S2-  S152  1  0.74132151  0.01879842  0.14295499  1
  S2-  S153  1  0.82010040  0.13225560  0.65142875  1
  S2-  S154  1  0.77355155  0.27329618  0.14740653  1
  S2-  S155  1  0.82591014  0.38528777  0.66483476  1
  S2-  S156  1  0.75647641  0.57732238  0.17524724  1
  S2-  S157  1  0.74056841  0.61295189  0.65950554  1
  S2-  S158  1  0.74490827  0.78985989  0.15128652  1
  S2-  S159  1  0.73832327  0.87869326  0.65757015  1
  S2-  S160  1  0.23007922  0.00944577  0.36225868  1
  S2-  S161  1  0.07109538  0.01122658  0.82055456  1
  S2-  S162  1  0.09314051  0.36267598  0.35640396  1
  S2-  S163  1  0.07831702  0.23297436  0.81676506  1
  S2-  S164  1  0.09526002  0.62184429  0.35401685  1
  S2-  S165  1  0.11614108  0.42144460  0.85538823  1
  S2-  S166  1  0.22978937  0.76586556  0.35479351  1
  S2-  S167  1  0.15586186  0.83691522  0.85689401  1
  S2-  S168  1  0.39706106  -0.12048819  0.35058147  1
  S2-  S169  1  0.30388278  0.00326451  0.85205934  1
  S2-  S170  1  0.27234432  0.23960849  0.36311577  1
  S2-  S171  1  0.28719663  0.26861201  0.84897144  1
  S2-  S172  1  0.26423974  0.48713831  0.35098557  1
  S2-  S173  1  0.28794356  0.53810187  0.86624796  1
  S2-  S174  1  0.39404507  0.63549976  0.34681449  1
  S2-  S175  1  0.44707781  0.76452857  0.85153953  1
  S2-  S176  1  0.62912458  -0.11085059  0.34553371  1
  S2-  S177  1  0.63068317  -0.08403595  0.84788352  1
  S2-  S178  1  0.64648210  0.26649182  0.34455022  1
  S2-  S179  1  0.66093727  0.25959104  0.85320778  1
  S2-  S180  1  0.66893289  0.48580457  0.34148265  1
  S2-  S181  1  0.64832447  0.57307586  0.85849106  1
  S2-  S182  1  0.61446387  0.68355351  0.31532867  1
  S2-  S183  1  0.64538325  0.73263777  0.77427697  1
  S2-  S184  1  0.78413352  0.02387757  0.35505736  1
  S2-  S185  1  0.80193873  0.03621197  0.85587549  1
  S2-  S186  1  0.87984200  0.24639605  0.34649291  1
  S2-  S187  1  0.86817125  0.27694175  0.83244341  1
  S2-  S188  1  0.88531730  0.50060039  0.34055440  1
  S2-  S189  1  0.88014160  0.50995631  0.84888351  1
  S2-  S190  1  0.80769994  0.74682872  0.35395793  1
  S2-  S191  1  0.79918772  0.75379248  0.86076952  1
  S2-  S192  1  0.00988365  0.12803038  0.44122261  1
  S2-  S193  1  0.01441754  0.14308332  0.94011623  1
  S2-  S194  1  0.00275899  0.37863199  0.46345690  1
  S2-  S195  1  0.00797734  0.39002034  0.95875649  1
  S2-  S196  1  -0.00113850  0.62502247  0.45880672  1
  S2-  S197  1  0.01141097  0.64199547  0.95359989  1
  S2-  S198  1  0.00604915  0.88249419  0.44957645  1
  S2-  S199  1  0.00843754  0.88501002  0.94900728  1
  S2-  S200  1  0.25973859  0.12537957  0.46342667  1
  S2-  S201  1  0.26370003  0.13628781  0.94702790  1
  S2-  S202  1  0.26190496  0.37982243  0.45508782  1
  S2-  S203  1  0.26782987  0.39046620  0.95934722  1
  S2-  S204  1  0.25544886  0.62680384  0.45251482  1
  S2-  S205  1  0.26690959  0.64568601  0.96867297  1
  S2-  S206  1  0.25334777  0.88015058  0.45873513  1
  S2-  S207  1  0.26811667  0.88649192  0.96165662  1
  S2-  S208  1  0.50119830  0.12686349  0.44933465  1
  S2-  S209  1  0.51350698  0.13518448  0.94354498  1
  S2-  S210  1  0.50363057  0.37613193  0.45278672  1
  S2-  S211  1  0.51269471  0.39237934  0.96135316  1
  S2-  S212  1  0.51141966  0.63144343  0.44562842  1
  S2-  S213  1  0.51361054  0.64294813  0.95500015  1
  S2-  S214  1  0.50360823  0.88054986  0.44674436  1
  S2-  S215  1  0.51223346  0.88875941  0.95269307  1
  S2-  S216  1  0.75356169  0.13318321  0.45499363  1
  S2-  S217  1  0.76354512  0.14519681  0.96119081  1
  S2-  S218  1  0.75279109  0.37446039  0.45858550  1
  S2-  S219  1  0.76167256  0.39024773  0.95915762  1
  S2-  S220  1  0.75545407  0.62582452  0.45250172  1
  S2-  S221  1  0.76201747  0.63660427  0.96869845  1
  S2-  S222  1  0.76141730  0.88123892  0.45177630  1
  S2-  S223  1  0.76614335  0.89273677  0.96316149  1
  S2-  S224  1  0.13189638  0.01724319  0.02951959  1
  S2-  S225  1  0.12806815  0.00785765  0.54669347  1
  S2-  S226  1  0.14014459  0.26493265  0.03256102  1
  S2-  S227  1  0.13355112  0.25528550  0.54255088  1
  S2-  S228  1  0.13379749  0.51811566  0.04561678  1
  S2-  S229  1  0.13211557  0.50414530  0.53888757  1
  S2-  S230  1  0.13141630  0.76640529  0.04842750  1
  S2-  S231  1  0.12691664  0.75352308  0.54188225  1
  S2-  S232  1  0.38662781  0.01467774  0.04082355  1
  S2-  S233  1  0.37808166  0.00691905  0.54790601  1
  S2-  S234  1  0.38484165  0.25881141  0.03810711  1
  S2-  S235  1  0.38085624  0.25353617  0.54527430  1
  S2-  S236  1  0.38843784  0.52224801  0.05196615  1
  S2-  S237  1  0.38015665  0.50590260  0.54315303  1
  S2-  S238  1  0.38890028  0.76814532  0.04991230  1
  S2-  S239  1  0.37522062  0.75666806  0.54095191  1
  S2-  S240  1  0.63794632  0.01564394  0.03925176  1
  S2-  S241  1  0.62722719  0.00267973  0.53135921  1
  S2-  S242  1  0.63148179  0.26831972  0.05502389  1
  S2-  S243  1  0.62381781  0.25293269  0.54304290  1
  S2-  S244  1  0.63351938  0.51504194  0.05727401  1
  S2-  S245  1  0.62741550  0.50786990  0.54364280  1
  S2-  S246  1  0.63381969  0.76727919  0.05389930  1
  S2-  S247  1  0.63215648  0.75776415  0.53615231  1
  S2-  S248  1  0.89071711  0.01727710  0.04912900  1
  S2-  S249  1  0.88037299  0.00896312  0.54030214  1
  S2-  S250  1  0.88656689  0.26706899  0.04087151  1
  S2-  S251  1  0.87982074  0.25050016  0.55142990  1
  S2-  S252  1  0.88502363  0.51886077  0.05239725  1
  S2-  S253  1  0.87526411  0.50366098  0.54799682  1
  S2-  S254  1  0.89213970  0.76815381  0.05478990  1
  S2-  S255  1  0.88150827  0.75769635  0.54783340  1
