# generated using pymatgen
data_La12Ce14Pr13Nd13Sm12(BiS2)64
_symmetry_space_group_name_H-M   'P 1'
_cell_length_a   16.10205498
_cell_length_b   16.13575276
_cell_length_c   27.39569413
_cell_angle_alpha   90.43828474
_cell_angle_beta   89.92659210
_cell_angle_gamma   90.01576258
_symmetry_Int_Tables_number   1
_chemical_formula_structural   La12Ce14Pr13Nd13Sm12(BiS2)64
_chemical_formula_sum   'La12 Ce14 Pr13 Nd13 Sm12 Bi64 S128'
_cell_volume   7117.70142668
_cell_formula_units_Z   1
loop_
 _symmetry_equiv_pos_site_id
 _symmetry_equiv_pos_as_xyz
  1  'x, y, z'
loop_
 _atom_type_symbol
 _atom_type_oxidation_number
  La3+  3.0
  Ce3+  3.0
  Pr3+  3.0
  Nd3+  3.0
  Sm3+  3.0
  Bi2+  2.0
  S2-  -2.0
loop_
 _atom_site_type_symbol
 _atom_site_label
 _atom_site_symmetry_multiplicity
 _atom_site_fract_x
 _atom_site_fract_y
 _atom_site_fract_z
 _atom_site_occupancy
  La3+  La0  1  0.10880326  0.25593582  0.42860760  1
  La3+  La1  1  0.12896792  0.76081929  0.93784466  1
  La3+  La2  1  0.36290845  0.24824338  0.40361134  1
  La3+  La3  1  0.26718849  0.62318086  0.11481201  1
  La3+  La4  1  0.24613139  0.63818976  0.60244348  1
  La3+  La5  1  0.26427162  0.88729141  0.07280091  1
  La3+  La6  1  0.73255081  0.14499584  0.57931460  1
  La3+  La7  1  0.23378842  0.14016607  0.56333277  1
  La3+  La8  1  0.75427789  0.14283417  0.07723302  1
  La3+  La9  1  0.00548999  0.64497255  0.07687461  1
  La3+  La10  1  0.86135841  0.50990341  0.42236419  1
  La3+  La11  1  0.63743417  0.26135630  0.91988359  1
  Ce3+  Ce12  1  0.36159083  0.01002561  0.44189942  1
  Ce3+  Ce13  1  -0.01578897  0.38920294  0.55187788  1
  Ce3+  Ce14  1  0.73529738  0.38942252  0.55733666  1
  Ce3+  Ce15  1  0.00523329  0.88477302  0.06116778  1
  Ce3+  Ce16  1  0.37582734  0.26432217  0.94849900  1
  Ce3+  Ce17  1  0.11044401  0.75693465  0.43917997  1
  Ce3+  Ce18  1  0.48337094  0.38628447  0.55393980  1
  Ce3+  Ce19  1  -0.01618087  0.88256086  0.55810454  1
  Ce3+  Ce20  1  0.25291446  0.38852445  0.06558116  1
  Ce3+  Ce21  1  0.11242225  0.00804221  0.44667604  1
  Ce3+  Ce22  1  0.25401495  0.13658533  0.07194296  1
  Ce3+  Ce23  1  0.12988776  0.01329315  0.94537542  1
  Ce3+  Ce24  1  0.88181456  0.25866414  0.93634948  1
  Ce3+  Ce25  1  0.85867547  0.25539394  0.43271873  1
  Pr3+  Pr26  1  -0.01123287  0.63752066  0.56527399  1
  Pr3+  Pr27  1  0.61370079  0.25765528  0.43056376  1
  Pr3+  Pr28  1  0.50653510  0.14062171  0.05471961  1
  Pr3+  Pr29  1  0.60890177  0.76019176  0.43797219  1
  Pr3+  Pr30  1  0.37787421  0.51555702  0.94198525  1
  Pr3+  Pr31  1  0.50475639  0.88659974  0.05161799  1
  Pr3+  Pr32  1  0.37018928  0.01505232  0.93050023  1
  Pr3+  Pr33  1  0.48509550  0.88475960  0.56179897  1
  Pr3+  Pr34  1  0.85842244  0.00889493  0.44599100  1
  Pr3+  Pr35  1  0.62774549  0.01784541  0.93004822  1
  Pr3+  Pr36  1  0.73378763  0.63100475  0.56167550  1
  Pr3+  Pr37  1  0.75124489  0.88744812  0.06208030  1
  Pr3+  Pr38  1  0.63176053  0.76870002  0.91553990  1
  Nd3+  Nd39  1  0.59961759  0.50813248  0.43172918  1
  Nd3+  Nd40  1  0.75724958  0.64010955  0.06994149  1
  Nd3+  Nd41  1  0.63245940  0.51230360  0.93217183  1
  Nd3+  Nd42  1  0.85863920  0.75816424  0.44187333  1
  Nd3+  Nd43  1  0.37791457  0.76329294  0.93058475  1
  Nd3+  Nd44  1  0.35145870  0.50774360  0.43640091  1
  Nd3+  Nd45  1  0.00225304  0.13961745  0.06572750  1
  Nd3+  Nd46  1  0.23327403  0.38749585  0.55757473  1
  Nd3+  Nd47  1  -0.01701596  0.13804820  0.56216871  1
  Nd3+  Nd48  1  0.87957026  0.51602247  0.94072476  1
  Nd3+  Nd49  1  0.35939543  0.75962061  0.43871961  1
  Nd3+  Nd50  1  0.23577302  0.88295636  0.56263513  1
  Nd3+  Nd51  1  0.13158153  0.26250123  0.94314133  1
  Sm3+  Sm52  1  0.00452640  0.39045386  0.05403382  1
  Sm3+  Sm53  1  0.11284868  0.50954512  0.43672766  1
  Sm3+  Sm54  1  0.48290342  0.63490459  0.55509717  1
  Sm3+  Sm55  1  0.73344629  0.88366212  0.55991898  1
  Sm3+  Sm56  1  0.87923852  0.76168818  0.93750050  1
  Sm3+  Sm57  1  0.61055470  0.01217317  0.44922401  1
  Sm3+  Sm58  1  0.12922442  0.51703006  0.94740353  1
  Sm3+  Sm59  1  0.50360871  0.64030851  0.05393843  1
  Sm3+  Sm60  1  0.50615059  0.39136218  0.05321577  1
  Sm3+  Sm61  1  0.48567451  0.13893726  0.55795170  1
  Sm3+  Sm62  1  0.87503734  0.01229949  0.94577858  1
  Sm3+  Sm63  1  0.75388075  0.38659887  0.05575978  1
  Bi2+  Bi64  1  -0.00190132  0.10183819  0.29832038  1
  Bi2+  Bi65  1  -0.02976951  0.09159278  0.76241027  1
  Bi2+  Bi66  1  0.01849095  0.37772918  0.29071796  1
  Bi2+  Bi67  1  0.04336801  0.34165683  0.77936201  1
  Bi2+  Bi68  1  -0.01329858  0.65324262  0.29676071  1
  Bi2+  Bi69  1  -0.01914537  0.60414254  0.79573016  1
  Bi2+  Bi70  1  0.00499536  0.91577236  0.22830039  1
  Bi2+  Bi71  1  0.02508310  0.86696339  0.79674166  1
  Bi2+  Bi72  1  0.25162673  0.12262461  0.28132739  1
  Bi2+  Bi73  1  0.21372448  0.14395975  0.79851196  1
  Bi2+  Bi74  1  0.23152396  0.38060054  0.27806784  1
  Bi2+  Bi75  1  0.30179349  0.38171308  0.78937538  1
  Bi2+  Bi76  1  0.28482314  0.64117073  0.32360661  1
  Bi2+  Bi77  1  0.22968908  0.62130016  0.79644728  1
  Bi2+  Bi78  1  0.19213253  0.94746700  0.25704286  1
  Bi2+  Bi79  1  0.27833873  0.88507087  0.79506423  1
  Bi2+  Bi80  1  0.52018393  0.12363060  0.29931348  1
  Bi2+  Bi81  1  0.48081171  0.06233538  0.77898136  1
  Bi2+  Bi82  1  0.59565333  0.39033147  0.26748234  1
  Bi2+  Bi83  1  0.50071478  0.38165881  0.78670640  1
  Bi2+  Bi84  1  0.53652777  0.59416421  0.27690016  1
  Bi2+  Bi85  1  0.49397336  0.59749163  0.79181617  1
  Bi2+  Bi86  1  0.52318871  0.86223713  0.31356164  1
  Bi2+  Bi87  1  0.54704326  0.79701376  0.75863007  1
  Bi2+  Bi88  1  0.76131793  0.17276627  0.26513026  1
  Bi2+  Bi89  1  0.74203000  0.07637544  0.80990355  1
  Bi2+  Bi90  1  0.81817279  0.35716102  0.29665374  1
  Bi2+  Bi91  1  0.75845510  0.42560290  0.77750442  1
  Bi2+  Bi92  1  0.81302105  0.55677728  0.29023033  1
  Bi2+  Bi93  1  0.68666462  0.60104324  0.81119239  1
  Bi2+  Bi94  1  0.76737981  0.88757948  0.31400515  1
  Bi2+  Bi95  1  0.75990886  0.84464243  0.77960134  1
  Bi2+  Bi96  1  0.11039545  0.07661799  0.18024428  1
  Bi2+  Bi97  1  0.12735967  -0.02560970  0.72383172  1
  Bi2+  Bi98  1  0.19933200  0.25969756  0.18006610  1
  Bi2+  Bi99  1  0.11039390  0.22758483  0.69400752  1
  Bi2+  Bi100  1  0.11236618  0.44089077  0.19491479  1
  Bi2+  Bi101  1  0.11861771  0.46988508  0.70008434  1
  Bi2+  Bi102  1  0.12497924  0.73387126  0.22134655  1
  Bi2+  Bi103  1  0.10221708  0.75428321  0.71255132  1
  Bi2+  Bi104  1  0.45767012  -0.01225562  0.22340235  1
  Bi2+  Bi105  1  0.32736918  -0.00375911  0.70905803  1
  Bi2+  Bi106  1  0.38587470  0.22072877  0.21609324  1
  Bi2+  Bi107  1  0.39336025  0.22906093  0.75044753  1
  Bi2+  Bi108  1  0.41079412  0.41305025  0.22804543  1
  Bi2+  Bi109  1  0.42002477  0.48055911  0.69631405  1
  Bi2+  Bi110  1  0.38642731  0.76257721  0.20969970  1
  Bi2+  Bi111  1  0.37451168  0.77002157  0.71283683  1
  Bi2+  Bi112  1  0.64542742  -0.06840931  0.22502953  1
  Bi2+  Bi113  1  0.60988596  -0.00305638  0.69634304  1
  Bi2+  Bi114  1  0.61808974  0.22636183  0.20104231  1
  Bi2+  Bi115  1  0.62513776  0.24273679  0.69924308  1
  Bi2+  Bi116  1  0.63264946  0.53943511  0.18004290  1
  Bi2+  Bi117  1  0.62116032  0.55142508  0.70445014  1
  Bi2+  Bi118  1  0.63303536  0.73012283  0.21399769  1
  Bi2+  Bi119  1  0.68381073  0.73304150  0.68002970  1
  Bi2+  Bi120  1  0.84205139  0.01751001  0.21036312  1
  Bi2+  Bi121  1  0.90180880  -0.07382499  0.71222680  1
  Bi2+  Bi122  1  0.99237112  0.23634758  0.21045475  1
  Bi2+  Bi123  1  0.86922499  0.26352652  0.76396208  1
  Bi2+  Bi124  1  0.79867250  0.43881123  0.19169589  1
  Bi2+  Bi125  1  0.88059979  0.50686308  0.70019172  1
  Bi2+  Bi126  1  0.84294471  0.70730304  0.21811503  1
  Bi2+  Bi127  1  0.86898099  0.69471156  0.71431811  1
  S2-  S128  1  -0.10454106  0.14440434  0.14516844  1
  S2-  S129  1  -0.02820128  0.15161485  0.66053895  1
  S2-  S130  1  -0.03383776  0.38243674  0.14986668  1
  S2-  S131  1  -0.02130596  0.39434662  0.64946551  1
  S2-  S132  1  0.10433250  0.60944773  0.15855426  1
  S2-  S133  1  0.08682892  0.62038880  0.64824344  1
  S2-  S134  1  0.00181187  0.80744997  0.14857867  1
  S2-  S135  1  -0.02006251  0.81409001  0.64648864  1
  S2-  S136  1  0.26107050  0.02392723  0.14397895  1
  S2-  S137  1  0.24753640  0.12289222  0.66253237  1
  S2-  S138  1  0.28229317  0.46004940  0.15276783  1
  S2-  S139  1  0.21701878  0.35784173  0.65558931  1
  S2-  S140  1  0.27144084  0.63506778  0.22964860  1
  S2-  S141  1  0.25744799  0.56138069  0.69919530  1
  S2-  S142  1  0.24326913  0.78617245  0.15442578  1
  S2-  S143  1  0.23730280  0.79650058  0.64906065  1
  S2-  S144  1  0.49250342  0.12216241  0.15447353  1
  S2-  S145  1  0.51745223  0.12966227  0.65363963  1
  S2-  S146  1  0.52094026  0.40697192  0.15012967  1
  S2-  S147  1  0.51411341  0.36597989  0.65016833  1
  S2-  S148  1  0.43903500  0.65267768  0.14650668  1
  S2-  S149  1  0.42000764  0.64404804  0.64558317  1
  S2-  S150  1  0.43287694  0.88289218  0.14476565  1
  S2-  S151  1  0.48182194  0.88330671  0.66141696  1
  S2-  S152  1  0.71737744  0.00320764  0.14018098  1
  S2-  S153  1  0.72650727  0.10824663  0.68291180  1
  S2-  S154  1  0.73766068  0.29268940  0.13878538  1
  S2-  S155  1  0.73831533  0.29160060  0.63872188  1
  S2-  S156  1  0.87458963  0.60479497  0.14561523  1
  S2-  S157  1  0.74219681  0.50755209  0.63294150  1
  S2-  S158  1  0.74792755  0.77241229  0.14096983  1
  S2-  S159  1  0.73969206  0.90143993  0.65678733  1
  S2-  S160  1  0.12373125  0.00836980  0.34884238  1
  S2-  S161  1  0.22332758  0.02406262  0.86281832  1
  S2-  S162  1  0.21663071  0.25014775  0.34604577  1
  S2-  S163  1  0.08612508  0.22447046  0.84941403  1
  S2-  S164  1  0.22569509  0.49800277  0.35887810  1
  S2-  S165  1  0.11930911  0.53955740  0.84801511  1
  S2-  S166  1  0.12938686  0.72941975  0.34187397  1
  S2-  S167  1  -0.00089663  0.74525044  0.86314662  1
  S2-  S168  1  0.37267396  0.08190505  0.35319869  1
  S2-  S169  1  0.42481177  -0.04703453  0.83969698  1
  S2-  S170  1  0.50866875  0.26833146  0.34676778  1
  S2-  S171  1  0.32884159  0.24467622  0.85527761  1
  S2-  S172  1  0.43375014  0.55128888  0.34873927  1
  S2-  S173  1  0.34256592  0.52812720  0.84314712  1
  S2-  S174  1  0.37312940  0.79796254  0.34089338  1
  S2-  S175  1  0.24848348  0.76039843  0.85744476  1
  S2-  S176  1  0.62145150  0.00254580  0.35179887  1
  S2-  S177  1  0.66484052  -0.07518034  0.84424286  1
  S2-  S178  1  0.74173711  0.23121378  0.35936306  1
  S2-  S179  1  0.60520364  0.13609824  0.84795888  1
  S2-  S180  1  0.66127804  0.50342300  0.33945738  1
  S2-  S181  1  0.63207529  0.39748229  0.85294536  1
  S2-  S182  1  0.64887844  0.75818757  0.34079730  1
  S2-  S183  1  0.49289090  0.74532387  0.85005385  1
  S2-  S184  1  0.86425582  0.01215917  0.34559304  1
  S2-  S185  1  0.89085031  0.01743712  0.84746950  1
  S2-  S186  1  0.98041623  0.23834285  0.35623888  1
  S2-  S187  1  0.79265254  0.23362890  0.85334778  1
  S2-  S188  1  1.00295673  0.51428207  0.35705912  1
  S2-  S189  1  0.88393233  0.49490034  0.84121483  1
  S2-  S190  1  0.88208210  0.77954428  0.34435790  1
  S2-  S191  1  0.77357043  0.73731136  0.85783473  1
  S2-  S192  1  -0.01375547  0.12820391  0.45764714  1
  S2-  S193  1  0.00323683  0.13532324  0.95829858  1
  S2-  S194  1  -0.01467531  0.38427781  0.44964533  1
  S2-  S195  1  0.00623131  0.38841893  0.94892598  1
  S2-  S196  1  -0.01524302  0.63713536  0.45685655  1
  S2-  S197  1  0.00331567  0.63344270  0.96386708  1
  S2-  S198  1  -0.01495476  0.88316639  0.45258350  1
  S2-  S199  1  0.00081245  0.89199776  0.95580957  1
  S2-  S200  1  0.23812980  0.13404230  0.45601885  1
  S2-  S201  1  0.25144418  0.14096983  0.96531294  1
  S2-  S202  1  0.24031027  0.37360013  0.45357820  1
  S2-  S203  1  0.25118411  0.39059648  0.95659086  1
  S2-  S204  1  0.23490901  0.63780085  0.45266262  1
  S2-  S205  1  0.25302649  0.63456003  0.95310972  1
  S2-  S206  1  0.23687314  0.88446623  0.45547973  1
  S2-  S207  1  0.25408686  0.88962315  0.96090575  1
  S2-  S208  1  0.48552890  0.13544458  0.45520816  1
  S2-  S209  1  0.49826689  0.14066284  0.94941708  1
  S2-  S210  1  0.47768018  0.38263350  0.44830739  1
  S2-  S211  1  0.50203840  0.38764316  0.94918722  1
  S2-  S212  1  0.48350631  0.63713285  0.45284795  1
  S2-  S213  1  0.50947155  0.63542909  0.95001633  1
  S2-  S214  1  0.48609962  0.88704180  0.45510048  1
  S2-  S215  1  0.50413432  0.88920263  0.94788636  1
  S2-  S216  1  0.73358187  0.13054204  0.46552050  1
  S2-  S217  1  0.75747724  0.13675273  0.96173039  1
  S2-  S218  1  0.73335283  0.38984911  0.44953160  1
  S2-  S219  1  0.75966261  0.38800999  0.95272761  1
  S2-  S220  1  0.73304808  0.63267502  0.45091530  1
  S2-  S221  1  0.75329277  0.63391057  0.96029745  1
  S2-  S222  1  0.73282115  0.88444712  0.45596982  1
  S2-  S223  1  0.75733761  0.88637016  0.95546019  1
  S2-  S224  1  0.12547820  0.01376712  0.04824212  1
  S2-  S225  1  0.10896788  0.00872007  0.55498845  1
  S2-  S226  1  0.12616766  0.26412132  0.04984520  1
  S2-  S227  1  0.10697830  0.26123016  0.54258720  1
  S2-  S228  1  0.13023081  0.51197117  0.04984514  1
  S2-  S229  1  0.11352253  0.51167438  0.54153474  1
  S2-  S230  1  0.12946716  0.76635818  0.04563694  1
  S2-  S231  1  0.11312967  0.76022213  0.54482838  1
  S2-  S232  1  0.38225015  0.01732594  0.03905665  1
  S2-  S233  1  0.36124217  0.01111619  0.55038608  1
  S2-  S234  1  0.38058571  0.26722986  0.05464669  1
  S2-  S235  1  0.36181034  0.26016875  0.55640743  1
  S2-  S236  1  0.38219278  0.51399560  0.04685053  1
  S2-  S237  1  0.35608114  0.51356123  0.54557400  1
  S2-  S238  1  0.38272213  0.75934879  0.03709083  1
  S2-  S239  1  0.35977795  0.75950525  0.54445265  1
  S2-  S240  1  0.62630329  0.01474781  0.03684907  1
  S2-  S241  1  0.61116258  0.01080299  0.55287078  1
  S2-  S242  1  0.62639305  0.26767857  0.03466899  1
  S2-  S243  1  0.60619272  0.26131628  0.53900144  1
  S2-  S244  1  0.63066065  0.51206902  0.04015729  1
  S2-  S245  1  0.60363505  0.51262684  0.53865945  1
  S2-  S246  1  0.62695430  0.75940253  0.04070689  1
  S2-  S247  1  0.60930419  0.75820801  0.54563530  1
  S2-  S248  1  0.88114128  0.01037478  0.04916449  1
  S2-  S249  1  0.85764471  0.00927518  0.55442352  1
  S2-  S250  1  0.88180913  0.26693864  0.04091212  1
  S2-  S251  1  0.86296152  0.26124887  0.54034474  1
  S2-  S252  1  0.87832975  0.50719122  0.04389817  1
  S2-  S253  1  0.86464800  0.51506525  0.53396996  1
  S2-  S254  1  0.87895541  0.76279905  0.04073306  1
  S2-  S255  1  0.85553385  0.75876729  0.54765010  1
