# generated using pymatgen
data_La12Ce14Pr13Nd13Sm12(BiS2)64
_symmetry_space_group_name_H-M   'P 1'
_cell_length_a   16.13281718
_cell_length_b   16.17809203
_cell_length_c   27.10800893
_cell_angle_alpha   90.08918387
_cell_angle_beta   90.04482333
_cell_angle_gamma   90.00914268
_symmetry_Int_Tables_number   1
_chemical_formula_structural   La12Ce14Pr13Nd13Sm12(BiS2)64
_chemical_formula_sum   'La12 Ce14 Pr13 Nd13 Sm12 Bi64 S128'
_cell_volume   7075.13073742
_cell_formula_units_Z   1
loop_
 _symmetry_equiv_pos_site_id
 _symmetry_equiv_pos_as_xyz
  1  'x, y, z'
loop_
 _atom_type_symbol
 _atom_type_oxidation_number
  La3+  3.0
  Ce3+  3.0
  Pr3+  3.0
  Nd3+  3.0
  Sm3+  3.0
  Bi2+  2.0
  S2-  -2.0
loop_
 _atom_site_type_symbol
 _atom_site_label
 _atom_site_symmetry_multiplicity
 _atom_site_fract_x
 _atom_site_fract_y
 _atom_site_fract_z
 _atom_site_occupancy
  La3+  La0  1  0.13699320  0.72664441  0.90960506  1
  La3+  La1  1  0.01992375  0.60858131  0.07786365  1
  La3+  La2  1  0.85937858  0.51595196  0.40844919  1
  La3+  La3  1  0.26792532  0.10161683  0.07120706  1
  La3+  La4  1  0.75837104  0.10975817  0.06697691  1
  La3+  La5  1  0.01637644  0.35714827  0.08119786  1
  La3+  La6  1  0.73727821  0.63531661  0.59060896  1
  La3+  La7  1  0.12607846  0.75160602  0.42743364  1
  La3+  La8  1  0.37861363  0.01984532  0.42132204  1
  La3+  La9  1  0.37923540  0.22907364  0.91577331  1
  La3+  La10  1  0.74450802  0.36289608  0.10184339  1
  La3+  La11  1  0.48581912  0.12685724  0.58693362  1
  Ce3+  Ce12  1  0.50598062  0.10977935  0.05002398  1
  Ce3+  Ce13  1  0.74607040  0.88594814  0.56978642  1
  Ce3+  Ce14  1  0.25768814  0.85616553  0.05592295  1
  Ce3+  Ce15  1  0.62026441  0.25865047  0.44655164  1
  Ce3+  Ce16  1  0.86257416  0.00702933  0.43875638  1
  Ce3+  Ce17  1  0.76376994  0.86426709  0.06278867  1
  Ce3+  Ce18  1  0.49184350  0.63675294  0.56340356  1
  Ce3+  Ce19  1  0.48993317  0.88788675  0.55595108  1
  Ce3+  Ce20  1  0.63964891  0.73158550  0.94644791  1
  Ce3+  Ce21  1  0.88604636  0.48189884  0.95126445  1
  Ce3+  Ce22  1  0.61723879  0.01198865  0.44997842  1
  Ce3+  Ce23  1  0.24214982  0.38510237  0.55941516  1
  Ce3+  Ce24  1  0.36916622  0.25637137  0.44964060  1
  Ce3+  Ce25  1  0.11535518  0.26079120  0.43668741  1
  Pr3+  Pr26  1  0.13434458  -0.01449879  0.93411583  1
  Pr3+  Pr27  1  0.61616543  0.50873530  0.43709001  1
  Pr3+  Pr28  1  0.63762342  -0.01804035  0.93010502  1
  Pr3+  Pr29  1  0.85499316  0.24971849  0.40627556  1
  Pr3+  Pr30  1  -0.00796778  0.63871889  0.56595735  1
  Pr3+  Pr31  1  0.51646238  0.60618389  0.05895534  1
  Pr3+  Pr32  1  0.11696267  0.01143190  0.43862181  1
  Pr3+  Pr33  1  0.74348000  0.38451060  0.56097295  1
  Pr3+  Pr34  1  0.11449389  0.50627964  0.44271763  1
  Pr3+  Pr35  1  0.77021888  0.61177890  0.07065476  1
  Pr3+  Pr36  1  0.88615247  0.23489969  0.94482549  1
  Pr3+  Pr37  1  0.01606961  0.11135912  0.07528517  1
  Pr3+  Pr38  1  0.37063737  0.50684404  0.43693590  1
  Nd3+  Nd39  1  0.51388631  0.35616539  0.04618906  1
  Nd3+  Nd40  1  0.64589984  0.22578212  0.91606163  1
  Nd3+  Nd41  1  0.62115328  0.75849656  0.44396432  1
  Nd3+  Nd42  1  0.23961111  0.13423794  0.56515152  1
  Nd3+  Nd43  1  -0.01319684  0.38757398  0.55025696  1
  Nd3+  Nd44  1  0.36984702  0.75876962  0.43792979  1
  Nd3+  Nd45  1  0.24342462  0.63636466  0.56477216  1
  Nd3+  Nd46  1  0.37471014  -0.01920446  0.92367756  1
  Nd3+  Nd47  1  0.38512008  0.73019093  0.93472712  1
  Nd3+  Nd48  1  0.63972044  0.48242793  0.93206889  1
  Nd3+  Nd49  1  0.13121546  0.47995464  0.93562359  1
  Nd3+  Nd50  1  0.50977480  0.85902893  0.05068416  1
  Nd3+  Nd51  1  0.86463090  0.75757799  0.43905411  1
  Sm3+  Sm52  1  0.38631632  0.48081604  0.94201856  1
  Sm3+  Sm53  1  0.24085091  0.88720583  0.55179976  1
  Sm3+  Sm54  1  0.26059011  0.60731925  0.05304415  1
  Sm3+  Sm55  1  0.13198235  0.23264579  0.94299157  1
  Sm3+  Sm56  1  0.26185853  0.35679743  0.05689098  1
  Sm3+  Sm57  1  0.88721660  0.72830579  0.93806459  1
  Sm3+  Sm58  1  -0.00722112  0.88443851  0.55106929  1
  Sm3+  Sm59  1  0.88699487  -0.01674561  0.94370525  1
  Sm3+  Sm60  1  0.49465640  0.38569952  0.56704238  1
  Sm3+  Sm61  1  -0.00910299  0.13745723  0.55143110  1
  Sm3+  Sm62  1  0.01675628  0.85630216  0.04692346  1
  Sm3+  Sm63  1  0.74494876  0.13719071  0.56533880  1
  Bi2+  Bi64  1  -0.00162539  0.06026559  0.27696738  1
  Bi2+  Bi65  1  0.02795803  0.16664028  0.81984719  1
  Bi2+  Bi66  1  0.04718502  0.38593015  0.30129282  1
  Bi2+  Bi67  1  0.03812825  0.36410344  0.82896508  1
  Bi2+  Bi68  1  0.01553012  0.65921690  0.28309115  1
  Bi2+  Bi69  1  -0.00843075  0.63491461  0.80019197  1
  Bi2+  Bi70  1  -0.06149446  0.86717466  0.28019534  1
  Bi2+  Bi71  1  -0.02245089  0.99617911  0.77422255  1
  Bi2+  Bi72  1  0.24935026  0.11183157  0.29936796  1
  Bi2+  Bi73  1  0.23577569  0.09167942  0.79491686  1
  Bi2+  Bi74  1  0.29414070  0.37125572  0.29987355  1
  Bi2+  Bi75  1  0.23129708  0.37102868  0.79946761  1
  Bi2+  Bi76  1  0.27568951  0.56805086  0.30435804  1
  Bi2+  Bi77  1  0.22759319  0.62976615  0.77229333  1
  Bi2+  Bi78  1  0.22847389  0.84993565  0.28694237  1
  Bi2+  Bi79  1  0.29872619  0.84238672  0.77329415  1
  Bi2+  Bi80  1  0.50026532  0.14032946  0.29233830  1
  Bi2+  Bi81  1  0.50928688  0.14981994  0.78609379  1
  Bi2+  Bi82  1  0.49777188  0.35749248  0.29221525  1
  Bi2+  Bi83  1  0.50138444  0.41008273  0.79699687  1
  Bi2+  Bi84  1  0.47097740  0.61480624  0.29025614  1
  Bi2+  Bi85  1  0.48235846  0.68444915  0.79489369  1
  Bi2+  Bi86  1  0.50381200  0.83715328  0.28382186  1
  Bi2+  Bi87  1  0.48182278  0.88822832  0.80134427  1
  Bi2+  Bi88  1  0.73084628  0.04126821  0.28867108  1
  Bi2+  Bi89  1  0.77018110  0.10075411  0.78753499  1
  Bi2+  Bi90  1  0.74642906  0.38417839  0.29475592  1
  Bi2+  Bi91  1  0.85010926  0.34995549  0.79271061  1
  Bi2+  Bi92  1  0.74584535  0.69970493  0.28837310  1
  Bi2+  Bi93  1  0.75574661  0.61608137  0.80449786  1
  Bi2+  Bi94  1  0.76455962  0.87377146  0.33968531  1
  Bi2+  Bi95  1  0.73314532  0.86710813  0.78811477  1
  Bi2+  Bi96  1  0.12479610  -0.03281410  0.20022299  1
  Bi2+  Bi97  1  0.12759064  0.01525654  0.70159701  1
  Bi2+  Bi98  1  0.11504232  0.23739773  0.21386698  1
  Bi2+  Bi99  1  0.13180433  0.21396702  0.70992819  1
  Bi2+  Bi100  1  0.14799540  0.48362410  0.20936936  1
  Bi2+  Bi101  1  0.10233199  0.42789569  0.72066964  1
  Bi2+  Bi102  1  0.14134955  0.73160549  0.20912629  1
  Bi2+  Bi103  1  0.09715577  0.77400663  0.69606672  1
  Bi2+  Bi104  1  0.38722516  -0.00387591  0.20274972  1
  Bi2+  Bi105  1  0.35714668  -0.00285491  0.71226686  1
  Bi2+  Bi106  1  0.37910045  0.25969725  0.21387227  1
  Bi2+  Bi107  1  0.31913699  0.27567643  0.71289344  1
  Bi2+  Bi108  1  0.37488361  0.46077600  0.20716899  1
  Bi2+  Bi109  1  0.38493604  0.53675356  0.73584998  1
  Bi2+  Bi110  1  0.35421766  0.73677707  0.23252159  1
  Bi2+  Bi111  1  0.37506525  0.71526912  0.69051431  1
  Bi2+  Bi112  1  0.60552167  -0.03844168  0.21527806  1
  Bi2+  Bi113  1  0.60500372  -0.03289690  0.71955547  1
  Bi2+  Bi114  1  0.58783134  0.23801127  0.21229316  1
  Bi2+  Bi115  1  0.65709523  0.27277921  0.70941956  1
  Bi2+  Bi116  1  0.57554299  0.50487013  0.20496207  1
  Bi2+  Bi117  1  0.62458069  0.50411269  0.70765837  1
  Bi2+  Bi118  1  0.62721050  0.76001731  0.20328858  1
  Bi2+  Bi119  1  0.59133641  0.77210128  0.71793766  1
  Bi2+  Bi120  1  0.87922768  -0.00371851  0.19718039  1
  Bi2+  Bi121  1  0.80016242  -0.02385886  0.69690940  1
  Bi2+  Bi122  1  0.85420644  0.21415455  0.22411062  1
  Bi2+  Bi123  1  0.91685118  0.20943032  0.72154608  1
  Bi2+  Bi124  1  0.87240399  0.53392706  0.21152205  1
  Bi2+  Bi125  1  0.88420472  0.47494835  0.71124689  1
  Bi2+  Bi126  1  0.81934750  0.79626661  0.19416890  1
  Bi2+  Bi127  1  0.87128951  0.79275101  0.71536781  1
  S2-  S128  1  -0.01394442  0.23029509  0.15474566  1
  S2-  S129  1  0.00988756  0.12382238  0.64943273  1
  S2-  S130  1  0.00950279  0.48111243  0.15683186  1
  S2-  S131  1  -0.00871575  0.37794582  0.65023047  1
  S2-  S132  1  -0.10421848  0.65375267  0.14710027  1
  S2-  S133  1  -0.00999314  0.66217711  0.66854793  1
  S2-  S134  1  0.05949412  0.84778997  0.14347510  1
  S2-  S135  1  -0.01536363  0.87476558  0.64947857  1
  S2-  S136  1  0.14926651  0.11492217  0.14874056  1
  S2-  S137  1  0.33610068  0.13322215  0.64916239  1
  S2-  S138  1  0.17801001  0.35189044  0.14492145  1
  S2-  S139  1  0.25340981  0.40138831  0.65722845  1
  S2-  S140  1  0.17608132  0.61382878  0.13900685  1
  S2-  S141  1  0.21047191  0.65311611  0.66252361  1
  S2-  S142  1  0.27018489  0.94390169  0.14168795  1
  S2-  S143  1  0.21331715  0.89297220  0.65027938  1
  S2-  S144  1  0.41143192  0.11716256  0.13591206  1
  S2-  S145  1  0.55119632  0.16275130  0.68214782  1
  S2-  S146  1  0.57503282  0.36268303  0.14076943  1
  S2-  S147  1  0.52250836  0.38836238  0.66555631  1
  S2-  S148  1  0.51647247  0.64221491  0.15751913  1
  S2-  S149  1  0.58205749  0.62370032  0.64742740  1
  S2-  S150  1  0.48834088  0.89174053  0.14852244  1
  S2-  S151  1  0.47238214  0.96034754  0.64441368  1
  S2-  S152  1  0.73094840  0.20368892  0.15251181  1
  S2-  S153  1  0.76726941  0.18477786  0.66038037  1
  S2-  S154  1  0.82549418  0.36575103  0.19682185  1
  S2-  S155  1  0.74795020  0.40204111  0.66215156  1
  S2-  S156  1  0.72505148  0.52444390  0.15533623  1
  S2-  S157  1  0.77771282  0.59465920  0.69561526  1
  S2-  S158  1  0.73771450  0.97677680  0.13741080  1
  S2-  S159  1  0.74838162  0.78373581  0.64886919  1
  S2-  S160  1  0.12693380  0.01839650  0.33816199  1
  S2-  S161  1  0.22709054  -0.04224526  0.85004874  1
  S2-  S162  1  0.15753266  0.25273706  0.34010241  1
  S2-  S163  1  0.22368575  0.23401357  0.85954121  1
  S2-  S164  1  0.11134481  0.55004497  0.34490128  1
  S2-  S165  1  0.12767895  0.57581423  0.85019743  1
  S2-  S166  1  0.07078046  0.78994335  0.33438112  1
  S2-  S167  1  0.07573026  0.76864882  0.81018893  1
  S2-  S168  1  0.33266668  -0.02831395  0.32384143  1
  S2-  S169  1  0.39197634  0.08978593  0.84620341  1
  S2-  S170  1  0.37331205  0.17296523  0.36316576  1
  S2-  S171  1  0.40458249  0.28153833  0.81234611  1
  S2-  S172  1  0.48846451  0.49446935  0.36143511  1
  S2-  S173  1  0.37159583  0.49649992  0.84425156  1
  S2-  S174  1  0.27376003  0.72986584  0.35702881  1
  S2-  S175  1  0.28888047  0.72462279  0.85056637  1
  S2-  S176  1  0.54388792  0.03057658  0.36225079  1
  S2-  S177  1  0.63448425  0.08313858  0.84790694  1
  S2-  S178  1  0.69823050  0.26529533  0.35656271  1
  S2-  S179  1  0.60483810  0.28198215  0.81877057  1
  S2-  S180  1  0.70954362  0.50887597  0.34970292  1
  S2-  S181  1  0.65053290  0.49422430  0.83065098  1
  S2-  S182  1  0.57520364  0.72679362  0.34806014  1
  S2-  S183  1  0.63516502  0.70544418  0.85039742  1
  S2-  S184  1  0.85267881  0.09058280  0.35319103  1
  S2-  S185  1  0.85549951  -0.02227304  0.84618450  1
  S2-  S186  1  0.93658143  0.26824118  0.31406287  1
  S2-  S187  1  0.79916758  0.22481444  0.85566650  1
  S2-  S188  1  0.90541567  0.46581535  0.31047881  1
  S2-  S189  1  0.88006086  0.52554719  0.85411474  1
  S2-  S190  1  0.87876270  0.66641635  0.35226289  1
  S2-  S191  1  0.86607315  0.73909888  0.83923589  1
  S2-  S192  1  -0.01030889  0.13746859  0.44680275  1
  S2-  S193  1  0.00970510  0.10779244  0.95914155  1
  S2-  S194  1  -0.01642562  0.38340710  0.44268618  1
  S2-  S195  1  0.01204349  0.35693842  0.96315279  1
  S2-  S196  1  -0.00777817  0.63275242  0.45681594  1
  S2-  S197  1  0.00959846  0.60910501  0.95843564  1
  S2-  S198  1  -0.00768180  0.88340998  0.44579966  1
  S2-  S199  1  0.00997766  0.85643137  0.94117800  1
  S2-  S200  1  0.23906910  0.13628798  0.45851682  1
  S2-  S201  1  0.25762121  0.10648960  0.95691136  1
  S2-  S202  1  0.24417698  0.38382368  0.45162646  1
  S2-  S203  1  0.25998279  0.36208723  0.95303734  1
  S2-  S204  1  0.24578096  0.62665279  0.45922781  1
  S2-  S205  1  0.26290233  0.60235278  0.95107911  1
  S2-  S206  1  0.24556755  0.88812601  0.44703428  1
  S2-  S207  1  0.25831179  0.85255343  0.95145207  1
  S2-  S208  1  0.49673742  0.13800855  0.47052514  1
  S2-  S209  1  0.50996785  0.10810557  0.94673647  1
  S2-  S210  1  0.49357123  0.37912697  0.46138696  1
  S2-  S211  1  0.51113014  0.35819773  0.94004769  1
  S2-  S212  1  0.49089488  0.63618026  0.45794150  1
  S2-  S213  1  0.50995283  0.60576467  0.95071331  1
  S2-  S214  1  0.49294021  0.88266123  0.45062513  1
  S2-  S215  1  0.50986418  0.85598791  0.94387026  1
  S2-  S216  1  0.74251266  0.13375083  0.46001438  1
  S2-  S217  1  0.76399357  0.10193151  0.95753841  1
  S2-  S218  1  0.74882870  0.38415766  0.45507359  1
  S2-  S219  1  0.75902295  0.35994506  0.94732555  1
  S2-  S220  1  0.74236108  0.63476919  0.45883398  1
  S2-  S221  1  0.76290134  0.60917894  0.95971389  1
  S2-  S222  1  0.74071356  0.88530726  0.46299065  1
  S2-  S223  1  0.76432625  0.85845142  0.95343369  1
  S2-  S224  1  0.13413863  -0.01702280  0.04049907  1
  S2-  S225  1  0.11503922  0.01076216  0.54529057  1
  S2-  S226  1  0.14095000  0.23193863  0.04458350  1
  S2-  S227  1  0.11564556  0.26088927  0.54594777  1
  S2-  S228  1  0.14120838  0.48173595  0.04119388  1
  S2-  S229  1  0.11697832  0.51126222  0.55115876  1
  S2-  S230  1  0.13834659  0.73203715  0.03495281  1
  S2-  S231  1  0.11920515  0.76153984  0.54071470  1
  S2-  S232  1  0.38674953  -0.02113552  0.03156084  1
  S2-  S233  1  0.36135695  0.00925807  0.53883834  1
  S2-  S234  1  0.38439296  0.23907027  0.03459636  1
  S2-  S235  1  0.36867036  0.26311069  0.55451469  1
  S2-  S236  1  0.38558528  0.48282157  0.04864903  1
  S2-  S237  1  0.36965623  0.50975524  0.55024922  1
  S2-  S238  1  0.38612063  0.73039736  0.04412259  1
  S2-  S239  1  0.36421532  0.76303832  0.54518643  1
  S2-  S240  1  0.62923325  -0.01663823  0.03684342  1
  S2-  S241  1  0.62252680  0.01201086  0.55698005  1
  S2-  S242  1  0.63232148  0.23159334  0.03586797  1
  S2-  S243  1  0.61676070  0.25825791  0.55501035  1
  S2-  S244  1  0.63772966  0.48304729  0.03981689  1
  S2-  S245  1  0.61637821  0.50790734  0.54660058  1
  S2-  S246  1  0.63964508  0.73642241  0.05260810  1
  S2-  S247  1  0.61428149  0.76369844  0.54998094  1
  S2-  S248  1  0.89583859  -0.01717387  0.04793209  1
  S2-  S249  1  0.86991991  0.01197022  0.54774110  1
  S2-  S250  1  0.88304637  0.23458353  0.05078640  1
  S2-  S251  1  0.86892192  0.25786194  0.54820082  1
  S2-  S252  1  0.88123812  0.47562050  0.05568288  1
  S2-  S253  1  0.86590245  0.51531799  0.55792926  1
  S2-  S254  1  0.88962593  0.74116697  0.04197108  1
  S2-  S255  1  0.86903840  0.76120247  0.54615375  1
