# generated using pymatgen
data_La12Ce14Pr13Nd13Sm12(BiS2)64
_symmetry_space_group_name_H-M   'P 1'
_cell_length_a   16.21964164
_cell_length_b   16.20167508
_cell_length_c   27.11758970
_cell_angle_alpha   89.98448738
_cell_angle_beta   90.03251757
_cell_angle_gamma   89.97463445
_symmetry_Int_Tables_number   1
_chemical_formula_structural   La12Ce14Pr13Nd13Sm12(BiS2)64
_chemical_formula_sum   'La12 Ce14 Pr13 Nd13 Sm12 Bi64 S128'
_cell_volume   7126.10356932
_cell_formula_units_Z   1
loop_
 _symmetry_equiv_pos_site_id
 _symmetry_equiv_pos_as_xyz
  1  'x, y, z'
loop_
 _atom_type_symbol
 _atom_type_oxidation_number
  La3+  3.0
  Ce3+  3.0
  Pr3+  3.0
  Nd3+  3.0
  Sm3+  3.0
  Bi2+  2.0
  S2-  -2.0
loop_
 _atom_site_type_symbol
 _atom_site_label
 _atom_site_symmetry_multiplicity
 _atom_site_fract_x
 _atom_site_fract_y
 _atom_site_fract_z
 _atom_site_occupancy
  La3+  La0  1  -0.00747759  0.89023949  0.09500824  1
  La3+  La1  1  0.88231424  0.76114114  0.42360455  1
  La3+  La2  1  0.49684746  0.13576709  0.07542672  1
  La3+  La3  1  0.25491834  0.88338027  0.09940154  1
  La3+  La4  1  0.25705767  0.12788501  0.55693664  1
  La3+  La5  1  0.49822517  0.38983986  0.08435551  1
  La3+  La6  1  0.24653430  0.62801690  0.06472634  1
  La3+  La7  1  0.39082777  0.00677206  0.42225059  1
  La3+  La8  1  0.86928802  0.00509038  0.93533615  1
  La3+  La9  1  0.25906530  0.38061495  0.57100848  1
  La3+  La10  1  0.36164060  0.50710357  0.91811269  1
  La3+  La11  1  0.51767209  0.36867642  0.58629793  1
  Ce3+  Ce12  1  0.13366916  0.25675076  0.44553959  1
  Ce3+  Ce13  1  0.12022500  0.50468566  0.94374185  1
  Ce3+  Ce14  1  0.24206080  0.13036144  0.06764305  1
  Ce3+  Ce15  1  0.75894014  0.88257151  0.55936841  1
  Ce3+  Ce16  1  0.00486916  0.12405714  0.55490403  1
  Ce3+  Ce17  1  0.88583733  0.00112069  0.43346731  1
  Ce3+  Ce18  1  0.61773471  0.00688011  0.94665486  1
  Ce3+  Ce19  1  0.61927159  0.75757619  0.93755694  1
  Ce3+  Ce20  1  0.62892341  0.75632647  0.45199107  1
  Ce3+  Ce21  1  0.50902592  0.13227338  0.55125937  1
  Ce3+  Ce22  1  0.75219309  0.38384068  0.06104202  1
  Ce3+  Ce23  1  0.75626460  0.63019669  0.55404082  1
  Ce3+  Ce24  1  0.61634393  0.26123488  0.93934530  1
  Ce3+  Ce25  1  0.24761055  0.37737624  0.06218672  1
  Pr3+  Pr26  1  0.74631621  0.87887570  0.06530730  1
  Pr3+  Pr27  1  0.50397930  0.88252116  0.57101300  1
  Pr3+  Pr28  1  0.36923124  0.75959154  0.94062672  1
  Pr3+  Pr29  1  0.00138748  0.86880673  0.57600482  1
  Pr3+  Pr30  1  0.88525774  0.50728306  0.43763283  1
  Pr3+  Pr31  1  0.88614599  0.25633492  0.43298490  1
  Pr3+  Pr32  1  0.50715201  0.63398288  0.57940164  1
  Pr3+  Pr33  1  0.76122365  0.37769035  0.56622170  1
  Pr3+  Pr34  1  0.11958528  0.00639146  0.94494879  1
  Pr3+  Pr35  1  0.25742810  0.63051940  0.55971809  1
  Pr3+  Pr36  1  0.49843642  0.87762883  0.06381947  1
  Pr3+  Pr37  1  0.00456422  0.63105589  0.56094587  1
  Pr3+  Pr38  1  0.62968560  0.50429216  0.44302971  1
  Nd3+  Nd39  1  0.38815825  0.75428188  0.43794060  1
  Nd3+  Nd40  1  0.13442173  0.75460972  0.43635768  1
  Nd3+  Nd41  1  -0.00378458  0.13119182  0.06255117  1
  Nd3+  Nd42  1  0.00222243  0.37817121  0.56809933  1
  Nd3+  Nd43  1  0.12009507  0.76167977  0.95409521  1
  Nd3+  Nd44  1  0.13340283  0.00243433  0.43560571  1
  Nd3+  Nd45  1  -0.00478451  0.63164325  0.05831932  1
  Nd3+  Nd46  1  0.38621782  0.26716192  0.43504210  1
  Nd3+  Nd47  1  0.63993260  0.26434915  0.42305006  1
  Nd3+  Nd48  1  0.36786301  0.25450666  0.93892578  1
  Nd3+  Nd49  1  0.87209261  0.50474926  0.92959556  1
  Nd3+  Nd50  1  0.38530408  0.50247930  0.45115007  1
  Nd3+  Nd51  1  0.87158750  0.75679248  0.94002203  1
  Sm3+  Sm52  1  0.25918284  0.88031478  0.55191540  1
  Sm3+  Sm53  1  -0.00769918  0.38028573  0.06123383  1
  Sm3+  Sm54  1  0.11953373  0.25630587  0.93994738  1
  Sm3+  Sm55  1  0.86934525  0.25846807  0.94280180  1
  Sm3+  Sm56  1  0.74817864  0.62907492  0.04716687  1
  Sm3+  Sm57  1  0.36821023  0.00811517  0.94953951  1
  Sm3+  Sm58  1  0.63006840  0.00684600  0.44022440  1
  Sm3+  Sm59  1  0.49574058  0.62662858  0.05148766  1
  Sm3+  Sm60  1  0.13351163  0.50526922  0.44884312  1
  Sm3+  Sm61  1  0.61781228  0.50371215  0.93392354  1
  Sm3+  Sm62  1  0.74579871  0.13264171  0.05256558  1
  Sm3+  Sm63  1  0.75944566  0.12933818  0.54734532  1
  Bi2+  Bi64  1  -0.04498630  0.13321309  0.29646718  1
  Bi2+  Bi65  1  -0.01897520  0.13317793  0.79675962  1
  Bi2+  Bi66  1  0.00751825  0.32298031  0.29829255  1
  Bi2+  Bi67  1  -0.01261938  0.44210012  0.80456747  1
  Bi2+  Bi68  1  0.00032829  0.56114359  0.29057915  1
  Bi2+  Bi69  1  -0.02061293  0.63572732  0.80658622  1
  Bi2+  Bi70  1  -0.00385162  0.85130815  0.29542363  1
  Bi2+  Bi71  1  0.00203427  0.89092638  0.81511430  1
  Bi2+  Bi72  1  0.20286580  0.20228164  0.24952319  1
  Bi2+  Bi73  1  0.29159216  0.08678333  0.76380028  1
  Bi2+  Bi74  1  0.25886165  0.38509802  0.29096851  1
  Bi2+  Bi75  1  0.24472532  0.35853052  0.80553135  1
  Bi2+  Bi76  1  0.24759730  0.57987965  0.27379327  1
  Bi2+  Bi77  1  0.16192811  0.60889644  0.77316873  1
  Bi2+  Bi78  1  0.23405548  0.87430897  0.30219545  1
  Bi2+  Bi79  1  0.33358865  0.88682035  0.81412024  1
  Bi2+  Bi80  1  0.47948017  0.10133575  0.29113543  1
  Bi2+  Bi81  1  0.50873355  0.08242549  0.74228903  1
  Bi2+  Bi82  1  0.49933112  0.34126645  0.30329845  1
  Bi2+  Bi83  1  0.51064302  0.38104754  0.79721840  1
  Bi2+  Bi84  1  0.53093975  0.60947231  0.29494413  1
  Bi2+  Bi85  1  0.49521163  0.64101992  0.79859815  1
  Bi2+  Bi86  1  0.48590199  0.84824498  0.29673088  1
  Bi2+  Bi87  1  0.52494526  0.89937358  0.79705225  1
  Bi2+  Bi88  1  0.75906593  0.14108751  0.28703991  1
  Bi2+  Bi89  1  0.71883988  0.08501826  0.73961467  1
  Bi2+  Bi90  1  0.74816306  0.40019997  0.28380929  1
  Bi2+  Bi91  1  0.76802400  0.32846182  0.78416004  1
  Bi2+  Bi92  1  0.72839078  0.61616314  0.28764114  1
  Bi2+  Bi93  1  0.79174029  0.61660305  0.77223522  1
  Bi2+  Bi94  1  0.72166138  0.81611110  0.28851517  1
  Bi2+  Bi95  1  0.76006124  0.90459160  0.78643556  1
  Bi2+  Bi96  1  0.09354040  0.04606990  0.22377813  1
  Bi2+  Bi97  1  0.11462869  0.04554791  0.72586343  1
  Bi2+  Bi98  1  0.10824985  0.27725741  0.15675472  1
  Bi2+  Bi99  1  0.06852527  0.28867081  0.74854969  1
  Bi2+  Bi100  1  0.11461625  0.44669762  0.21992375  1
  Bi2+  Bi101  1  0.10348317  0.46339379  0.70137643  1
  Bi2+  Bi102  1  0.13024169  0.71347014  0.20605266  1
  Bi2+  Bi103  1  0.18315286  0.80266097  0.75928034  1
  Bi2+  Bi104  1  0.34734858  -0.01694189  0.21832265  1
  Bi2+  Bi105  1  0.39183092  -0.04477357  0.68822929  1
  Bi2+  Bi106  1  0.36648210  0.22790687  0.19360542  1
  Bi2+  Bi107  1  0.36929207  0.24093153  0.70237345  1
  Bi2+  Bi108  1  0.38746240  0.50560988  0.21290323  1
  Bi2+  Bi109  1  0.35466216  0.50149490  0.71007284  1
  Bi2+  Bi110  1  0.48050077  0.72668539  0.20698398  1
  Bi2+  Bi111  1  0.34986567  0.74811062  0.70638044  1
  Bi2+  Bi112  1  0.65324077  -0.02086577  0.23983129  1
  Bi2+  Bi113  1  0.61781504  -0.05225379  0.67962826  1
  Bi2+  Bi114  1  0.66243513  0.24909891  0.20871809  1
  Bi2+  Bi115  1  0.63466932  0.25273814  0.71270832  1
  Bi2+  Bi116  1  0.62509175  0.50864829  0.21359444  1
  Bi2+  Bi117  1  0.65224363  0.52545723  0.71183385  1
  Bi2+  Bi118  1  0.64217736  0.81408524  0.17792135  1
  Bi2+  Bi119  1  0.64262442  0.77848314  0.73456151  1
  Bi2+  Bi120  1  0.83678178  0.01514663  0.20842839  1
  Bi2+  Bi121  1  0.90709195  0.01033979  0.68584056  1
  Bi2+  Bi122  1  0.92665955  0.25791565  0.20463439  1
  Bi2+  Bi123  1  0.88926519  0.25282368  0.70468774  1
  Bi2+  Bi124  1  0.88585734  0.51934619  0.19857059  1
  Bi2+  Bi125  1  0.92806287  0.54233857  0.69379120  1
  Bi2+  Bi126  1  0.83124756  0.72440422  0.20955769  1
  Bi2+  Bi127  1  0.91223095  0.74220009  0.71214848  1
  S2-  S128  1  -0.01528976  0.04669773  0.15080376  1
  S2-  S129  1  0.01988823  0.13753111  0.65281414  1
  S2-  S130  1  -0.12323573  0.38627795  0.13645071  1
  S2-  S131  1  -0.11608976  0.38284231  0.64219402  1
  S2-  S132  1  -0.00148042  0.62811725  0.15760569  1
  S2-  S133  1  0.02448686  0.72486356  0.64398370  1
  S2-  S134  1  0.04972218  0.85112833  0.19162900  1
  S2-  S135  1  0.04609863  0.92939281  0.67083602  1
  S2-  S136  1  0.22644343  0.03563651  0.15231192  1
  S2-  S137  1  0.27055884  0.12059091  0.65686644  1
  S2-  S138  1  0.34271793  0.38320618  0.14501220  1
  S2-  S139  1  0.25544081  0.35847964  0.67136043  1
  S2-  S140  1  0.25840800  0.60717882  0.16488478  1
  S2-  S141  1  0.25813912  0.61577010  0.65977286  1
  S2-  S142  1  0.24578699  0.82390738  0.19928886  1
  S2-  S143  1  0.25841461  0.86817417  0.65099143  1
  S2-  S144  1  0.45780882  0.07712614  0.17576653  1
  S2-  S145  1  0.51628796  0.20190459  0.64003848  1
  S2-  S146  1  0.51272153  0.25735125  0.15142332  1
  S2-  S147  1  0.45776025  0.38096651  0.68767112  1
  S2-  S148  1  0.49987193  0.54350043  0.13805734  1
  S2-  S149  1  0.50252002  0.57045371  0.67606946  1
  S2-  S150  1  0.41575636  0.86928263  0.15111505  1
  S2-  S151  1  0.47887173  0.76882293  0.64824857  1
  S2-  S152  1  0.73080570  0.13064404  0.15130961  1
  S2-  S153  1  0.78988442  0.13326453  0.64509803  1
  S2-  S154  1  0.65996078  0.38557282  0.14422463  1
  S2-  S155  1  0.66036437  0.38196014  0.64888645  1
  S2-  S156  1  0.75840615  0.60920922  0.14521582  1
  S2-  S157  1  0.73528143  0.62319014  0.65140886  1
  S2-  S158  1  0.84506464  0.87009006  0.14915885  1
  S2-  S159  1  0.84718893  0.86735362  0.64251153  1
  S2-  S160  1  0.10588377  -0.02334173  0.33693957  1
  S2-  S161  1  0.09977690  0.00993452  0.84361442  1
  S2-  S162  1  0.15364535  0.27369037  0.34832188  1
  S2-  S163  1  0.15734362  0.24119328  0.84459887  1
  S2-  S164  1  0.13600965  0.52962382  0.35188155  1
  S2-  S165  1  0.20343709  0.50879447  0.85769609  1
  S2-  S166  1  0.13284948  0.76213318  0.33614785  1
  S2-  S167  1  0.11480984  0.78250446  0.85437300  1
  S2-  S168  1  0.32944483  0.01423343  0.32598932  1
  S2-  S169  1  0.36491700  0.04637692  0.85333464  1
  S2-  S170  1  0.39147460  0.21892513  0.33781438  1
  S2-  S171  1  0.37982536  0.28748015  0.83961817  1
  S2-  S172  1  0.38731361  0.42349500  0.36233313  1
  S2-  S173  1  0.39625779  0.50331917  0.81539546  1
  S2-  S174  1  0.35864604  0.77116483  0.33969856  1
  S2-  S175  1  0.37017093  0.71149316  0.84333646  1
  S2-  S176  1  0.53853711  -0.01631355  0.35868061  1
  S2-  S177  1  0.64051081  -0.01033590  0.85024817  1
  S2-  S178  1  0.59419835  0.19796209  0.32904112  1
  S2-  S179  1  0.62365981  0.27487201  0.84031186  1
  S2-  S180  1  0.61475838  0.40657294  0.35929494  1
  S2-  S181  1  0.59589028  0.51093173  0.83515703  1
  S2-  S182  1  0.58775250  0.75195321  0.35770531  1
  S2-  S183  1  0.61302396  0.74427628  0.84013261  1
  S2-  S184  1  0.87782545  -0.09341932  0.35144575  1
  S2-  S185  1  0.87852343  0.01311969  0.83446619  1
  S2-  S186  1  0.78381737  0.27708731  0.35333001  1
  S2-  S187  1  0.87958609  0.24122778  0.84508422  1
  S2-  S188  1  0.86325474  0.48423319  0.33870241  1
  S2-  S189  1  0.81625245  0.47270577  0.83657152  1
  S2-  S190  1  0.93629836  0.70385798  0.33232427  1
  S2-  S191  1  0.85541292  0.80141094  0.84457759  1
  S2-  S192  1  0.00996357  0.12871194  0.44670916  1
  S2-  S193  1  -0.00555170  0.13478150  0.95388281  1
  S2-  S194  1  0.00930047  0.38243762  0.45753841  1
  S2-  S195  1  -0.00477939  0.37886705  0.95326345  1
  S2-  S196  1  0.01140813  0.63052540  0.45325311  1
  S2-  S197  1  -0.00295776  0.63202995  0.95078874  1
  S2-  S198  1  0.01134456  0.87772719  0.45447860  1
  S2-  S199  1  -0.00721175  0.88165898  0.95678346  1
  S2-  S200  1  0.25913560  0.13084294  0.44780941  1
  S2-  S201  1  0.24296063  0.13240835  0.95839282  1
  S2-  S202  1  0.25511394  0.38266122  0.46215678  1
  S2-  S203  1  0.24347393  0.37709168  0.95508436  1
  S2-  S204  1  0.26033776  0.62759075  0.45199620  1
  S2-  S205  1  0.24204128  0.63568457  0.95588443  1
  S2-  S206  1  0.26097628  0.88016852  0.44670380  1
  S2-  S207  1  0.24653937  0.88432272  0.95699743  1
  S2-  S208  1  0.51017854  0.13714594  0.44803610  1
  S2-  S209  1  0.49393985  0.13184787  0.95803564  1
  S2-  S210  1  0.50933204  0.37954046  0.46808618  1
  S2-  S211  1  0.49184777  0.38548671  0.94716882  1
  S2-  S212  1  0.50590297  0.62878684  0.46296518  1
  S2-  S213  1  0.49508356  0.62857140  0.94749169  1
  S2-  S214  1  0.50574551  0.87984835  0.46275228  1
  S2-  S215  1  0.49290728  0.88386559  0.95507568  1
  S2-  S216  1  0.75842832  0.12452641  0.44254972  1
  S2-  S217  1  0.74463652  0.13486617  0.94702784  1
  S2-  S218  1  0.76121101  0.38478414  0.45890440  1
  S2-  S219  1  0.74680399  0.38283233  0.95113470  1
  S2-  S220  1  0.75595234  0.63018864  0.44515077  1
  S2-  S221  1  0.74635581  0.62959184  0.94125140  1
  S2-  S222  1  0.75085852  0.88204415  0.45174224  1
  S2-  S223  1  0.74409996  0.87941709  0.95694276  1
  S2-  S224  1  0.11855970  0.00195080  0.05095665  1
  S2-  S225  1  0.13202351  -0.00062595  0.54458779  1
  S2-  S226  1  0.11808726  0.25668082  0.04348186  1
  S2-  S227  1  0.12876567  0.25636750  0.55356146  1
  S2-  S228  1  0.11759963  0.50229266  0.05208060  1
  S2-  S229  1  0.12824701  0.50386285  0.55457796  1
  S2-  S230  1  0.12237325  0.76225507  0.06135781  1
  S2-  S231  1  0.13688960  0.75688240  0.54316264  1
  S2-  S232  1  0.37173976  0.00659188  0.05273129  1
  S2-  S233  1  0.38299986  0.00487909  0.54049577  1
  S2-  S234  1  0.36856156  0.25334641  0.04575449  1
  S2-  S235  1  0.38041783  0.25612621  0.54518393  1
  S2-  S236  1  0.36916850  0.50717336  0.03590230  1
  S2-  S237  1  0.38585224  0.50424912  0.55806983  1
  S2-  S238  1  0.37200034  0.75182000  0.04928428  1
  S2-  S239  1  0.37847372  0.75519196  0.54450539  1
  S2-  S240  1  0.62137083  0.00679500  0.05458119  1
  S2-  S241  1  0.63295228  0.00807226  0.54472566  1
  S2-  S242  1  0.62486496  0.25751514  0.04329048  1
  S2-  S243  1  0.64051484  0.25060554  0.53818246  1
  S2-  S244  1  0.62454877  0.50869693  0.03791940  1
  S2-  S245  1  0.62968294  0.50843704  0.54966024  1
  S2-  S246  1  0.62076575  0.74895950  0.04464749  1
  S2-  S247  1  0.63342188  0.75831461  0.55642087  1
  S2-  S248  1  0.86828515  0.00894747  0.04436960  1
  S2-  S249  1  0.88265114  0.00283399  0.53992263  1
  S2-  S250  1  0.87182403  0.25120935  0.04604539  1
  S2-  S251  1  0.88443118  0.25068613  0.53952743  1
  S2-  S252  1  0.87462708  0.50997211  0.03664320  1
  S2-  S253  1  0.88281194  0.50765887  0.54377826  1
  S2-  S254  1  0.87222503  0.75342757  0.04645406  1
  S2-  S255  1  0.87951696  0.75221921  0.53579660  1
