# generated using pymatgen
data_La12Ce14Pr13Nd13Sm12(BiS2)64
_symmetry_space_group_name_H-M   'P 1'
_cell_length_a   16.14955138
_cell_length_b   16.10588158
_cell_length_c   27.32196530
_cell_angle_alpha   89.89984592
_cell_angle_beta   90.29526452
_cell_angle_gamma   90.08601138
_symmetry_Int_Tables_number   1
_chemical_formula_structural   La12Ce14Pr13Nd13Sm12(BiS2)64
_chemical_formula_sum   'La12 Ce14 Pr13 Nd13 Sm12 Bi64 S128'
_cell_volume   7106.40550496
_cell_formula_units_Z   1
loop_
 _symmetry_equiv_pos_site_id
 _symmetry_equiv_pos_as_xyz
  1  'x, y, z'
loop_
 _atom_type_symbol
 _atom_type_oxidation_number
  La3+  3.0
  Ce3+  3.0
  Pr3+  3.0
  Nd3+  3.0
  Sm3+  3.0
  Bi2+  2.0
  S2-  -2.0
loop_
 _atom_site_type_symbol
 _atom_site_label
 _atom_site_symmetry_multiplicity
 _atom_site_fract_x
 _atom_site_fract_y
 _atom_site_fract_z
 _atom_site_occupancy
  La3+  La0  1  0.00439327  0.12241438  0.07145650  1
  La3+  La1  1  0.38249981  0.23791536  0.42691179  1
  La3+  La2  1  -0.00107478  0.12910873  0.58886812  1
  La3+  La3  1  0.00130989  0.86576769  0.59139863  1
  La3+  La4  1  0.50690327  0.61987617  0.10972012  1
  La3+  La5  1  0.26381437  0.36623954  0.56568687  1
  La3+  La6  1  0.36940558  0.74749266  0.93909916  1
  La3+  La7  1  0.86079681  0.75057021  0.89082774  1
  La3+  La8  1  0.23738495  0.86412182  0.08245651  1
  La3+  La9  1  0.12612237  0.75274210  0.43276771  1
  La3+  La10  1  0.63674325  0.49757824  0.42074073  1
  La3+  La11  1  0.26061687  0.86456131  0.56865398  1
  Ce3+  Ce12  1  0.87156442  0.00263967  0.93329333  1
  Ce3+  Ce13  1  0.36976302  -0.00256328  0.94996261  1
  Ce3+  Ce14  1  0.01110763  0.36994036  0.56019024  1
  Ce3+  Ce15  1  0.74416285  0.62170940  0.06083805  1
  Ce3+  Ce16  1  0.74638269  0.37395745  0.05335033  1
  Ce3+  Ce17  1  0.88636381  0.74359775  0.44576992  1
  Ce3+  Ce18  1  0.37915968  -0.00928379  0.43289366  1
  Ce3+  Ce19  1  0.49966726  0.61100397  0.54882750  1
  Ce3+  Ce20  1  0.88146843  0.23992946  0.44593983  1
  Ce3+  Ce21  1  0.75557336  0.11707076  0.56245937  1
  Ce3+  Ce22  1  0.11889150  0.74877256  0.93183402  1
  Ce3+  Ce23  1  0.87050702  0.24446671  0.93648655  1
  Ce3+  Ce24  1  0.86774499  0.50150815  0.93526683  1
  Ce3+  Ce25  1  0.50474872  0.36808670  0.55150564  1
  Pr3+  Pr26  1  0.37102238  0.49753338  0.94530286  1
  Pr3+  Pr27  1  0.37457541  0.74561507  0.42173536  1
  Pr3+  Pr28  1  0.12103696  -0.00405747  0.93135046  1
  Pr3+  Pr29  1  0.49035353  0.37315722  0.07663675  1
  Pr3+  Pr30  1  0.49570458  0.12310931  0.07368672  1
  Pr3+  Pr31  1  0.75533145  0.61322511  0.56414539  1
  Pr3+  Pr32  1  0.01160780  0.61722334  0.56546453  1
  Pr3+  Pr33  1  -0.00532627  0.87172941  0.05042185  1
  Pr3+  Pr34  1  0.38222210  0.48962175  0.40785149  1
  Pr3+  Pr35  1  0.13298282  0.48997151  0.43588739  1
  Pr3+  Pr36  1  0.62166409  0.74837346  0.93852428  1
  Pr3+  Pr37  1  0.26148791  0.61807530  0.55887292  1
  Pr3+  Pr38  1  0.23504899  0.37295724  0.06815316  1
  Nd3+  Nd39  1  0.12571280  -0.00267432  0.45361467  1
  Nd3+  Nd40  1  0.24549031  0.62381047  0.05954435  1
  Nd3+  Nd41  1  0.49612067  0.87065639  0.06480826  1
  Nd3+  Nd42  1  0.74676361  0.87165106  0.05639661  1
  Nd3+  Nd43  1  0.50566984  0.86237021  0.56060991  1
  Nd3+  Nd44  1  0.12986867  0.23912204  0.44752341  1
  Nd3+  Nd45  1  0.61921113  -0.00183108  0.94319530  1
  Nd3+  Nd46  1  0.61733623  0.24819903  0.94482349  1
  Nd3+  Nd47  1  0.11921314  0.49949491  0.93382571  1
  Nd3+  Nd48  1  0.26792972  0.11437596  0.57084839  1
  Nd3+  Nd49  1  0.88262124  -0.00854013  0.45121260  1
  Nd3+  Nd50  1  0.12110913  0.24939293  0.92987426  1
  Nd3+  Nd51  1  0.75393294  0.85747467  0.57291487  1
  Sm3+  Sm52  1  0.24421972  0.12111236  0.05249732  1
  Sm3+  Sm53  1  0.63420243  -0.01255453  0.44952549  1
  Sm3+  Sm54  1  0.74941243  0.12342179  0.05713922  1
  Sm3+  Sm55  1  0.63328528  0.74082650  0.43926464  1
  Sm3+  Sm56  1  0.75356285  0.37102582  0.56193601  1
  Sm3+  Sm57  1  0.88015835  0.49125307  0.43794730  1
  Sm3+  Sm58  1  -0.00252856  0.37450372  0.05056893  1
  Sm3+  Sm59  1  0.50837019  0.11500096  0.55635021  1
  Sm3+  Sm60  1  0.37074468  0.25029621  0.94713324  1
  Sm3+  Sm61  1  -0.00518260  0.62501245  0.04926792  1
  Sm3+  Sm62  1  0.63243338  0.24100489  0.44382486  1
  Sm3+  Sm63  1  0.61983018  0.49977722  0.94352642  1
  Bi2+  Bi64  1  -0.00620023  0.14461534  0.29459178  1
  Bi2+  Bi65  1  -0.06338942  0.16380308  0.76743440  1
  Bi2+  Bi66  1  -0.00980513  0.44092939  0.31437769  1
  Bi2+  Bi67  1  -0.00288473  0.34901095  0.79388884  1
  Bi2+  Bi68  1  0.02708890  0.63332703  0.29449392  1
  Bi2+  Bi69  1  0.00527036  0.56895538  0.78683802  1
  Bi2+  Bi70  1  0.00343144  0.89619070  0.30101718  1
  Bi2+  Bi71  1  -0.01978902  0.91748675  0.79117357  1
  Bi2+  Bi72  1  0.24981816  0.14309661  0.28887932  1
  Bi2+  Bi73  1  0.36828297  0.12196061  0.78487240  1
  Bi2+  Bi74  1  0.15310625  0.33853014  0.31514238  1
  Bi2+  Bi75  1  0.26070919  0.37610628  0.80967286  1
  Bi2+  Bi76  1  0.22702249  0.61918177  0.28168696  1
  Bi2+  Bi77  1  0.27775103  0.62483526  0.79630358  1
  Bi2+  Bi78  1  0.26129371  0.88351197  0.29591922  1
  Bi2+  Bi79  1  0.25852644  0.87605861  0.81065202  1
  Bi2+  Bi80  1  0.52289355  0.09018135  0.28368383  1
  Bi2+  Bi81  1  0.56233155  0.10307382  0.79732578  1
  Bi2+  Bi82  1  0.49199623  0.34921143  0.28073439  1
  Bi2+  Bi83  1  0.53621884  0.38767062  0.77976942  1
  Bi2+  Bi84  1  0.51781631  0.62035686  0.28440094  1
  Bi2+  Bi85  1  0.53307554  0.66704069  0.73223845  1
  Bi2+  Bi86  1  0.54145003  0.88346357  0.27599435  1
  Bi2+  Bi87  1  0.49773851  0.84593769  0.78299862  1
  Bi2+  Bi88  1  0.73087643  0.08239767  0.29383717  1
  Bi2+  Bi89  1  0.74635673  0.19721498  0.80368392  1
  Bi2+  Bi90  1  0.72733829  0.28513147  0.29292938  1
  Bi2+  Bi91  1  0.80960264  0.38918881  0.80102027  1
  Bi2+  Bi92  1  0.78409169  0.60695774  0.29494339  1
  Bi2+  Bi93  1  0.70358509  0.60096918  0.78383297  1
  Bi2+  Bi94  1  0.77042522  0.88201503  0.29860931  1
  Bi2+  Bi95  1  0.71030626  0.87349099  0.78014549  1
  Bi2+  Bi96  1  0.12039917  0.00390453  0.19832751  1
  Bi2+  Bi97  1  0.16480702  0.01353576  0.71729682  1
  Bi2+  Bi98  1  0.14828005  0.25990191  0.21344450  1
  Bi2+  Bi99  1  0.13081200  0.26147705  0.70573829  1
  Bi2+  Bi100  1  0.06769653  0.49316575  0.20594881  1
  Bi2+  Bi101  1  0.03916432  0.46696834  0.68923505  1
  Bi2+  Bi102  1  0.10874360  0.74465625  0.20736077  1
  Bi2+  Bi103  1  0.11407204  0.75683137  0.71182269  1
  Bi2+  Bi104  1  0.37821799  0.05957837  0.20487171  1
  Bi2+  Bi105  1  0.41858390  -0.02234477  0.70881787  1
  Bi2+  Bi106  1  0.35894090  0.25563153  0.21319291  1
  Bi2+  Bi107  1  0.42908378  0.26077147  0.71373186  1
  Bi2+  Bi108  1  0.31847870  0.47239682  0.23904040  1
  Bi2+  Bi109  1  0.40654681  0.48279694  0.70984725  1
  Bi2+  Bi110  1  0.36645971  0.77395014  0.20989107  1
  Bi2+  Bi111  1  0.33961711  0.71238168  0.69805606  1
  Bi2+  Bi112  1  0.55723749  -0.00470701  0.18143239  1
  Bi2+  Bi113  1  0.59477517  0.06766036  0.68418010  1
  Bi2+  Bi114  1  0.63837626  0.18868711  0.20418225  1
  Bi2+  Bi115  1  0.62075306  0.28668124  0.68728783  1
  Bi2+  Bi116  1  0.66699802  0.48518069  0.21074727  1
  Bi2+  Bi117  1  0.59532947  0.48947805  0.68349634  1
  Bi2+  Bi118  1  0.68115154  0.76912627  0.22009225  1
  Bi2+  Bi119  1  0.60160547  0.84215491  0.68400774  1
  Bi2+  Bi120  1  0.83336936  0.00488157  0.21069345  1
  Bi2+  Bi121  1  0.77736020  0.02242640  0.71749736  1
  Bi2+  Bi122  1  0.90383340  0.29351811  0.24344496  1
  Bi2+  Bi123  1  0.81528186  0.28821814  0.69972808  1
  Bi2+  Bi124  1  0.86850059  0.48344678  0.20965988  1
  Bi2+  Bi125  1  0.86044305  0.52351912  0.71437953  1
  Bi2+  Bi126  1  0.88371161  0.75073112  0.23950287  1
  Bi2+  Bi127  1  0.85210637  0.75626759  0.70880263  1
  S2-  S128  1  -0.02082179  0.05714328  0.16543910  1
  S2-  S129  1  0.03783501  0.11074141  0.68976812  1
  S2-  S130  1  0.08992761  0.36411497  0.13371157  1
  S2-  S131  1  -0.01031147  0.30010308  0.64720835  1
  S2-  S132  1  0.03106117  0.62592572  0.14576039  1
  S2-  S133  1  -0.01157607  0.71139226  0.65029417  1
  S2-  S134  1  0.07786569  0.86955045  0.13954647  1
  S2-  S135  1  0.02879962  0.90802363  0.69570136  1
  S2-  S136  1  0.16090355  0.13228171  0.13707772  1
  S2-  S137  1  0.22770266  0.15037083  0.66749382  1
  S2-  S138  1  0.31974475  0.40072701  0.15479158  1
  S2-  S139  1  0.18758494  0.39582622  0.65772929  1
  S2-  S140  1  0.23975412  0.71391968  0.14452753  1
  S2-  S141  1  0.19457161  0.64626263  0.65671283  1
  S2-  S142  1  0.27716880  0.92752336  0.17728433  1
  S2-  S143  1  0.20623254  0.87427435  0.66651485  1
  S2-  S144  1  0.49980601  0.24330895  0.14675139  1
  S2-  S145  1  0.41634925  0.10405245  0.63821305  1
  S2-  S146  1  0.53327025  0.46391676  0.16074880  1
  S2-  S147  1  0.40326413  0.36336276  0.63298805  1
  S2-  S148  1  0.41163071  0.61170200  0.19975496  1
  S2-  S149  1  0.39729955  0.59947443  0.62903121  1
  S2-  S150  1  0.49294877  0.78554683  0.15112237  1
  S2-  S151  1  0.39935764  0.84853032  0.63850174  1
  S2-  S152  1  0.77782983  0.13849830  0.15307998  1
  S2-  S153  1  0.83718332  0.13160629  0.64785564  1
  S2-  S154  1  0.75951688  0.38207746  0.15009718  1
  S2-  S155  1  0.75409405  0.48626300  0.63626929  1
  S2-  S156  1  0.67300391  0.63168308  0.15067265  1
  S2-  S157  1  0.73616843  0.72408692  0.64402813  1
  S2-  S158  1  0.74926521  0.88185653  0.15573455  1
  S2-  S159  1  0.84635981  0.89572734  0.65557611  1
  S2-  S160  1  0.13408596  -0.06929285  0.36016210  1
  S2-  S161  1  0.13183095  -0.00760220  0.82940186  1
  S2-  S162  1  0.11378572  0.15347089  0.36018293  1
  S2-  S163  1  0.13628518  0.25849467  0.83042782  1
  S2-  S164  1  0.22586309  0.49115489  0.35012542  1
  S2-  S165  1  0.14861098  0.50737525  0.83558080  1
  S2-  S166  1  0.22960545  0.74952843  0.34919550  1
  S2-  S167  1  0.16331049  0.74318167  0.83645936  1
  S2-  S168  1  0.36768802  0.10718528  0.35674254  1
  S2-  S169  1  0.35812243  -0.01459663  0.85292033  1
  S2-  S170  1  0.37363644  0.34228174  0.34458627  1
  S2-  S171  1  0.35753774  0.26715230  0.84957384  1
  S2-  S172  1  0.39667134  0.63071051  0.34324570  1
  S2-  S173  1  0.36443244  0.50530976  0.84358452  1
  S2-  S174  1  0.39450776  0.88182697  0.35184663  1
  S2-  S175  1  0.38158702  0.74669896  0.83812589  1
  S2-  S176  1  0.63434912  -0.04395858  0.35316358  1
  S2-  S177  1  0.59881553  -0.04652880  0.84798890  1
  S2-  S178  1  0.59077661  0.24120982  0.34819330  1
  S2-  S179  1  0.59469862  0.25716708  0.84690249  1
  S2-  S180  1  0.53465578  0.47680877  0.33735683  1
  S2-  S181  1  0.62237983  0.50211202  0.84427161  1
  S2-  S182  1  0.64489392  0.66986638  0.34949446  1
  S2-  S183  1  0.69978315  0.73726905  0.84794558  1
  S2-  S184  1  0.92814927  0.01447461  0.35446788  1
  S2-  S185  1  0.84450955  -0.08264884  0.84828316  1
  S2-  S186  1  0.87991169  0.24616196  0.34855851  1
  S2-  S187  1  0.88471335  0.13115446  0.86189730  1
  S2-  S188  1  0.77739547  0.47993675  0.35753064  1
  S2-  S189  1  0.86410144  0.58226083  0.84908688  1
  S2-  S190  1  0.98492343  0.76109070  0.36581249  1
  S2-  S191  1  0.95225130  0.75882046  0.79968901  1
  S2-  S192  1  0.00158233  0.11922456  0.47203970  1
  S2-  S193  1  0.00356492  0.12377073  0.95792206  1
  S2-  S194  1  0.00441481  0.36621727  0.45310204  1
  S2-  S195  1  -0.00561403  0.37376217  0.94576298  1
  S2-  S196  1  0.00483856  0.61148002  0.45652488  1
  S2-  S197  1  -0.00581609  0.62630380  0.94473576  1
  S2-  S198  1  0.00327474  0.87140467  0.47247818  1
  S2-  S199  1  -0.00789576  0.87000161  0.94370616  1
  S2-  S200  1  0.25350562  0.11565098  0.46314629  1
  S2-  S201  1  0.24580725  0.12594419  0.94763322  1
  S2-  S202  1  0.25360750  0.36092627  0.45513438  1
  S2-  S203  1  0.24344965  0.37306328  0.95617995  1
  S2-  S204  1  0.25056979  0.62061384  0.45205829  1
  S2-  S205  1  0.24333608  0.62154390  0.95251489  1
  S2-  S206  1  0.25354647  0.87382202  0.46094770  1
  S2-  S207  1  0.24364058  0.87270486  0.95425684  1
  S2-  S208  1  0.51503826  0.11160954  0.45269856  1
  S2-  S209  1  0.49304120  0.12429564  0.96049435  1
  S2-  S210  1  0.51144844  0.36464582  0.44836358  1
  S2-  S211  1  0.49582643  0.37343319  0.95881536  1
  S2-  S212  1  0.50893789  0.61902680  0.44672698  1
  S2-  S213  1  0.49769308  0.62186560  0.94309346  1
  S2-  S214  1  0.51322482  0.86436217  0.45467575  1
  S2-  S215  1  0.49602226  0.87313402  0.95740578  1
  S2-  S216  1  0.75435644  0.11513278  0.45444052  1
  S2-  S217  1  0.74138995  0.12351781  0.95332171  1
  S2-  S218  1  0.75562622  0.36385702  0.45783563  1
  S2-  S219  1  0.74410951  0.37252426  0.94721792  1
  S2-  S220  1  0.76223481  0.62001633  0.45738779  1
  S2-  S221  1  0.74564774  0.62326421  0.95565929  1
  S2-  S222  1  0.75755446  0.86362697  0.46048269  1
  S2-  S223  1  0.74612440  0.87367985  0.95271109  1
  S2-  S224  1  0.12452578  -0.00488220  0.03864031  1
  S2-  S225  1  0.12915038  -0.00254787  0.56229291  1
  S2-  S226  1  0.12073381  0.24790925  0.03509089  1
  S2-  S227  1  0.13474335  0.24030552  0.55270429  1
  S2-  S228  1  0.11810267  0.50206243  0.03946839  1
  S2-  S229  1  0.13442146  0.49293937  0.54336052  1
  S2-  S230  1  0.11876177  0.74510603  0.03673806  1
  S2-  S231  1  0.13050884  0.74447034  0.54632250  1
  S2-  S232  1  0.36799661  -0.00319854  0.05556532  1
  S2-  S233  1  0.38680462  -0.01024670  0.53953749  1
  S2-  S234  1  0.36353927  0.24699488  0.05046138  1
  S2-  S235  1  0.38699690  0.23607754  0.53590380  1
  S2-  S236  1  0.37499963  0.50620375  0.05192705  1
  S2-  S237  1  0.38104624  0.48810681  0.52567199  1
  S2-  S238  1  0.37107224  0.74757397  0.04667276  1
  S2-  S239  1  0.38412847  0.74113757  0.53154155  1
  S2-  S240  1  0.62309476  0.00004899  0.04933087  1
  S2-  S241  1  0.63287996  -0.01128272  0.55310295  1
  S2-  S242  1  0.62477763  0.24672320  0.04939851  1
  S2-  S243  1  0.63143315  0.24265733  0.54890743  1
  S2-  S244  1  0.61899296  0.49793265  0.04710484  1
  S2-  S245  1  0.62869920  0.49071255  0.53452333  1
  S2-  S246  1  0.61999793  0.74736019  0.04560681  1
  S2-  S247  1  0.62582922  0.73589147  0.54231377  1
  S2-  S248  1  0.87145948  -0.00053014  0.04388816  1
  S2-  S249  1  0.88018701  -0.00654306  0.55427556  1
  S2-  S250  1  0.87553589  0.24796762  0.04505843  1
  S2-  S251  1  0.87494999  0.24952564  0.54789639  1
  S2-  S252  1  0.87461317  0.49812010  0.04371627  1
  S2-  S253  1  0.88560515  0.49038917  0.54262448  1
  S2-  S254  1  0.87111937  0.74612304  0.05750731  1
  S2-  S255  1  0.88125260  0.73979879  0.54831859  1
