# generated using pymatgen
data_La12Ce14Pr13Nd13Sm12(BiS2)64
_symmetry_space_group_name_H-M   'P 1'
_cell_length_a   16.09760993
_cell_length_b   16.10199646
_cell_length_c   27.34536946
_cell_angle_alpha   89.70283436
_cell_angle_beta   90.21064880
_cell_angle_gamma   90.02203218
_symmetry_Int_Tables_number   1
_chemical_formula_structural   La12Ce14Pr13Nd13Sm12(BiS2)64
_chemical_formula_sum   'La12 Ce14 Pr13 Nd13 Sm12 Bi64 S128'
_cell_volume   7087.87608554
_cell_formula_units_Z   1
loop_
 _symmetry_equiv_pos_site_id
 _symmetry_equiv_pos_as_xyz
  1  'x, y, z'
loop_
 _atom_type_symbol
 _atom_type_oxidation_number
  La3+  3.0
  Ce3+  3.0
  Pr3+  3.0
  Nd3+  3.0
  Sm3+  3.0
  Bi2+  2.0
  S2-  -2.0
loop_
 _atom_site_type_symbol
 _atom_site_label
 _atom_site_symmetry_multiplicity
 _atom_site_fract_x
 _atom_site_fract_y
 _atom_site_fract_z
 _atom_site_occupancy
  La3+  La0  1  0.86699879  0.75308740  0.41234317  1
  La3+  La1  1  0.62011201  0.74787079  0.43014787  1
  La3+  La2  1  0.61475485  0.00210149  0.43005158  1
  La3+  La3  1  0.00270371  0.37229962  0.59097097  1
  La3+  La4  1  0.11675975  0.74023321  0.93216658  1
  La3+  La5  1  0.61404314  0.49484029  0.42168767  1
  La3+  La6  1  0.24775023  0.63308058  0.60482773  1
  La3+  La7  1  0.75192761  0.61393047  0.08945667  1
  La3+  La8  1  0.36546859  0.00294733  0.42661471  1
  La3+  La9  1  0.62889512  0.00332066  0.91180644  1
  La3+  La10  1  0.01919201  0.61619480  0.09428201  1
  La3+  La11  1  0.88218337  0.48602909  0.40657854  1
  Ce3+  Ce12  1  0.49285616  0.87248237  0.56177963  1
  Ce3+  Ce13  1  0.49887774  0.62222370  0.56323415  1
  Ce3+  Ce14  1  0.75757697  0.37053489  0.05503391  1
  Ce3+  Ce15  1  0.63555360  0.24694056  0.93675772  1
  Ce3+  Ce16  1  0.38121538  0.49919062  0.93890094  1
  Ce3+  Ce17  1  0.49984795  0.11507904  0.56898015  1
  Ce3+  Ce18  1  -0.00036833  0.86711961  0.54881096  1
  Ce3+  Ce19  1  0.50969784  0.62149707  0.06625594  1
  Ce3+  Ce20  1  0.75083210  0.37373571  0.55622293  1
  Ce3+  Ce21  1  0.38259681  0.24521982  0.93393857  1
  Ce3+  Ce22  1  0.13345264  -0.00682412  0.93972347  1
  Ce3+  Ce23  1  0.74728716  0.86499326  0.55910099  1
  Ce3+  Ce24  1  0.74920613  0.88064429  0.07529805  1
  Ce3+  Ce25  1  0.12928037  0.49874882  0.94172861  1
  Pr3+  Pr26  1  0.01144846  0.12037279  0.05802330  1
  Pr3+  Pr27  1  0.63114284  0.75231636  0.93770799  1
  Pr3+  Pr28  1  0.50046366  0.37226377  0.56573441  1
  Pr3+  Pr29  1  0.74942497  0.62397150  0.55349081  1
  Pr3+  Pr30  1  0.89034377  0.25311470  0.92585502  1
  Pr3+  Pr31  1  0.11987764  0.49668853  0.44603524  1
  Pr3+  Pr32  1  0.24713949  0.11589648  0.56947728  1
  Pr3+  Pr33  1  0.38393289  0.73642588  0.90260342  1
  Pr3+  Pr34  1  0.74346758  0.11258193  0.57531626  1
  Pr3+  Pr35  1  0.88306595  0.50845420  0.94293387  1
  Pr3+  Pr36  1  0.13078415  0.24542822  0.94025022  1
  Pr3+  Pr37  1  0.87176349  -0.00010869  0.43846494  1
  Pr3+  Pr38  1  0.26165307  0.62152815  0.05764859  1
  Nd3+  Nd39  1  0.37172737  -0.00019781  0.91784031  1
  Nd3+  Nd40  1  0.26127141  0.86846226  0.04977230  1
  Nd3+  Nd41  1  0.00080385  0.11884015  0.57169992  1
  Nd3+  Nd42  1  0.36960940  0.24758381  0.45200010  1
  Nd3+  Nd43  1  0.87309733  0.24604537  0.44671330  1
  Nd3+  Nd44  1  0.00993552  0.87102979  0.06758681  1
  Nd3+  Nd45  1  0.37366311  0.74513756  0.43357525  1
  Nd3+  Nd46  1  0.25958537  0.36821797  0.05184972  1
  Nd3+  Nd47  1  -0.00190263  0.62264373  0.55552394  1
  Nd3+  Nd48  1  0.63141618  0.50390601  0.93940625  1
  Nd3+  Nd49  1  0.12150733  0.00416688  0.42961245  1
  Nd3+  Nd50  1  0.87873995  -0.00677203  0.93850819  1
  Nd3+  Nd51  1  0.62259286  0.24799133  0.44451840  1
  Sm3+  Sm52  1  0.50822155  0.87222093  0.04524601  1
  Sm3+  Sm53  1  0.24804062  0.86665471  0.54895394  1
  Sm3+  Sm54  1  0.12231446  0.74214373  0.43539997  1
  Sm3+  Sm55  1  0.87926898  0.74498332  0.96769170  1
  Sm3+  Sm56  1  0.00676157  0.37354488  0.06483915  1
  Sm3+  Sm57  1  0.50928018  0.36909505  0.05344855  1
  Sm3+  Sm58  1  0.37081721  0.49781057  0.44943028  1
  Sm3+  Sm59  1  0.75836477  0.11914498  0.05652578  1
  Sm3+  Sm60  1  0.26790552  0.11762638  0.06484564  1
  Sm3+  Sm61  1  0.11722642  0.25237664  0.45095182  1
  Sm3+  Sm62  1  0.50839837  0.11500645  0.05446677  1
  Sm3+  Sm63  1  0.24642530  0.37381756  0.56400360  1
  Bi2+  Bi64  1  -0.12024881  0.13976349  0.32973830  1
  Bi2+  Bi65  1  -0.01135046  0.10282969  0.79268219  1
  Bi2+  Bi66  1  0.02355554  0.32972505  0.29739827  1
  Bi2+  Bi67  1  -0.06951006  0.34833468  0.78393948  1
  Bi2+  Bi68  1  0.03487373  0.61772634  0.29296328  1
  Bi2+  Bi69  1  0.00384321  0.61019266  0.81472394  1
  Bi2+  Bi70  1  -0.00012444  0.99412052  0.30358993  1
  Bi2+  Bi71  1  -0.01925288  0.91463388  0.81949035  1
  Bi2+  Bi72  1  0.24779506  0.17150081  0.29915459  1
  Bi2+  Bi73  1  0.16771928  0.17169708  0.81352117  1
  Bi2+  Bi74  1  0.24115016  0.39617293  0.29565335  1
  Bi2+  Bi75  1  0.27265717  0.32875859  0.78363404  1
  Bi2+  Bi76  1  0.28837054  0.69710790  0.30760482  1
  Bi2+  Bi77  1  0.24396553  0.62931044  0.79470041  1
  Bi2+  Bi78  1  0.29218650  0.89840926  0.28579054  1
  Bi2+  Bi79  1  0.23163902  0.91364675  0.77158839  1
  Bi2+  Bi80  1  0.50089751  0.17483837  0.28846675  1
  Bi2+  Bi81  1  0.46282856  0.11840263  0.77779507  1
  Bi2+  Bi82  1  0.43517363  0.39292852  0.27993056  1
  Bi2+  Bi83  1  0.45944921  0.33113051  0.81651616  1
  Bi2+  Bi84  1  0.50580660  0.61616922  0.29558105  1
  Bi2+  Bi85  1  0.55562707  0.59421027  0.77190712  1
  Bi2+  Bi86  1  0.49009214  0.89725306  0.29215056  1
  Bi2+  Bi87  1  0.53272901  0.84469561  0.79534867  1
  Bi2+  Bi88  1  0.69040923  0.10295524  0.30144835  1
  Bi2+  Bi89  1  0.72789267  0.13406589  0.78387257  1
  Bi2+  Bi90  1  0.74283560  0.30232560  0.28348493  1
  Bi2+  Bi91  1  0.70439355  0.42485767  0.74235112  1
  Bi2+  Bi92  1  0.75004545  0.62785328  0.27390592  1
  Bi2+  Bi93  1  0.73949741  0.60969577  0.81268962  1
  Bi2+  Bi94  1  0.75413959  0.86936058  0.27846479  1
  Bi2+  Bi95  1  0.79045887  0.89231307  0.78391928  1
  Bi2+  Bi96  1  0.09370607  0.11169558  0.23215657  1
  Bi2+  Bi97  1  0.06924984  -0.02713447  0.71408137  1
  Bi2+  Bi98  1  0.14325394  0.31065408  0.20512945  1
  Bi2+  Bi99  1  0.11747159  0.22392285  0.70764958  1
  Bi2+  Bi100  1  0.24519455  0.55749186  0.23157913  1
  Bi2+  Bi101  1  0.09864398  0.48648655  0.71396751  1
  Bi2+  Bi102  1  0.15442026  0.78382802  0.20022483  1
  Bi2+  Bi103  1  0.11010861  0.75521130  0.70457342  1
  Bi2+  Bi104  1  0.33584083  0.02027665  0.19957436  1
  Bi2+  Bi105  1  0.32897596  0.03680030  0.70672729  1
  Bi2+  Bi106  1  0.33764934  0.28071286  0.20792879  1
  Bi2+  Bi107  1  0.35848785  0.22758451  0.69457852  1
  Bi2+  Bi108  1  0.43132914  0.56311724  0.19228880  1
  Bi2+  Bi109  1  0.39996015  0.47247664  0.74375251  1
  Bi2+  Bi110  1  0.39426943  0.76130836  0.21459498  1
  Bi2+  Bi111  1  0.39438907  0.77717641  0.70186321  1
  Bi2+  Bi112  1  0.58959191  0.03941577  0.19457856  1
  Bi2+  Bi113  1  0.60247376  -0.01705555  0.68893088  1
  Bi2+  Bi114  1  0.62477466  0.22596218  0.20218131  1
  Bi2+  Bi115  1  0.54455374  0.29720109  0.71659403  1
  Bi2+  Bi116  1  0.60679219  0.46246506  0.20284539  1
  Bi2+  Bi117  1  0.63878389  0.55687679  0.66492821  1
  Bi2+  Bi118  1  0.59126044  0.78668602  0.20451466  1
  Bi2+  Bi119  1  0.67463726  0.73456355  0.71363855  1
  Bi2+  Bi120  1  0.84722967  0.04692400  0.22278296  1
  Bi2+  Bi121  1  0.87148550  0.03092136  0.70522136  1
  Bi2+  Bi122  1  0.89221325  0.23901325  0.21638936  1
  Bi2+  Bi123  1  0.82052118  0.21615501  0.70119177  1
  Bi2+  Bi124  1  0.88359272  0.46505865  0.20783522  1
  Bi2+  Bi125  1  0.82130140  0.58807894  0.71168635  1
  Bi2+  Bi126  1  0.91205122  0.79422920  0.21565136  1
  Bi2+  Bi127  1  0.92700624  0.77064235  0.74191229  1
  S2-  S128  1  -0.03126323  0.11956667  0.15487059  1
  S2-  S129  1  -0.02335719  0.22859971  0.65089439  1
  S2-  S130  1  0.01348097  0.46255448  0.14915698  1
  S2-  S131  1  -0.04229013  0.43286913  0.68849014  1
  S2-  S132  1  0.01796566  0.67725920  0.19466555  1
  S2-  S133  1  0.07717672  0.62214967  0.64739112  1
  S2-  S134  1  0.03345963  0.88576234  0.16619506  1
  S2-  S135  1  -0.00636769  0.84018761  0.64604827  1
  S2-  S136  1  0.19784115  0.09050192  0.15570664  1
  S2-  S137  1  0.13053568  0.08828995  0.64301931  1
  S2-  S138  1  0.26228822  0.39945864  0.14912115  1
  S2-  S139  1  0.16205038  0.37010967  0.65018237  1
  S2-  S140  1  0.18663936  0.63569437  0.14698973  1
  S2-  S141  1  0.26404777  0.55281070  0.69889022  1
  S2-  S142  1  0.27483049  0.87519848  0.14975787  1
  S2-  S143  1  0.25129995  0.80496963  0.64363988  1
  S2-  S144  1  0.40312537  0.11830905  0.13324221  1
  S2-  S145  1  0.45201625  -0.00459717  0.63612447  1
  S2-  S146  1  0.52418581  0.35204310  0.15114540  1
  S2-  S147  1  0.49733993  0.43603208  0.65886724  1
  S2-  S148  1  0.60574498  0.62146029  0.14954779  1
  S2-  S149  1  0.41461992  0.65153312  0.64660371  1
  S2-  S150  1  0.52728034  0.90991280  0.14204744  1
  S2-  S151  1  0.54496686  0.82318570  0.65615252  1
  S2-  S152  1  0.74020031  0.02318926  0.13811181  1
  S2-  S153  1  0.61352864  0.12989332  0.64782765  1
  S2-  S154  1  0.74731586  0.43256406  0.14619864  1
  S2-  S155  1  0.73991689  0.34550614  0.65302598  1
  S2-  S156  1  0.83403598  0.61301706  0.17861677  1
  S2-  S157  1  0.77012028  0.74143568  0.63030663  1
  S2-  S158  1  0.74795677  0.81310178  0.16934815  1
  S2-  S159  1  0.74687709  0.96614520  0.64022465  1
  S2-  S160  1  0.23759842  0.01825486  0.35441397  1
  S2-  S161  1  0.22138563  -0.00725242  0.85567409  1
  S2-  S162  1  0.10562914  0.21698702  0.35513267  1
  S2-  S163  1  0.03152244  0.27579273  0.85812282  1
  S2-  S164  1  0.05008520  0.47696161  0.35483144  1
  S2-  S165  1  0.14428974  0.51282312  0.84280137  1
  S2-  S166  1  0.12715401  0.74259610  0.33634986  1
  S2-  S167  1  0.14888203  0.74221345  0.83252041  1
  S2-  S168  1  0.47677629  0.03453629  0.35036632  1
  S2-  S169  1  0.49050108  -0.02028411  0.84286154  1
  S2-  S170  1  0.37203066  0.24221156  0.35340821  1
  S2-  S171  1  0.36475813  0.14841353  0.85549823  1
  S2-  S172  1  0.45249915  0.49186410  0.36219101  1
  S2-  S173  1  0.36770771  0.57912260  0.85299330  1
  S2-  S174  1  0.49153867  0.74998758  0.35628046  1
  S2-  S175  1  0.36119519  0.80004428  0.80564432  1
  S2-  S176  1  0.64466353  -0.06782330  0.33815725  1
  S2-  S177  1  0.66775544  -0.14244795  0.85439311  1
  S2-  S178  1  0.61033317  0.28448678  0.34696308  1
  S2-  S179  1  0.61690291  0.15839969  0.85382463  1
  S2-  S180  1  0.65287139  0.52473531  0.32172450  1
  S2-  S181  1  0.64493298  0.47347749  0.84096171  1
  S2-  S182  1  0.72311775  0.73812862  0.34644139  1
  S2-  S183  1  0.53989806  0.70214639  0.85327724  1
  S2-  S184  1  0.86946086  -0.08993623  0.35176010  1
  S2-  S185  1  0.78571335  0.02069197  0.85476307  1
  S2-  S186  1  0.87538246  0.32755875  0.35728823  1
  S2-  S187  1  0.81231936  0.26582815  0.83442749  1
  S2-  S188  1  0.86657610  0.52951273  0.30664834  1
  S2-  S189  1  0.90890169  0.47209159  0.84463129  1
  S2-  S190  1  0.92447413  0.72651344  0.31252425  1
  S2-  S191  1  0.93446313  0.70306752  0.87785614  1
  S2-  S192  1  -0.00034321  0.12272340  0.46141763  1
  S2-  S193  1  0.00662147  0.11743298  0.95087626  1
  S2-  S194  1  -0.00577770  0.37312210  0.46742432  1
  S2-  S195  1  0.00614448  0.37703371  0.96179301  1
  S2-  S196  1  -0.00647906  0.62194786  0.44748294  1
  S2-  S197  1  0.00898482  0.61793246  0.97676810  1
  S2-  S198  1  0.00536618  0.87168791  0.44379934  1
  S2-  S199  1  0.00373605  0.87118590  0.96055146  1
  S2-  S200  1  0.24107887  0.12927454  0.46187103  1
  S2-  S201  1  0.25293062  0.12201452  0.96103066  1
  S2-  S202  1  0.24636152  0.37282553  0.45841343  1
  S2-  S203  1  0.25613465  0.37221157  0.94487135  1
  S2-  S204  1  0.24862999  0.61881146  0.44222919  1
  S2-  S205  1  0.25480780  0.62415332  0.95283337  1
  S2-  S206  1  0.24350200  0.86678892  0.44516449  1
  S2-  S207  1  0.25774525  0.85741718  0.94512402  1
  S2-  S208  1  0.49519444  0.12827874  0.46093548  1
  S2-  S209  1  0.50461794  0.12330464  0.95300146  1
  S2-  S210  1  0.49459015  0.37028151  0.46001405  1
  S2-  S211  1  0.50966379  0.37348442  0.94928534  1
  S2-  S212  1  0.49512943  0.61899079  0.45786100  1
  S2-  S213  1  0.50344531  0.62175351  0.96052693  1
  S2-  S214  1  0.49087379  0.87623219  0.45363755  1
  S2-  S215  1  0.49356131  0.86593243  0.94486091  1
  S2-  S216  1  0.74547926  0.12269664  0.45800699  1
  S2-  S217  1  0.76529329  0.13046739  0.95520654  1
  S2-  S218  1  0.74696283  0.37525868  0.45074324  1
  S2-  S219  1  0.75879685  0.37651987  0.95007995  1
  S2-  S220  1  0.75235544  0.60961621  0.44579718  1
  S2-  S221  1  0.75427111  0.62565822  0.96188926  1
  S2-  S222  1  0.74385156  0.87595698  0.45316742  1
  S2-  S223  1  0.76252819  0.86899511  0.96505986  1
  S2-  S224  1  0.13579364  -0.00562160  0.04586982  1
  S2-  S225  1  0.12420588  -0.00992512  0.53694093  1
  S2-  S226  1  0.13259545  0.24758907  0.04930544  1
  S2-  S227  1  0.12554776  0.24664981  0.55180772  1
  S2-  S228  1  0.13638750  0.49170944  0.04700930  1
  S2-  S229  1  0.12953123  0.50143217  0.55089270  1
  S2-  S230  1  0.13142852  0.74883738  0.04505398  1
  S2-  S231  1  0.12715164  0.74138362  0.53961638  1
  S2-  S232  1  0.38321962  -0.00642218  0.03247214  1
  S2-  S233  1  0.36271091  -0.00553101  0.53460192  1
  S2-  S234  1  0.38601157  0.24773150  0.03944160  1
  S2-  S235  1  0.37089765  0.24695138  0.55758067  1
  S2-  S236  1  0.38555641  0.49259264  0.04601110  1
  S2-  S237  1  0.36705374  0.49739334  0.55305065  1
  S2-  S238  1  0.38753794  0.74663588  0.05539981  1
  S2-  S239  1  0.36941408  0.74455464  0.53818451  1
  S2-  S240  1  0.63026669  -0.00043957  0.03105997  1
  S2-  S241  1  0.61987902  -0.00727789  0.53964800  1
  S2-  S242  1  0.63194062  0.24197507  0.04523216  1
  S2-  S243  1  0.62407572  0.24820446  0.54882894  1
  S2-  S244  1  0.63018729  0.49345775  0.04465330  1
  S2-  S245  1  0.62273311  0.49576989  0.53825240  1
  S2-  S246  1  0.63231015  0.74882248  0.04720350  1
  S2-  S247  1  0.61804654  0.74536484  0.53795108  1
  S2-  S248  1  0.88448987  -0.00351433  0.04585345  1
  S2-  S249  1  0.87787152  -0.00432703  0.54492474  1
  S2-  S250  1  0.88349239  0.24587872  0.04591185  1
  S2-  S251  1  0.86756339  0.24104740  0.55067877  1
  S2-  S252  1  0.88061268  0.49624968  0.05029624  1
  S2-  S253  1  0.87623187  0.49832330  0.56108849  1
  S2-  S254  1  0.88332147  0.74543681  0.06879750  1
  S2-  S255  1  0.87794038  0.74599285  0.52730546  1
