# generated using pymatgen
data_La12Ce14Pr13Nd13Sm12(BiS2)64
_symmetry_space_group_name_H-M   'P 1'
_cell_length_a   16.19337682
_cell_length_b   16.16278655
_cell_length_c   27.25451186
_cell_angle_alpha   89.85349244
_cell_angle_beta   89.96811641
_cell_angle_gamma   90.07014748
_symmetry_Int_Tables_number   1
_chemical_formula_structural   La12Ce14Pr13Nd13Sm12(BiS2)64
_chemical_formula_sum   'La12 Ce14 Pr13 Nd13 Sm12 Bi64 S128'
_cell_volume   7133.29614099
_cell_formula_units_Z   1
loop_
 _symmetry_equiv_pos_site_id
 _symmetry_equiv_pos_as_xyz
  1  'x, y, z'
loop_
 _atom_type_symbol
 _atom_type_oxidation_number
  La3+  3.0
  Ce3+  3.0
  Pr3+  3.0
  Nd3+  3.0
  Sm3+  3.0
  Bi2+  2.0
  S2-  -2.0
loop_
 _atom_site_type_symbol
 _atom_site_label
 _atom_site_symmetry_multiplicity
 _atom_site_fract_x
 _atom_site_fract_y
 _atom_site_fract_z
 _atom_site_occupancy
  La3+  La0  1  0.38071069  0.49561460  0.92795523  1
  La3+  La1  1  0.50370634  0.38643076  0.08136809  1
  La3+  La2  1  0.87737972  0.51393742  0.42989224  1
  La3+  La3  1  0.62220570  0.50992007  0.43667609  1
  La3+  La4  1  0.62705029  0.75910441  0.91309634  1
  La3+  La5  1  0.24263276  0.62841350  0.09267171  1
  La3+  La6  1  0.12207726  0.51325860  0.42024447  1
  La3+  La7  1  0.12903536  0.50221744  0.93254098  1
  La3+  La8  1  0.74679421  0.87530985  0.07094195  1
  La3+  La9  1  -0.00595877  0.13846557  0.60346389  1
  La3+  La10  1  0.37703240  0.26087787  0.42982565  1
  La3+  La11  1  0.49874685  0.63443785  0.61089138  1
  Ce3+  Ce12  1  0.87577788  0.00432450  0.44140534  1
  Ce3+  Ce13  1  0.37468610  0.74738659  0.44727987  1
  Ce3+  Ce14  1  0.74907609  0.62698081  0.56529423  1
  Ce3+  Ce15  1  0.49864417  0.13600514  0.55968946  1
  Ce3+  Ce16  1  0.74746074  0.12897706  0.54816993  1
  Ce3+  Ce17  1  0.49821962  0.87511475  0.56305203  1
  Ce3+  Ce18  1  0.00500212  0.87480019  0.05248957  1
  Ce3+  Ce19  1  0.00343620  0.62804517  0.56686605  1
  Ce3+  Ce20  1  0.62737066  0.25661789  0.94403936  1
  Ce3+  Ce21  1  0.74831750  0.88157354  0.56366654  1
  Ce3+  Ce22  1  0.50642104  0.87425815  0.06206670  1
  Ce3+  Ce23  1  0.74962651  0.62647566  0.05192114  1
  Ce3+  Ce24  1  0.87421665  0.50117547  0.94554807  1
  Ce3+  Ce25  1  0.25494860  0.12749801  0.05701608  1
  Pr3+  Pr26  1  0.75120957  0.37459780  0.56059814  1
  Pr3+  Pr27  1  0.87659389  0.75173497  0.94230260  1
  Pr3+  Pr28  1  0.37796195  0.00444404  0.44356439  1
  Pr3+  Pr29  1  0.87780692  0.25054174  0.43838020  1
  Pr3+  Pr30  1  0.00200661  0.12467288  0.05704228  1
  Pr3+  Pr31  1  0.75473511  0.36928532  0.07008291  1
  Pr3+  Pr32  1  0.62428844  0.00051549  0.44310769  1
  Pr3+  Pr33  1  0.37715301  0.00023414  0.94221052  1
  Pr3+  Pr34  1  0.87546966  -0.00069145  0.93236008  1
  Pr3+  Pr35  1  0.12458264  0.25158533  0.43159980  1
  Pr3+  Pr36  1  0.25269922  0.37998796  0.06141438  1
  Pr3+  Pr37  1  0.12697074  0.25055045  0.93715062  1
  Pr3+  Pr38  1  0.36877044  0.51276078  0.42659539  1
  Nd3+  Nd39  1  0.12277904  0.75964455  0.43661642  1
  Nd3+  Nd40  1  0.37927176  0.25316727  0.94148157  1
  Nd3+  Nd41  1  0.62903726  0.26478221  0.42480088  1
  Nd3+  Nd42  1  0.50456601  0.62478835  0.05704915  1
  Nd3+  Nd43  1  0.25340196  0.87570815  0.06547183  1
  Nd3+  Nd44  1  0.62702456  0.00244765  0.93490239  1
  Nd3+  Nd45  1  0.24400387  0.12870451  0.56256166  1
  Nd3+  Nd46  1  0.12894567  0.74946698  0.93653264  1
  Nd3+  Nd47  1  0.75296442  0.12186140  0.06148191  1
  Nd3+  Nd48  1  0.49705641  0.37993572  0.56164842  1
  Nd3+  Nd49  1  0.24773866  0.62109686  0.56738378  1
  Nd3+  Nd50  1  0.37589011  0.75023979  0.94315612  1
  Nd3+  Nd51  1  0.87687278  0.25140902  0.93211561  1
  Sm3+  Sm52  1  0.24678207  0.37785289  0.54836496  1
  Sm3+  Sm53  1  0.12819220  0.00047799  0.43861620  1
  Sm3+  Sm54  1  0.00215947  0.88179149  0.56357441  1
  Sm3+  Sm55  1  0.50194551  0.12829150  0.05459673  1
  Sm3+  Sm56  1  0.62828019  0.49989062  0.94056699  1
  Sm3+  Sm57  1  0.12968147  0.00175530  0.94447294  1
  Sm3+  Sm58  1  0.24889932  0.87762130  0.55999975  1
  Sm3+  Sm59  1  0.62342766  0.74792085  0.44395573  1
  Sm3+  Sm60  1  0.00155951  0.37751908  0.55142675  1
  Sm3+  Sm61  1  0.87521022  0.75741183  0.45095668  1
  Sm3+  Sm62  1  0.00424617  0.37642574  0.05573283  1
  Sm3+  Sm63  1  0.00333984  0.62572233  0.05802903  1
  Bi2+  Bi64  1  -0.07906637  0.11935977  0.32280359  1
  Bi2+  Bi65  1  0.00547733  0.09580466  0.78370182  1
  Bi2+  Bi66  1  -0.00082585  0.38638934  0.27842232  1
  Bi2+  Bi67  1  -0.02351285  0.38261623  0.79801868  1
  Bi2+  Bi68  1  -0.00554309  0.64158618  0.28869724  1
  Bi2+  Bi69  1  0.01354613  0.71703127  0.81501740  1
  Bi2+  Bi70  1  -0.00257917  0.88920309  0.28718555  1
  Bi2+  Bi71  1  -0.03549885  0.87395460  0.75289328  1
  Bi2+  Bi72  1  0.19798804  0.07073056  0.31862619  1
  Bi2+  Bi73  1  0.25465225  0.12358506  0.78566353  1
  Bi2+  Bi74  1  0.27508852  0.34328167  0.29812551  1
  Bi2+  Bi75  1  0.24472922  0.31647506  0.79783470  1
  Bi2+  Bi76  1  0.26072543  0.63029371  0.29170403  1
  Bi2+  Bi77  1  0.22207941  0.63456575  0.78683800  1
  Bi2+  Bi78  1  0.26369989  0.87349383  0.29122402  1
  Bi2+  Bi79  1  0.24623455  0.92265389  0.79417291  1
  Bi2+  Bi80  1  0.48294194  0.04491590  0.24148255  1
  Bi2+  Bi81  1  0.45345022  0.12433450  0.79574920  1
  Bi2+  Bi82  1  0.51938424  0.31784528  0.29539795  1
  Bi2+  Bi83  1  0.49701001  0.31430019  0.78159553  1
  Bi2+  Bi84  1  0.50865624  0.66189323  0.28384588  1
  Bi2+  Bi85  1  0.49067811  0.61589493  0.81488018  1
  Bi2+  Bi86  1  0.51709443  0.85585565  0.30495461  1
  Bi2+  Bi87  1  0.50321396  0.87985723  0.78366141  1
  Bi2+  Bi88  1  0.77043543  0.12928048  0.25607689  1
  Bi2+  Bi89  1  0.69330280  0.08957838  0.77856896  1
  Bi2+  Bi90  1  0.74681838  0.34323124  0.28876844  1
  Bi2+  Bi91  1  0.72960451  0.38866544  0.81402916  1
  Bi2+  Bi92  1  0.76336862  0.59620542  0.30401499  1
  Bi2+  Bi93  1  0.83593898  0.64199019  0.78537865  1
  Bi2+  Bi94  1  0.72010017  0.87511765  0.30325515  1
  Bi2+  Bi95  1  0.77985308  0.91487925  0.79123014  1
  Bi2+  Bi96  1  0.13490030  -0.02969479  0.21253831  1
  Bi2+  Bi97  1  0.11759619  -0.01427363  0.71125865  1
  Bi2+  Bi98  1  0.06612243  0.15460096  0.25165955  1
  Bi2+  Bi99  1  0.14488418  0.28248937  0.70494611  1
  Bi2+  Bi100  1  0.13589659  0.48552533  0.20178412  1
  Bi2+  Bi101  1  0.09750809  0.51026153  0.73067463  1
  Bi2+  Bi102  1  0.11475580  0.76432192  0.20739543  1
  Bi2+  Bi103  1  0.09949396  0.73182640  0.70792543  1
  Bi2+  Bi104  1  0.33341392  -0.02998853  0.18500017  1
  Bi2+  Bi105  1  0.35976820  0.05173050  0.68549800  1
  Bi2+  Bi106  1  0.32708973  0.16680592  0.25020926  1
  Bi2+  Bi107  1  0.36635749  0.24704126  0.70199844  1
  Bi2+  Bi108  1  0.38117169  0.44975171  0.20744359  1
  Bi2+  Bi109  1  0.34785032  0.48595598  0.70594126  1
  Bi2+  Bi110  1  0.40066845  0.79184394  0.22109550  1
  Bi2+  Bi111  1  0.35661964  0.85712798  0.70561885  1
  Bi2+  Bi112  1  0.66126878  -0.01658797  0.20812056  1
  Bi2+  Bi113  1  0.55401460  0.02913428  0.70614543  1
  Bi2+  Bi114  1  0.60979149  0.24005952  0.18845512  1
  Bi2+  Bi115  1  0.62854853  0.23614329  0.70889980  1
  Bi2+  Bi116  1  0.62377105  0.52213994  0.21007964  1
  Bi2+  Bi117  1  0.61736432  0.49279670  0.71305181  1
  Bi2+  Bi118  1  0.66614704  0.74062222  0.22143286  1
  Bi2+  Bi119  1  0.63554556  0.75102524  0.71949663  1
  Bi2+  Bi120  1  0.92284838  0.03301240  0.20223476  1
  Bi2+  Bi121  1  0.79798070  0.01839296  0.68944990  1
  Bi2+  Bi122  1  0.89045674  0.30083759  0.19664027  1
  Bi2+  Bi123  1  0.86779453  0.30991273  0.70371468  1
  Bi2+  Bi124  1  0.83846040  0.48976357  0.22235402  1
  Bi2+  Bi125  1  0.90750832  0.51306813  0.70698958  1
  Bi2+  Bi126  1  0.86020254  0.76795371  0.24296218  1
  Bi2+  Bi127  1  0.90824458  0.71074499  0.68637165  1
  S2-  S128  1  -0.00051198  0.16890147  0.15414347  1
  S2-  S129  1  -0.07799970  0.15530706  0.70038595  1
  S2-  S130  1  0.02453642  0.39924916  0.15274414  1
  S2-  S131  1  0.00718028  0.31677764  0.64444851  1
  S2-  S132  1  0.08066040  0.62407255  0.14576668  1
  S2-  S133  1  0.11832772  0.60217951  0.63800251  1
  S2-  S134  1  0.01426928  0.87176526  0.14927868  1
  S2-  S135  1  -0.00902467  0.97371050  0.64579940  1
  S2-  S136  1  0.26053383  0.12438173  0.15291804  1
  S2-  S137  1  0.15181735  0.14341499  0.64804739  1
  S2-  S138  1  0.24494579  0.37411049  0.16311773  1
  S2-  S139  1  0.24924327  0.39484656  0.64810837  1
  S2-  S140  1  0.28872730  0.57917690  0.19027756  1
  S2-  S141  1  0.33587735  0.61889224  0.65465784  1
  S2-  S142  1  0.24506947  0.77915547  0.14827882  1
  S2-  S143  1  0.20345320  0.85967884  0.65476251  1
  S2-  S144  1  0.54132566  0.09696710  0.14886629  1
  S2-  S145  1  0.50389864  0.24936603  0.63454233  1
  S2-  S146  1  0.46369106  0.30186320  0.17026760  1
  S2-  S147  1  0.49253256  0.46662737  0.65008486  1
  S2-  S148  1  0.48911086  0.54002802  0.14499682  1
  S2-  S149  1  0.50967744  0.62980133  0.71994979  1
  S2-  S150  1  0.61148836  0.85956486  0.13925845  1
  S2-  S151  1  0.50654899  0.80284869  0.65209964  1
  S2-  S152  1  0.76718294  0.22995521  0.13964689  1
  S2-  S153  1  0.73168770  0.16306084  0.64201483  1
  S2-  S154  1  0.64733553  0.39694929  0.14982251  1
  S2-  S155  1  0.72347903  0.39234258  0.66064530  1
  S2-  S156  1  0.70915771  0.63566925  0.14587761  1
  S2-  S157  1  0.67230849  0.62546495  0.65312128  1
  S2-  S158  1  0.78127972  1.00619341  0.13710207  1
  S2-  S159  1  0.73189328  0.86633172  0.66122133  1
  S2-  S160  1  0.11239600  -0.11278898  0.36227586  1
  S2-  S161  1  0.12518478  0.02536743  0.84798318  1
  S2-  S162  1  0.12956535  0.31196852  0.33614078  1
  S2-  S163  1  0.08699374  0.27425807  0.83984549  1
  S2-  S164  1  0.23994032  0.49681915  0.34289100  1
  S2-  S165  1  0.09890640  0.53296918  0.83469605  1
  S2-  S166  1  0.12424383  0.66545564  0.35156579  1
  S2-  S167  1  0.18106024  0.78363990  0.84306612  1
  S2-  S168  1  0.34599412  -0.01628662  0.34514138  1
  S2-  S169  1  0.39668071  -0.02113047  0.84386311  1
  S2-  S170  1  0.41291289  0.20417477  0.33680112  1
  S2-  S171  1  0.38709933  0.34793313  0.85913361  1
  S2-  S172  1  0.41846990  0.41222089  0.34454992  1
  S2-  S173  1  0.32772966  0.54141700  0.83141048  1
  S2-  S174  1  0.37579903  0.66067222  0.36023295  1
  S2-  S175  1  0.43395714  0.76173681  0.84993171  1
  S2-  S176  1  0.60406009  -0.01135326  0.34375203  1
  S2-  S177  1  0.62707470  -0.09470502  0.85260927  1
  S2-  S178  1  0.65143415  0.21020074  0.32707857  1
  S2-  S179  1  0.63588186  0.26452254  0.84629230  1
  S2-  S180  1  0.63469874  0.40634063  0.35416812  1
  S2-  S181  1  0.59280439  0.47892100  0.84503532  1
  S2-  S182  1  0.62724608  0.64331145  0.36176575  1
  S2-  S183  1  0.63556525  0.68901635  0.81797570  1
  S2-  S184  1  0.86568734  -0.04690974  0.34819058  1
  S2-  S185  1  0.87922531  0.05725637  0.83707917  1
  S2-  S186  1  0.88761264  0.29879220  0.34160378  1
  S2-  S187  1  0.85828944  0.27917487  0.83389906  1
  S2-  S188  1  0.98724964  0.50404319  0.34998520  1
  S2-  S189  1  0.85691896  0.49948259  0.84826206  1
  S2-  S190  1  0.87640692  0.68986367  0.36077480  1
  S2-  S191  1  0.81321250  0.78046463  0.85097418  1
  S2-  S192  1  0.00481946  0.12283666  0.44446705  1
  S2-  S193  1  0.00277368  0.12473605  0.94940393  1
  S2-  S194  1  0.00026004  0.37769389  0.44946266  1
  S2-  S195  1  0.00095101  0.37681682  0.95099319  1
  S2-  S196  1  -0.00137017  0.63573812  0.46097895  1
  S2-  S197  1  0.00111479  0.62638822  0.95326598  1
  S2-  S198  1  -0.00392495  0.88106655  0.46030445  1
  S2-  S199  1  0.00521155  0.87780200  0.94503373  1
  S2-  S200  1  0.25021984  0.12725371  0.45340883  1
  S2-  S201  1  0.25339508  0.12751628  0.94932123  1
  S2-  S202  1  0.24693089  0.37900197  0.44609988  1
  S2-  S203  1  0.24965649  0.37497614  0.95406843  1
  S2-  S204  1  0.24398413  0.63353890  0.46072267  1
  S2-  S205  1  0.25301368  0.62689363  0.94673953  1
  S2-  S206  1  0.25462707  0.87836895  0.45606430  1
  S2-  S207  1  0.25098020  0.87712256  0.95765603  1
  S2-  S208  1  0.50328617  0.13080930  0.45158136  1
  S2-  S209  1  0.50269166  0.12739995  0.94863841  1
  S2-  S210  1  0.50079513  0.37955690  0.45535766  1
  S2-  S211  1  0.50543253  0.37831402  0.96318460  1
  S2-  S212  1  0.49830704  0.62957611  0.45948332  1
  S2-  S213  1  0.50479711  0.62522345  0.95000964  1
  S2-  S214  1  0.50064858  0.87288732  0.45553159  1
  S2-  S215  1  0.50139765  0.87714608  0.95644547  1
  S2-  S216  1  0.74764963  0.12867200  0.44219223  1
  S2-  S217  1  0.75176417  0.12727306  0.94989520  1
  S2-  S218  1  0.75910314  0.38168189  0.45305364  1
  S2-  S219  1  0.75286369  0.37682600  0.95860561  1
  S2-  S220  1  0.75355369  0.63237975  0.46219532  1
  S2-  S221  1  0.74888610  0.62698493  0.94633755  1
  S2-  S222  1  0.74733386  0.87394576  0.45616402  1
  S2-  S223  1  0.75154693  0.87921721  0.95922278  1
  S2-  S224  1  0.13015478  0.00116186  0.04962243  1
  S2-  S225  1  0.12686364  0.00064837  0.54267720  1
  S2-  S226  1  0.12685117  0.25263438  0.04533151  1
  S2-  S227  1  0.12267040  0.25189756  0.53901888  1
  S2-  S228  1  0.12650325  0.50290935  0.04217552  1
  S2-  S229  1  0.12162681  0.49650607  0.53523420  1
  S2-  S230  1  0.12769115  0.74871838  0.04210428  1
  S2-  S231  1  0.12239490  0.75850380  0.54603588  1
  S2-  S232  1  0.37975689  0.00054001  0.04833257  1
  S2-  S233  1  0.37287315  0.00393816  0.55021484  1
  S2-  S234  1  0.37877360  0.25291051  0.04772293  1
  S2-  S235  1  0.36683727  0.25240160  0.53958644  1
  S2-  S236  1  0.36923328  0.50847089  0.04416323  1
  S2-  S237  1  0.36755921  0.49753514  0.53934612  1
  S2-  S238  1  0.37860457  0.74826992  0.05054318  1
  S2-  S239  1  0.37091714  0.75395938  0.55263506  1
  S2-  S240  1  0.62361202  0.00436828  0.03974995  1
  S2-  S241  1  0.62054697  0.00432900  0.55056083  1
  S2-  S242  1  0.62352994  0.24956637  0.04763505  1
  S2-  S243  1  0.62670518  0.25556747  0.53340154  1
  S2-  S244  1  0.63076210  0.50157017  0.04345953  1
  S2-  S245  1  0.62854567  0.50047863  0.54623670  1
  S2-  S246  1  0.62564417  0.74773322  0.03472656  1
  S2-  S247  1  0.62622902  0.75393579  0.54755971  1
  S2-  S248  1  0.88232355  -0.00158459  0.03766427  1
  S2-  S249  1  0.87368856  0.00698903  0.54668798  1
  S2-  S250  1  0.88291455  0.25237518  0.03900559  1
  S2-  S251  1  0.87949081  0.24899033  0.54558777  1
  S2-  S252  1  0.87981922  0.50130755  0.05344424  1
  S2-  S253  1  0.87801981  0.50209358  0.54752100  1
  S2-  S254  1  0.87846830  0.75004458  0.05091439  1
  S2-  S255  1  0.87645300  0.75749437  0.55480049  1
