# generated using pymatgen
data_La12Ce14Pr13Nd13Sm12(BiS2)64
_symmetry_space_group_name_H-M   'P 1'
_cell_length_a   16.14833050
_cell_length_b   16.16635470
_cell_length_c   27.36522127
_cell_angle_alpha   90.20419854
_cell_angle_beta   90.12457827
_cell_angle_gamma   89.88385154
_symmetry_Int_Tables_number   1
_chemical_formula_structural   La12Ce14Pr13Nd13Sm12(BiS2)64
_chemical_formula_sum   'La12 Ce14 Pr13 Nd13 Sm12 Bi64 S128'
_cell_volume   7143.87795403
_cell_formula_units_Z   1
loop_
 _symmetry_equiv_pos_site_id
 _symmetry_equiv_pos_as_xyz
  1  'x, y, z'
loop_
 _atom_type_symbol
 _atom_type_oxidation_number
  La3+  3.0
  Ce3+  3.0
  Pr3+  3.0
  Nd3+  3.0
  Sm3+  3.0
  Bi2+  2.0
  S2-  -2.0
loop_
 _atom_site_type_symbol
 _atom_site_label
 _atom_site_symmetry_multiplicity
 _atom_site_fract_x
 _atom_site_fract_y
 _atom_site_fract_z
 _atom_site_occupancy
  La3+  La0  1  0.12918584  0.51163290  0.93664601  1
  La3+  La1  1  0.88056085  0.51907096  0.92721423  1
  La3+  La2  1  0.49293968  0.61500491  0.58482595  1
  La3+  La3  1  0.49959258  0.13939022  0.09918571  1
  La3+  La4  1  0.50265583  0.36829968  0.56672166  1
  La3+  La5  1  0.25220006  0.36004918  0.56619183  1
  La3+  La6  1  0.38425102  0.25285984  0.41134161  1
  La3+  La7  1  0.26445542  0.87942343  0.08755950  1
  La3+  La8  1  0.00381082  0.39117501  0.07610992  1
  La3+  La9  1  0.25981657  0.87390021  0.56192893  1
  La3+  La10  1  0.86632280  0.74633055  0.42975290  1
  La3+  La11  1  0.90282414  0.49677858  0.38227187  1
  Ce3+  Ce12  1  -0.00191054  0.62015087  0.55741135  1
  Ce3+  Ce13  1  0.38447200  0.49427593  0.44152208  1
  Ce3+  Ce14  1  0.12567974  0.25837847  0.95120242  1
  Ce3+  Ce15  1  0.62763555  0.25604266  0.94359078  1
  Ce3+  Ce16  1  0.75390007  0.38486324  0.05362098  1
  Ce3+  Ce17  1  0.25280278  0.63354277  0.06394323  1
  Ce3+  Ce18  1  0.87294058  -0.00409797  0.43576493  1
  Ce3+  Ce19  1  0.75001293  0.88281090  0.06098397  1
  Ce3+  Ce20  1  0.13174536  0.76337972  0.94836819  1
  Ce3+  Ce21  1  0.00629423  0.87144907  0.55678085  1
  Ce3+  Ce22  1  0.00491432  0.13138712  0.06041650  1
  Ce3+  Ce23  1  0.62688855  0.75839945  0.94101906  1
  Ce3+  Ce24  1  0.00131561  0.11982348  0.55099079  1
  Ce3+  Ce25  1  0.62552751  0.01053574  0.94650033  1
  Pr3+  Pr26  1  0.25405030  0.12113050  0.54256861  1
  Pr3+  Pr27  1  0.37656473  0.00910121  0.94309924  1
  Pr3+  Pr28  1  0.87209366  0.25054298  0.43612579  1
  Pr3+  Pr29  1  0.75399151  0.11996184  0.55878852  1
  Pr3+  Pr30  1  0.12918425  0.49463786  0.44230220  1
  Pr3+  Pr31  1  0.62515487  0.49885953  0.92176059  1
  Pr3+  Pr32  1  0.87764689  0.76585440  0.93319921  1
  Pr3+  Pr33  1  0.50536488  0.38304430  0.06873658  1
  Pr3+  Pr34  1  0.49771852  0.12347711  0.55752597  1
  Pr3+  Pr35  1  0.38267497  0.73933998  0.43230455  1
  Pr3+  Pr36  1  0.88148672  0.26025613  0.94480406  1
  Pr3+  Pr37  1  0.75417943  0.13340900  0.06248688  1
  Pr3+  Pr38  1  0.62231488  -0.00245120  0.43125871  1
  Nd3+  Nd39  1  0.12454232  -0.00482964  0.43142776  1
  Nd3+  Nd40  1  0.12430481  0.74348716  0.44210659  1
  Nd3+  Nd41  1  0.75287549  0.63024080  0.57905963  1
  Nd3+  Nd42  1  0.75368571  0.87516199  0.56766745  1
  Nd3+  Nd43  1  0.37728883  0.50497378  0.94482628  1
  Nd3+  Nd44  1  0.50060902  0.87507933  0.55325027  1
  Nd3+  Nd45  1  0.50358183  0.63101618  0.04885641  1
  Nd3+  Nd46  1  0.75269598  0.36947769  0.57095995  1
  Nd3+  Nd47  1  0.37663178  0.25917825  0.94292685  1
  Nd3+  Nd48  1  0.12507881  0.24938639  0.43424649  1
  Nd3+  Nd49  1  0.00433819  0.88056657  0.07130532  1
  Nd3+  Nd50  1  0.36531830  -0.01382193  0.40901969  1
  Nd3+  Nd51  1  0.75177416  0.63307256  0.05386165  1
  Sm3+  Sm52  1  -0.00159506  0.37421850  0.55740736  1
  Sm3+  Sm53  1  0.62796039  0.74370751  0.45266770  1
  Sm3+  Sm54  1  0.25297151  0.61946053  0.55398731  1
  Sm3+  Sm55  1  0.25447980  0.38182959  0.06194854  1
  Sm3+  Sm56  1  0.37702042  0.75896418  0.94160702  1
  Sm3+  Sm57  1  0.00019477  0.64061938  0.06571386  1
  Sm3+  Sm58  1  0.63984014  0.50003305  0.45080090  1
  Sm3+  Sm59  1  0.25564095  0.13255346  0.06911033  1
  Sm3+  Sm60  1  0.50212411  0.88577735  0.05898051  1
  Sm3+  Sm61  1  0.87881617  0.00463207  0.94628211  1
  Sm3+  Sm62  1  0.62643904  0.24907035  0.44015125  1
  Sm3+  Sm63  1  0.13205367  0.00588241  0.95382792  1
  Bi2+  Bi64  1  -0.03101272  0.06235561  0.30954829  1
  Bi2+  Bi65  1  -0.04542127  0.11077928  0.77057055  1
  Bi2+  Bi66  1  0.01366013  0.36485979  0.27683021  1
  Bi2+  Bi67  1  0.00557060  0.35614253  0.80817518  1
  Bi2+  Bi68  1  0.03067693  0.61745339  0.28458750  1
  Bi2+  Bi69  1  -0.03765706  0.62336289  0.74926770  1
  Bi2+  Bi70  1  -0.01046396  0.83564542  0.29965061  1
  Bi2+  Bi71  1  0.00055510  0.92686650  0.79464256  1
  Bi2+  Bi72  1  0.17889592  0.12743719  0.28705675  1
  Bi2+  Bi73  1  0.23525684  0.05895983  0.77542246  1
  Bi2+  Bi74  1  0.24235248  0.42996920  0.24553030  1
  Bi2+  Bi75  1  0.25286832  0.36867690  0.81494326  1
  Bi2+  Bi76  1  0.29455189  0.60525230  0.29227196  1
  Bi2+  Bi77  1  0.23395625  0.64072952  0.72734047  1
  Bi2+  Bi78  1  0.23816251  0.84850585  0.28788698  1
  Bi2+  Bi79  1  0.24911597  0.85809659  0.82957248  1
  Bi2+  Bi80  1  0.55432127  0.11973095  0.28753607  1
  Bi2+  Bi81  1  0.48983244  0.11521786  0.71902265  1
  Bi2+  Bi82  1  0.49437089  0.40325570  0.30443834  1
  Bi2+  Bi83  1  0.46751742  0.36376471  0.79467503  1
  Bi2+  Bi84  1  0.47702355  0.60548109  0.34044266  1
  Bi2+  Bi85  1  0.44418168  0.68136935  0.75712398  1
  Bi2+  Bi86  1  0.51280432  0.79044333  0.29483598  1
  Bi2+  Bi87  1  0.48490742  0.94370565  0.77861369  1
  Bi2+  Bi88  1  0.79514955  0.15533257  0.31851592  1
  Bi2+  Bi89  1  0.75394838  0.09981522  0.78404175  1
  Bi2+  Bi90  1  0.71654851  0.33344121  0.31166381  1
  Bi2+  Bi91  1  0.76105706  0.36168126  0.79936331  1
  Bi2+  Bi92  1  0.66024740  0.60877398  0.29805196  1
  Bi2+  Bi93  1  0.76358373  0.65108666  0.79389426  1
  Bi2+  Bi94  1  0.72651979  0.85814573  0.29742144  1
  Bi2+  Bi95  1  0.72968072  0.90878929  0.80606521  1
  Bi2+  Bi96  1  0.06942803  -0.03004901  0.21612164  1
  Bi2+  Bi97  1  0.08128594  -0.00202587  0.68733615  1
  Bi2+  Bi98  1  0.12333526  0.23525847  0.20210440  1
  Bi2+  Bi99  1  0.12324482  0.21304554  0.75503705  1
  Bi2+  Bi100  1  0.16237113  0.58511201  0.19576294  1
  Bi2+  Bi101  1  0.09725137  0.49980395  0.70933724  1
  Bi2+  Bi102  1  0.12217370  0.77858315  0.20480628  1
  Bi2+  Bi103  1  0.09291651  0.76522859  0.75933087  1
  Bi2+  Bi104  1  0.37310335  0.00529258  0.21821424  1
  Bi2+  Bi105  1  0.30334609  0.02740698  0.66995324  1
  Bi2+  Bi106  1  0.37292658  0.25812641  0.22593657  1
  Bi2+  Bi107  1  0.35282197  0.25530046  0.70164725  1
  Bi2+  Bi108  1  0.41905261  0.49962816  0.21157482  1
  Bi2+  Bi109  1  0.37028690  0.50619957  0.71160197  1
  Bi2+  Bi110  1  0.40051362  0.70204520  0.21545583  1
  Bi2+  Bi111  1  0.33893927  0.84069205  0.72393054  1
  Bi2+  Bi112  1  0.58183707  -0.09967429  0.20336928  1
  Bi2+  Bi113  1  0.58284863  -0.03519558  0.66663111  1
  Bi2+  Bi114  1  0.65835033  0.26361801  0.20876135  1
  Bi2+  Bi115  1  0.61894464  0.24053389  0.76883092  1
  Bi2+  Bi116  1  0.63108179  0.45486875  0.22725831  1
  Bi2+  Bi117  1  0.62616164  0.51451381  0.71645678  1
  Bi2+  Bi118  1  0.61775397  0.71019987  0.20226230  1
  Bi2+  Bi119  1  0.59799483  0.80267354  0.73140397  1
  Bi2+  Bi120  1  0.86785324  -0.04315195  0.22048681  1
  Bi2+  Bi121  1  0.76824197  0.01643770  0.67826993  1
  Bi2+  Bi122  1  0.89266479  0.17562446  0.22023158  1
  Bi2+  Bi123  1  0.88225467  0.24622450  0.69635059  1
  Bi2+  Bi124  1  0.85957990  0.51221801  0.18146975  1
  Bi2+  Bi125  1  0.86490936  0.44817229  0.69462269  1
  Bi2+  Bi126  1  0.86405077  0.76235571  0.21759416  1
  Bi2+  Bi127  1  0.84490837  0.84520518  0.71874246  1
  S2-  S128  1  0.02747939  0.11537999  0.15602717  1
  S2-  S129  1  -0.01447499  0.13750482  0.64700222  1
  S2-  S130  1  -0.00778721  0.32956175  0.17280832  1
  S2-  S131  1  0.02182816  0.37656850  0.65611868  1
  S2-  S132  1  0.01184972  0.53273113  0.14250163  1
  S2-  S133  1  0.02367054  0.63082561  0.65483192  1
  S2-  S134  1  -0.01790822  0.75971369  0.14195259  1
  S2-  S135  1  -0.03843219  0.88927012  0.64944304  1
  S2-  S136  1  0.34739061  0.13548067  0.15274828  1
  S2-  S137  1  0.24671444  0.18508394  0.63674354  1
  S2-  S138  1  0.25170734  0.34102056  0.15736517  1
  S2-  S139  1  0.27486286  0.39388359  0.66462434  1
  S2-  S140  1  0.26705284  0.72742709  0.14643987  1
  S2-  S141  1  0.33360849  0.63573246  0.63955028  1
  S2-  S142  1  0.23352354  0.97294437  0.17339444  1
  S2-  S143  1  0.17300688  0.88261794  0.65046100  1
  S2-  S144  1  0.54589712  0.06382756  0.18821604  1
  S2-  S145  1  0.48527441  0.23776999  0.63629151  1
  S2-  S146  1  0.50516298  0.29096805  0.15467494  1
  S2-  S147  1  0.50207877  0.46661729  0.65260190  1
  S2-  S148  1  0.51101701  0.60984939  0.14654987  1
  S2-  S149  1  0.56087530  0.66459254  0.67567194  1
  S2-  S150  1  0.42398604  0.88949490  0.14598036  1
  S2-  S151  1  0.39489642  0.87716946  0.63281666  1
  S2-  S152  1  0.75591545  0.14692182  0.16275358  1
  S2-  S153  1  0.74760004  0.18891897  0.65141569  1
  S2-  S154  1  0.75060695  0.38714641  0.15105156  1
  S2-  S155  1  0.70850081  0.39208660  0.66861726  1
  S2-  S156  1  0.77175147  0.65541619  0.15189461  1
  S2-  S157  1  0.77324467  0.57964555  0.67952380  1
  S2-  S158  1  0.74305298  0.89855852  0.15720778  1
  S2-  S159  1  0.76450002  0.77117144  0.64594962  1
  S2-  S160  1  0.21557568  -0.01433991  0.34618988  1
  S2-  S161  1  0.13430117  -0.00587036  0.85599569  1
  S2-  S162  1  0.10902318  0.25759593  0.33497099  1
  S2-  S163  1  0.13224913  0.24912042  0.85440021  1
  S2-  S164  1  0.07564854  0.48413916  0.34608866  1
  S2-  S165  1  0.11453249  0.47851943  0.83849272  1
  S2-  S166  1  0.12841436  0.74535695  0.34282914  1
  S2-  S167  1  0.14293761  0.72545075  0.85414130  1
  S2-  S168  1  0.44113538  0.02270053  0.31861829  1
  S2-  S169  1  0.36438055  0.00433050  0.84258876  1
  S2-  S170  1  0.32886360  0.20657364  0.31128306  1
  S2-  S171  1  0.36715700  0.25226564  0.84253442  1
  S2-  S172  1  0.35471272  0.40589193  0.35962233  1
  S2-  S173  1  0.36782222  0.48284883  0.84606185  1
  S2-  S174  1  0.36395588  0.83598901  0.34925746  1
  S2-  S175  1  0.38473486  0.75465113  0.84369374  1
  S2-  S176  1  0.67226154  0.01987609  0.33502496  1
  S2-  S177  1  0.62807831  0.03265442  0.84979666  1
  S2-  S178  1  0.53950849  0.24544058  0.35368904  1
  S2-  S179  1  0.60957918  0.34639321  0.86095929  1
  S2-  S180  1  0.72724495  0.49201955  0.36424170  1
  S2-  S181  1  0.65387508  0.54215655  0.82261290  1
  S2-  S182  1  0.70929775  0.74201591  0.36472601  1
  S2-  S183  1  0.65813586  0.76165485  0.84544978  1
  S2-  S184  1  0.86451876  -0.11220329  0.35944696  1
  S2-  S185  1  0.88119291  -0.09637652  0.86609411  1
  S2-  S186  1  0.89287879  0.32716426  0.34631227  1
  S2-  S187  1  0.87282005  0.25442761  0.84488062  1
  S2-  S188  1  0.90130711  0.49675824  0.27225131  1
  S2-  S189  1  0.88130437  0.45745645  0.83163006  1
  S2-  S190  1  0.91143111  0.66160107  0.34373057  1
  S2-  S191  1  0.89331990  0.66119951  0.85333634  1
  S2-  S192  1  0.00017494  0.12290229  0.44477912  1
  S2-  S193  1  0.00347664  0.12643204  0.95366207  1
  S2-  S194  1  -0.00156600  0.37558794  0.45349738  1
  S2-  S195  1  0.00307366  0.38700281  0.95883991  1
  S2-  S196  1  0.00078999  0.61667413  0.45223373  1
  S2-  S197  1  0.00651241  0.63829522  0.96027441  1
  S2-  S198  1  0.00415927  0.87127998  0.45052351  1
  S2-  S199  1  0.00690668  0.88665799  0.96514296  1
  S2-  S200  1  0.25150019  0.12529088  0.43762260  1
  S2-  S201  1  0.25143522  0.13350378  0.96201902  1
  S2-  S202  1  0.24861296  0.36793135  0.45630413  1
  S2-  S203  1  0.25171789  0.38250156  0.95766414  1
  S2-  S204  1  0.25363477  0.61993516  0.44921841  1
  S2-  S205  1  0.25797214  0.63397165  0.95640713  1
  S2-  S206  1  0.24850107  0.86750656  0.45319551  1
  S2-  S207  1  0.25694460  0.88321665  0.96614010  1
  S2-  S208  1  0.49981694  0.12047258  0.44842278  1
  S2-  S209  1  0.50063872  0.13649415  0.94670749  1
  S2-  S210  1  0.51210815  0.37757445  0.45694024  1
  S2-  S211  1  0.50013029  0.38253440  0.96131115  1
  S2-  S212  1  0.50893019  0.61829914  0.46578401  1
  S2-  S213  1  0.50115375  0.63036838  0.94316507  1
  S2-  S214  1  0.50353007  0.86949119  0.44751162  1
  S2-  S215  1  0.50107136  0.88264665  0.95272726  1
  S2-  S216  1  0.74865669  0.12244309  0.45194635  1
  S2-  S217  1  0.75719098  0.13138471  0.95485966  1
  S2-  S218  1  0.74817214  0.36637637  0.46384642  1
  S2-  S219  1  0.75656051  0.38583041  0.94967819  1
  S2-  S220  1  0.74949059  0.62694461  0.47125524  1
  S2-  S221  1  0.74531765  0.63056911  0.94880756  1
  S2-  S222  1  0.74419433  0.87625084  0.46199932  1
  S2-  S223  1  0.74774495  0.88653271  0.95794222  1
  S2-  S224  1  0.13198444  0.00535182  0.05768270  1
  S2-  S225  1  0.12746968  -0.00136052  0.53716892  1
  S2-  S226  1  0.12918997  0.25841572  0.05531811  1
  S2-  S227  1  0.11962204  0.24784615  0.54030579  1
  S2-  S228  1  0.13426764  0.50749762  0.04513744  1
  S2-  S229  1  0.12850381  0.49472931  0.54942014  1
  S2-  S230  1  0.13048343  0.75967369  0.05158441  1
  S2-  S231  1  0.13049084  0.74183264  0.54744393  1
  S2-  S232  1  0.38264541  0.01507441  0.04894888  1
  S2-  S233  1  0.37889148  -0.00002922  0.52749153  1
  S2-  S234  1  0.37708247  0.25836896  0.04882116  1
  S2-  S235  1  0.37702225  0.24690640  0.52891788  1
  S2-  S236  1  0.37707023  0.50534659  0.05163666  1
  S2-  S237  1  0.37189716  0.49102935  0.54564053  1
  S2-  S238  1  0.38384990  0.75673076  0.04475927  1
  S2-  S239  1  0.37940268  0.74223674  0.53715604  1
  S2-  S240  1  0.62210766  0.01310175  0.05373900  1
  S2-  S241  1  0.62497872  -0.00070696  0.53971828  1
  S2-  S242  1  0.62764281  0.25576064  0.04870395  1
  S2-  S243  1  0.62925702  0.24444661  0.54328681  1
  S2-  S244  1  0.62802342  0.50622243  0.04044851  1
  S2-  S245  1  0.63286512  0.50039168  0.55522861  1
  S2-  S246  1  0.62427950  0.75879305  0.04815886  1
  S2-  S247  1  0.62038823  0.74965344  0.55524927  1
  S2-  S248  1  0.87962525  0.00537461  0.05135623  1
  S2-  S249  1  0.87843731  -0.00489016  0.54211614  1
  S2-  S250  1  0.88114892  0.25856025  0.05203927  1
  S2-  S251  1  0.87842366  0.24894050  0.54381215  1
  S2-  S252  1  0.87751415  0.51213461  0.04028319  1
  S2-  S253  1  0.87519492  0.49583057  0.56232391  1
  S2-  S254  1  0.87330051  0.76034468  0.03989740  1
  S2-  S255  1  0.88060819  0.74896856  0.54287359  1
