# generated using pymatgen
data_La12Ce14Pr13Nd13Sm12(BiS2)64
_symmetry_space_group_name_H-M   'P 1'
_cell_length_a   16.19327737
_cell_length_b   16.18846308
_cell_length_c   27.08784990
_cell_angle_alpha   89.89703485
_cell_angle_beta   89.96517290
_cell_angle_gamma   89.97961116
_symmetry_Int_Tables_number   1
_chemical_formula_structural   La12Ce14Pr13Nd13Sm12(BiS2)64
_chemical_formula_sum   'La12 Ce14 Pr13 Nd13 Sm12 Bi64 S128'
_cell_volume   7100.91149097
_cell_formula_units_Z   1
loop_
 _symmetry_equiv_pos_site_id
 _symmetry_equiv_pos_as_xyz
  1  'x, y, z'
loop_
 _atom_type_symbol
 _atom_type_oxidation_number
  La3+  3.0
  Ce3+  3.0
  Pr3+  3.0
  Nd3+  3.0
  Sm3+  3.0
  Bi2+  2.0
  S2-  -2.0
loop_
 _atom_site_type_symbol
 _atom_site_label
 _atom_site_symmetry_multiplicity
 _atom_site_fract_x
 _atom_site_fract_y
 _atom_site_fract_z
 _atom_site_occupancy
  La3+  La0  1  0.61606524  0.48751927  0.41926936  1
  La3+  La1  1  0.49916309  0.85589080  0.56642031  1
  La3+  La2  1  0.50763392  0.60837261  0.56884749  1
  La3+  La3  1  0.62933725  0.25303492  0.93850484  1
  La3+  La4  1  0.38113263  0.74241195  0.42360767  1
  La3+  La5  1  0.11321197  0.73462069  0.40996083  1
  La3+  La6  1  0.11885422  -0.00137068  0.41606554  1
  La3+  La7  1  0.88713569  0.01015438  0.90768199  1
  La3+  La8  1  0.00506400  0.85840309  0.57084964  1
  La3+  La9  1  0.89129554  0.74413707  0.90962168  1
  La3+  La10  1  0.62412606  0.50069598  0.92355847  1
  La3+  La11  1  0.25170256  0.10097604  0.58220358  1
  Ce3+  Ce12  1  0.50646991  0.38399333  0.06492321  1
  Ce3+  Ce13  1  0.62759466  0.73715151  0.42813369  1
  Ce3+  Ce14  1  0.75789778  0.87998188  0.04775165  1
  Ce3+  Ce15  1  0.00248187  0.61157909  0.56342868  1
  Ce3+  Ce16  1  0.25348395  0.38158694  0.06301824  1
  Ce3+  Ce17  1  0.24969606  0.61575749  0.54738663  1
  Ce3+  Ce18  1  0.50061278  0.13021599  0.05895383  1
  Ce3+  Ce19  1  0.25319276  0.36495784  0.56107673  1
  Ce3+  Ce20  1  0.24526762  0.86548982  0.54378998  1
  Ce3+  Ce21  1  0.37702663  0.50786302  0.94812107  1
  Ce3+  Ce22  1  0.87568325  0.48948370  0.44043237  1
  Ce3+  Ce23  1  0.13356985  0.00748880  0.93375855  1
  Ce3+  Ce24  1  0.25318366  0.63268208  0.06482175  1
  Ce3+  Ce25  1  0.87985953  0.50610127  0.94536941  1
  Pr3+  Pr26  1  0.50142336  0.10952984  0.56979605  1
  Pr3+  Pr27  1  0.37828951  0.75589745  0.94541121  1
  Pr3+  Pr28  1  0.74985826  0.86402076  0.56292593  1
  Pr3+  Pr29  1  0.75272974  0.63172969  0.05563182  1
  Pr3+  Pr30  1  0.61637852  0.23496289  0.41613323  1
  Pr3+  Pr31  1  0.12756404  0.50783543  0.94589857  1
  Pr3+  Pr32  1  0.87678964  0.23819317  0.43488693  1
  Pr3+  Pr33  1  0.37268137  0.23551727  0.44243286  1
  Pr3+  Pr34  1  0.50102164  0.88134431  0.06342909  1
  Pr3+  Pr35  1  0.00289916  0.63291229  0.06992277  1
  Pr3+  Pr36  1  0.88130387  0.25606038  0.93405078  1
  Pr3+  Pr37  1  0.00047627  0.11796873  0.57059241  1
  Pr3+  Pr38  1  0.25903003  0.13110204  0.07556989  1
  Nd3+  Nd39  1  0.63015061  0.00218773  0.94300140  1
  Nd3+  Nd40  1  0.37410613  0.00483683  0.93917120  1
  Nd3+  Nd41  1  0.13082249  0.25380636  0.94933786  1
  Nd3+  Nd42  1  0.37653367  -0.00855941  0.43749757  1
  Nd3+  Nd43  1  0.23880839  0.88861462  0.08995401  1
  Nd3+  Nd44  1  0.12502942  0.48831487  0.43402490  1
  Nd3+  Nd45  1  0.00138091  0.36558831  0.55786228  1
  Nd3+  Nd46  1  0.62917281  0.75640348  0.93765430  1
  Nd3+  Nd47  1  0.75011704  0.11740603  0.55790049  1
  Nd3+  Nd48  1  0.37327763  0.48811700  0.43516726  1
  Nd3+  Nd49  1  0.37683937  0.25510526  0.94578096  1
  Nd3+  Nd50  1  0.75589588  0.13023223  0.06008900  1
  Nd3+  Nd51  1  0.50593685  0.36330242  0.56210241  1
  Sm3+  Sm52  1  0.00317162  0.12942190  0.05726754  1
  Sm3+  Sm53  1  0.87882584  -0.01120529  0.44639746  1
  Sm3+  Sm54  1  0.75372394  0.37971099  0.05849340  1
  Sm3+  Sm55  1  0.74957447  0.61146297  0.55417321  1
  Sm3+  Sm56  1  0.87573892  0.74237053  0.44637852  1
  Sm3+  Sm57  1  0.12552509  0.76017201  0.94795234  1
  Sm3+  Sm58  1  0.00272921  0.37908623  0.05844544  1
  Sm3+  Sm59  1  0.00224418  0.88525872  0.05989121  1
  Sm3+  Sm60  1  0.50444612  0.63150095  0.06021536  1
  Sm3+  Sm61  1  0.74734256  0.36193863  0.54863550  1
  Sm3+  Sm62  1  0.12673455  0.23679432  0.45097071  1
  Sm3+  Sm63  1  0.62683982  -0.00820456  0.44055941  1
  Bi2+  Bi64  1  -0.02005588  0.17917423  0.30913058  1
  Bi2+  Bi65  1  -0.00549521  0.19487036  0.79407541  1
  Bi2+  Bi66  1  0.05135508  0.36550430  0.29611147  1
  Bi2+  Bi67  1  -0.04364189  0.38552073  0.80261389  1
  Bi2+  Bi68  1  -0.04262240  0.60924958  0.29638706  1
  Bi2+  Bi69  1  0.01224553  0.59103289  0.78996803  1
  Bi2+  Bi70  1  -0.02518227  0.88550055  0.29060063  1
  Bi2+  Bi71  1  -0.01206523  0.86665054  0.79746870  1
  Bi2+  Bi72  1  0.27377603  0.19469930  0.30938743  1
  Bi2+  Bi73  1  0.26226084  0.14477249  0.79854107  1
  Bi2+  Bi74  1  0.24309466  0.38513633  0.33672650  1
  Bi2+  Bi75  1  0.22599926  0.40468728  0.78291853  1
  Bi2+  Bi76  1  0.24347809  0.56844189  0.28631813  1
  Bi2+  Bi77  1  0.28657162  0.59261750  0.78904002  1
  Bi2+  Bi78  1  0.27780153  0.86162300  0.29480373  1
  Bi2+  Bi79  1  0.22972887  0.87293596  0.76240056  1
  Bi2+  Bi80  1  0.47424094  0.08780884  0.29036683  1
  Bi2+  Bi81  1  0.45013119  0.12375129  0.79795657  1
  Bi2+  Bi82  1  0.51138900  0.32562123  0.27164245  1
  Bi2+  Bi83  1  0.49740632  0.35968856  0.78516857  1
  Bi2+  Bi84  1  0.50246662  0.62323080  0.29515637  1
  Bi2+  Bi85  1  0.50933140  0.64082057  0.80172712  1
  Bi2+  Bi86  1  0.58471030  0.86609148  0.28045170  1
  Bi2+  Bi87  1  0.47762363  0.88597952  0.79920746  1
  Bi2+  Bi88  1  0.75504002  0.03160478  0.30755020  1
  Bi2+  Bi89  1  0.70953507  0.22493972  0.79441387  1
  Bi2+  Bi90  1  0.76743775  0.35473037  0.28357622  1
  Bi2+  Bi91  1  0.76587314  0.41534003  0.78857303  1
  Bi2+  Bi92  1  0.76642097  0.65002231  0.27866399  1
  Bi2+  Bi93  1  0.78578724  0.59759335  0.71618816  1
  Bi2+  Bi94  1  0.76100922  0.83615476  0.32486547  1
  Bi2+  Bi95  1  0.71816969  0.86768119  0.78382500  1
  Bi2+  Bi96  1  0.10808423  0.00123698  0.22129790  1
  Bi2+  Bi97  1  0.12454922  0.01013726  0.70304241  1
  Bi2+  Bi98  1  0.12600952  0.21904872  0.22840426  1
  Bi2+  Bi99  1  0.10875927  0.29293205  0.71818912  1
  Bi2+  Bi100  1  0.10064045  0.49063203  0.21353981  1
  Bi2+  Bi101  1  0.14663562  0.51235398  0.69068947  1
  Bi2+  Bi102  1  0.13165537  0.73640564  0.20637794  1
  Bi2+  Bi103  1  0.14952127  0.71398155  0.71670396  1
  Bi2+  Bi104  1  0.39108152  -0.00240747  0.20279829  1
  Bi2+  Bi105  1  0.38239499  -0.03633754  0.70940175  1
  Bi2+  Bi106  1  0.31316690  0.24232797  0.20023888  1
  Bi2+  Bi107  1  0.43599968  0.24814735  0.70248802  1
  Bi2+  Bi108  1  0.34987544  0.42587801  0.23836579  1
  Bi2+  Bi109  1  0.38063957  0.46722799  0.71670116  1
  Bi2+  Bi110  1  0.39548200  0.72081844  0.20008856  1
  Bi2+  Bi111  1  0.35097876  0.74623831  0.71008049  1
  Bi2+  Bi112  1  0.62822038  0.02400194  0.21468723  1
  Bi2+  Bi113  1  0.61954841  0.06633944  0.75150521  1
  Bi2+  Bi114  1  0.65075275  0.21393350  0.22917707  1
  Bi2+  Bi115  1  0.62037432  0.21884089  0.67754484  1
  Bi2+  Bi116  1  0.63035998  0.49526872  0.19261974  1
  Bi2+  Bi117  1  0.63091286  0.47343377  0.70756132  1
  Bi2+  Bi118  1  0.65295420  0.74384680  0.20121899  1
  Bi2+  Bi119  1  0.59666544  0.81272125  0.70217670  1
  Bi2+  Bi120  1  0.83496168  -0.02160999  0.21005004  1
  Bi2+  Bi121  1  0.86473999  0.01244007  0.70733352  1
  Bi2+  Bi122  1  0.91006690  0.20018252  0.20598858  1
  Bi2+  Bi123  1  0.85537627  0.27993365  0.72117611  1
  Bi2+  Bi124  1  0.89553286  0.44132652  0.21852172  1
  Bi2+  Bi125  1  0.95279579  0.51761928  0.68700406  1
  Bi2+  Bi126  1  0.86639048  0.78682321  0.21539921  1
  Bi2+  Bi127  1  0.89986626  0.76294508  0.70686646  1
  S2-  S128  1  0.00206336  0.08759601  0.15315639  1
  S2-  S129  1  -0.01697338  0.10005224  0.67145582  1
  S2-  S130  1  -0.02188660  0.34466297  0.15356037  1
  S2-  S131  1  -0.01777832  0.30806251  0.65098358  1
  S2-  S132  1  0.01604612  0.62133195  0.17113641  1
  S2-  S133  1  0.02498844  0.71584553  0.64103323  1
  S2-  S134  1  0.07895723  0.87331449  0.14991207  1
  S2-  S135  1  -0.01323927  0.90318068  0.67125970  1
  S2-  S136  1  0.23745641  0.02602510  0.15556266  1
  S2-  S137  1  0.18903534  0.15126005  0.67660961  1
  S2-  S138  1  0.23005415  0.39501780  0.16007364  1
  S2-  S139  1  0.25300942  0.38056536  0.65830477  1
  S2-  S140  1  0.25865230  0.63497950  0.16335974  1
  S2-  S141  1  0.26301563  0.63549840  0.64548048  1
  S2-  S142  1  0.27465001  0.82967347  0.18588777  1
  S2-  S143  1  0.23430628  0.92960560  0.63605578  1
  S2-  S144  1  0.42815117  0.13278058  0.14803453  1
  S2-  S145  1  0.38995129  0.10646054  0.64857335  1
  S2-  S146  1  0.52456813  0.37321712  0.16264121  1
  S2-  S147  1  0.49787602  0.47624543  0.63979750  1
  S2-  S148  1  0.50479694  0.60790187  0.15863479  1
  S2-  S149  1  0.48512282  0.73018418  0.64293196  1
  S2-  S150  1  0.47957278  0.86282255  0.16309601  1
  S2-  S151  1  0.52987929  0.94634691  0.65296196  1
  S2-  S152  1  0.76508785  0.18488881  0.15467928  1
  S2-  S153  1  0.75336759  0.09533140  0.65734440  1
  S2-  S154  1  0.75020537  0.40580294  0.15666722  1
  S2-  S155  1  0.70764734  0.36057700  0.64540538  1
  S2-  S156  1  0.73855315  0.61828536  0.15586389  1
  S2-  S157  1  0.67088546  0.61126697  0.64180103  1
  S2-  S158  1  0.74629747  0.86713654  0.14616648  1
  S2-  S159  1  0.76168203  0.84996556  0.66473649  1
  S2-  S160  1  0.18202587  -0.01672399  0.31400378  1
  S2-  S161  1  0.03678679  -0.00369330  0.85101972  1
  S2-  S162  1  0.12682532  0.15893715  0.36402064  1
  S2-  S163  1  0.14498516  0.21975103  0.85162328  1
  S2-  S164  1  0.10100215  0.58294389  0.35056317  1
  S2-  S165  1  0.14908975  0.51959045  0.84554758  1
  S2-  S166  1  0.13491982  0.78455705  0.30596309  1
  S2-  S167  1  0.05189571  0.75049753  0.85765001  1
  S2-  S168  1  0.40204965  -0.03869552  0.33884310  1
  S2-  S169  1  0.26373648  0.01578174  0.86239469  1
  S2-  S170  1  0.45919099  0.23432691  0.35332688  1
  S2-  S171  1  0.37967599  0.26513714  0.84604904  1
  S2-  S172  1  0.46500321  0.50006056  0.35057072  1
  S2-  S173  1  0.41380087  0.52196578  0.85286027  1
  S2-  S174  1  0.32628363  0.69569960  0.32582211  1
  S2-  S175  1  0.39026431  0.76604678  0.84402860  1
  S2-  S176  1  0.61665831  0.08846769  0.35781612  1
  S2-  S177  1  0.60967019  -0.01316194  0.84437750  1
  S2-  S178  1  0.63051074  0.36288194  0.34454314  1
  S2-  S179  1  0.61786513  0.35514240  0.85735312  1
  S2-  S180  1  0.64523698  0.61298515  0.34871877  1
  S2-  S181  1  0.63937137  0.56521389  0.82870935  1
  S2-  S182  1  0.51436302  0.76377192  0.35320898  1
  S2-  S183  1  0.60552932  0.76497224  0.83878852  1
  S2-  S184  1  0.96495893  -0.00225807  0.35944196  1
  S2-  S185  1  0.83893211  -0.03045521  0.80976890  1
  S2-  S186  1  0.81386388  0.22541437  0.34031410  1
  S2-  S187  1  0.85536093  0.16468710  0.84981541  1
  S2-  S188  1  0.86206716  0.47996672  0.34281386  1
  S2-  S189  1  0.89585538  0.58035155  0.85822530  1
  S2-  S190  1  0.95282062  0.74054473  0.35802753  1
  S2-  S191  1  0.83787523  0.76663481  0.81133121  1
  S2-  S192  1  -0.00176069  0.11734666  0.46297534  1
  S2-  S193  1  0.00447469  0.13168880  0.95328050  1
  S2-  S194  1  0.00338827  0.36205554  0.44948156  1
  S2-  S195  1  0.00579307  0.37994206  0.95276141  1
  S2-  S196  1  -0.00376126  0.61266419  0.45819320  1
  S2-  S197  1  0.00578276  0.63200445  0.96334831  1
  S2-  S198  1  0.00025031  0.86485177  0.45819509  1
  S2-  S199  1  -0.00034579  0.88006106  0.95632121  1
  S2-  S200  1  0.24977267  0.11087763  0.46165899  1
  S2-  S201  1  0.25595935  0.13372560  0.96662892  1
  S2-  S202  1  0.24847443  0.36234467  0.45592438  1
  S2-  S203  1  0.25313875  0.38091135  0.95446412  1
  S2-  S204  1  0.24951004  0.61417553  0.44248340  1
  S2-  S205  1  0.24976091  0.63506942  0.95575312  1
  S2-  S206  1  0.24490010  0.86698097  0.43630171  1
  S2-  S207  1  0.25111446  0.87645440  0.95906555  1
  S2-  S208  1  0.49944319  0.11089480  0.46103266  1
  S2-  S209  1  0.50182354  0.12756261  0.95152833  1
  S2-  S210  1  0.49611260  0.36167916  0.45631735  1
  S2-  S211  1  0.49896483  0.37988648  0.95813289  1
  S2-  S212  1  0.49738685  0.61500201  0.45697638  1
  S2-  S213  1  0.50524932  0.63165701  0.95465184  1
  S2-  S214  1  0.50509952  0.87165667  0.45581505  1
  S2-  S215  1  0.50217943  0.88226771  0.95504125  1
  S2-  S216  1  0.75476412  0.11176541  0.45290241  1
  S2-  S217  1  0.75400921  0.12591574  0.95319385  1
  S2-  S218  1  0.75076809  0.36222475  0.44642958  1
  S2-  S219  1  0.75734602  0.38031128  0.95259786  1
  S2-  S220  1  0.75749661  0.61628920  0.45038209  1
  S2-  S221  1  0.75293243  0.63325909  0.94847547  1
  S2-  S222  1  0.75241196  0.86836643  0.45470485  1
  S2-  S223  1  0.75961132  0.87914726  0.94064913  1
  S2-  S224  1  0.12602291  0.00706271  0.04351163  1
  S2-  S225  1  0.11816068  -0.00850808  0.54265508  1
  S2-  S226  1  0.12707570  0.25418556  0.05659868  1
  S2-  S227  1  0.12811851  0.23920399  0.55448215  1
  S2-  S228  1  0.12562162  0.50487182  0.05371474  1
  S2-  S229  1  0.12551841  0.48794197  0.54273071  1
  S2-  S230  1  0.12869392  0.75777813  0.05227048  1
  S2-  S231  1  0.12742878  0.73792136  0.53331025  1
  S2-  S232  1  0.37413772  0.00140076  0.04656424  1
  S2-  S233  1  0.37761363  -0.01627707  0.54315716  1
  S2-  S234  1  0.37976084  0.26028933  0.05156535  1
  S2-  S235  1  0.37768129  0.24100844  0.55003081  1
  S2-  S236  1  0.37953683  0.50794942  0.05538096  1
  S2-  S237  1  0.37375473  0.48869976  0.54180738  1
  S2-  S238  1  0.37732864  0.75518467  0.05350610  1
  S2-  S239  1  0.36903371  0.74099997  0.53420685  1
  S2-  S240  1  0.62877506  0.00685667  0.05067982  1
  S2-  S241  1  0.62927408  -0.00902567  0.54533824  1
  S2-  S242  1  0.62953133  0.25524586  0.04828091  1
  S2-  S243  1  0.62471857  0.23785152  0.53794474  1
  S2-  S244  1  0.62937884  0.50556218  0.04086446  1
  S2-  S245  1  0.63026832  0.48623033  0.53345529  1
  S2-  S246  1  0.62629929  0.75602554  0.04542876  1
  S2-  S247  1  0.63159651  0.73826466  0.53817036  1
  S2-  S248  1  0.87957943  0.00698564  0.04867488  1
  S2-  S249  1  0.87580038  -0.01008887  0.55146309  1
  S2-  S250  1  0.87892302  0.25637274  0.04253576  1
  S2-  S251  1  0.87393598  0.24159851  0.54456349  1
  S2-  S252  1  0.87908226  0.50308443  0.05289885  1
  S2-  S253  1  0.87203963  0.48574867  0.54859361  1
  S2-  S254  1  0.88152706  0.75737099  0.05233211  1
  S2-  S255  1  0.87228542  0.73587692  0.55068142  1
