# generated using pymatgen
data_La12Ce14Pr13Nd13Sm12(BiS2)64
_symmetry_space_group_name_H-M   'P 1'
_cell_length_a   16.21723421
_cell_length_b   16.21910645
_cell_length_c   27.23202069
_cell_angle_alpha   89.95026242
_cell_angle_beta   90.07670438
_cell_angle_gamma   89.97943960
_symmetry_Int_Tables_number   1
_chemical_formula_structural   La12Ce14Pr13Nd13Sm12(BiS2)64
_chemical_formula_sum   'La12 Ce14 Pr13 Nd13 Sm12 Bi64 S128'
_cell_volume   7162.80289477
_cell_formula_units_Z   1
loop_
 _symmetry_equiv_pos_site_id
 _symmetry_equiv_pos_as_xyz
  1  'x, y, z'
loop_
 _atom_type_symbol
 _atom_type_oxidation_number
  La3+  3.0
  Ce3+  3.0
  Pr3+  3.0
  Nd3+  3.0
  Sm3+  3.0
  Bi2+  2.0
  S2-  -2.0
loop_
 _atom_site_type_symbol
 _atom_site_label
 _atom_site_symmetry_multiplicity
 _atom_site_fract_x
 _atom_site_fract_y
 _atom_site_fract_z
 _atom_site_occupancy
  La3+  La0  1  0.88690342  0.49608563  0.41892095  1
  La3+  La1  1  0.49985366  0.36142563  0.07396339  1
  La3+  La2  1  0.13633882  0.25562253  0.43545061  1
  La3+  La3  1  0.12961412  0.24089456  0.93450709  1
  La3+  La4  1  0.26286006  0.62988076  0.58872895  1
  La3+  La5  1  0.87584093  0.00564043  0.41853829  1
  La3+  La6  1  0.89271412  0.75665871  0.40993868  1
  La3+  La7  1  0.88104229  -0.01288168  0.93561492  1
  La3+  La8  1  0.00765942  0.36421480  0.09208852  1
  La3+  La9  1  0.62808044  0.72898521  0.92444815  1
  La3+  La10  1  0.64137790  0.74799650  0.42337099  1
  La3+  La11  1  0.50821374  0.37666086  0.56988273  1
  Ce3+  Ce12  1  0.00766526  0.12551816  0.55636126  1
  Ce3+  Ce13  1  0.38268930  0.23927334  0.93610661  1
  Ce3+  Ce14  1  0.00539775  0.61748547  0.06102838  1
  Ce3+  Ce15  1  0.13139215  0.74126436  0.94189238  1
  Ce3+  Ce16  1  0.51066357  0.87224565  0.55459356  1
  Ce3+  Ce17  1  0.62929686  0.49865174  0.44332591  1
  Ce3+  Ce18  1  0.50267206  0.61856851  0.05871314  1
  Ce3+  Ce19  1  0.76212557  0.38037599  0.55743800  1
  Ce3+  Ce20  1  0.00304300  0.11785234  0.06494288  1
  Ce3+  Ce21  1  0.00674040  0.87596541  0.54696036  1
  Ce3+  Ce22  1  0.25841695  0.12531138  0.56812016  1
  Ce3+  Ce23  1  0.00185508  0.86274130  0.06257718  1
  Ce3+  Ce24  1  0.37847271  0.74177171  0.94222163  1
  Ce3+  Ce25  1  0.38227484  0.74642738  0.43491424  1
  Pr3+  Pr26  1  0.62852048  0.24124321  0.94133346  1
  Pr3+  Pr27  1  0.50787880  0.12406337  0.56351675  1
  Pr3+  Pr28  1  0.12979903  -0.00903329  0.94442500  1
  Pr3+  Pr29  1  0.50520984  0.11523558  0.06402752  1
  Pr3+  Pr30  1  0.63022843  0.00458613  0.44108934  1
  Pr3+  Pr31  1  0.88031505  0.24248572  0.94350729  1
  Pr3+  Pr32  1  0.87734099  0.73819502  0.93861690  1
  Pr3+  Pr33  1  0.12970452  0.49016506  0.93953296  1
  Pr3+  Pr34  1  0.75520219  0.36624692  0.06267121  1
  Pr3+  Pr35  1  0.38134336  0.00188063  0.44365914  1
  Pr3+  Pr36  1  0.76295253  0.87266370  0.55712625  1
  Pr3+  Pr37  1  0.89030709  0.25324620  0.43130614  1
  Pr3+  Pr38  1  0.00779162  0.63010929  0.55348138  1
  Nd3+  Nd39  1  0.25644803  0.36548402  0.06689546  1
  Nd3+  Nd40  1  0.88059086  0.49048109  0.94844245  1
  Nd3+  Nd41  1  0.37795615  0.48755385  0.93316428  1
  Nd3+  Nd42  1  0.51227088  0.63544447  0.56645711  1
  Nd3+  Nd43  1  0.75304630  0.61882518  0.06787396  1
  Nd3+  Nd44  1  0.25459820  0.86718509  0.05713102  1
  Nd3+  Nd45  1  0.38089313  0.26067105  0.43315200  1
  Nd3+  Nd46  1  0.01050272  0.37824713  0.56510610  1
  Nd3+  Nd47  1  0.38032585  0.50787706  0.44275363  1
  Nd3+  Nd48  1  0.62618639  0.48869438  0.94858010  1
  Nd3+  Nd49  1  0.25330660  0.11661028  0.05690684  1
  Nd3+  Nd50  1  0.76148274  0.12698472  0.55650717  1
  Nd3+  Nd51  1  0.13754514  0.74814726  0.43014107  1
  Sm3+  Sm52  1  0.25460956  0.61566079  0.05532187  1
  Sm3+  Sm53  1  0.50700137  0.86508363  0.05163599  1
  Sm3+  Sm54  1  0.75565473  0.11653249  0.05546525  1
  Sm3+  Sm55  1  0.75275541  0.86574373  0.05516501  1
  Sm3+  Sm56  1  0.13742745  0.50196279  0.45128133  1
  Sm3+  Sm57  1  0.63033508  -0.00972577  0.94143990  1
  Sm3+  Sm58  1  0.13607944  0.00271529  0.44618692  1
  Sm3+  Sm59  1  0.25932492  0.36708857  0.57235937  1
  Sm3+  Sm60  1  0.63068579  0.25405633  0.44634263  1
  Sm3+  Sm61  1  0.25803268  0.87255873  0.55627876  1
  Sm3+  Sm62  1  0.76248024  0.62624435  0.54462177  1
  Sm3+  Sm63  1  0.38250102  -0.00955448  0.94429311  1
  Bi2+  Bi64  1  -0.04405377  0.12083192  0.30583698  1
  Bi2+  Bi65  1  -0.02405184  0.12202298  0.79376191  1
  Bi2+  Bi66  1  -0.00571671  0.38982713  0.29927165  1
  Bi2+  Bi67  1  -0.02083412  0.38506865  0.81290340  1
  Bi2+  Bi68  1  0.03043140  0.64726359  0.26461283  1
  Bi2+  Bi69  1  -0.04018787  0.62160785  0.75240110  1
  Bi2+  Bi70  1  0.10405028  0.87992805  0.28732900  1
  Bi2+  Bi71  1  0.01728721  0.89475170  0.74189772  1
  Bi2+  Bi72  1  0.26910852  0.09867227  0.29605625  1
  Bi2+  Bi73  1  0.22655937  0.06094609  0.79612964  1
  Bi2+  Bi74  1  0.25221030  0.37250237  0.30178333  1
  Bi2+  Bi75  1  0.22867860  0.37574997  0.80865016  1
  Bi2+  Bi76  1  0.22735436  0.62189583  0.31459471  1
  Bi2+  Bi77  1  0.27707825  0.67640824  0.80663088  1
  Bi2+  Bi78  1  0.27648980  0.80928414  0.32193463  1
  Bi2+  Bi79  1  0.21522075  0.85815469  0.78803016  1
  Bi2+  Bi80  1  0.50572344  0.11315001  0.23146257  1
  Bi2+  Bi81  1  0.50161733  0.13858222  0.79268688  1
  Bi2+  Bi82  1  0.47915144  0.30857873  0.29473247  1
  Bi2+  Bi83  1  0.55355780  0.41436087  0.80991955  1
  Bi2+  Bi84  1  0.46831425  0.61272959  0.25696853  1
  Bi2+  Bi85  1  0.52161608  0.60106485  0.78539065  1
  Bi2+  Bi86  1  0.47652853  0.92110618  0.29100216  1
  Bi2+  Bi87  1  0.42841807  0.89680771  0.78296914  1
  Bi2+  Bi88  1  0.76856683  0.11526874  0.27867646  1
  Bi2+  Bi89  1  0.68807311  0.10659371  0.75979413  1
  Bi2+  Bi90  1  0.70692600  0.32400255  0.30340291  1
  Bi2+  Bi91  1  0.73636464  0.39555266  0.76888073  1
  Bi2+  Bi92  1  0.64643569  0.64651760  0.29040024  1
  Bi2+  Bi93  1  0.80334714  0.66697372  0.80940654  1
  Bi2+  Bi94  1  0.74274454  0.87345625  0.29795132  1
  Bi2+  Bi95  1  0.76750492  0.91040146  0.79844286  1
  Bi2+  Bi96  1  0.11157333  0.04673841  0.22671145  1
  Bi2+  Bi97  1  0.15751525  0.00442241  0.69380540  1
  Bi2+  Bi98  1  0.13302782  0.23927952  0.21433855  1
  Bi2+  Bi99  1  0.10971871  0.23010331  0.70656237  1
  Bi2+  Bi100  1  0.12597159  0.50963102  0.20764590  1
  Bi2+  Bi101  1  0.10896768  0.48296887  0.70826948  1
  Bi2+  Bi102  1  0.19041078  0.75370399  0.21222112  1
  Bi2+  Bi103  1  0.12286052  0.74407112  0.69663147  1
  Bi2+  Bi104  1  0.34547596  -0.00139085  0.21127421  1
  Bi2+  Bi105  1  0.34929610  0.00336874  0.68936545  1
  Bi2+  Bi106  1  0.36788688  0.26382999  0.20615102  1
  Bi2+  Bi107  1  0.33650097  0.18664902  0.73935512  1
  Bi2+  Bi108  1  0.32105550  0.50247171  0.22542955  1
  Bi2+  Bi109  1  0.36563197  0.50326090  0.71658976  1
  Bi2+  Bi110  1  0.38568348  0.78385382  0.22556516  1
  Bi2+  Bi111  1  0.42374840  0.75073980  0.70908161  1
  Bi2+  Bi112  1  0.62630262  -0.03332196  0.21483369  1
  Bi2+  Bi113  1  0.54361138  0.01508916  0.70187804  1
  Bi2+  Bi114  1  0.65076009  0.26148479  0.19815963  1
  Bi2+  Bi115  1  0.59404564  0.30684582  0.70717753  1
  Bi2+  Bi116  1  0.58816952  0.44494293  0.24261238  1
  Bi2+  Bi117  1  0.66451110  0.56848538  0.70790506  1
  Bi2+  Bi118  1  0.62188841  0.76368640  0.18670397  1
  Bi2+  Bi119  1  0.61642446  0.75384730  0.73182913  1
  Bi2+  Bi120  1  0.91637615  0.01055309  0.21773588  1
  Bi2+  Bi121  1  0.88547370  0.00341355  0.68107551  1
  Bi2+  Bi122  1  0.86627974  0.23898038  0.21080824  1
  Bi2+  Bi123  1  0.83916259  0.22512224  0.73969555  1
  Bi2+  Bi124  1  0.83794155  0.50333762  0.22578956  1
  Bi2+  Bi125  1  0.84465410  0.49494825  0.69268258  1
  Bi2+  Bi126  1  0.87767158  0.76236378  0.19106607  1
  Bi2+  Bi127  1  0.85701100  0.76742077  0.70298856  1
  S2-  S128  1  -0.00166308  0.21375449  0.14856521  1
  S2-  S129  1  0.02132626  0.12181752  0.65527665  1
  S2-  S130  1  -0.03134796  0.45791957  0.17934408  1
  S2-  S131  1  0.02113001  0.34900263  0.66562839  1
  S2-  S132  1  -0.00256197  0.67713388  0.15306130  1
  S2-  S133  1  0.02358889  0.60273114  0.65249378  1
  S2-  S134  1  -0.01569708  0.88881736  0.15862757  1
  S2-  S135  1  -0.00825630  0.83360778  0.64122043  1
  S2-  S136  1  0.25495159  0.16936947  0.15123197  1
  S2-  S137  1  0.25759881  0.22604437  0.64792075  1
  S2-  S138  1  0.15385404  0.36897986  0.14914001  1
  S2-  S139  1  0.24607443  0.42272861  0.66693971  1
  S2-  S140  1  0.24619446  0.61292589  0.15320753  1
  S2-  S141  1  0.22330802  0.60596395  0.69887266  1
  S2-  S142  1  0.25032871  0.88998065  0.15527650  1
  S2-  S143  1  0.25411480  0.78600105  0.64062828  1
  S2-  S144  1  0.50510046  0.22487377  0.14170478  1
  S2-  S145  1  0.52344637  0.17754335  0.65821988  1
  S2-  S146  1  0.37400554  0.39564939  0.14248328  1
  S2-  S147  1  0.46788156  0.39254655  0.66765583  1
  S2-  S148  1  0.52874734  0.63559573  0.15461563  1
  S2-  S149  1  0.41235477  0.60942148  0.64776057  1
  S2-  S150  1  0.51744206  0.87614548  0.14914042  1
  S2-  S151  1  0.53742716  0.77793067  0.63476814  1
  S2-  S152  1  0.75310591  0.13892808  0.15227667  1
  S2-  S153  1  0.78310321  0.12513208  0.65567240  1
  S2-  S154  1  0.77647608  0.37800095  0.16245615  1
  S2-  S155  1  0.74016313  0.36655072  0.65341367  1
  S2-  S156  1  0.77236199  0.62743905  0.16772966  1
  S2-  S157  1  0.78547117  0.64489570  0.64166065  1
  S2-  S158  1  0.75608252  0.86999520  0.15385654  1
  S2-  S159  1  0.76395289  0.89532584  0.65822710  1
  S2-  S160  1  0.13959323  0.01608526  0.34868299  1
  S2-  S161  1  0.08210712  0.02662935  0.85015290  1
  S2-  S162  1  0.02644014  0.25129748  0.35455887  1
  S2-  S163  1  0.10381579  0.26576087  0.83489734  1
  S2-  S164  1  0.12806090  0.44938799  0.35680742  1
  S2-  S165  1  0.09990986  0.48445996  0.83897361  1
  S2-  S166  1  0.03682395  0.74198632  0.34693922  1
  S2-  S167  1  0.13103053  0.73057057  0.84355479  1
  S2-  S168  1  0.40568175  0.04892166  0.34859049  1
  S2-  S169  1  0.39800808  0.02491117  0.84888322  1
  S2-  S170  1  0.25614374  0.23640278  0.36118912  1
  S2-  S171  1  0.34209873  0.27773775  0.84338335  1
  S2-  S172  1  0.38711669  0.39825730  0.36500973  1
  S2-  S173  1  0.32222076  0.51060335  0.83822182  1
  S2-  S174  1  0.37601565  0.62536261  0.36365433  1
  S2-  S175  1  0.41771241  0.74645368  0.84760714  1
  S2-  S176  1  0.70968442  0.01251704  0.35273221  1
  S2-  S177  1  0.65023007  0.00280307  0.84454570  1
  S2-  S178  1  0.59961576  0.22288110  0.35162189  1
  S2-  S179  1  0.59666630  0.25911938  0.84350329  1
  S2-  S180  1  0.63927849  0.49090375  0.34510174  1
  S2-  S181  1  0.63116989  0.56931511  0.86140962  1
  S2-  S182  1  0.57974726  0.79259243  0.33226876  1
  S2-  S183  1  0.66191587  0.78264446  0.83049896  1
  S2-  S184  1  0.88584918  -0.10425065  0.34092124  1
  S2-  S185  1  0.86758197  0.02399505  0.83754548  1
  S2-  S186  1  0.86037593  0.36069865  0.35204806  1
  S2-  S187  1  0.87602996  0.24703108  0.84348377  1
  S2-  S188  1  0.91854280  0.54530925  0.31875621  1
  S2-  S189  1  0.87407384  0.49792405  0.84942811  1
  S2-  S190  1  0.77329590  0.71989047  0.33802953  1
  S2-  S191  1  0.88470182  0.80279697  0.84505649  1
  S2-  S192  1  0.00836487  0.12079624  0.45199812  1
  S2-  S193  1  0.00256951  0.11689962  0.95768952  1
  S2-  S194  1  0.00957115  0.38064795  0.45978998  1
  S2-  S195  1  0.00416127  0.36684293  0.95575603  1
  S2-  S196  1  0.01132152  0.62113988  0.44714592  1
  S2-  S197  1  0.00461868  0.61674859  0.95274852  1
  S2-  S198  1  0.01426753  0.88111571  0.44404269  1
  S2-  S199  1  0.00609366  0.86409965  0.95452142  1
  S2-  S200  1  0.25884384  0.12423731  0.46231700  1
  S2-  S201  1  0.25726234  0.11370792  0.95021134  1
  S2-  S202  1  0.25785871  0.37964272  0.46625638  1
  S2-  S203  1  0.25482283  0.36631852  0.95596877  1
  S2-  S204  1  0.25376919  0.62731198  0.46366832  1
  S2-  S205  1  0.25576715  0.61576338  0.95080973  1
  S2-  S206  1  0.25702749  0.87623410  0.45211543  1
  S2-  S207  1  0.25711097  0.86887345  0.94978028  1
  S2-  S208  1  0.50589231  0.13022157  0.45698566  1
  S2-  S209  1  0.50693638  0.11305746  0.95616447  1
  S2-  S210  1  0.50953526  0.37561407  0.46149330  1
  S2-  S211  1  0.50214323  0.36596252  0.95931306  1
  S2-  S212  1  0.51308931  0.62711750  0.45706016  1
  S2-  S213  1  0.49842474  0.61329317  0.95352260  1
  S2-  S214  1  0.50817257  0.87597227  0.44887150  1
  S2-  S215  1  0.50766145  0.86752851  0.94709582  1
  S2-  S216  1  0.75768935  0.13455213  0.45109164  1
  S2-  S217  1  0.75329336  0.11557585  0.95034699  1
  S2-  S218  1  0.75467555  0.37504713  0.45397744  1
  S2-  S219  1  0.75246205  0.36769161  0.95359005  1
  S2-  S220  1  0.76265716  0.61750083  0.44225558  1
  S2-  S221  1  0.75504111  0.61295384  0.96083727  1
  S2-  S222  1  0.75766400  0.87798417  0.44967908  1
  S2-  S223  1  0.75032417  0.86458531  0.95056571  1
  S2-  S224  1  0.12824583  -0.00823615  0.05198720  1
  S2-  S225  1  0.13509479  -0.00222795  0.55084360  1
  S2-  S226  1  0.12901873  0.24028669  0.04326035  1
  S2-  S227  1  0.13075421  0.25215607  0.54661683  1
  S2-  S228  1  0.12988083  0.49382891  0.04741927  1
  S2-  S229  1  0.13666435  0.50195651  0.55524851  1
  S2-  S230  1  0.13277912  0.74142003  0.04879299  1
  S2-  S231  1  0.13295062  0.75271816  0.53771667  1
  S2-  S232  1  0.38171265  -0.00975734  0.04952287  1
  S2-  S233  1  0.38345378  -0.00366823  0.55104713  1
  S2-  S234  1  0.37686344  0.23800757  0.04166638  1
  S2-  S235  1  0.38466721  0.25037060  0.54670857  1
  S2-  S236  1  0.37858546  0.49633410  0.04118631  1
  S2-  S237  1  0.38020816  0.49884482  0.54941022  1
  S2-  S238  1  0.37907453  0.74367859  0.05014897  1
  S2-  S239  1  0.38388877  0.75229484  0.54081648  1
  S2-  S240  1  0.63111525  -0.00868824  0.04752905  1
  S2-  S241  1  0.63593809  0.00069515  0.54860832  1
  S2-  S242  1  0.63293162  0.24005851  0.04661401  1
  S2-  S243  1  0.63592181  0.25053209  0.55065779  1
  S2-  S244  1  0.62711603  0.49050584  0.05600813  1
  S2-  S245  1  0.63431703  0.50644471  0.55105164  1
  S2-  S246  1  0.62952828  0.74201237  0.03995193  1
  S2-  S247  1  0.64163684  0.74934353  0.53356939  1
  S2-  S248  1  0.87600390  -0.00895075  0.04648930  1
  S2-  S249  1  0.88251204  0.00192910  0.53682254  1
  S2-  S250  1  0.87747956  0.24249400  0.04909239  1
  S2-  S251  1  0.88551822  0.25300010  0.54581415  1
  S2-  S252  1  0.87974486  0.49256204  0.05516617  1
  S2-  S253  1  0.88542012  0.50228482  0.53992214  1
  S2-  S254  1  0.87492246  0.74152788  0.04605895  1
  S2-  S255  1  0.88339218  0.75019229  0.53115258  1
