# generated using pymatgen
data_La12Ce14Pr13Nd13Sm12(BiS2)64
_symmetry_space_group_name_H-M   'P 1'
_cell_length_a   16.10140492
_cell_length_b   16.05097838
_cell_length_c   27.45472933
_cell_angle_alpha   89.73791428
_cell_angle_beta   89.25829636
_cell_angle_gamma   90.13845316
_symmetry_Int_Tables_number   1
_chemical_formula_structural   La12Ce14Pr13Nd13Sm12(BiS2)64
_chemical_formula_sum   'La12 Ce14 Pr13 Nd13 Sm12 Bi64 S128'
_cell_volume   7094.80042703
_cell_formula_units_Z   1
loop_
 _symmetry_equiv_pos_site_id
 _symmetry_equiv_pos_as_xyz
  1  'x, y, z'
loop_
 _atom_type_symbol
 _atom_type_oxidation_number
  La3+  3.0
  Ce3+  3.0
  Pr3+  3.0
  Nd3+  3.0
  Sm3+  3.0
  Bi2+  2.0
  S2-  -2.0
loop_
 _atom_site_type_symbol
 _atom_site_label
 _atom_site_symmetry_multiplicity
 _atom_site_fract_x
 _atom_site_fract_y
 _atom_site_fract_z
 _atom_site_occupancy
  La3+  La0  1  0.64003594  0.72858306  0.42007145  1
  La3+  La1  1  -0.01452244  0.85475571  0.08337036  1
  La3+  La2  1  0.08599257  0.25133048  0.87751232  1
  La3+  La3  1  0.37458237  0.48150582  0.39535595  1
  La3+  La4  1  0.49276102  0.60307046  0.09893894  1
  La3+  La5  1  0.35485924  0.23520654  0.92835273  1
  La3+  La6  1  0.63822361  0.48005860  0.41931274  1
  La3+  La7  1  0.12714726  0.49675752  0.92169244  1
  La3+  La8  1  0.89465384  0.22802664  0.42197209  1
  La3+  La9  1  0.63919147  0.23158654  0.41098193  1
  La3+  La10  1  0.72908466  0.12550234  0.08051979  1
  La3+  La11  1  0.23535690  0.61483309  0.08345113  1
  Ce3+  Ce12  1  0.50857801  0.60161814  0.55243527  1
  Ce3+  Ce13  1  0.11867504  -0.00507950  0.94734166  1
  Ce3+  Ce14  1  0.48742519  0.86094046  0.06645050  1
  Ce3+  Ce15  1  0.11484202  0.73943438  0.94314725  1
  Ce3+  Ce16  1  0.50926264  0.35576593  0.55363211  1
  Ce3+  Ce17  1  0.00672059  0.09781045  0.56182123  1
  Ce3+  Ce18  1  0.38404203  0.23615108  0.44292971  1
  Ce3+  Ce19  1  0.38565701  0.72606474  0.44195631  1
  Ce3+  Ce20  1  0.13963321  0.72576895  0.44538298  1
  Ce3+  Ce21  1  -0.00924676  0.36615545  0.05124354  1
  Ce3+  Ce22  1  0.74075860  0.86284458  0.06298811  1
  Ce3+  Ce23  1  -0.01328736  0.11394212  0.05760881  1
  Ce3+  Ce24  1  0.25871736  0.85641459  0.56529871  1
  Ce3+  Ce25  1  0.61247850  -0.00998786  0.95272023  1
  Pr3+  Pr26  1  0.38503888  -0.01936983  0.43597182  1
  Pr3+  Pr27  1  0.23813708  0.11438543  0.07046203  1
  Pr3+  Pr28  1  0.00276999  0.34655192  0.57355573  1
  Pr3+  Pr29  1  0.37261793  -0.01347352  0.93460963  1
  Pr3+  Pr30  1  0.61227093  0.48821404  0.93173129  1
  Pr3+  Pr31  1  0.85849374  0.22884080  0.93677020  1
  Pr3+  Pr32  1  0.61401680  0.73418714  0.94799413  1
  Pr3+  Pr33  1  0.88578411  0.47773035  0.43906146  1
  Pr3+  Pr34  1  0.48094972  0.11474139  0.06949773  1
  Pr3+  Pr35  1  0.14013678  -0.02410962  0.43179597  1
  Pr3+  Pr36  1  0.51088632  0.84372589  0.56471502  1
  Pr3+  Pr37  1  0.26011573  0.10060509  0.56601860  1
  Pr3+  Pr38  1  0.26037044  0.34859729  0.57644278  1
  Nd3+  Nd39  1  0.23721880  0.85889658  0.06253904  1
  Nd3+  Nd40  1  -0.01465801  0.60317905  0.06204882  1
  Nd3+  Nd41  1  0.75870442  0.10307857  0.54975842  1
  Nd3+  Nd42  1  0.86731091  0.74087811  0.93605641  1
  Nd3+  Nd43  1  0.75675629  0.35190454  0.55596331  1
  Nd3+  Nd44  1  0.23564554  0.36785417  0.06085958  1
  Nd3+  Nd45  1  0.87138134  0.48077460  0.92511947  1
  Nd3+  Nd46  1  0.63359725  -0.02043376  0.42658684  1
  Nd3+  Nd47  1  0.86690238  -0.01525703  0.94198473  1
  Nd3+  Nd48  1  0.89624006  -0.02035487  0.42329017  1
  Nd3+  Nd49  1  0.60735646  0.23612716  0.93515225  1
  Nd3+  Nd50  1  0.75652747  0.61038992  0.56491183  1
  Nd3+  Nd51  1  0.73997763  0.60916873  0.05301226  1
  Sm3+  Sm52  1  0.88719249  0.72630612  0.43606743  1
  Sm3+  Sm53  1  0.36082987  0.49156495  0.94894777  1
  Sm3+  Sm54  1  0.48600395  0.36533110  0.05707186  1
  Sm3+  Sm55  1  0.00659777  0.60293815  0.55770567  1
  Sm3+  Sm56  1  0.25596193  0.60045732  0.56370273  1
  Sm3+  Sm57  1  0.73518937  0.36660690  0.04887424  1
  Sm3+  Sm58  1  0.51041411  0.09977793  0.55580045  1
  Sm3+  Sm59  1  0.13763761  0.47707396  0.44960354  1
  Sm3+  Sm60  1  0.00622613  0.85641423  0.55861920  1
  Sm3+  Sm61  1  0.13686853  0.23222991  0.44416303  1
  Sm3+  Sm62  1  0.36430796  0.73627014  0.94979232  1
  Sm3+  Sm63  1  0.75818245  0.85425792  0.54671460  1
  Bi2+  Bi64  1  0.04322100  0.12521916  0.30057289  1
  Bi2+  Bi65  1  -0.08209739  0.14589171  0.78686494  1
  Bi2+  Bi66  1  -0.00919073  0.47453579  0.31859899  1
  Bi2+  Bi67  1  -0.04323441  0.40940889  0.77534328  1
  Bi2+  Bi68  1  -0.02280779  0.66800343  0.31110760  1
  Bi2+  Bi69  1  0.02690241  0.74351509  0.79088681  1
  Bi2+  Bi70  1  0.05204787  0.84229629  0.28406437  1
  Bi2+  Bi71  1  0.10502241  0.91319209  0.82173204  1
  Bi2+  Bi72  1  0.27056435  0.12149858  0.29382439  1
  Bi2+  Bi73  1  0.24432928  0.13427576  0.78825926  1
  Bi2+  Bi74  1  0.22834718  0.31215932  0.28040105  1
  Bi2+  Bi75  1  0.25351629  0.40831862  0.78222943  1
  Bi2+  Bi76  1  0.21945465  0.62314866  0.30292448  1
  Bi2+  Bi77  1  0.26074031  0.64750853  0.79802941  1
  Bi2+  Bi78  1  0.26566329  0.92355833  0.25864563  1
  Bi2+  Bi79  1  0.29835739  0.89493535  0.78882351  1
  Bi2+  Bi80  1  0.47614222  0.08755665  0.30226346  1
  Bi2+  Bi81  1  0.50150073  0.12452414  0.80247175  1
  Bi2+  Bi82  1  0.48802285  0.30264740  0.28666212  1
  Bi2+  Bi83  1  0.51894214  0.40543767  0.79420015  1
  Bi2+  Bi84  1  0.48924947  0.63095387  0.27586699  1
  Bi2+  Bi85  1  0.48682431  0.70892355  0.78072073  1
  Bi2+  Bi86  1  0.43873106  0.89366301  0.31790233  1
  Bi2+  Bi87  1  0.57256481  0.89498885  0.78435740  1
  Bi2+  Bi88  1  0.76915755  0.13201541  0.28185141  1
  Bi2+  Bi89  1  0.69813385  0.18949526  0.81658356  1
  Bi2+  Bi90  1  0.84142709  0.37842560  0.27534712  1
  Bi2+  Bi91  1  0.71591521  0.37939112  0.78677636  1
  Bi2+  Bi92  1  0.74842905  0.61423812  0.28884056  1
  Bi2+  Bi93  1  0.77305866  0.72313113  0.80114768  1
  Bi2+  Bi94  1  0.82734106  0.91529712  0.29011717  1
  Bi2+  Bi95  1  0.76863026  0.91974642  0.79045595  1
  Bi2+  Bi96  1  0.15437943  0.05470389  0.20162672  1
  Bi2+  Bi97  1  0.13131610  -0.02263846  0.71097981  1
  Bi2+  Bi98  1  0.16577346  0.25132920  0.17519881  1
  Bi2+  Bi99  1  0.11907202  0.28979735  0.69217685  1
  Bi2+  Bi100  1  0.08561166  0.44325877  0.21729416  1
  Bi2+  Bi101  1  0.11775980  0.54442525  0.69716227  1
  Bi2+  Bi102  1  0.10527365  0.67382970  0.21784212  1
  Bi2+  Bi103  1  0.18128700  0.78253058  0.71780556  1
  Bi2+  Bi104  1  0.45691083  -0.00630686  0.20409814  1
  Bi2+  Bi105  1  0.39833992  0.00596909  0.70403585  1
  Bi2+  Bi106  1  0.35833914  0.25254794  0.19985588  1
  Bi2+  Bi107  1  0.39525613  0.25541806  0.70358443  1
  Bi2+  Bi108  1  0.34694756  0.45857911  0.20625189  1
  Bi2+  Bi109  1  0.41123907  0.53919991  0.73874973  1
  Bi2+  Bi110  1  0.33348453  0.75834231  0.21708284  1
  Bi2+  Bi111  1  0.39788360  0.80864725  0.69472602  1
  Bi2+  Bi112  1  0.68329911  -0.01692335  0.22000439  1
  Bi2+  Bi113  1  0.66520600  0.06073595  0.73121019  1
  Bi2+  Bi114  1  0.62891798  0.25355441  0.21435973  1
  Bi2+  Bi115  1  0.61470051  0.27955775  0.71015103  1
  Bi2+  Bi116  1  0.64692065  0.47187424  0.19272856  1
  Bi2+  Bi117  1  0.59140251  0.55181134  0.69525627  1
  Bi2+  Bi118  1  0.58703831  0.82221283  0.25467128  1
  Bi2+  Bi119  1  0.66197918  0.73267014  0.70326977  1
  Bi2+  Bi120  1  0.92420114  -0.00715212  0.20301884  1
  Bi2+  Bi121  1  0.93637306  -0.02576279  0.73157115  1
  Bi2+  Bi122  1  0.98026693  0.26846979  0.22610414  1
  Bi2+  Bi123  1  0.84370021  0.20342049  0.69250051  1
  Bi2+  Bi124  1  0.90934654  0.57234413  0.20212834  1
  Bi2+  Bi125  1  0.86499600  0.59770660  0.73237000  1
  Bi2+  Bi126  1  0.77136135  0.77354165  0.22062689  1
  Bi2+  Bi127  1  0.91622432  0.78362094  0.69930618  1
  S2-  S128  1  -0.00217296  0.13386057  0.15469850  1
  S2-  S129  1  0.00035598  0.20430340  0.64020138  1
  S2-  S130  1  -0.01935781  0.46340334  0.13277985  1
  S2-  S131  1  -0.00115212  0.41523639  0.67020714  1
  S2-  S132  1  -0.01618711  0.69959845  0.14642649  1
  S2-  S133  1  -0.00657674  0.63783049  0.65283088  1
  S2-  S134  1  0.05770383  0.91289770  0.17295783  1
  S2-  S135  1  0.00635174  0.97023393  0.63270181  1
  S2-  S136  1  0.35918584  0.09951014  0.14569883  1
  S2-  S137  1  0.25727980  0.21117694  0.64736965  1
  S2-  S138  1  0.21331103  0.46861815  0.14431441  1
  S2-  S139  1  0.23316941  0.42186674  0.67160901  1
  S2-  S140  1  0.35897359  0.61347355  0.16455427  1
  S2-  S141  1  0.23374110  0.63993256  0.65900761  1
  S2-  S142  1  0.21809654  0.76455545  0.14686228  1
  S2-  S143  1  0.25759452  0.97363181  0.63893444  1
  S2-  S144  1  0.58576941  0.14790234  0.14778469  1
  S2-  S145  1  0.47610029  0.13088188  0.65167715  1
  S2-  S146  1  0.49513429  0.43363544  0.14770277  1
  S2-  S147  1  0.48948629  0.35897140  0.65255125  1
  S2-  S148  1  0.58306076  0.62077147  0.18586848  1
  S2-  S149  1  0.52950694  0.69047745  0.63537511  1
  S2-  S150  1  0.47003221  0.83320578  0.16185609  1
  S2-  S151  1  0.51962761  0.91801488  0.65563010  1
  S2-  S152  1  0.78739504  0.09981984  0.17476591  1
  S2-  S153  1  0.76471430  0.06977108  0.64817523  1
  S2-  S154  1  0.72742168  0.32924670  0.14419692  1
  S2-  S155  1  0.75774621  0.32810955  0.65542024  1
  S2-  S156  1  0.77014523  0.55424216  0.14533905  1
  S2-  S157  1  0.75384537  0.55743380  0.66070965  1
  S2-  S158  1  0.83504120  0.86184174  0.14342579  1
  S2-  S159  1  0.76742141  0.80469102  0.64109895  1
  S2-  S160  1  0.03357696  -0.03998188  0.35126404  1
  S2-  S161  1  0.12711440  0.07584496  0.86006378  1
  S2-  S162  1  0.04663766  0.25229916  0.36033475  1
  S2-  S163  1  0.08754334  0.20891274  0.77258772  1
  S2-  S164  1  0.20705597  0.48700715  0.35870000  1
  S2-  S165  1  0.09832743  0.41667129  0.83038414  1
  S2-  S166  1  0.16617490  0.76881514  0.35237040  1
  S2-  S167  1  0.12223414  0.64836036  0.85813248  1
  S2-  S168  1  0.26701003  -0.01401714  0.35989084  1
  S2-  S169  1  0.35137585  0.09440806  0.85452065  1
  S2-  S170  1  0.35178076  0.31200359  0.35745765  1
  S2-  S171  1  0.25748429  0.27580116  0.84344664  1
  S2-  S172  1  0.43194222  0.48224708  0.29351013  1
  S2-  S173  1  0.29386213  0.50838693  0.85819753  1
  S2-  S174  1  0.37159918  0.65602753  0.35247709  1
  S2-  S175  1  0.35895422  0.76274261  0.85213267  1
  S2-  S176  1  0.63153171  0.09134202  0.34617971  1
  S2-  S177  1  0.52910717  -0.01559039  0.86676202  1
  S2-  S178  1  0.59979362  0.36067158  0.34520069  1
  S2-  S179  1  0.49348260  0.25821082  0.85822887  1
  S2-  S180  1  0.60464192  0.60768528  0.34595231  1
  S2-  S181  1  0.64107472  0.51018262  0.83292983  1
  S2-  S182  1  0.60651424  0.86044231  0.35283647  1
  S2-  S183  1  0.61768415  0.75484329  0.84833237  1
  S2-  S184  1  0.88840564  0.09780854  0.34755327  1
  S2-  S185  1  0.82966315  0.09465468  0.86681921  1
  S2-  S186  1  0.78360796  0.26308663  0.34346613  1
  S2-  S187  1  0.91702782  0.29764994  0.84760953  1
  S2-  S188  1  0.79027990  0.48592003  0.35329183  1
  S2-  S189  1  0.89820014  0.53122803  0.83081626  1
  S2-  S190  1  0.79167825  0.72372925  0.35496492  1
  S2-  S191  1  0.87001359  0.86486769  0.86503209  1
  S2-  S192  1  0.01781614  0.10255928  0.45603660  1
  S2-  S193  1  -0.00840985  0.11615101  0.95334926  1
  S2-  S194  1  0.01243710  0.35743870  0.46376685  1
  S2-  S195  1  -0.00406767  0.36184401  0.94821341  1
  S2-  S196  1  0.01255893  0.60277659  0.45333880  1
  S2-  S197  1  -0.01478069  0.61243570  0.95197869  1
  S2-  S198  1  0.01045036  0.84720360  0.45496440  1
  S2-  S199  1  -0.00538705  0.86372812  0.96463289  1
  S2-  S200  1  0.26071669  0.11041773  0.45798569  1
  S2-  S201  1  0.24754063  0.10577207  0.96620346  1
  S2-  S202  1  0.25775309  0.35662662  0.46626185  1
  S2-  S203  1  0.24022569  0.36743649  0.95686310  1
  S2-  S204  1  0.26219448  0.59900730  0.46076696  1
  S2-  S205  1  0.24195285  0.61972500  0.96590195  1
  S2-  S206  1  0.26355384  0.85024436  0.45967211  1
  S2-  S207  1  0.24192495  0.86328491  0.95696897  1
  S2-  S208  1  0.50950709  0.10785534  0.45159449  1
  S2-  S209  1  0.48788597  0.11486113  0.96395504  1
  S2-  S210  1  0.50432763  0.36186506  0.45097188  1
  S2-  S211  1  0.48423857  0.36929887  0.95473869  1
  S2-  S212  1  0.50214475  0.59567792  0.45033842  1
  S2-  S213  1  0.48611446  0.61281094  0.94268918  1
  S2-  S214  1  0.50682351  0.85263464  0.45727651  1
  S2-  S215  1  0.48986460  0.85731234  0.96172174  1
  S2-  S216  1  0.76013058  0.10167943  0.44677409  1
  S2-  S217  1  0.72915621  0.11440952  0.96911684  1
  S2-  S218  1  0.75931919  0.35201986  0.45312992  1
  S2-  S219  1  0.73706192  0.36179349  0.94329981  1
  S2-  S220  1  0.76375341  0.60410407  0.45818232  1
  S2-  S221  1  0.74469584  0.61090933  0.94586955  1
  S2-  S222  1  0.76720420  0.86012843  0.44571456  1
  S2-  S223  1  0.73534395  0.86274113  0.95916060  1
  S2-  S224  1  0.11445396  -0.01341158  0.05373382  1
  S2-  S225  1  0.13538906  -0.02575654  0.53725154  1
  S2-  S226  1  0.11321077  0.24012645  0.05321821  1
  S2-  S227  1  0.13367995  0.22699811  0.54563401  1
  S2-  S228  1  0.11402159  0.49101836  0.03513485  1
  S2-  S229  1  0.12958917  0.47882892  0.55378844  1
  S2-  S230  1  0.10938157  0.73498487  0.04590004  1
  S2-  S231  1  0.13030292  0.72989884  0.55144087  1
  S2-  S232  1  0.36274761  -0.01992286  0.04637149  1
  S2-  S233  1  0.38952960  -0.02355723  0.54212357  1
  S2-  S234  1  0.36173252  0.24519658  0.04653376  1
  S2-  S235  1  0.38821768  0.22649023  0.54587931  1
  S2-  S236  1  0.36670969  0.49348035  0.04965897  1
  S2-  S237  1  0.38084008  0.48144608  0.56258452  1
  S2-  S238  1  0.36920104  0.73257131  0.05260532  1
  S2-  S239  1  0.37771733  0.72528925  0.54770076  1
  S2-  S240  1  0.61252249  -0.01401144  0.05841522  1
  S2-  S241  1  0.63414655  -0.02385299  0.53889073  1
  S2-  S242  1  0.60802861  0.24729840  0.03982768  1
  S2-  S243  1  0.63180780  0.22609654  0.54575303  1
  S2-  S244  1  0.61046365  0.49043717  0.03948109  1
  S2-  S245  1  0.63637331  0.48083494  0.54515464  1
  S2-  S246  1  0.61337112  0.73197816  0.05564001  1
  S2-  S247  1  0.63846582  0.72930760  0.53171315  1
  S2-  S248  1  0.86061915  -0.00733478  0.04758842  1
  S2-  S249  1  0.88149246  -0.02521955  0.53312611  1
  S2-  S250  1  0.86116371  0.24235500  0.04561337  1
  S2-  S251  1  0.88147168  0.22661505  0.53701530  1
  S2-  S252  1  0.85988231  0.48389016  0.03144033  1
  S2-  S253  1  0.88233538  0.48095623  0.54884879  1
  S2-  S254  1  0.86135868  0.73427492  0.04080212  1
  S2-  S255  1  0.88627850  0.73019617  0.54043246  1
