# generated using pymatgen
data_La12Ce14Pr13Nd13Sm12(BiS2)64
_symmetry_space_group_name_H-M   'P 1'
_cell_length_a   16.20097232
_cell_length_b   16.22774121
_cell_length_c   27.15623994
_cell_angle_alpha   89.97392407
_cell_angle_beta   90.21975047
_cell_angle_gamma   90.01238588
_symmetry_Int_Tables_number   1
_chemical_formula_structural   La12Ce14Pr13Nd13Sm12(BiS2)64
_chemical_formula_sum   'La12 Ce14 Pr13 Nd13 Sm12 Bi64 S128'
_cell_volume   7139.46290571
_cell_formula_units_Z   1
loop_
 _symmetry_equiv_pos_site_id
 _symmetry_equiv_pos_as_xyz
  1  'x, y, z'
loop_
 _atom_type_symbol
 _atom_type_oxidation_number
  La3+  3.0
  Ce3+  3.0
  Pr3+  3.0
  Nd3+  3.0
  Sm3+  3.0
  Bi2+  2.0
  S2-  -2.0
loop_
 _atom_site_type_symbol
 _atom_site_label
 _atom_site_symmetry_multiplicity
 _atom_site_fract_x
 _atom_site_fract_y
 _atom_site_fract_z
 _atom_site_occupancy
  La3+  La0  1  0.62481615  -0.00866722  0.43495925  1
  La3+  La1  1  0.87225490  0.50572255  0.41387500  1
  La3+  La2  1  0.13031887  -0.00666612  0.43947884  1
  La3+  La3  1  0.76141163  0.12426409  0.56852418  1
  La3+  La4  1  0.50404540  0.37144567  0.57522678  1
  La3+  La5  1  -0.00019264  0.62751928  0.06205462  1
  La3+  La6  1  0.37071119  0.25255127  0.40819791  1
  La3+  La7  1  0.51185412  0.86926678  0.59216832  1
  La3+  La8  1  0.37762969  0.75382346  0.89018246  1
  La3+  La9  1  0.76739907  0.37119714  0.56118721  1
  La3+  La10  1  0.76437868  0.62040514  0.57028720  1
  La3+  La11  1  0.87501758  0.24039473  0.41831552  1
  Ce3+  Ce12  1  0.12387318  0.50375307  0.93918323  1
  Ce3+  Ce13  1  0.62789332  0.24682048  0.44209997  1
  Ce3+  Ce14  1  0.49717243  0.37698461  0.06187971  1
  Ce3+  Ce15  1  0.74742419  0.87619168  0.05483367  1
  Ce3+  Ce16  1  0.24844499  0.87677203  0.05711045  1
  Ce3+  Ce17  1  0.62703330  0.74993035  0.93387098  1
  Ce3+  Ce18  1  0.37297006  -0.00095527  0.93675232  1
  Ce3+  Ce19  1  0.86925169  0.75023124  0.93704339  1
  Ce3+  Ce20  1  -0.00217173  0.37425429  0.05422376  1
  Ce3+  Ce21  1  0.37365411  0.50340719  0.94164922  1
  Ce3+  Ce22  1  0.87121432  0.50223984  0.94178298  1
  Ce3+  Ce23  1  0.00325485  0.61896561  0.56099290  1
  Ce3+  Ce24  1  0.00436259  0.87527565  0.57090542  1
  Ce3+  Ce25  1  0.25453388  0.87157942  0.56086371  1
  Pr3+  Pr26  1  0.24896583  0.11847493  0.06975038  1
  Pr3+  Pr27  1  0.87896217  -0.00701926  0.43569066  1
  Pr3+  Pr28  1  0.25537046  0.36998326  0.56290892  1
  Pr3+  Pr29  1  0.38050977  0.49788619  0.43885567  1
  Pr3+  Pr30  1  0.62822505  0.49698924  0.44318308  1
  Pr3+  Pr31  1  0.49927981  0.12610942  0.06445204  1
  Pr3+  Pr32  1  0.37153753  0.25027381  0.94088397  1
  Pr3+  Pr33  1  0.12463301  0.75287405  0.93581094  1
  Pr3+  Pr34  1  0.62084117  0.00221585  0.93785398  1
  Pr3+  Pr35  1  0.86595333  0.25520013  0.93588255  1
  Pr3+  Pr36  1  0.75084657  0.38319533  0.07626143  1
  Pr3+  Pr37  1  0.50599863  0.12190658  0.55375850  1
  Pr3+  Pr38  1  0.87205225  0.00300842  0.94218896  1
  Nd3+  Nd39  1  0.12898239  0.74403358  0.44704300  1
  Nd3+  Nd40  1  0.38113351  -0.00685926  0.44352820  1
  Nd3+  Nd41  1  0.12166539  0.00152050  0.94374998  1
  Nd3+  Nd42  1  0.49532730  0.62882738  0.05418359  1
  Nd3+  Nd43  1  0.12489216  0.24931005  0.94153575  1
  Nd3+  Nd44  1  0.51427165  0.61844417  0.57876919  1
  Nd3+  Nd45  1  0.25858169  0.12348216  0.55748540  1
  Nd3+  Nd46  1  0.25693455  0.62094287  0.56455991  1
  Nd3+  Nd47  1  0.24809722  0.37609342  0.05915968  1
  Nd3+  Nd48  1  0.49871268  0.87470117  0.05785534  1
  Nd3+  Nd49  1  0.61892657  0.25485697  0.94497216  1
  Nd3+  Nd50  1  0.76065368  0.87463064  0.56800819  1
  Nd3+  Nd51  1  0.62718612  0.74605529  0.44901454  1
  Sm3+  Sm52  1  0.38245852  0.74528091  0.45235527  1
  Sm3+  Sm53  1  0.74956843  0.12790596  0.06356262  1
  Sm3+  Sm54  1  0.74699399  0.62544769  0.06331869  1
  Sm3+  Sm55  1  0.12946039  0.49715097  0.44617431  1
  Sm3+  Sm56  1  0.12979836  0.24791079  0.43883564  1
  Sm3+  Sm57  1  0.62233546  0.50345680  0.94379259  1
  Sm3+  Sm58  1  0.00286938  0.37073119  0.54481014  1
  Sm3+  Sm59  1  0.24890329  0.62888969  0.05278969  1
  Sm3+  Sm60  1  0.00415872  0.12322697  0.55340471  1
  Sm3+  Sm61  1  -0.00507356  0.87642314  0.05613287  1
  Sm3+  Sm62  1  -0.00537882  0.12857042  0.05726037  1
  Sm3+  Sm63  1  0.87961525  0.74718845  0.44418876  1
  Bi2+  Bi64  1  0.00977040  0.07730570  0.28911497  1
  Bi2+  Bi65  1  0.05234805  0.13999465  0.74618010  1
  Bi2+  Bi66  1  0.05650129  0.39566902  0.29005325  1
  Bi2+  Bi67  1  0.00908088  0.33890770  0.76180233  1
  Bi2+  Bi68  1  0.03667842  0.66246184  0.29664291  1
  Bi2+  Bi69  1  0.00286373  0.64094283  0.79120243  1
  Bi2+  Bi70  1  -0.02161601  0.85705712  0.31122168  1
  Bi2+  Bi71  1  -0.00806984  0.85237217  0.80527838  1
  Bi2+  Bi72  1  0.24625018  0.11939812  0.29211736  1
  Bi2+  Bi73  1  0.27380958  0.18111181  0.82791528  1
  Bi2+  Bi74  1  0.26377449  0.44704614  0.29069018  1
  Bi2+  Bi75  1  0.21982859  0.35497892  0.78203766  1
  Bi2+  Bi76  1  0.30736441  0.63782861  0.31119812  1
  Bi2+  Bi77  1  0.24341520  0.60723681  0.79533060  1
  Bi2+  Bi78  1  0.26242782  0.87227975  0.24496726  1
  Bi2+  Bi79  1  0.20948539  0.90697352  0.79317066  1
  Bi2+  Bi80  1  0.51989206  0.10199222  0.30588241  1
  Bi2+  Bi81  1  0.46165449  0.13903813  0.79969747  1
  Bi2+  Bi82  1  0.54123434  0.41908771  0.25990069  1
  Bi2+  Bi83  1  0.49806918  0.35360228  0.76016183  1
  Bi2+  Bi84  1  0.49605371  0.58332115  0.31233212  1
  Bi2+  Bi85  1  0.51058189  0.58901609  0.80096519  1
  Bi2+  Bi86  1  0.49991662  0.84855097  0.29570024  1
  Bi2+  Bi87  1  0.51443997  0.89659481  0.78841541  1
  Bi2+  Bi88  1  0.74326661  0.14373073  0.29509750  1
  Bi2+  Bi89  1  0.74883391  0.12234962  0.80390113  1
  Bi2+  Bi90  1  0.74540658  0.40124078  0.28678884  1
  Bi2+  Bi91  1  0.75337629  0.36424609  0.80730479  1
  Bi2+  Bi92  1  0.75235090  0.66808413  0.30045406  1
  Bi2+  Bi93  1  0.81219193  0.61300978  0.79611552  1
  Bi2+  Bi94  1  0.79234290  0.88601672  0.28918732  1
  Bi2+  Bi95  1  0.79889909  0.86939670  0.78755464  1
  Bi2+  Bi96  1  0.08758562  -0.05380764  0.21478295  1
  Bi2+  Bi97  1  0.08416589  -0.03585735  0.69485865  1
  Bi2+  Bi98  1  0.10158287  0.22911670  0.24323386  1
  Bi2+  Bi99  1  0.14068999  0.27999573  0.68194420  1
  Bi2+  Bi100  1  0.13825122  0.49211742  0.20528282  1
  Bi2+  Bi101  1  0.11484088  0.47706067  0.70287280  1
  Bi2+  Bi102  1  0.17339683  0.70595851  0.22051834  1
  Bi2+  Bi103  1  0.07542122  0.76601968  0.71219948  1
  Bi2+  Bi104  1  0.38260085  0.01217054  0.19904362  1
  Bi2+  Bi105  1  0.30993152  0.05239236  0.74440823  1
  Bi2+  Bi106  1  0.36087827  0.27665903  0.20604701  1
  Bi2+  Bi107  1  0.37527185  0.22863902  0.70278390  1
  Bi2+  Bi108  1  0.39334772  0.53301327  0.21357229  1
  Bi2+  Bi109  1  0.31285629  0.48216577  0.71132556  1
  Bi2+  Bi110  1  0.39999573  0.73542810  0.21963611  1
  Bi2+  Bi111  1  0.34728645  0.77854683  0.70030498  1
  Bi2+  Bi112  1  0.62566280  -0.00693911  0.20032015  1
  Bi2+  Bi113  1  0.59985424  0.00177746  0.70968346  1
  Bi2+  Bi114  1  0.62326671  0.23974874  0.20372774  1
  Bi2+  Bi115  1  0.60881247  0.22618892  0.70963663  1
  Bi2+  Bi116  1  0.63670593  0.58034104  0.21708211  1
  Bi2+  Bi117  1  0.63364256  0.48199406  0.71431372  1
  Bi2+  Bi118  1  0.67416681  0.77501024  0.21685484  1
  Bi2+  Bi119  1  0.62749603  0.74312839  0.71715957  1
  Bi2+  Bi120  1  0.89390081  -0.01468201  0.20845505  1
  Bi2+  Bi121  1  0.90851382  0.01003662  0.71874392  1
  Bi2+  Bi122  1  0.90814983  0.25474630  0.21080256  1
  Bi2+  Bi123  1  0.84655535  0.26388129  0.69174215  1
  Bi2+  Bi124  1  0.88569516  0.50341104  0.20780013  1
  Bi2+  Bi125  1  0.90995799  0.48924068  0.71361465  1
  Bi2+  Bi126  1  0.88722858  0.74582151  0.21940106  1
  Bi2+  Bi127  1  0.87715129  0.74632340  0.71106888  1
  S2-  S128  1  -0.05069775  0.12637694  0.15202863  1
  S2-  S129  1  -0.09254310  0.14827203  0.63397105  1
  S2-  S130  1  -0.03110420  0.37836770  0.15105142  1
  S2-  S131  1  -0.08926372  0.37520036  0.62924696  1
  S2-  S132  1  -0.03716373  0.61891648  0.16097110  1
  S2-  S133  1  -0.09866088  0.60991067  0.63983885  1
  S2-  S134  1  -0.01377800  0.85263816  0.15336209  1
  S2-  S135  1  -0.11559393  0.89316606  0.64315940  1
  S2-  S136  1  0.28527064  0.15162478  0.16761218  1
  S2-  S137  1  0.24638990  0.12790218  0.65688778  1
  S2-  S138  1  0.24942473  0.36483375  0.15922960  1
  S2-  S139  1  0.36285348  0.36010414  0.64186241  1
  S2-  S140  1  0.22748709  0.59789560  0.14878362  1
  S2-  S141  1  0.27206623  0.63193955  0.66377131  1
  S2-  S142  1  0.25055921  0.94957620  0.14509311  1
  S2-  S143  1  0.22584877  0.87512379  0.65652066  1
  S2-  S144  1  0.50228594  0.12349443  0.16624787  1
  S2-  S145  1  0.50160722  0.12843769  0.65485932  1
  S2-  S146  1  0.50385508  0.35331148  0.15937143  1
  S2-  S147  1  0.51458576  0.49483544  0.65001679  1
  S2-  S148  1  0.49838801  0.63190381  0.15359067  1
  S2-  S149  1  0.49402171  0.72365441  0.65963260  1
  S2-  S150  1  0.49566698  0.90291656  0.15659621  1
  S2-  S151  1  0.44818769  0.91928283  0.68406328  1
  S2-  S152  1  0.71396902  0.11265676  0.16043412  1
  S2-  S153  1  0.70883271  0.10316463  0.66786363  1
  S2-  S154  1  0.75525790  0.31487172  0.17097262  1
  S2-  S155  1  0.69860817  0.35120020  0.65632462  1
  S2-  S156  1  0.75223190  0.52599431  0.14411413  1
  S2-  S157  1  0.68187085  0.62233931  0.66161671  1
  S2-  S158  1  0.74124117  0.90174294  0.15115573  1
  S2-  S159  1  0.66378423  0.87083527  0.65322609  1
  S2-  S160  1  0.15657562  0.01329708  0.34063678  1
  S2-  S161  1  0.09669731  -0.01910617  0.84539392  1
  S2-  S162  1  0.20953914  0.24695097  0.35363703  1
  S2-  S163  1  0.10600645  0.21708412  0.84408275  1
  S2-  S164  1  0.12222420  0.52685900  0.34974488  1
  S2-  S165  1  0.11394414  0.52821803  0.84278373  1
  S2-  S166  1  0.12085335  0.77942032  0.34958364  1
  S2-  S167  1  0.21311060  0.75092612  0.84827305  1
  S2-  S168  1  0.42170333  -0.00794921  0.34572205  1
  S2-  S169  1  0.37748138  -0.08317027  0.84852889  1
  S2-  S170  1  0.40014020  0.20717701  0.30635799  1
  S2-  S171  1  0.44825855  0.28455302  0.85122817  1
  S2-  S172  1  0.38595302  0.40294078  0.35520696  1
  S2-  S173  1  0.37656627  0.52186128  0.84370891  1
  S2-  S174  1  0.37940908  0.77500491  0.35488057  1
  S2-  S175  1  0.38363336  0.70614945  0.78563859  1
  S2-  S176  1  0.66534730  0.00918133  0.33642834  1
  S2-  S177  1  0.62114864  0.00995977  0.83637456  1
  S2-  S178  1  0.62089476  0.23616271  0.34291979  1
  S2-  S179  1  0.66382754  0.25110258  0.84915256  1
  S2-  S180  1  0.71438610  0.51282280  0.35608571  1
  S2-  S181  1  0.63296687  0.49269124  0.84503929  1
  S2-  S182  1  0.61481175  0.79233055  0.35234952  1
  S2-  S183  1  0.54494102  0.75219391  0.84641484  1
  S2-  S184  1  0.87329402  0.09520805  0.35454339  1
  S2-  S185  1  0.84952735  0.01650053  0.84287088  1
  S2-  S186  1  0.83978521  0.28012056  0.31902057  1
  S2-  S187  1  0.86119473  0.23613577  0.83467929  1
  S2-  S188  1  0.90384485  0.46727799  0.31109391  1
  S2-  S189  1  0.87138118  0.46796837  0.84637998  1
  S2-  S190  1  0.88991479  0.65994814  0.35951645  1
  S2-  S191  1  0.76356039  0.74324820  0.85795136  1
  S2-  S192  1  0.00981999  0.12193629  0.44898437  1
  S2-  S193  1  -0.00411247  0.12908562  0.95210041  1
  S2-  S194  1  0.00634657  0.37197623  0.43981823  1
  S2-  S195  1  -0.00025062  0.37413129  0.94735042  1
  S2-  S196  1  0.00746681  0.62146784  0.45616429  1
  S2-  S197  1  -0.00215369  0.62863318  0.95204943  1
  S2-  S198  1  0.00398406  0.86941584  0.45926845  1
  S2-  S199  1  -0.00402168  0.87527253  0.95188023  1
  S2-  S200  1  0.25744696  0.12121492  0.45155333  1
  S2-  S201  1  0.24629610  0.12278662  0.96027938  1
  S2-  S202  1  0.25025662  0.37404774  0.45602381  1
  S2-  S203  1  0.24734572  0.37681099  0.95050686  1
  S2-  S204  1  0.25430707  0.62133276  0.45746310  1
  S2-  S205  1  0.25209164  0.62947323  0.95009442  1
  S2-  S206  1  0.25638857  0.86763700  0.45424896  1
  S2-  S207  1  0.24703677  0.87799776  0.95300628  1
  S2-  S208  1  0.49987490  0.12368993  0.44677536  1
  S2-  S209  1  0.49728827  0.12693180  0.95529100  1
  S2-  S210  1  0.50563561  0.37120839  0.45833126  1
  S2-  S211  1  0.49901156  0.38110770  0.95616780  1
  S2-  S212  1  0.50414854  0.62185403  0.46172422  1
  S2-  S213  1  0.49716652  0.62779536  0.94860357  1
  S2-  S214  1  0.50198908  0.86894352  0.46410481  1
  S2-  S215  1  0.49793349  0.87401535  0.95222265  1
  S2-  S216  1  0.75022367  0.11790974  0.45586131  1
  S2-  S217  1  0.74536355  0.12774657  0.95735726  1
  S2-  S218  1  0.75522972  0.36978831  0.44880092  1
  S2-  S219  1  0.74408999  0.37953793  0.96119419  1
  S2-  S220  1  0.75361233  0.62782244  0.46092693  1
  S2-  S221  1  0.74681483  0.62236900  0.95910051  1
  S2-  S222  1  0.75639098  0.86914811  0.45487633  1
  S2-  S223  1  0.74723741  0.87979294  0.95044449  1
  S2-  S224  1  0.11448506  0.00228333  0.05038256  1
  S2-  S225  1  0.12923627  0.00113830  0.54780544  1
  S2-  S226  1  0.12401257  0.24729967  0.05077770  1
  S2-  S227  1  0.12747040  0.24579995  0.54318521  1
  S2-  S228  1  0.12487017  0.50105209  0.04615819  1
  S2-  S229  1  0.12812421  0.49380273  0.55177690  1
  S2-  S230  1  0.12311360  0.75381532  0.04681599  1
  S2-  S231  1  0.12799318  0.74484739  0.55420059  1
  S2-  S232  1  0.37659356  0.00088122  0.04426430  1
  S2-  S233  1  0.38034102  -0.00441985  0.55170045  1
  S2-  S234  1  0.37152581  0.24999691  0.04884058  1
  S2-  S235  1  0.37959435  0.24492177  0.54065033  1
  S2-  S236  1  0.37073699  0.50298976  0.04956262  1
  S2-  S237  1  0.37881713  0.50058391  0.54621586  1
  S2-  S238  1  0.37054743  0.75208699  0.05613306  1
  S2-  S239  1  0.37950888  0.74656009  0.55593297  1
  S2-  S240  1  0.62379023  0.00325164  0.04570277  1
  S2-  S241  1  0.63118912  -0.00307459  0.54651824  1
  S2-  S242  1  0.62590791  0.25226771  0.05252949  1
  S2-  S243  1  0.63192332  0.24663816  0.54864872  1
  S2-  S244  1  0.61995545  0.50360692  0.04935886  1
  S2-  S245  1  0.63801105  0.49469106  0.54819876  1
  S2-  S246  1  0.62430128  0.74877752  0.04758818  1
  S2-  S247  1  0.63237417  0.74604173  0.55288102  1
  S2-  S248  1  0.87280625  0.00291634  0.04884163  1
  S2-  S249  1  0.88275676  -0.00105271  0.54033006  1
  S2-  S250  1  0.86989822  0.25123455  0.04519996  1
  S2-  S251  1  0.88592558  0.24568350  0.52680701  1
  S2-  S252  1  0.87551145  0.50222415  0.04597595  1
  S2-  S253  1  0.88581554  0.49667305  0.52824660  1
  S2-  S254  1  0.87072432  0.75025090  0.04650769  1
  S2-  S255  1  0.88337591  0.75127380  0.54675891  1
