# generated using pymatgen
data_La12Ce14Pr13Nd13Sm12(BiS2)64
_symmetry_space_group_name_H-M   'P 1'
_cell_length_a   16.14960585
_cell_length_b   16.13333924
_cell_length_c   27.38092543
_cell_angle_alpha   89.57141660
_cell_angle_beta   90.11434417
_cell_angle_gamma   90.01106278
_symmetry_Int_Tables_number   1
_chemical_formula_structural   La12Ce14Pr13Nd13Sm12(BiS2)64
_chemical_formula_sum   'La12 Ce14 Pr13 Nd13 Sm12 Bi64 S128'
_cell_volume   7133.80598784
_cell_formula_units_Z   1
loop_
 _symmetry_equiv_pos_site_id
 _symmetry_equiv_pos_as_xyz
  1  'x, y, z'
loop_
 _atom_type_symbol
 _atom_type_oxidation_number
  La3+  3.0
  Ce3+  3.0
  Pr3+  3.0
  Nd3+  3.0
  Sm3+  3.0
  Bi2+  2.0
  S2-  -2.0
loop_
 _atom_site_type_symbol
 _atom_site_label
 _atom_site_symmetry_multiplicity
 _atom_site_fract_x
 _atom_site_fract_y
 _atom_site_fract_z
 _atom_site_occupancy
  La3+  La0  1  0.14040134  0.24446096  0.43214465  1
  La3+  La1  1  0.24182177  0.62677386  0.11178890  1
  La3+  La2  1  0.26766355  0.85433538  0.57176155  1
  La3+  La3  1  0.39931989  0.75503750  0.41548806  1
  La3+  La4  1  0.36884044  -0.00863888  0.89965731  1
  La3+  La5  1  0.64159110  0.24469951  0.44443756  1
  La3+  La6  1  0.74612361  0.86297933  0.06963075  1
  La3+  La7  1  0.76792305  0.12706714  0.60259529  1
  La3+  La8  1  0.76542368  0.87128532  0.57218122  1
  La3+  La9  1  0.50150581  0.12554788  0.61709487  1
  La3+  La10  1  0.86264767  0.24732107  0.91612206  1
  La3+  La11  1  0.24399879  0.87425351  0.06402159  1
  Ce3+  Ce12  1  0.12294325  0.23944965  0.94077014  1
  Ce3+  Ce13  1  0.89455331  0.49799230  0.43338945  1
  Ce3+  Ce14  1  0.62122868  0.24078317  0.94182798  1
  Ce3+  Ce15  1  0.51552663  0.86645455  0.56787072  1
  Ce3+  Ce16  1  0.39977320  0.48556131  0.40202898  1
  Ce3+  Ce17  1  0.62227563  -0.00887833  0.94065721  1
  Ce3+  Ce18  1  0.51758066  0.62481552  0.55296104  1
  Ce3+  Ce19  1  0.01487093  0.12048612  0.56522472  1
  Ce3+  Ce20  1  -0.00120305  0.61498865  0.06130495  1
  Ce3+  Ce21  1  0.74411197  0.61675352  0.06380354  1
  Ce3+  Ce22  1  0.48525205  0.61423404  0.05929184  1
  Ce3+  Ce23  1  0.51811732  0.36865277  0.55693738  1
  Ce3+  Ce24  1  0.49091202  0.86606529  0.05519194  1
  Ce3+  Ce25  1  0.61910836  0.49098691  0.94808118  1
  Pr3+  Pr26  1  0.77196924  0.61945305  0.57400978  1
  Pr3+  Pr27  1  -0.00715603  0.11866063  0.05113411  1
  Pr3+  Pr28  1  0.88718751  -0.00159675  0.44122375  1
  Pr3+  Pr29  1  0.14168259  -0.00663786  0.44714005  1
  Pr3+  Pr30  1  0.74902577  0.11097496  0.06508659  1
  Pr3+  Pr31  1  0.14212432  0.74312289  0.43204250  1
  Pr3+  Pr32  1  0.37175820  0.24333392  0.93655377  1
  Pr3+  Pr33  1  0.39256377  0.24691269  0.43577790  1
  Pr3+  Pr34  1  0.50064811  0.35848968  0.07659359  1
  Pr3+  Pr35  1  0.39221046  -0.00675745  0.44653929  1
  Pr3+  Pr36  1  0.36918621  0.48759760  0.94046883  1
  Pr3+  Pr37  1  0.35914127  0.74003384  0.93544445  1
  Pr3+  Pr38  1  0.64774762  0.74799328  0.43377074  1
  Nd3+  Nd39  1  0.75224057  0.35946331  0.06523141  1
  Nd3+  Nd40  1  0.24526842  0.11676656  0.06295136  1
  Nd3+  Nd41  1  0.64658352  0.49877760  0.43276740  1
  Nd3+  Nd42  1  0.26904691  0.61604710  0.54438346  1
  Nd3+  Nd43  1  0.26989285  0.36988231  0.55327683  1
  Nd3+  Nd44  1  0.12132655  0.49234941  0.94476268  1
  Nd3+  Nd45  1  0.88911645  0.24497075  0.44244111  1
  Nd3+  Nd46  1  0.61772934  0.74387966  0.94311776  1
  Nd3+  Nd47  1  0.86848557  0.49449192  0.93799057  1
  Nd3+  Nd48  1  0.88700885  0.74566846  0.44054799  1
  Nd3+  Nd49  1  0.24601061  0.36837242  0.06782131  1
  Nd3+  Nd50  1  0.01568957  0.36796790  0.55555665  1
  Nd3+  Nd51  1  0.01444769  0.86976649  0.55580943  1
  Sm3+  Sm52  1  0.76469209  0.36871540  0.56375002  1
  Sm3+  Sm53  1  -0.00156999  0.86502193  0.04799095  1
  Sm3+  Sm54  1  0.63925281  -0.00111730  0.45664863  1
  Sm3+  Sm55  1  0.01511454  0.61800154  0.55843128  1
  Sm3+  Sm56  1  0.12326311  0.74087165  0.94399423  1
  Sm3+  Sm57  1  0.13949341  0.49322475  0.43087463  1
  Sm3+  Sm58  1  0.86871305  -0.01094387  0.93623388  1
  Sm3+  Sm59  1  0.26884770  0.11878288  0.55475331  1
  Sm3+  Sm60  1  0.49708799  0.11813871  0.05740509  1
  Sm3+  Sm61  1  0.87031945  0.74142776  0.94011524  1
  Sm3+  Sm62  1  0.12223047  -0.00590992  0.93280337  1
  Sm3+  Sm63  1  -0.00673992  0.36532461  0.05250454  1
  Bi2+  Bi64  1  0.07201921  0.17779003  0.30815155  1
  Bi2+  Bi65  1  0.01965246  0.08860445  0.80751683  1
  Bi2+  Bi66  1  -0.03701993  0.34112212  0.28575541  1
  Bi2+  Bi67  1  0.02728084  0.48327552  0.76976157  1
  Bi2+  Bi68  1  -0.01594127  0.59240451  0.24078449  1
  Bi2+  Bi69  1  -0.08609118  0.61805022  0.82329808  1
  Bi2+  Bi70  1  -0.01839861  0.89750991  0.25258183  1
  Bi2+  Bi71  1  0.05463717  0.89563275  0.78151922  1
  Bi2+  Bi72  1  0.25826913  0.10667657  0.30215432  1
  Bi2+  Bi73  1  0.22125765  0.12448204  0.78714806  1
  Bi2+  Bi74  1  0.27215297  0.29721621  0.27952018  1
  Bi2+  Bi75  1  0.27198185  0.38072102  0.78902291  1
  Bi2+  Bi76  1  0.18039814  0.62369841  0.31346172  1
  Bi2+  Bi77  1  0.27720641  0.57856895  0.81242761  1
  Bi2+  Bi78  1  0.24143406  0.88189441  0.31110118  1
  Bi2+  Bi79  1  0.24043449  0.83504709  0.78740465  1
  Bi2+  Bi80  1  0.49904730  0.16540990  0.24118938  1
  Bi2+  Bi81  1  0.52345951  0.14488552  0.81435122  1
  Bi2+  Bi82  1  0.51461573  0.38133843  0.27046526  1
  Bi2+  Bi83  1  0.50066095  0.41371606  0.78636392  1
  Bi2+  Bi84  1  0.55700939  0.64000697  0.28026409  1
  Bi2+  Bi85  1  0.45963491  0.61424211  0.78189671  1
  Bi2+  Bi86  1  0.49128393  0.93275027  0.25002699  1
  Bi2+  Bi87  1  0.49634588  0.81858785  0.77820578  1
  Bi2+  Bi88  1  0.74636197  0.12758957  0.32203434  1
  Bi2+  Bi89  1  0.75761657  0.12046695  0.78914674  1
  Bi2+  Bi90  1  0.70322900  0.37534863  0.30159145  1
  Bi2+  Bi91  1  0.74956878  0.38972069  0.79750849  1
  Bi2+  Bi92  1  0.76754383  0.63503144  0.29382841  1
  Bi2+  Bi93  1  0.72714046  0.59910161  0.78608796  1
  Bi2+  Bi94  1  0.66558346  0.86825064  0.30340332  1
  Bi2+  Bi95  1  0.74065153  0.87464071  0.80274437  1
  Bi2+  Bi96  1  0.11227722  0.03180886  0.21484285  1
  Bi2+  Bi97  1  0.10128438  0.05228186  0.70692063  1
  Bi2+  Bi98  1  0.09696973  0.23403335  0.19083514  1
  Bi2+  Bi99  1  0.10623209  0.30718319  0.74042473  1
  Bi2+  Bi100  1  0.09557705  0.42710159  0.21519564  1
  Bi2+  Bi101  1  0.18817459  0.57514019  0.70728389  1
  Bi2+  Bi102  1  0.10666697  0.77676422  0.20362853  1
  Bi2+  Bi103  1  0.05992530  0.69829652  0.75371442  1
  Bi2+  Bi104  1  0.35053249  0.04796910  0.20563315  1
  Bi2+  Bi105  1  0.37217655  0.00601102  0.71886176  1
  Bi2+  Bi106  1  0.28697175  0.23265949  0.17291679  1
  Bi2+  Bi107  1  0.35211821  0.27180911  0.70137290  1
  Bi2+  Bi108  1  0.35991633  0.50516907  0.22066256  1
  Bi2+  Bi109  1  0.37892123  0.49438872  0.70351293  1
  Bi2+  Bi110  1  0.37240104  0.74602911  0.22085734  1
  Bi2+  Bi111  1  0.35761477  0.75790099  0.69810488  1
  Bi2+  Bi112  1  0.63207358  0.04252588  0.20022195  1
  Bi2+  Bi113  1  0.63448444  -0.02288034  0.71661159  1
  Bi2+  Bi114  1  0.66325946  0.25389039  0.20303092  1
  Bi2+  Bi115  1  0.63386345  0.34679183  0.70976073  1
  Bi2+  Bi116  1  0.67320821  0.56767093  0.19923208  1
  Bi2+  Bi117  1  0.66013667  0.52978343  0.67823087  1
  Bi2+  Bi118  1  0.62386308  0.77758149  0.20497116  1
  Bi2+  Bi119  1  0.61971186  0.71568341  0.71050526  1
  Bi2+  Bi120  1  0.81614070  0.00484056  0.24155643  1
  Bi2+  Bi121  1  0.91573290  -0.02763835  0.71021954  1
  Bi2+  Bi122  1  0.89657063  0.19598244  0.21747115  1
  Bi2+  Bi123  1  0.91756581  0.26437894  0.71303916  1
  Bi2+  Bi124  1  0.84655709  0.46608769  0.21151012  1
  Bi2+  Bi125  1  0.85274024  0.50587361  0.71188047  1
  Bi2+  Bi126  1  0.86916355  0.74600054  0.22179777  1
  Bi2+  Bi127  1  0.88507931  0.73408715  0.70810001  1
  S2-  S128  1  -0.01291180  0.10274990  0.15127942  1
  S2-  S129  1  -0.06992040  0.12887731  0.65182313  1
  S2-  S130  1  -0.03034919  0.39539478  0.14816959  1
  S2-  S131  1  0.02007112  0.35807093  0.65495936  1
  S2-  S132  1  0.07128386  0.63240931  0.14925101  1
  S2-  S133  1  -0.07677406  0.60749909  0.64142035  1
  S2-  S134  1  -0.00238467  0.86236151  0.14624902  1
  S2-  S135  1  -0.01086872  0.84638826  0.65241659  1
  S2-  S136  1  0.21753409  0.00317384  0.13947573  1
  S2-  S137  1  0.32155817  0.12869992  0.64682408  1
  S2-  S138  1  0.23829809  0.46242110  0.15232001  1
  S2-  S139  1  0.26048668  0.39396046  0.65095529  1
  S2-  S140  1  0.24457053  0.63869392  0.22104122  1
  S2-  S141  1  0.24724894  0.69024404  0.63361240  1
  S2-  S142  1  0.25828094  0.79279964  0.15291797  1
  S2-  S143  1  0.26384920  0.89399938  0.67044431  1
  S2-  S144  1  0.51772272  0.21316198  0.13999434  1
  S2-  S145  1  0.46822811  0.15046810  0.72603436  1
  S2-  S146  1  0.47670704  0.42061247  0.17548238  1
  S2-  S147  1  0.49827088  0.30219577  0.64645753  1
  S2-  S148  1  0.41387814  0.62519048  0.14913500  1
  S2-  S149  1  0.49801407  0.72880587  0.63299039  1
  S2-  S150  1  0.49251468  0.85409320  0.15386162  1
  S2-  S151  1  0.50281300  0.95610333  0.65638178  1
  S2-  S152  1  0.78832492  0.22640051  0.13758781  1
  S2-  S153  1  0.64830343  0.12346543  0.67698773  1
  S2-  S154  1  0.70185916  0.40969844  0.15710249  1
  S2-  S155  1  0.78057507  0.29229053  0.65330172  1
  S2-  S156  1  0.76063449  0.72975873  0.13974004  1
  S2-  S157  1  0.75470588  0.74711598  0.64650402  1
  S2-  S158  1  0.76089867  0.98608055  0.14077786  1
  S2-  S159  1  0.77566472  0.96790678  0.65749150  1
  S2-  S160  1  0.13138720  0.01143527  0.34785696  1
  S2-  S161  1  0.21450976  -0.01362512  0.84951809  1
  S2-  S162  1  0.14179471  0.32945457  0.34432596  1
  S2-  S163  1  0.11373725  0.23080281  0.84314384  1
  S2-  S164  1  0.04413584  0.53494316  0.35422134  1
  S2-  S165  1  0.14398213  0.47138323  0.84676987  1
  S2-  S166  1  0.10312868  0.77881238  0.33624005  1
  S2-  S167  1  0.20140926  0.72095124  0.85816529  1
  S2-  S168  1  0.38025525  -0.07849878  0.35581582  1
  S2-  S169  1  0.45228036  -0.01062850  0.80503431  1
  S2-  S170  1  0.39873940  0.32963609  0.34710258  1
  S2-  S171  1  0.36527730  0.15398906  0.85001636  1
  S2-  S172  1  0.30098955  0.50994021  0.32208846  1
  S2-  S173  1  0.39026338  0.37393093  0.86358228  1
  S2-  S174  1  0.32203054  0.73573494  0.32249773  1
  S2-  S175  1  0.37553974  0.82985082  0.85004457  1
  S2-  S176  1  0.63973433  0.00804697  0.35562442  1
  S2-  S177  1  0.64160427  0.01842131  0.84343336  1
  S2-  S178  1  0.61926808  0.25394596  0.34355200  1
  S2-  S179  1  0.68165940  0.23925471  0.84985705  1
  S2-  S180  1  0.54653499  0.50045770  0.34733318  1
  S2-  S181  1  0.62709819  0.48938518  0.85020665  1
  S2-  S182  1  0.54418497  0.75910350  0.35140865  1
  S2-  S183  1  0.62659140  0.77832100  0.84578874  1
  S2-  S184  1  0.87632538  0.03263128  0.34281169  1
  S2-  S185  1  0.85081575  0.00100679  0.83881655  1
  S2-  S186  1  0.84324528  0.27387126  0.34709580  1
  S2-  S187  1  0.88949685  0.20331490  0.81517054  1
  S2-  S188  1  0.77682743  0.50173858  0.36167609  1
  S2-  S189  1  0.87606458  0.39703050  0.85670258  1
  S2-  S190  1  0.78276017  0.76828584  0.36223325  1
  S2-  S191  1  0.85523362  0.78437045  0.84525567  1
  S2-  S192  1  0.01572699  0.12101245  0.45681554  1
  S2-  S193  1  -0.00766705  0.11507181  0.94421050  1
  S2-  S194  1  0.01528607  0.37008586  0.45023798  1
  S2-  S195  1  -0.00191340  0.36552417  0.94987681  1
  S2-  S196  1  0.01320556  0.62405091  0.45666405  1
  S2-  S197  1  -0.00279005  0.61880452  0.95376499  1
  S2-  S198  1  0.01237085  0.87027844  0.44905310  1
  S2-  S199  1  -0.00190915  0.86558028  0.94295537  1
  S2-  S200  1  0.26682737  0.12068732  0.45025261  1
  S2-  S201  1  0.24545050  0.11359953  0.95666882  1
  S2-  S202  1  0.26663166  0.37561859  0.44843483  1
  S2-  S203  1  0.24243546  0.36540931  0.95974153  1
  S2-  S204  1  0.26756353  0.61486797  0.44027023  1
  S2-  S205  1  0.24437068  0.61106874  0.95843341  1
  S2-  S206  1  0.26217535  0.86688478  0.45856336  1
  S2-  S207  1  0.24155437  0.87073458  0.95546917  1
  S2-  S208  1  0.51350704  0.12020139  0.44600787  1
  S2-  S209  1  0.49598174  0.11415825  0.95293062  1
  S2-  S210  1  0.51704231  0.37349250  0.45315671  1
  S2-  S211  1  0.50157617  0.36400214  0.96477955  1
  S2-  S212  1  0.51520919  0.61839364  0.44912598  1
  S2-  S213  1  0.49205858  0.61776351  0.94941473  1
  S2-  S214  1  0.52122697  0.87376177  0.46034530  1
  S2-  S215  1  0.49283155  0.87060151  0.94981099  1
  S2-  S216  1  0.76547534  0.12130926  0.45662445  1
  S2-  S217  1  0.74957818  0.11348674  0.95402282  1
  S2-  S218  1  0.76797361  0.37035530  0.46017844  1
  S2-  S219  1  0.74358233  0.36962102  0.95787583  1
  S2-  S220  1  0.76991631  0.62059092  0.46332057  1
  S2-  S221  1  0.74516335  0.62013170  0.95438866  1
  S2-  S222  1  0.76533453  0.87723868  0.46380186  1
  S2-  S223  1  0.74729934  0.86481264  0.95829062  1
  S2-  S224  1  0.11354217  -0.00582874  0.03598608  1
  S2-  S225  1  0.14348862  -0.00652728  0.55381734  1
  S2-  S226  1  0.11961090  0.24359282  0.04723735  1
  S2-  S227  1  0.14389021  0.24382719  0.54470780  1
  S2-  S228  1  0.11739567  0.48742569  0.04911372  1
  S2-  S229  1  0.13880229  0.49518786  0.54017656  1
  S2-  S230  1  0.12205023  0.74197286  0.04595293  1
  S2-  S231  1  0.13347243  0.74083713  0.53915819  1
  S2-  S232  1  0.37580613  -0.00172433  0.05232643  1
  S2-  S233  1  0.38543619  -0.00864143  0.55114705  1
  S2-  S234  1  0.37061272  0.24041568  0.04424361  1
  S2-  S235  1  0.39051251  0.24298044  0.54161553  1
  S2-  S236  1  0.37587138  0.48082208  0.04672505  1
  S2-  S237  1  0.39367108  0.49572767  0.55076732  1
  S2-  S238  1  0.36770041  0.74185648  0.04255223  1
  S2-  S239  1  0.38945478  0.74216059  0.52965055  1
  S2-  S240  1  0.61648182  -0.00892116  0.04646097  1
  S2-  S241  1  0.63639466  0.00178764  0.55813324  1
  S2-  S242  1  0.62756927  0.23841251  0.04369281  1
  S2-  S243  1  0.64308237  0.24400088  0.55232508  1
  S2-  S244  1  0.61870910  0.49266431  0.05241741  1
  S2-  S245  1  0.64365764  0.49455444  0.54403681  1
  S2-  S246  1  0.61393310  0.73768571  0.04771709  1
  S2-  S247  1  0.64377135  0.74324226  0.54086910  1
  S2-  S248  1  0.87581367  -0.01303991  0.03961303  1
  S2-  S249  1  0.89334359  -0.00260630  0.54816904  1
  S2-  S250  1  0.87349428  0.24346833  0.03033346  1
  S2-  S251  1  0.89025347  0.24561150  0.54680913  1
  S2-  S252  1  0.86999173  0.49280474  0.04480186  1
  S2-  S253  1  0.89147790  0.48991115  0.54308912  1
  S2-  S254  1  0.87694493  0.74011137  0.04299352  1
  S2-  S255  1  0.89380560  0.74465969  0.54365471  1
