# generated using pymatgen
data_La12Ce14Pr13Nd13Sm12(BiS2)64
_symmetry_space_group_name_H-M   'P 1'
_cell_length_a   16.11704812
_cell_length_b   16.16273343
_cell_length_c   27.25939947
_cell_angle_alpha   89.81913182
_cell_angle_beta   90.24506559
_cell_angle_gamma   90.04059384
_symmetry_Int_Tables_number   1
_chemical_formula_structural   La12Ce14Pr13Nd13Sm12(BiS2)64
_chemical_formula_sum   'La12 Ce14 Pr13 Nd13 Sm12 Bi64 S128'
_cell_volume   7100.85027366
_cell_formula_units_Z   1
loop_
 _symmetry_equiv_pos_site_id
 _symmetry_equiv_pos_as_xyz
  1  'x, y, z'
loop_
 _atom_type_symbol
 _atom_type_oxidation_number
  La3+  3.0
  Ce3+  3.0
  Pr3+  3.0
  Nd3+  3.0
  Sm3+  3.0
  Bi2+  2.0
  S2-  -2.0
loop_
 _atom_site_type_symbol
 _atom_site_label
 _atom_site_symmetry_multiplicity
 _atom_site_fract_x
 _atom_site_fract_y
 _atom_site_fract_z
 _atom_site_occupancy
  La3+  La0  1  0.27756546  0.12149950  0.58352827  1
  La3+  La1  1  0.36356358  0.27074172  0.92653683  1
  La3+  La2  1  -0.02175707  0.39456771  0.08085955  1
  La3+  La3  1  0.77602701  0.35827401  0.57970359  1
  La3+  La4  1  -0.01536908  0.89515966  0.06376704  1
  La3+  La5  1  0.38915055  0.23681630  0.42403589  1
  La3+  La6  1  0.72785985  0.39127834  0.08351100  1
  La3+  La7  1  0.27567669  0.85683270  0.59695703  1
  La3+  La8  1  0.01718165  0.61737854  0.56960501  1
  La3+  La9  1  0.65015389  -0.00853517  0.42170484  1
  La3+  La10  1  0.76878734  0.11194110  0.56131767  1
  La3+  La11  1  0.09792280  0.01554362  0.90512907  1
  Ce3+  Ce12  1  0.23113173  0.63799464  0.05571193  1
  Ce3+  Ce13  1  0.23726328  0.38201126  0.05845018  1
  Ce3+  Ce14  1  0.02323144  0.11398890  0.55909146  1
  Ce3+  Ce15  1  0.72968603  0.88710550  0.05968551  1
  Ce3+  Ce16  1  -0.01441726  0.14019378  0.05648332  1
  Ce3+  Ce17  1  0.85633634  0.76383955  0.94140762  1
  Ce3+  Ce18  1  0.89054152  0.48755940  0.44388065  1
  Ce3+  Ce19  1  0.26859352  0.61515272  0.55671010  1
  Ce3+  Ce20  1  0.14293600  -0.01136586  0.44593140  1
  Ce3+  Ce21  1  0.23248402  0.89191709  0.04765920  1
  Ce3+  Ce22  1  0.23719467  0.13837459  0.04958637  1
  Ce3+  Ce23  1  0.26840669  0.36153094  0.55482893  1
  Ce3+  Ce24  1  0.64374312  0.74603521  0.43753721  1
  Ce3+  Ce25  1  0.73467361  0.12624872  0.07932882  1
  Pr3+  Pr26  1  0.85276962  0.51294257  0.93716748  1
  Pr3+  Pr27  1  0.35889143  0.01487797  0.92815615  1
  Pr3+  Pr28  1  0.60126567  0.76617563  0.92569192  1
  Pr3+  Pr29  1  0.02091445  0.87089359  0.56910147  1
  Pr3+  Pr30  1  0.10437009  0.26313983  0.93252280  1
  Pr3+  Pr31  1  0.51985723  0.36159981  0.55693361  1
  Pr3+  Pr32  1  0.13962060  0.23972565  0.43006140  1
  Pr3+  Pr33  1  0.85152008  0.01463509  0.93245367  1
  Pr3+  Pr34  1  0.48238410  0.64075416  0.06343790  1
  Pr3+  Pr35  1  0.47591595  0.39142277  0.08078028  1
  Pr3+  Pr36  1  0.35431243  0.76429914  0.94037759  1
  Pr3+  Pr37  1  0.39517654  0.48918210  0.43891157  1
  Pr3+  Pr38  1  0.73108417  0.64139030  0.06308566  1
  Nd3+  Nd39  1  0.51757165  0.61598089  0.55284653  1
  Nd3+  Nd40  1  0.10356924  0.51081999  0.94142467  1
  Nd3+  Nd41  1  0.90047047  -0.01733222  0.42890418  1
  Nd3+  Nd42  1  0.76547112  0.61596814  0.56120515  1
  Nd3+  Nd43  1  0.89280929  0.23973943  0.43286781  1
  Nd3+  Nd44  1  0.64329750  0.24043711  0.41054394  1
  Nd3+  Nd45  1  0.14320501  0.74080094  0.44322257  1
  Nd3+  Nd46  1  0.85243564  0.26344965  0.95019689  1
  Nd3+  Nd47  1  0.60617468  0.51012159  0.94499964  1
  Nd3+  Nd48  1  0.46998509  0.13060866  0.09211002  1
  Nd3+  Nd49  1  0.60552092  0.26175893  0.95920309  1
  Nd3+  Nd50  1  0.48305421  0.88737416  0.06279165  1
  Nd3+  Nd51  1  0.76455449  0.86986924  0.56560728  1
  Sm3+  Sm52  1  -0.01690364  0.63771774  0.06105333  1
  Sm3+  Sm53  1  0.14009218  0.49091174  0.44622209  1
  Sm3+  Sm54  1  0.89304069  0.74187781  0.45177054  1
  Sm3+  Sm55  1  0.51647383  0.86614216  0.55995348  1
  Sm3+  Sm56  1  0.60606090  0.01541140  0.94625913  1
  Sm3+  Sm57  1  0.39227382  0.74114026  0.44050239  1
  Sm3+  Sm58  1  0.10287187  0.76208650  0.93883015  1
  Sm3+  Sm59  1  0.01987491  0.36180905  0.56186253  1
  Sm3+  Sm60  1  0.51691282  0.11335881  0.55260183  1
  Sm3+  Sm61  1  0.35704343  0.51281292  0.94151658  1
  Sm3+  Sm62  1  0.64648296  0.48708581  0.44621817  1
  Sm3+  Sm63  1  0.39208103  -0.01059564  0.44322273  1
  Bi2+  Bi64  1  0.03848494  0.10997366  0.28784085  1
  Bi2+  Bi65  1  0.02108281  0.18412766  0.75295603  1
  Bi2+  Bi66  1  0.03203463  0.38581577  0.29897095  1
  Bi2+  Bi67  1  0.06910440  0.38231646  0.79451237  1
  Bi2+  Bi68  1  -0.02877441  0.65801852  0.23387743  1
  Bi2+  Bi69  1  -0.04217468  0.59640171  0.79230932  1
  Bi2+  Bi70  1  0.01279912  0.84423334  0.30024367  1
  Bi2+  Bi71  1  -0.02005667  0.84672479  0.80384710  1
  Bi2+  Bi72  1  0.23785947  0.08568496  0.27670562  1
  Bi2+  Bi73  1  0.24228902  0.11183972  0.78924962  1
  Bi2+  Bi74  1  0.27448837  0.35952953  0.28903479  1
  Bi2+  Bi75  1  0.25624738  0.33320646  0.80080023  1
  Bi2+  Bi76  1  0.27598816  0.69410888  0.28533025  1
  Bi2+  Bi77  1  0.24359624  0.60731449  0.78500588  1
  Bi2+  Bi78  1  0.21617784  0.88827147  0.28879043  1
  Bi2+  Bi79  1  0.26480196  0.85113179  0.80010966  1
  Bi2+  Bi80  1  0.48664271  0.11778394  0.28727133  1
  Bi2+  Bi81  1  0.54673611  0.13198612  0.75185422  1
  Bi2+  Bi82  1  0.51557698  0.40415545  0.28837261  1
  Bi2+  Bi83  1  0.52485746  0.40219592  0.80507184  1
  Bi2+  Bi84  1  0.56252458  0.67894957  0.27785185  1
  Bi2+  Bi85  1  0.52121746  0.66024200  0.79881155  1
  Bi2+  Bi86  1  0.49802827  0.86892814  0.29302150  1
  Bi2+  Bi87  1  0.55752743  0.85491409  0.77742040  1
  Bi2+  Bi88  1  0.76011385  0.11364229  0.27997635  1
  Bi2+  Bi89  1  0.69638652  0.09043376  0.82449790  1
  Bi2+  Bi90  1  0.77068492  0.38049999  0.29355834  1
  Bi2+  Bi91  1  0.74529791  0.35302677  0.82318221  1
  Bi2+  Bi92  1  0.75775791  0.64878826  0.28315589  1
  Bi2+  Bi93  1  0.70844592  0.65704790  0.73719702  1
  Bi2+  Bi94  1  0.76460537  0.86215608  0.28747690  1
  Bi2+  Bi95  1  0.73814802  0.89560354  0.82218221  1
  Bi2+  Bi96  1  0.10949434  0.00183771  0.20097500  1
  Bi2+  Bi97  1  0.09828373  -0.01993050  0.70396929  1
  Bi2+  Bi98  1  0.15637924  0.24204117  0.22453006  1
  Bi2+  Bi99  1  0.11711656  0.30626518  0.68903714  1
  Bi2+  Bi100  1  0.16591417  0.53742468  0.24550024  1
  Bi2+  Bi101  1  0.14640575  0.49622597  0.70426192  1
  Bi2+  Bi102  1  0.15801052  0.75171288  0.19653582  1
  Bi2+  Bi103  1  0.12605890  0.71985367  0.71080017  1
  Bi2+  Bi104  1  0.36442626  -0.08136952  0.21322749  1
  Bi2+  Bi105  1  0.38617305  -0.00317071  0.70349823  1
  Bi2+  Bi106  1  0.36962479  0.25307735  0.20562884  1
  Bi2+  Bi107  1  0.38727467  0.27935218  0.72085817  1
  Bi2+  Bi108  1  0.36043761  0.51400279  0.23181967  1
  Bi2+  Bi109  1  0.34380669  0.47749503  0.71900136  1
  Bi2+  Bi110  1  0.43028286  0.72208823  0.19151719  1
  Bi2+  Bi111  1  0.38890507  0.67359329  0.71562116  1
  Bi2+  Bi112  1  0.61890481  -0.06483933  0.20863328  1
  Bi2+  Bi113  1  0.63646434  0.01514309  0.68076527  1
  Bi2+  Bi114  1  0.64543884  0.27657695  0.22769884  1
  Bi2+  Bi115  1  0.64473250  0.27005928  0.70114894  1
  Bi2+  Bi116  1  0.62328587  0.52757873  0.21529850  1
  Bi2+  Bi117  1  0.56279934  0.49990440  0.71086886  1
  Bi2+  Bi118  1  0.60973600  0.76728884  0.14989771  1
  Bi2+  Bi119  1  0.64422648  0.81780842  0.67664676  1
  Bi2+  Bi120  1  0.88564412  -0.07585709  0.20355490  1
  Bi2+  Bi121  1  0.81204484  0.02099349  0.74066755  1
  Bi2+  Bi122  1  0.92488401  0.23522498  0.20096132  1
  Bi2+  Bi123  1  0.83054947  0.22637325  0.74516298  1
  Bi2+  Bi124  1  0.87114243  0.50043572  0.21669526  1
  Bi2+  Bi125  1  0.85740903  0.47093551  0.70917293  1
  Bi2+  Bi126  1  0.80476512  0.74256189  0.18687562  1
  Bi2+  Bi127  1  0.82593309  0.81435613  0.72712883  1
  S2-  S128  1  -0.01633671  0.08943359  0.15052850  1
  S2-  S129  1  0.00506525  0.09735813  0.65711500  1
  S2-  S130  1  0.05556684  0.32894697  0.16500689  1
  S2-  S131  1  -0.07210943  0.37548990  0.64535005  1
  S2-  S132  1  -0.01556234  0.55110841  0.14608389  1
  S2-  S133  1  0.02391577  0.60815037  0.67073315  1
  S2-  S134  1  0.01036131  0.83937872  0.15866889  1
  S2-  S135  1  0.02177160  0.83473364  0.66821300  1
  S2-  S136  1  0.31212649  0.14063220  0.13847807  1
  S2-  S137  1  0.23220612  0.07846814  0.68227637  1
  S2-  S138  1  0.33060815  0.37686961  0.14137843  1
  S2-  S139  1  0.27350557  0.27873961  0.64009180  1
  S2-  S140  1  0.21324486  0.61638510  0.15223603  1
  S2-  S141  1  0.26337606  0.69123414  0.64390696  1
  S2-  S142  1  0.22768027  0.90136716  0.14532134  1
  S2-  S143  1  0.23739790  0.87685283  0.69847976  1
  S2-  S144  1  0.52865787  0.17285599  0.18813995  1
  S2-  S145  1  0.43317266  0.11259744  0.63983960  1
  S2-  S146  1  0.59873887  0.38182328  0.15541543  1
  S2-  S147  1  0.49750812  0.35029444  0.65695536  1
  S2-  S148  1  0.46250584  0.55577163  0.15204310  1
  S2-  S149  1  0.52455542  0.62796620  0.65153800  1
  S2-  S150  1  0.47767484  0.97995687  0.14748550  1
  S2-  S151  1  0.43151687  0.87233618  0.64688907  1
  S2-  S152  1  0.76139574  0.17263518  0.17783336  1
  S2-  S153  1  0.77121910  0.21671047  0.64465672  1
  S2-  S154  1  0.85323669  0.36350919  0.15572250  1
  S2-  S155  1  0.71309845  0.42582220  0.66899615  1
  S2-  S156  1  0.74131695  0.54231667  0.14723086  1
  S2-  S157  1  0.80802507  0.61501315  0.65818157  1
  S2-  S158  1  0.74747048  0.97823278  0.14229696  1
  S2-  S159  1  0.79242213  0.98897713  0.63671646  1
  S2-  S160  1  0.04054272  -0.01476180  0.36291067  1
  S2-  S161  1  0.14388359  -0.03102505  0.80768284  1
  S2-  S162  1  0.01385718  0.24706482  0.35507259  1
  S2-  S163  1  0.09964976  0.16782748  0.84655124  1
  S2-  S164  1  0.13455113  0.48885356  0.34791812  1
  S2-  S165  1  0.10384021  0.54210095  0.84289462  1
  S2-  S166  1  0.12778469  0.74004303  0.34424923  1
  S2-  S167  1  0.12030601  0.77232346  0.84075747  1
  S2-  S168  1  0.41654320  0.00618759  0.34451371  1
  S2-  S169  1  0.34570144  -0.01064992  0.82749309  1
  S2-  S170  1  0.25793717  0.22992934  0.35257002  1
  S2-  S171  1  0.35895467  0.19892016  0.83328039  1
  S2-  S172  1  0.39170396  0.48369953  0.33852524  1
  S2-  S173  1  0.38067411  0.41932678  0.86119320  1
  S2-  S174  1  0.41563674  0.73244354  0.34336060  1
  S2-  S175  1  0.40462031  0.77209318  0.84506239  1
  S2-  S176  1  0.62435391  0.10295345  0.34093566  1
  S2-  S177  1  0.57007908  -0.02833299  0.85168127  1
  S2-  S178  1  0.50173580  0.26092561  0.34587066  1
  S2-  S179  1  0.59857679  0.27856398  0.85784808  1
  S2-  S180  1  0.65032831  0.45716106  0.34937303  1
  S2-  S181  1  0.65232271  0.49180295  0.84917856  1
  S2-  S182  1  0.63857727  0.85052631  0.35935609  1
  S2-  S183  1  0.67215902  0.71979156  0.83766063  1
  S2-  S184  1  0.80003889  0.00623072  0.34786423  1
  S2-  S185  1  0.94710740  -0.01380248  0.84894604  1
  S2-  S186  1  0.78609492  0.24228389  0.34924985  1
  S2-  S187  1  0.85494518  0.23342835  0.85209030  1
  S2-  S188  1  0.90197753  0.46461904  0.34661311  1
  S2-  S189  1  0.86997157  0.47938555  0.83765825  1
  S2-  S190  1  0.89027392  0.80151846  0.35968761  1
  S2-  S191  1  0.89604626  0.71060389  0.85038258  1
  S2-  S192  1  0.01865539  0.11464545  0.45558413  1
  S2-  S193  1  -0.02078445  0.13800116  0.95144028  1
  S2-  S194  1  0.01886426  0.36895351  0.45829897  1
  S2-  S195  1  -0.02041835  0.38677036  0.95529711  1
  S2-  S196  1  0.01660249  0.61636848  0.45823554  1
  S2-  S197  1  -0.01720521  0.63644465  0.95667891  1
  S2-  S198  1  0.02021508  0.85950374  0.46286129  1
  S2-  S199  1  -0.01626568  0.88626891  0.95471685  1
  S2-  S200  1  0.26688829  0.10964273  0.45601217  1
  S2-  S201  1  0.23208652  0.13735131  0.94435908  1
  S2-  S202  1  0.26505322  0.37010841  0.45003250  1
  S2-  S203  1  0.22975479  0.38916453  0.95154122  1
  S2-  S204  1  0.26802175  0.61446386  0.44946791  1
  S2-  S205  1  0.23044946  0.63604274  0.94797245  1
  S2-  S206  1  0.26974378  0.86370086  0.44436921  1
  S2-  S207  1  0.22593499  0.89018691  0.94179096  1
  S2-  S208  1  0.51697386  0.11375908  0.45024490  1
  S2-  S209  1  0.48476794  0.13668632  0.94495740  1
  S2-  S210  1  0.52216338  0.36598396  0.45133330  1
  S2-  S211  1  0.48480934  0.39093125  0.96761447  1
  S2-  S212  1  0.52125523  0.61535689  0.44677777  1
  S2-  S213  1  0.48013764  0.63618719  0.95187473  1
  S2-  S214  1  0.51234455  0.86444489  0.45571772  1
  S2-  S215  1  0.48081088  0.88891517  0.95530133  1
  S2-  S216  1  0.76741390  0.11883861  0.45360405  1
  S2-  S217  1  0.72989692  0.13650393  0.96412878  1
  S2-  S218  1  0.76622378  0.36421455  0.45907220  1
  S2-  S219  1  0.73058383  0.38779929  0.96752179  1
  S2-  S220  1  0.76751923  0.61724907  0.45318179  1
  S2-  S221  1  0.72959066  0.63906331  0.95447160  1
  S2-  S222  1  0.77089603  0.86462073  0.46100885  1
  S2-  S223  1  0.72889942  0.88750328  0.95299487  1
  S2-  S224  1  0.11028043  0.01662083  0.04094871  1
  S2-  S225  1  0.15399154  -0.01291985  0.55553001  1
  S2-  S226  1  0.10987869  0.26333666  0.04200328  1
  S2-  S227  1  0.14274628  0.23968196  0.54117895  1
  S2-  S228  1  0.10988377  0.50923143  0.04650685  1
  S2-  S229  1  0.14238902  0.48895147  0.55200212  1
  S2-  S230  1  0.10675844  0.76190926  0.04407681  1
  S2-  S231  1  0.14400640  0.74382812  0.54943308  1
  S2-  S232  1  0.36048898  0.01200464  0.03669448  1
  S2-  S233  1  0.38911928  -0.01469737  0.54496675  1
  S2-  S234  1  0.36284458  0.25987770  0.03736386  1
  S2-  S235  1  0.39510363  0.23985397  0.53482098  1
  S2-  S236  1  0.35495613  0.51521363  0.04336406  1
  S2-  S237  1  0.39345590  0.49008706  0.54733380  1
  S2-  S238  1  0.35506120  0.76403448  0.04759382  1
  S2-  S239  1  0.39301237  0.74090902  0.54432439  1
  S2-  S240  1  0.60306301  0.01387237  0.04841073  1
  S2-  S241  1  0.63664368  -0.01241187  0.53881403  1
  S2-  S242  1  0.60138970  0.24780768  0.06220855  1
  S2-  S243  1  0.63827468  0.23619769  0.54698343  1
  S2-  S244  1  0.60371248  0.51589941  0.04969276  1
  S2-  S245  1  0.64339467  0.49103254  0.55031852  1
  S2-  S246  1  0.60494828  0.76392491  0.03379362  1
  S2-  S247  1  0.64169529  0.74159323  0.54433080  1
  S2-  S248  1  0.85949600  0.01411839  0.03991960  1
  S2-  S249  1  0.89997083  -0.01052237  0.53736695  1
  S2-  S250  1  0.85566601  0.25778515  0.05434960  1
  S2-  S251  1  0.90115988  0.23797632  0.54157069  1
  S2-  S252  1  0.85793020  0.51696911  0.04385426  1
  S2-  S253  1  0.89289102  0.49348083  0.54814668  1
  S2-  S254  1  0.86101528  0.76326947  0.04875710  1
  S2-  S255  1  0.89065285  0.74483071  0.55662451  1
