# generated using pymatgen
data_La12Ce14Pr13Nd13Sm12(BiS2)64
_symmetry_space_group_name_H-M   'P 1'
_cell_length_a   16.11997361
_cell_length_b   16.13973409
_cell_length_c   27.10148643
_cell_angle_alpha   89.97660921
_cell_angle_beta   89.92239029
_cell_angle_gamma   90.08815986
_symmetry_Int_Tables_number   1
_chemical_formula_structural   La12Ce14Pr13Nd13Sm12(BiS2)64
_chemical_formula_sum   'La12 Ce14 Pr13 Nd13 Sm12 Bi64 S128'
_cell_volume   7051.03489435
_cell_formula_units_Z   1
loop_
 _symmetry_equiv_pos_site_id
 _symmetry_equiv_pos_as_xyz
  1  'x, y, z'
loop_
 _atom_type_symbol
 _atom_type_oxidation_number
  La3+  3.0
  Ce3+  3.0
  Pr3+  3.0
  Nd3+  3.0
  Sm3+  3.0
  Bi2+  2.0
  S2-  -2.0
loop_
 _atom_site_type_symbol
 _atom_site_label
 _atom_site_symmetry_multiplicity
 _atom_site_fract_x
 _atom_site_fract_y
 _atom_site_fract_z
 _atom_site_occupancy
  La3+  La0  1  0.23989103  0.11914273  0.08690862  1
  La3+  La1  1  0.23379625  0.89472855  0.57141667  1
  La3+  La2  1  0.10343737  0.52574598  0.43098136  1
  La3+  La3  1  0.48334269  0.89535752  0.56423809  1
  La3+  La4  1  0.73248772  0.39482504  0.56416286  1
  La3+  La5  1  0.49389164  0.85653469  0.09073334  1
  La3+  La6  1  0.48616310  0.59367462  0.09203215  1
  La3+  La7  1  0.75586177  0.60174569  0.10225855  1
  La3+  La8  1  -0.01615447  0.89511474  0.57347870  1
  La3+  La9  1  0.12643550  0.48602990  0.89716541  1
  La3+  La10  1  -0.01441458  0.64247183  0.58678156  1
  La3+  La11  1  0.61868378  -0.03329292  0.92956416  1
  Ce3+  Ce12  1  0.12541688  -0.01874133  0.94279309  1
  Ce3+  Ce13  1  0.87772014  0.48582857  0.93954037  1
  Ce3+  Ce14  1  0.86361729  0.26906961  0.43247368  1
  Ce3+  Ce15  1  0.23153203  0.39684261  0.55865557  1
  Ce3+  Ce16  1  0.62339425  0.73058357  0.96517577  1
  Ce3+  Ce17  1  0.10879218  0.26849232  0.45046785  1
  Ce3+  Ce18  1  0.85852549  0.52940414  0.43632821  1
  Ce3+  Ce19  1  0.12313334  0.73203145  0.93461931  1
  Ce3+  Ce20  1  0.25047585  0.85535325  0.05966385  1
  Ce3+  Ce21  1  0.11533689  0.01905188  0.43963241  1
  Ce3+  Ce22  1  0.87555512  0.72852449  0.94371409  1
  Ce3+  Ce23  1  0.60120240  0.01624533  0.42456254  1
  Ce3+  Ce24  1  0.25001750  0.60494828  0.04975396  1
  Ce3+  Ce25  1  0.23586892  0.14568133  0.56921847  1
  Pr3+  Pr26  1  0.00286339  0.59953348  0.06950913  1
  Pr3+  Pr27  1  0.62291616  0.48511196  0.93889877  1
  Pr3+  Pr28  1  0.35811111  0.76634010  0.44080626  1
  Pr3+  Pr29  1  0.49657212  0.10524738  0.07040007  1
  Pr3+  Pr30  1  0.48419218  0.14594282  0.55301682  1
  Pr3+  Pr31  1  0.87331189  0.23159958  0.94116144  1
  Pr3+  Pr32  1  0.00138635  0.35695501  0.05883550  1
  Pr3+  Pr33  1  0.12210771  0.23161442  0.92503883  1
  Pr3+  Pr34  1  0.37464683  0.22647106  0.93191332  1
  Pr3+  Pr35  1  0.37929959  0.48383146  0.92971314  1
  Pr3+  Pr36  1  0.86195630  0.77157080  0.43942393  1
  Pr3+  Pr37  1  0.61144442  0.52726289  0.42753957  1
  Pr3+  Pr38  1  0.74794490  0.35855545  0.05845641  1
  Nd3+  Nd39  1  0.35978593  0.52010960  0.44046464  1
  Nd3+  Nd40  1  0.35619502  0.02002223  0.43374109  1
  Nd3+  Nd41  1  0.49842752  0.35309384  0.05685904  1
  Nd3+  Nd42  1  0.38218731  0.73416784  0.93885383  1
  Nd3+  Nd43  1  0.37402983  -0.01820561  0.94867305  1
  Nd3+  Nd44  1  0.36131410  0.27210769  0.43808554  1
  Nd3+  Nd45  1  0.73277106  0.64678245  0.56509261  1
  Nd3+  Nd46  1  -0.01909469  0.14188857  0.56558833  1
  Nd3+  Nd47  1  0.48746792  0.64408944  0.56608431  1
  Nd3+  Nd48  1  0.75076907  0.85874459  0.06790044  1
  Nd3+  Nd49  1  0.73271584  0.89595532  0.55973727  1
  Nd3+  Nd50  1  0.87594333  -0.02312221  0.93402801  1
  Nd3+  Nd51  1  0.62204240  0.27351206  0.42645246  1
  Sm3+  Sm52  1  0.74933614  0.10214145  0.05118019  1
  Sm3+  Sm53  1  -0.00087199  0.85254052  0.05672760  1
  Sm3+  Sm54  1  0.86421006  0.01262024  0.43379184  1
  Sm3+  Sm55  1  0.24203965  0.63609116  0.58714729  1
  Sm3+  Sm56  1  -0.00173740  0.10415126  0.05794109  1
  Sm3+  Sm57  1  0.48807734  0.39452109  0.55589760  1
  Sm3+  Sm58  1  0.73271013  0.14045261  0.54775859  1
  Sm3+  Sm59  1  0.11001339  0.76539918  0.45071199  1
  Sm3+  Sm60  1  0.24850840  0.35500328  0.04610680  1
  Sm3+  Sm61  1  0.62457935  0.22794259  0.94270568  1
  Sm3+  Sm62  1  -0.02457256  0.39533527  0.56527963  1
  Sm3+  Sm63  1  0.61006644  0.77719850  0.43068699  1
  Bi2+  Bi64  1  0.02963294  0.07091142  0.32175433  1
  Bi2+  Bi65  1  0.04097928  0.14995608  0.79079032  1
  Bi2+  Bi66  1  -0.02069546  0.27427127  0.29648998  1
  Bi2+  Bi67  1  -0.01666392  0.36588964  0.78109620  1
  Bi2+  Bi68  1  -0.01857884  0.62201496  0.29785335  1
  Bi2+  Bi69  1  -0.01799131  0.65438856  0.80762868  1
  Bi2+  Bi70  1  0.03370742  0.87196278  0.30589894  1
  Bi2+  Bi71  1  -0.02697217  0.89608041  0.80432282  1
  Bi2+  Bi72  1  0.21657240  0.12356819  0.27886660  1
  Bi2+  Bi73  1  0.23829263  0.16408714  0.80861682  1
  Bi2+  Bi74  1  0.22153441  0.34881038  0.28316357  1
  Bi2+  Bi75  1  0.26472004  0.35641395  0.77507031  1
  Bi2+  Bi76  1  0.23687360  0.61048118  0.30314609  1
  Bi2+  Bi77  1  0.31662394  0.61634275  0.77643064  1
  Bi2+  Bi78  1  0.23003609  0.87545878  0.29244842  1
  Bi2+  Bi79  1  0.26463872  0.97447705  0.78893591  1
  Bi2+  Bi80  1  0.50224883  0.12003748  0.27400346  1
  Bi2+  Bi81  1  0.49643660  0.18743221  0.77655197  1
  Bi2+  Bi82  1  0.45748411  0.36166777  0.29133477  1
  Bi2+  Bi83  1  0.51362293  0.43212930  0.76534466  1
  Bi2+  Bi84  1  0.49790146  0.61608052  0.30179659  1
  Bi2+  Bi85  1  0.50927151  0.63676447  0.79457657  1
  Bi2+  Bi86  1  0.49970143  0.87108091  0.29491352  1
  Bi2+  Bi87  1  0.50950061  0.88167679  0.80772458  1
  Bi2+  Bi88  1  0.83678026  0.13640148  0.32129588  1
  Bi2+  Bi89  1  0.76138159  0.20446464  0.78233824  1
  Bi2+  Bi90  1  0.72928486  0.29018449  0.25467943  1
  Bi2+  Bi91  1  0.71895173  0.42532077  0.79763800  1
  Bi2+  Bi92  1  0.79300545  0.53688024  0.29649882  1
  Bi2+  Bi93  1  0.72559278  0.61977724  0.79175334  1
  Bi2+  Bi94  1  0.78180637  0.95573303  0.28697204  1
  Bi2+  Bi95  1  0.73820093  0.92228622  0.76772174  1
  Bi2+  Bi96  1  0.19161305  -0.01120731  0.19838657  1
  Bi2+  Bi97  1  0.12342145  0.02332719  0.71175953  1
  Bi2+  Bi98  1  0.11063390  0.24561780  0.20916036  1
  Bi2+  Bi99  1  0.17729898  0.21981272  0.69563760  1
  Bi2+  Bi100  1  0.08283769  0.58464064  0.20113312  1
  Bi2+  Bi101  1  0.10763364  0.50436122  0.71587450  1
  Bi2+  Bi102  1  0.11444067  0.78338125  0.20470925  1
  Bi2+  Bi103  1  0.12501672  0.76852584  0.72547792  1
  Bi2+  Bi104  1  0.39238727  -0.00669445  0.20647177  1
  Bi2+  Bi105  1  0.39317154  0.01877143  0.70938490  1
  Bi2+  Bi106  1  0.38994243  0.29304852  0.19002932  1
  Bi2+  Bi107  1  0.38207624  0.20896127  0.67929325  1
  Bi2+  Bi108  1  0.25508421  0.49658220  0.20814749  1
  Bi2+  Bi109  1  0.38145591  0.40252497  0.68343975  1
  Bi2+  Bi110  1  0.30305507  0.73278815  0.21978638  1
  Bi2+  Bi111  1  0.38666562  0.76329132  0.71152974  1
  Bi2+  Bi112  1  0.65922038  0.05058945  0.21774300  1
  Bi2+  Bi113  1  0.64807614  0.03871496  0.69709431  1
  Bi2+  Bi114  1  0.58090142  0.23182997  0.18753205  1
  Bi2+  Bi115  1  0.63699643  0.29585134  0.71727290  1
  Bi2+  Bi116  1  0.60929518  0.47978718  0.20691713  1
  Bi2+  Bi117  1  0.64448436  0.53254769  0.69530630  1
  Bi2+  Bi118  1  0.66171280  0.75666452  0.24059926  1
  Bi2+  Bi119  1  0.62802799  0.75595731  0.73201250  1
  Bi2+  Bi120  1  0.95080582  0.00386204  0.22617438  1
  Bi2+  Bi121  1  0.88988160  0.10442233  0.71669359  1
  Bi2+  Bi122  1  0.87540427  0.19346263  0.19836176  1
  Bi2+  Bi123  1  0.98603907  0.26592187  0.68229903  1
  Bi2+  Bi124  1  0.88832513  0.38918815  0.21226904  1
  Bi2+  Bi125  1  0.84879917  0.48595370  0.70883925  1
  Bi2+  Bi126  1  0.89613277  0.76527333  0.21275759  1
  Bi2+  Bi127  1  0.85059357  0.76374614  0.71224372  1
  S2-  S128  1  0.08760467  0.11254977  0.14271644  1
  S2-  S129  1  -0.01462814  0.02631492  0.64366307  1
  S2-  S130  1  0.01060455  0.44962453  0.14467150  1
  S2-  S131  1  -0.00693831  0.49531463  0.64785064  1
  S2-  S132  1  -0.09263315  0.63736480  0.15307504  1
  S2-  S133  1  0.12226015  0.64724754  0.65998677  1
  S2-  S134  1  -0.02346138  0.88312867  0.15276982  1
  S2-  S135  1  -0.01085640  0.79944844  0.66246858  1
  S2-  S136  1  0.37856389  0.13237074  0.15051636  1
  S2-  S137  1  0.24957699  0.02652732  0.64252211  1
  S2-  S138  1  0.23609518  0.28798819  0.13760018  1
  S2-  S139  1  0.22931821  0.47044066  0.64731795  1
  S2-  S140  1  0.32016880  0.60523945  0.14084439  1
  S2-  S141  1  0.38138747  0.63829063  0.65028176  1
  S2-  S142  1  0.33728888  0.84952149  0.14627047  1
  S2-  S143  1  0.24449138  0.80813918  0.66319499  1
  S2-  S144  1  0.53563067  -0.00329657  0.14776728  1
  S2-  S145  1  0.54164450  0.12537631  0.64865393  1
  S2-  S146  1  0.48017501  0.43117350  0.14505190  1
  S2-  S147  1  0.59745571  0.38625528  0.63405955  1
  S2-  S148  1  0.51624110  0.60844641  0.19637714  1
  S2-  S149  1  0.60948957  0.67034078  0.64019993  1
  S2-  S150  1  0.53294032  0.81427107  0.19649301  1
  S2-  S151  1  0.48312193  0.89681141  0.66669862  1
  S2-  S152  1  0.78285473  0.07081085  0.14610218  1
  S2-  S153  1  0.75736567  0.13083019  0.64614196  1
  S2-  S154  1  0.75140222  0.43469585  0.14869286  1
  S2-  S155  1  0.84259224  0.36437735  0.64293444  1
  S2-  S156  1  0.72168263  0.61218147  0.20619987  1
  S2-  S157  1  0.83703931  0.64127988  0.64961818  1
  S2-  S158  1  0.75948782  0.82834500  0.16678780  1
  S2-  S159  1  0.76066276  0.89655558  0.65977199  1
  S2-  S160  1  0.23384954  0.01418115  0.36077439  1
  S2-  S161  1  0.06723870  0.00167652  0.85081534  1
  S2-  S162  1  0.12538879  0.24257842  0.35431371  1
  S2-  S163  1  0.11725605  0.33800733  0.84235320  1
  S2-  S164  1  0.15843123  0.47238498  0.33776961  1
  S2-  S165  1  0.13019736  0.58776782  0.80863661  1
  S2-  S166  1  0.11127251  0.67833430  0.36246489  1
  S2-  S167  1  0.09858779  0.78071069  0.83764098  1
  S2-  S168  1  0.46160664  0.01292739  0.35216877  1
  S2-  S169  1  0.40441112  -0.00257468  0.84969974  1
  S2-  S170  1  0.34766484  0.26085886  0.33825631  1
  S2-  S171  1  0.38737880  0.27153989  0.83393830  1
  S2-  S172  1  0.38714610  0.50493876  0.34166561  1
  S2-  S173  1  0.28824721  0.48311289  0.84236585  1
  S2-  S174  1  0.40434889  0.75238367  0.34226601  1
  S2-  S175  1  0.35552680  0.74251349  0.83731472  1
  S2-  S176  1  0.63966538  -0.09026505  0.34854673  1
  S2-  S177  1  0.62210597  0.00203084  0.82736682  1
  S2-  S178  1  0.55514595  0.25359664  0.33429563  1
  S2-  S179  1  0.61598432  0.22875542  0.84469085  1
  S2-  S180  1  0.62423157  0.49627835  0.32592974  1
  S2-  S181  1  0.51197824  0.49804846  0.85974075  1
  S2-  S182  1  0.62272578  0.70091808  0.34210362  1
  S2-  S183  1  0.59323670  0.80194469  0.87685730  1
  S2-  S184  1  0.88092854  -0.11139811  0.36087775  1
  S2-  S185  1  0.85033162  -0.00343454  0.83501514  1
  S2-  S186  1  0.75961442  0.29434343  0.35501164  1
  S2-  S187  1  0.88727468  0.25439732  0.84172823  1
  S2-  S188  1  0.93254170  0.48035384  0.34902468  1
  S2-  S189  1  0.95366241  0.49993192  0.85097697  1
  S2-  S190  1  0.84505887  0.66179936  0.35653277  1
  S2-  S191  1  0.86645616  0.77383949  0.84826119  1
  S2-  S192  1  -0.01548673  0.14054312  0.45609495  1
  S2-  S193  1  -0.00276302  0.10622876  0.95320353  1
  S2-  S194  1  -0.01547145  0.39131235  0.45848886  1
  S2-  S195  1  -0.00130003  0.35810899  0.95182049  1
  S2-  S196  1  -0.01687653  0.64822697  0.46435913  1
  S2-  S197  1  0.00476360  0.60746588  0.95649456  1
  S2-  S198  1  -0.00626850  0.89455276  0.46293960  1
  S2-  S199  1  -0.00010555  0.85567641  0.95304290  1
  S2-  S200  1  0.23747047  0.14859159  0.46084248  1
  S2-  S201  1  0.24707584  0.10626372  0.94735203  1
  S2-  S202  1  0.23533514  0.39486947  0.45168811  1
  S2-  S203  1  0.24993554  0.35511659  0.94364168  1
  S2-  S204  1  0.23711326  0.64186339  0.46179385  1
  S2-  S205  1  0.24963109  0.61092276  0.94381464  1
  S2-  S206  1  0.23409866  0.88855099  0.46002799  1
  S2-  S207  1  0.25042894  0.85531065  0.95107338  1
  S2-  S208  1  0.48599163  0.14947106  0.44737855  1
  S2-  S209  1  0.50258151  0.10496033  0.95562247  1
  S2-  S210  1  0.49031382  0.39465982  0.45031739  1
  S2-  S211  1  0.50237135  0.35058231  0.95123661  1
  S2-  S212  1  0.48630747  0.64566406  0.45565705  1
  S2-  S213  1  0.49924714  0.61034290  0.96414624  1
  S2-  S214  1  0.48161003  0.89176075  0.45499629  1
  S2-  S215  1  0.49271066  0.85816410  0.97546129  1
  S2-  S216  1  0.73607164  0.13447111  0.44378452  1
  S2-  S217  1  0.74771066  0.10279219  0.94569542  1
  S2-  S218  1  0.73634595  0.40328567  0.45467259  1
  S2-  S219  1  0.74693970  0.35675440  0.95008099  1
  S2-  S220  1  0.72786974  0.65204071  0.45812880  1
  S2-  S221  1  0.74769655  0.60843785  0.94629184  1
  S2-  S222  1  0.73426016  0.89709004  0.45469289  1
  S2-  S223  1  0.75337459  0.85502204  0.95987561  1
  S2-  S224  1  0.12211065  -0.02102631  0.04765420  1
  S2-  S225  1  0.11154587  0.02372496  0.54411873  1
  S2-  S226  1  0.12063059  0.23059617  0.03409246  1
  S2-  S227  1  0.10577795  0.27017631  0.55570528  1
  S2-  S228  1  0.13016304  0.47887185  0.04315886  1
  S2-  S229  1  0.10919256  0.51754334  0.54295172  1
  S2-  S230  1  0.12370613  0.73095088  0.04769919  1
  S2-  S231  1  0.11281208  0.76564648  0.55322105  1
  S2-  S232  1  0.36257289  -0.00953027  0.05243104  1
  S2-  S233  1  0.36189402  0.02049720  0.54117883  1
  S2-  S234  1  0.37388837  0.23125728  0.03884082  1
  S2-  S235  1  0.36061580  0.27330509  0.54560289  1
  S2-  S236  1  0.37193790  0.47578649  0.03776242  1
  S2-  S237  1  0.36353807  0.51556120  0.54580029  1
  S2-  S238  1  0.37541382  0.72876847  0.04666507  1
  S2-  S239  1  0.35949952  0.76762987  0.54867218  1
  S2-  S240  1  0.62975836  -0.01958446  0.04262739  1
  S2-  S241  1  0.60881882  0.01859513  0.53808212  1
  S2-  S242  1  0.62675125  0.22777193  0.04805957  1
  S2-  S243  1  0.61274833  0.26517522  0.53474814  1
  S2-  S244  1  0.62427208  0.48553375  0.04716326  1
  S2-  S245  1  0.60649739  0.52146924  0.53740195  1
  S2-  S246  1  0.62478274  0.72481432  0.07104568  1
  S2-  S247  1  0.60774646  0.77546380  0.53950699  1
  S2-  S248  1  0.87765612  -0.01985655  0.04244624  1
  S2-  S249  1  0.85694544  0.01842571  0.53936361  1
  S2-  S250  1  0.87407066  0.22937244  0.04897752  1
  S2-  S251  1  0.85768185  0.26145593  0.53802812  1
  S2-  S252  1  0.87159583  0.48464730  0.04463283  1
  S2-  S253  1  0.85654779  0.52030348  0.54353285  1
  S2-  S254  1  0.87179802  0.73113364  0.04921203  1
  S2-  S255  1  0.85693431  0.77345868  0.54767184  1
