# generated using pymatgen
data_La12Ce14Pr13Nd13Sm12(BiS2)64
_symmetry_space_group_name_H-M   'P 1'
_cell_length_a   16.11200283
_cell_length_b   16.11081675
_cell_length_c   27.24525657
_cell_angle_alpha   90.20547422
_cell_angle_beta   90.43032298
_cell_angle_gamma   90.13286192
_symmetry_Int_Tables_number   1
_chemical_formula_structural   La12Ce14Pr13Nd13Sm12(BiS2)64
_chemical_formula_sum   'La12 Ce14 Pr13 Nd13 Sm12 Bi64 S128'
_cell_volume   7071.99186724
_cell_formula_units_Z   1
loop_
 _symmetry_equiv_pos_site_id
 _symmetry_equiv_pos_as_xyz
  1  'x, y, z'
loop_
 _atom_type_symbol
 _atom_type_oxidation_number
  La3+  3.0
  Ce3+  3.0
  Pr3+  3.0
  Nd3+  3.0
  Sm3+  3.0
  Bi2+  2.0
  S2-  -2.0
loop_
 _atom_site_type_symbol
 _atom_site_label
 _atom_site_symmetry_multiplicity
 _atom_site_fract_x
 _atom_site_fract_y
 _atom_site_fract_z
 _atom_site_occupancy
  La3+  La0  1  0.86688611  0.49773066  0.92668347  1
  La3+  La1  1  0.60797895  0.49273913  0.41612890  1
  La3+  La2  1  0.25636214  0.11266265  0.07471147  1
  La3+  La3  1  0.37389854  0.24307490  0.93532524  1
  La3+  La4  1  0.63740296  0.01000302  0.88604045  1
  La3+  La5  1  0.86284289  0.50161981  0.39889942  1
  La3+  La6  1  0.35537757  0.49925934  0.42768005  1
  La3+  La7  1  0.76081869  0.36654038  0.08581148  1
  La3+  La8  1  0.73585255  0.12602621  0.57404272  1
  La3+  La9  1  0.00775546  0.11098447  0.09519045  1
  La3+  La10  1  -0.02217529  0.63001935  0.58894616  1
  La3+  La11  1  0.75267447  0.62982110  0.10494695  1
  Ce3+  Ce12  1  0.48610553  0.37794031  0.55526446  1
  Ce3+  Ce13  1  0.12195045  0.24243118  0.94462237  1
  Ce3+  Ce14  1  0.63305045  0.49556083  0.95131874  1
  Ce3+  Ce15  1  0.12973915  -0.00611900  0.93573731  1
  Ce3+  Ce16  1  0.10334133  0.74792024  0.44704237  1
  Ce3+  Ce17  1  0.13265724  0.73846020  0.92435782  1
  Ce3+  Ce18  1  0.74059988  0.62291626  0.55387315  1
  Ce3+  Ce19  1  0.12034936  0.49168922  0.93640917  1
  Ce3+  Ce20  1  0.35434840  0.24961212  0.45016635  1
  Ce3+  Ce21  1  0.50420871  0.37489142  0.06079134  1
  Ce3+  Ce22  1  0.75149171  0.11899807  0.06712903  1
  Ce3+  Ce23  1  0.25124722  0.37072708  0.05762730  1
  Ce3+  Ce24  1  0.48383988  0.12677061  0.56574400  1
  Ce3+  Ce25  1  -0.00103721  0.62055426  0.05625842  1
  Pr3+  Pr26  1  0.61102741  0.24555545  0.43472436  1
  Pr3+  Pr27  1  0.00196293  0.37320770  0.06360141  1
  Pr3+  Pr28  1  0.10275253  0.50096799  0.44511150  1
  Pr3+  Pr29  1  0.23165258  0.38233678  0.57731916  1
  Pr3+  Pr30  1  0.37415759  -0.00725298  0.93054479  1
  Pr3+  Pr31  1  0.23373119  0.87161524  0.57022044  1
  Pr3+  Pr32  1  0.75043050  0.87115538  0.06447112  1
  Pr3+  Pr33  1  0.50299572  0.86786983  0.05569447  1
  Pr3+  Pr34  1  0.35834791  -0.00063640  0.43700372  1
  Pr3+  Pr35  1  0.23499134  0.62897423  0.56781350  1
  Pr3+  Pr36  1  0.48696634  0.87720113  0.55756695  1
  Pr3+  Pr37  1  0.37846552  0.49482696  0.93339242  1
  Pr3+  Pr38  1  0.11194147  -0.01304225  0.43015608  1
  Nd3+  Nd39  1  0.24979431  0.86558989  0.06002996  1
  Nd3+  Nd40  1  -0.01791548  0.37394841  0.56136418  1
  Nd3+  Nd41  1  0.24002541  0.12259049  0.56872834  1
  Nd3+  Nd42  1  0.85997468  -0.00011208  0.42995151  1
  Nd3+  Nd43  1  0.87375317  0.23958006  0.94699176  1
  Nd3+  Nd44  1  0.48805369  0.62124845  0.55693725  1
  Nd3+  Nd45  1  0.49718736  0.61845039  0.06738670  1
  Nd3+  Nd46  1  -0.02581598  0.88084221  0.57014378  1
  Nd3+  Nd47  1  0.60901958  0.00354193  0.43416895  1
  Nd3+  Nd48  1  0.00366879  0.86717744  0.05693029  1
  Nd3+  Nd49  1  0.74005151  0.37655211  0.55131351  1
  Nd3+  Nd50  1  0.49909056  0.11803628  0.05844029  1
  Nd3+  Nd51  1  0.86073997  0.24789784  0.42547214  1
  Sm3+  Sm52  1  0.87446348  0.74476649  0.94011033  1
  Sm3+  Sm53  1  0.36005590  0.74818391  0.44431459  1
  Sm3+  Sm54  1  0.62895706  0.24163012  0.94987587  1
  Sm3+  Sm55  1  -0.01268073  0.12370038  0.55053145  1
  Sm3+  Sm56  1  0.87512484  -0.00668078  0.94551548  1
  Sm3+  Sm57  1  0.60999140  0.74605581  0.44389794  1
  Sm3+  Sm58  1  0.10981339  0.24879864  0.44573231  1
  Sm3+  Sm59  1  0.62689252  0.75035497  0.93881650  1
  Sm3+  Sm60  1  0.25171762  0.61810153  0.05804174  1
  Sm3+  Sm61  1  0.85847743  0.75096792  0.43331924  1
  Sm3+  Sm62  1  0.37626039  0.74187095  0.94009520  1
  Sm3+  Sm63  1  0.73479639  0.87666270  0.55413602  1
  Bi2+  Bi64  1  -0.00543373  0.15678047  0.29480593  1
  Bi2+  Bi65  1  0.02717167  0.11283238  0.78040626  1
  Bi2+  Bi66  1  0.06981978  0.39531363  0.27621178  1
  Bi2+  Bi67  1  0.01077599  0.30918411  0.80155399  1
  Bi2+  Bi68  1  0.07997086  0.66022330  0.31377511  1
  Bi2+  Bi69  1  0.00477880  0.60620591  0.79624713  1
  Bi2+  Bi70  1  -0.01902578  0.90310947  0.29482936  1
  Bi2+  Bi71  1  0.05104067  0.92615873  0.81380007  1
  Bi2+  Bi72  1  0.27099429  0.12630820  0.29223407  1
  Bi2+  Bi73  1  0.29013015  0.06661153  0.76458988  1
  Bi2+  Bi74  1  0.26134208  0.41106955  0.31300672  1
  Bi2+  Bi75  1  0.29100690  0.31322765  0.78547756  1
  Bi2+  Bi76  1  0.26850531  0.60628839  0.30848351  1
  Bi2+  Bi77  1  0.27315039  0.59971127  0.78952646  1
  Bi2+  Bi78  1  0.17635056  0.82532761  0.25519016  1
  Bi2+  Bi79  1  0.26377390  0.87146704  0.78868156  1
  Bi2+  Bi80  1  0.46063696  0.07530409  0.31336202  1
  Bi2+  Bi81  1  0.48594052  0.10367828  0.77649191  1
  Bi2+  Bi82  1  0.45541561  0.36891437  0.29432254  1
  Bi2+  Bi83  1  0.51062726  0.46187810  0.78678088  1
  Bi2+  Bi84  1  0.47435765  0.66110604  0.28892239  1
  Bi2+  Bi85  1  0.54322852  0.65299322  0.81286811  1
  Bi2+  Bi86  1  0.52716623  0.89817619  0.28890187  1
  Bi2+  Bi87  1  0.51615234  0.84055992  0.78880371  1
  Bi2+  Bi88  1  0.73028643  0.11742001  0.28060223  1
  Bi2+  Bi89  1  0.77017666  0.14254137  0.78653565  1
  Bi2+  Bi90  1  0.72076079  0.37620092  0.28034569  1
  Bi2+  Bi91  1  0.78153093  0.39956474  0.78183801  1
  Bi2+  Bi92  1  0.74178953  0.66435940  0.29009124  1
  Bi2+  Bi93  1  0.74299372  0.61259553  0.79216522  1
  Bi2+  Bi94  1  0.72128316  0.92200963  0.28603117  1
  Bi2+  Bi95  1  0.86436659  0.86964132  0.80306907  1
  Bi2+  Bi96  1  0.14089224  0.00200342  0.21004885  1
  Bi2+  Bi97  1  0.18267579  0.00052248  0.67210559  1
  Bi2+  Bi98  1  0.19812858  0.27094962  0.22495266  1
  Bi2+  Bi99  1  0.16789760  0.19218937  0.71287959  1
  Bi2+  Bi100  1  0.12290406  0.55372437  0.20970781  1
  Bi2+  Bi101  1  0.13071887  0.45044744  0.71460946  1
  Bi2+  Bi102  1  0.14933207  0.72738401  0.15042566  1
  Bi2+  Bi103  1  0.10934661  0.83686182  0.71451052  1
  Bi2+  Bi104  1  0.39701087  -0.02835831  0.20814652  1
  Bi2+  Bi105  1  0.36377214  -0.09131796  0.68556830  1
  Bi2+  Bi106  1  0.39900798  0.23579304  0.21715389  1
  Bi2+  Bi107  1  0.47946620  0.22636593  0.69371114  1
  Bi2+  Bi108  1  0.31947742  0.48978530  0.20013590  1
  Bi2+  Bi109  1  0.39047929  0.46730668  0.69145724  1
  Bi2+  Bi110  1  0.33571575  0.72958177  0.21535415  1
  Bi2+  Bi111  1  0.36531964  0.72188867  0.72062001  1
  Bi2+  Bi112  1  0.68525746  -0.00137549  0.17400443  1
  Bi2+  Bi113  1  0.67193005  -0.02093926  0.68686348  1
  Bi2+  Bi114  1  0.56918077  0.14072872  0.21354934  1
  Bi2+  Bi115  1  0.61645834  0.29862321  0.77035451  1
  Bi2+  Bi116  1  0.57665284  0.50759612  0.20804117  1
  Bi2+  Bi117  1  0.61284823  0.57170141  0.70779206  1
  Bi2+  Bi118  1  0.61081654  0.80400079  0.19809878  1
  Bi2+  Bi119  1  0.65230582  0.76268408  0.71802503  1
  Bi2+  Bi120  1  0.87588108  -0.00074035  0.21037898  1
  Bi2+  Bi121  1  0.92335431  -0.01772665  0.71686457  1
  Bi2+  Bi122  1  0.84606596  0.28238493  0.21882492  1
  Bi2+  Bi123  1  0.90647353  0.24080406  0.68784830  1
  Bi2+  Bi124  1  0.91707963  0.52325414  0.22177892  1
  Bi2+  Bi125  1  0.87588051  0.48064990  0.69864366  1
  Bi2+  Bi126  1  0.99099680  0.74598017  0.22159487  1
  Bi2+  Bi127  1  0.84961986  0.74276619  0.71606967  1
  S2-  S128  1  -0.04919367  0.15539499  0.19078694  1
  S2-  S129  1  -0.01918043  0.10295976  0.64763458  1
  S2-  S130  1  -0.08977356  0.38890458  0.15048598  1
  S2-  S131  1  0.03538056  0.35968354  0.65825352  1
  S2-  S132  1  -0.07456539  0.63071749  0.14617680  1
  S2-  S133  1  0.03294595  0.57273254  0.68779383  1
  S2-  S134  1  0.00579332  0.94968681  0.14688709  1
  S2-  S135  1  -0.01296390  0.77682116  0.65165936  1
  S2-  S136  1  0.15235438  0.14272560  0.15465249  1
  S2-  S137  1  0.37128584  0.12332195  0.64034570  1
  S2-  S138  1  0.19390743  0.38996478  0.14932254  1
  S2-  S139  1  0.26397915  0.31994464  0.67583159  1
  S2-  S140  1  0.36181806  0.62016980  0.13827155  1
  S2-  S141  1  0.24184903  0.51770958  0.64629003  1
  S2-  S142  1  0.25524396  0.95970419  0.14514026  1
  S2-  S143  1  0.24189431  0.74888405  0.64597587  1
  S2-  S144  1  0.40154883  0.11475201  0.14221837  1
  S2-  S145  1  0.59398215  0.11677381  0.64228152  1
  S2-  S146  1  0.45728987  0.42374947  0.15148558  1
  S2-  S147  1  0.52255657  0.38451485  0.65140535  1
  S2-  S148  1  0.58774627  0.64362308  0.15250992  1
  S2-  S149  1  0.45713321  0.61634828  0.65525396  1
  S2-  S150  1  0.45114000  0.85033075  0.15228266  1
  S2-  S151  1  0.52876029  0.89025480  0.65574586  1
  S2-  S152  1  0.75938534  0.21402410  0.14667317  1
  S2-  S153  1  0.77975369  0.14397370  0.67848174  1
  S2-  S154  1  0.66275322  0.38640036  0.17563003  1
  S2-  S155  1  0.79410039  0.36275100  0.64817527  1
  S2-  S156  1  0.76099643  0.56523225  0.20518459  1
  S2-  S157  1  0.81964109  0.61958001  0.64341533  1
  S2-  S158  1  0.75684551  0.78744123  0.15356690  1
  S2-  S159  1  0.81565806  0.91499285  0.63838562  1
  S2-  S160  1  0.08018377  0.04177125  0.33446947  1
  S2-  S161  1  0.24294082  0.00987453  0.85956476  1
  S2-  S162  1  0.08210751  0.26110990  0.34878452  1
  S2-  S163  1  0.16748916  0.26614450  0.85049378  1
  S2-  S164  1  0.02703437  0.50234608  0.35270866  1
  S2-  S165  1  0.14621267  0.53814177  0.84198411  1
  S2-  S166  1  0.10709167  0.83087098  0.36086612  1
  S2-  S167  1  0.06527315  0.74246443  0.83259064  1
  S2-  S168  1  0.30405084  -0.01362461  0.34129489  1
  S2-  S169  1  0.47315917  -0.01557868  0.84613138  1
  S2-  S170  1  0.34454282  0.26246569  0.35323122  1
  S2-  S171  1  0.40254036  0.23271665  0.83556036  1
  S2-  S172  1  0.47039246  0.51644425  0.34889052  1
  S2-  S173  1  0.34784394  0.46322818  0.83509255  1
  S2-  S174  1  0.36285698  0.74484149  0.34611147  1
  S2-  S175  1  0.28704228  0.73686833  0.85492322  1
  S2-  S176  1  0.61320511  0.12082910  0.35984900  1
  S2-  S177  1  0.64426456  0.02427722  0.77692510  1
  S2-  S178  1  0.59775917  0.34001471  0.34840515  1
  S2-  S179  1  0.64630999  0.18973039  0.85635087  1
  S2-  S180  1  0.71586164  0.52010367  0.33675301  1
  S2-  S181  1  0.71835027  0.46692609  0.86576121  1
  S2-  S182  1  0.61093549  0.72256547  0.34623887  1
  S2-  S183  1  0.64537281  0.83679510  0.85283849  1
  S2-  S184  1  0.85713972  0.12047491  0.35331633  1
  S2-  S185  1  0.80879537  0.01602806  0.85477171  1
  S2-  S186  1  0.85066093  0.34979561  0.34006781  1
  S2-  S187  1  0.87241744  0.24366618  0.84537126  1
  S2-  S188  1  0.86976299  0.65753536  0.34696148  1
  S2-  S189  1  0.95788974  0.45162300  0.83934236  1
  S2-  S190  1  0.85240460  0.87376029  0.35692620  1
  S2-  S191  1  0.87052269  0.64829041  0.85591373  1
  S2-  S192  1  -0.00786346  0.12120892  0.44906905  1
  S2-  S193  1  0.00028396  0.11501438  0.94375042  1
  S2-  S194  1  -0.01566660  0.36877208  0.45489855  1
  S2-  S195  1  -0.00318483  0.36765274  0.95679697  1
  S2-  S196  1  -0.02059382  0.62672365  0.45721459  1
  S2-  S197  1  0.00113128  0.62054808  0.95164309  1
  S2-  S198  1  -0.01849630  0.87482475  0.46154668  1
  S2-  S199  1  0.00007603  0.86806931  0.95060842  1
  S2-  S200  1  0.23015328  0.12126405  0.45745322  1
  S2-  S201  1  0.24990805  0.12284682  0.96186668  1
  S2-  S202  1  0.22930307  0.37618107  0.46044204  1
  S2-  S203  1  0.25037186  0.37180424  0.95188583  1
  S2-  S204  1  0.23381953  0.62652023  0.45599421  1
  S2-  S205  1  0.25262027  0.61427531  0.95447975  1
  S2-  S206  1  0.23847859  0.86988217  0.46116263  1
  S2-  S207  1  0.25061963  0.86500546  0.95426071  1
  S2-  S208  1  0.47968650  0.12499010  0.45835797  1
  S2-  S209  1  0.50336459  0.11854369  0.95239451  1
  S2-  S210  1  0.48057976  0.37333693  0.45186948  1
  S2-  S211  1  0.50590231  0.36859810  0.95079199  1
  S2-  S212  1  0.48481280  0.62606003  0.45254922  1
  S2-  S213  1  0.50279835  0.62048130  0.95507596  1
  S2-  S214  1  0.48640489  0.87327844  0.44870101  1
  S2-  S215  1  0.49676381  0.86367360  0.95052509  1
  S2-  S216  1  0.73817704  0.12393423  0.46004816  1
  S2-  S217  1  0.74886097  0.11531230  0.96146594  1
  S2-  S218  1  0.73987124  0.37461242  0.44744231  1
  S2-  S219  1  0.75172543  0.36162851  0.96895617  1
  S2-  S220  1  0.73375569  0.62408145  0.45023743  1
  S2-  S221  1  0.74607614  0.62790847  0.95344026  1
  S2-  S222  1  0.72788280  0.87474697  0.45135782  1
  S2-  S223  1  0.75474274  0.86941428  0.95765624  1
  S2-  S224  1  0.12470227  -0.00607149  0.04147680  1
  S2-  S225  1  0.10887959  -0.00237375  0.54338725  1
  S2-  S226  1  0.12350255  0.24429743  0.04926507  1
  S2-  S227  1  0.11332548  0.24664764  0.55150873  1
  S2-  S228  1  0.12611048  0.49790586  0.04432699  1
  S2-  S229  1  0.10281007  0.50437990  0.55185743  1
  S2-  S230  1  0.12627431  0.74252063  0.03379830  1
  S2-  S231  1  0.10280036  0.75127067  0.55057054  1
  S2-  S232  1  0.37675030  -0.01098434  0.03794094  1
  S2-  S233  1  0.35836414  -0.00448549  0.54406275  1
  S2-  S234  1  0.37800149  0.25019546  0.04466460  1
  S2-  S235  1  0.35495801  0.25821427  0.55258160  1
  S2-  S236  1  0.37465671  0.49388692  0.03902948  1
  S2-  S237  1  0.36017260  0.50111741  0.53945045  1
  S2-  S238  1  0.37377682  0.74400795  0.04203042  1
  S2-  S239  1  0.36664617  0.74875807  0.54763783  1
  S2-  S240  1  0.62367565  -0.00381150  0.05297469  1
  S2-  S241  1  0.61289812  -0.00051527  0.53966239  1
  S2-  S242  1  0.62155819  0.24468193  0.05427670  1
  S2-  S243  1  0.61262000  0.25358063  0.54331462  1
  S2-  S244  1  0.63166309  0.49900031  0.05552254  1
  S2-  S245  1  0.61456854  0.50005851  0.54292095  1
  S2-  S246  1  0.62729505  0.74312138  0.04388433  1
  S2-  S247  1  0.61359011  0.74939205  0.54985369  1
  S2-  S248  1  0.87905294  -0.00428297  0.04976794  1
  S2-  S249  1  0.85969609  0.00497219  0.53660427  1
  S2-  S250  1  0.88930765  0.23423197  0.05150790  1
  S2-  S251  1  0.86359462  0.24586975  0.54032511  1
  S2-  S252  1  0.87289375  0.49908717  0.04441451  1
  S2-  S253  1  0.86557485  0.49953855  0.54526097  1
  S2-  S254  1  0.87576711  0.74618347  0.04388515  1
  S2-  S255  1  0.85716794  0.75419146  0.54091340  1
