# generated using pymatgen
data_La12Ce14Pr13Nd13Sm12(BiS2)64
_symmetry_space_group_name_H-M   'P 1'
_cell_length_a   16.12927210
_cell_length_b   16.08505137
_cell_length_c   27.11626330
_cell_angle_alpha   89.87913638
_cell_angle_beta   90.09807866
_cell_angle_gamma   89.99027022
_symmetry_Int_Tables_number   1
_chemical_formula_structural   La12Ce14Pr13Nd13Sm12(BiS2)64
_chemical_formula_sum   'La12 Ce14 Pr13 Nd13 Sm12 Bi64 S128'
_cell_volume   7035.02190305
_cell_formula_units_Z   1
loop_
 _symmetry_equiv_pos_site_id
 _symmetry_equiv_pos_as_xyz
  1  'x, y, z'
loop_
 _atom_type_symbol
 _atom_type_oxidation_number
  La3+  3.0
  Ce3+  3.0
  Pr3+  3.0
  Nd3+  3.0
  Sm3+  3.0
  Bi2+  2.0
  S2-  -2.0
loop_
 _atom_site_type_symbol
 _atom_site_label
 _atom_site_symmetry_multiplicity
 _atom_site_fract_x
 _atom_site_fract_y
 _atom_site_fract_z
 _atom_site_occupancy
  La3+  La0  1  0.62072313  0.47051043  0.42654581  1
  La3+  La1  1  0.00825993  0.35442717  0.07758356  1
  La3+  La2  1  0.12518179  0.48089050  0.42231351  1
  La3+  La3  1  0.88461585  0.47793058  0.93618218  1
  La3+  La4  1  0.50301605  0.34951160  0.56810358  1
  La3+  La5  1  0.50843672  0.10267939  0.58046884  1
  La3+  La6  1  0.38578350  0.73433006  0.93249386  1
  La3+  La7  1  0.12823878  0.52327395  0.88296423  1
  La3+  La8  1  0.24956368  0.34496282  0.56151003  1
  La3+  La9  1  0.63406674  0.73033136  0.93962967  1
  La3+  La10  1  0.87313277  0.47471893  0.41895930  1
  La3+  La11  1  0.37389240  0.46731292  0.42473340  1
  Ce3+  Ce12  1  0.74390342  0.60076792  0.54934336  1
  Ce3+  Ce13  1  0.24925502  0.09980065  0.56811108  1
  Ce3+  Ce14  1  0.75320292  0.34909836  0.54982279  1
  Ce3+  Ce15  1  0.13314008  -0.00777194  0.92926104  1
  Ce3+  Ce16  1  0.75664509  0.11039990  0.05564736  1
  Ce3+  Ce17  1  0.01078046  0.60580118  0.06195899  1
  Ce3+  Ce18  1  0.50666072  0.36801565  0.06562808  1
  Ce3+  Ce19  1  -0.00584078  0.84912598  0.56624196  1
  Ce3+  Ce20  1  0.50844437  0.61532403  0.07597530  1
  Ce3+  Ce21  1  0.25963352  0.35331405  0.06346437  1
  Ce3+  Ce22  1  0.75622940  0.35922132  0.06232519  1
  Ce3+  Ce23  1  0.12554273  0.72542158  0.44069605  1
  Ce3+  Ce24  1  0.37766617  0.72514559  0.44260962  1
  Ce3+  Ce25  1  0.50050510  0.60025461  0.56089394  1
  Pr3+  Pr26  1  0.75820643  0.60232651  0.08691023  1
  Pr3+  Pr27  1  0.25755165  0.10556431  0.06789098  1
  Pr3+  Pr28  1  0.62942457  0.48638820  0.94147157  1
  Pr3+  Pr29  1  0.62911177  0.23319679  0.93938869  1
  Pr3+  Pr30  1  0.37920992  0.47784271  0.92652866  1
  Pr3+  Pr31  1  0.62398752  0.22115055  0.43151272  1
  Pr3+  Pr32  1  0.74473129  0.84722619  0.56794088  1
  Pr3+  Pr33  1  0.01034763  0.85956062  0.06141474  1
  Pr3+  Pr34  1  0.88138658  0.22143983  0.41670054  1
  Pr3+  Pr35  1  0.61639352  0.73797886  0.41447751  1
  Pr3+  Pr36  1  0.25078091  0.59449263  0.56669771  1
  Pr3+  Pr37  1  0.88522122  0.72710200  0.94313092  1
  Pr3+  Pr38  1  0.88335793  0.23469446  0.93584585  1
  Nd3+  Nd39  1  0.48801960  0.85117868  0.59834345  1
  Nd3+  Nd40  1  0.50992213  0.86147793  0.07170723  1
  Nd3+  Nd41  1  0.38088343  0.23053155  0.94104648  1
  Nd3+  Nd42  1  -0.00252383  0.59826830  0.55565621  1
  Nd3+  Nd43  1  -0.00424699  0.34997832  0.55440988  1
  Nd3+  Nd44  1  0.87188691  -0.02802075  0.43570514  1
  Nd3+  Nd45  1  0.37584005  -0.02123541  0.44137727  1
  Nd3+  Nd46  1  0.50984578  0.10877443  0.06858116  1
  Nd3+  Nd47  1  0.26146809  0.60012349  0.06366731  1
  Nd3+  Nd48  1  0.75643893  0.10374330  0.56398777  1
  Nd3+  Nd49  1  0.38416142  -0.01307950  0.93593858  1
  Nd3+  Nd50  1  0.88383971  -0.01874959  0.94633003  1
  Nd3+  Nd51  1  0.13138392  0.24327222  0.93558812  1
  Sm3+  Sm52  1  0.75966639  0.85558620  0.06173616  1
  Sm3+  Sm53  1  0.24948546  0.84970910  0.56164674  1
  Sm3+  Sm54  1  0.63190823  -0.01789307  0.94413799  1
  Sm3+  Sm55  1  0.62246910  -0.02525091  0.45043278  1
  Sm3+  Sm56  1  -0.00327400  0.09805588  0.56059820  1
  Sm3+  Sm57  1  0.87177903  0.72639176  0.44247012  1
  Sm3+  Sm58  1  0.00832075  0.10932253  0.06168565  1
  Sm3+  Sm59  1  0.12148201  0.22013255  0.43978195  1
  Sm3+  Sm60  1  0.26039053  0.86290285  0.05840123  1
  Sm3+  Sm61  1  0.37351951  0.21946428  0.43818692  1
  Sm3+  Sm62  1  0.13677869  0.73712530  0.94843505  1
  Sm3+  Sm63  1  0.12418582  -0.02863868  0.44311303  1
  Bi2+  Bi64  1  0.00027640  0.12331749  0.28532860  1
  Bi2+  Bi65  1  0.00108582  0.13839727  0.79438553  1
  Bi2+  Bi66  1  0.00218537  0.37602586  0.28902721  1
  Bi2+  Bi67  1  -0.01094472  0.39366906  0.79238621  1
  Bi2+  Bi68  1  0.01703623  0.67679311  0.29150034  1
  Bi2+  Bi69  1  -0.05340126  0.75737120  0.76779874  1
  Bi2+  Bi70  1  0.07042573  0.87194689  0.31847839  1
  Bi2+  Bi71  1  0.05282870  0.91495053  0.80418698  1
  Bi2+  Bi72  1  0.25803064  0.10770329  0.29269024  1
  Bi2+  Bi73  1  0.27704014  0.13771281  0.78323349  1
  Bi2+  Bi74  1  0.24523423  0.30561106  0.27756593  1
  Bi2+  Bi75  1  0.25847605  0.39115766  0.78797671  1
  Bi2+  Bi76  1  0.26734199  0.71102108  0.30178203  1
  Bi2+  Bi77  1  0.20737883  0.68175988  0.77717207  1
  Bi2+  Bi78  1  0.27013281  0.90538028  0.31587972  1
  Bi2+  Bi79  1  0.24763137  0.93891536  0.80795002  1
  Bi2+  Bi80  1  0.52613919  0.13968800  0.29932332  1
  Bi2+  Bi81  1  0.52277984  0.09610653  0.79512598  1
  Bi2+  Bi82  1  0.48281018  0.38699147  0.29275041  1
  Bi2+  Bi83  1  0.49889503  0.35497445  0.79336881  1
  Bi2+  Bi84  1  0.51647167  0.63431728  0.29274677  1
  Bi2+  Bi85  1  0.49902748  0.57897119  0.77052022  1
  Bi2+  Bi86  1  0.50283859  0.94493626  0.28450209  1
  Bi2+  Bi87  1  0.43331413  0.88439506  0.81360013  1
  Bi2+  Bi88  1  0.71966559  0.15384901  0.31201292  1
  Bi2+  Bi89  1  0.80966131  0.17071887  0.77061118  1
  Bi2+  Bi90  1  0.73649256  0.33662678  0.26789007  1
  Bi2+  Bi91  1  0.74351669  0.43321761  0.79625833  1
  Bi2+  Bi92  1  0.77421701  0.62140049  0.29084629  1
  Bi2+  Bi93  1  0.74988999  0.60198338  0.85103018  1
  Bi2+  Bi94  1  0.76469492  0.96362835  0.29750751  1
  Bi2+  Bi95  1  0.77562229  0.97460600  0.78111236  1
  Bi2+  Bi96  1  0.09804386  -0.02400525  0.18772877  1
  Bi2+  Bi97  1  0.11731499  0.03835925  0.67053735  1
  Bi2+  Bi98  1  0.13632629  0.17676337  0.20532030  1
  Bi2+  Bi99  1  0.13108459  0.21629335  0.71948134  1
  Bi2+  Bi100  1  0.14382379  0.52636328  0.20404275  1
  Bi2+  Bi101  1  0.10091919  0.51719794  0.67501403  1
  Bi2+  Bi102  1  0.15700760  0.79597400  0.22164899  1
  Bi2+  Bi103  1  0.06340309  0.85066650  0.69402980  1
  Bi2+  Bi104  1  0.37523724  0.04036040  0.20494121  1
  Bi2+  Bi105  1  0.30733011  -0.00045192  0.69968710  1
  Bi2+  Bi106  1  0.39764520  0.24238507  0.21217683  1
  Bi2+  Bi107  1  0.37118959  0.27515260  0.71803330  1
  Bi2+  Bi108  1  0.35828278  0.52857842  0.21309790  1
  Bi2+  Bi109  1  0.36139503  0.54983009  0.69212175  1
  Bi2+  Bi110  1  0.37971289  0.82244467  0.22883624  1
  Bi2+  Bi111  1  0.42116956  0.76410332  0.72553797  1
  Bi2+  Bi112  1  0.63898866  0.03453282  0.20999808  1
  Bi2+  Bi113  1  0.60438791  -0.03124319  0.72027787  1
  Bi2+  Bi114  1  0.58741374  0.26379715  0.19705316  1
  Bi2+  Bi115  1  0.64051756  0.21779941  0.71134377  1
  Bi2+  Bi116  1  0.62038067  0.46983611  0.20388488  1
  Bi2+  Bi117  1  0.63259643  0.47705924  0.70423328  1
  Bi2+  Bi118  1  0.63455695  0.77048621  0.20415444  1
  Bi2+  Bi119  1  0.64119217  0.71396148  0.78351919  1
  Bi2+  Bi120  1  0.90525745  0.01480671  0.20556554  1
  Bi2+  Bi121  1  0.92444531  0.01109065  0.70359732  1
  Bi2+  Bi122  1  0.86011996  0.21077689  0.21456626  1
  Bi2+  Bi123  1  0.87489666  0.29127483  0.68764542  1
  Bi2+  Bi124  1  0.89610057  0.52392975  0.20164613  1
  Bi2+  Bi125  1  0.83292413  0.53835517  0.71411017  1
  Bi2+  Bi126  1  0.89229086  0.83533397  0.25339595  1
  Bi2+  Bi127  1  0.77588675  0.78627659  0.71283030  1
  S2-  S128  1  -0.00640429  0.20764874  0.14297132  1
  S2-  S129  1  -0.11436074  0.13517456  0.63449960  1
  S2-  S130  1  0.02921079  0.40547208  0.18209809  1
  S2-  S131  1  0.01674848  0.36152417  0.65518621  1
  S2-  S132  1  0.02531838  0.61944518  0.16095305  1
  S2-  S133  1  -0.03441052  0.60740685  0.65552035  1
  S2-  S134  1  -0.02296535  0.85213943  0.16038431  1
  S2-  S135  1  -0.12439104  0.86225265  0.64107580  1
  S2-  S136  1  0.25967173  0.22829268  0.14201354  1
  S2-  S137  1  0.25191875  0.22219891  0.64140473  1
  S2-  S138  1  0.25960599  0.44135078  0.15310602  1
  S2-  S139  1  0.25744857  0.45354567  0.64108493  1
  S2-  S140  1  0.27170340  0.64281083  0.16349193  1
  S2-  S141  1  0.22277366  0.64829841  0.66798594  1
  S2-  S142  1  0.25628728  0.96821821  0.13788905  1
  S2-  S143  1  0.32427183  0.84628316  0.65159240  1
  S2-  S144  1  0.51001009  -0.00708969  0.14444245  1
  S2-  S145  1  0.49619884  0.23914130  0.65108246  1
  S2-  S146  1  0.48019567  0.47773680  0.14336030  1
  S2-  S147  1  0.49836727  0.47787455  0.63915058  1
  S2-  S148  1  0.62605489  0.61807031  0.15499353  1
  S2-  S149  1  0.48938758  0.69558589  0.64705259  1
  S2-  S150  1  0.48284324  0.75848563  0.15233196  1
  S2-  S151  1  0.47055422  0.99636558  0.66000831  1
  S2-  S152  1  0.73339297  0.15050624  0.15041102  1
  S2-  S153  1  0.66398137  0.09368449  0.65128397  1
  S2-  S154  1  0.77124041  0.44180008  0.14865038  1
  S2-  S155  1  0.71712153  0.34175255  0.64705118  1
  S2-  S156  1  0.81254469  0.65790657  0.18419709  1
  S2-  S157  1  0.72459025  0.60267412  0.64915944  1
  S2-  S158  1  0.71869581  0.87942237  0.15698718  1
  S2-  S159  1  0.64079782  0.84787692  0.65267362  1
  S2-  S160  1  0.12123089  0.03645815  0.35147419  1
  S2-  S161  1  0.13191234  0.11953780  0.85943591  1
  S2-  S162  1  0.03129033  0.24227502  0.35503477  1
  S2-  S163  1  0.12172945  0.35059561  0.85224356  1
  S2-  S164  1  0.14773087  0.42324631  0.32381640  1
  S2-  S165  1  0.11226587  0.51473981  0.76998190  1
  S2-  S166  1  0.13680782  0.63066726  0.35583616  1
  S2-  S167  1  0.10692268  0.69734003  0.85207957  1
  S2-  S168  1  0.38718772  0.09825313  0.36462216  1
  S2-  S169  1  0.39414298  0.11065146  0.86198057  1
  S2-  S170  1  0.36315359  0.32458877  0.35557670  1
  S2-  S171  1  0.37169890  0.33188834  0.85724084  1
  S2-  S172  1  0.38711267  0.53196852  0.32642974  1
  S2-  S173  1  0.29054057  0.52769906  0.83745874  1
  S2-  S174  1  0.46367566  0.74174695  0.35668302  1
  S2-  S175  1  0.30890054  0.74946297  0.83681800  1
  S2-  S176  1  0.62405745  -0.07942932  0.35602129  1
  S2-  S177  1  0.63345949  -0.01993803  0.84508263  1
  S2-  S178  1  0.60033002  0.33814990  0.35268494  1
  S2-  S179  1  0.60166764  0.23197042  0.83920293  1
  S2-  S180  1  0.64902366  0.54164686  0.33215430  1
  S2-  S181  1  0.52173947  0.48849111  0.85828835  1
  S2-  S182  1  0.65961454  0.73339120  0.30931844  1
  S2-  S183  1  0.52287123  0.74958943  0.86089407  1
  S2-  S184  1  0.87543749  0.07488595  0.35492171  1
  S2-  S185  1  0.91307159  -0.00487552  0.84862566  1
  S2-  S186  1  0.85417619  0.34757337  0.34262417  1
  S2-  S187  1  0.86563039  0.34021292  0.85486726  1
  S2-  S188  1  0.93106195  0.53140098  0.32285217  1
  S2-  S189  1  0.95987008  0.52338043  0.84702258  1
  S2-  S190  1  0.87144541  0.74338420  0.34421578  1
  S2-  S191  1  0.84211270  0.75732962  0.84610411  1
  S2-  S192  1  0.00153235  0.09364811  0.45701601  1
  S2-  S193  1  0.00399016  0.10972729  0.95768373  1
  S2-  S194  1  0.00235809  0.35715067  0.44942309  1
  S2-  S195  1  0.00285958  0.35313371  0.96438468  1
  S2-  S196  1  -0.00521176  0.60335413  0.44961589  1
  S2-  S197  1  0.01527413  0.60886525  0.95727159  1
  S2-  S198  1  -0.00242222  0.84915063  0.45657392  1
  S2-  S199  1  0.00995855  0.85816342  0.95301149  1
  S2-  S200  1  0.24263188  0.09856817  0.45986400  1
  S2-  S201  1  0.25714213  0.10784379  0.96082373  1
  S2-  S202  1  0.24152010  0.34407295  0.45246891  1
  S2-  S203  1  0.25893358  0.35642651  0.95933665  1
  S2-  S204  1  0.25352612  0.59926438  0.45542376  1
  S2-  S205  1  0.25398709  0.61078260  0.95416787  1
  S2-  S206  1  0.25027318  0.85106365  0.45513825  1
  S2-  S207  1  0.25707639  0.86380013  0.95347078  1
  S2-  S208  1  0.50415760  0.09844203  0.46316299  1
  S2-  S209  1  0.51279548  0.10515505  0.96184628  1
  S2-  S210  1  0.49616301  0.34284735  0.45779058  1
  S2-  S211  1  0.50839898  0.35592069  0.96017607  1
  S2-  S212  1  0.50045718  0.59862395  0.44944041  1
  S2-  S213  1  0.50611938  0.61024516  0.96288367  1
  S2-  S214  1  0.49685308  0.85630527  0.45658357  1
  S2-  S215  1  0.50895345  0.86406124  0.96301796  1
  S2-  S216  1  0.74807298  0.09647576  0.45511771  1
  S2-  S217  1  0.75733762  0.10612421  0.94713932  1
  S2-  S218  1  0.75112624  0.34698861  0.44588379  1
  S2-  S219  1  0.75129720  0.35751162  0.95755242  1
  S2-  S220  1  0.74848099  0.60498733  0.44190954  1
  S2-  S221  1  0.76005639  0.60577420  0.96808329  1
  S2-  S222  1  0.74828442  0.84897286  0.45442737  1
  S2-  S223  1  0.75787027  0.85883727  0.95480709  1
  S2-  S224  1  0.12860663  -0.01484822  0.03858927  1
  S2-  S225  1  0.12227346  -0.02769583  0.54823168  1
  S2-  S226  1  0.13076166  0.22957273  0.04310841  1
  S2-  S227  1  0.11598367  0.22139156  0.54446697  1
  S2-  S228  1  0.13238078  0.48128710  0.05662721  1
  S2-  S229  1  0.12100740  0.47460404  0.53749240  1
  S2-  S230  1  0.13922398  0.73690519  0.05415828  1
  S2-  S231  1  0.12354606  0.72581226  0.54894306  1
  S2-  S232  1  0.38593706  -0.01573048  0.04135312  1
  S2-  S233  1  0.37160488  -0.02542293  0.54736811  1
  S2-  S234  1  0.39167968  0.23311708  0.04824104  1
  S2-  S235  1  0.37665660  0.21941081  0.54236127  1
  S2-  S236  1  0.38116071  0.48241104  0.03847050  1
  S2-  S237  1  0.37545346  0.47381440  0.53546783  1
  S2-  S238  1  0.37798696  0.73732224  0.04472635  1
  S2-  S239  1  0.36992065  0.72585449  0.54682786  1
  S2-  S240  1  0.63834283  -0.01711351  0.04777790  1
  S2-  S241  1  0.62438284  -0.02579573  0.55174087  1
  S2-  S242  1  0.62999429  0.23531267  0.04748588  1
  S2-  S243  1  0.63059421  0.22490713  0.54012912  1
  S2-  S244  1  0.63375408  0.48513207  0.04836749  1
  S2-  S245  1  0.62770619  0.47328314  0.53609190  1
  S2-  S246  1  0.63725687  0.73714107  0.04868901  1
  S2-  S247  1  0.62289297  0.72504918  0.53845586  1
  S2-  S248  1  0.88186473  -0.01489490  0.05335642  1
  S2-  S249  1  0.87412685  -0.02463434  0.54016187  1
  S2-  S250  1  0.87814714  0.23309846  0.04368280  1
  S2-  S251  1  0.87770876  0.22688218  0.52871983  1
  S2-  S252  1  0.88741853  0.48204001  0.04898817  1
  S2-  S253  1  0.87290194  0.47715027  0.53781245  1
  S2-  S254  1  0.88368270  0.73462632  0.05168355  1
  S2-  S255  1  0.87225462  0.72241817  0.54629239  1
