# generated using pymatgen
data_La12Ce14Pr13Nd13Sm12(BiS2)64
_symmetry_space_group_name_H-M   'P 1'
_cell_length_a   16.17885936
_cell_length_b   16.14601987
_cell_length_c   27.19473429
_cell_angle_alpha   89.73407727
_cell_angle_beta   89.94549553
_cell_angle_gamma   89.95782186
_symmetry_Int_Tables_number   1
_chemical_formula_structural   La12Ce14Pr13Nd13Sm12(BiS2)64
_chemical_formula_sum   'La12 Ce14 Pr13 Nd13 Sm12 Bi64 S128'
_cell_volume   7103.84066279
_cell_formula_units_Z   1
loop_
 _symmetry_equiv_pos_site_id
 _symmetry_equiv_pos_as_xyz
  1  'x, y, z'
loop_
 _atom_type_symbol
 _atom_type_oxidation_number
  La3+  3.0
  Ce3+  3.0
  Pr3+  3.0
  Nd3+  3.0
  Sm3+  3.0
  Bi2+  2.0
  S2-  -2.0
loop_
 _atom_site_type_symbol
 _atom_site_label
 _atom_site_symmetry_multiplicity
 _atom_site_fract_x
 _atom_site_fract_y
 _atom_site_fract_z
 _atom_site_occupancy
  La3+  La0  1  0.74938098  0.37135069  0.10390300  1
  La3+  La1  1  -0.01156761  0.87241568  0.08586299  1
  La3+  La2  1  0.75412337  0.35472399  0.58556512  1
  La3+  La3  1  0.87131034  0.26040287  0.92295584  1
  La3+  La4  1  0.50936161  0.85355901  0.57642888  1
  La3+  La5  1  0.76469984  0.85280288  0.57347689  1
  La3+  La6  1  0.13208306  0.49812192  0.92408893  1
  La3+  La7  1  0.24575415  0.62902829  0.07131649  1
  La3+  La8  1  0.00472357  0.36913263  0.06771173  1
  La3+  La9  1  0.01870983  0.11237694  0.57310363  1
  La3+  La10  1  0.89130017  0.48123693  0.41074495  1
  La3+  La11  1  0.87583220  0.74896784  0.40770524  1
  Ce3+  Ce12  1  0.88667993  0.24359770  0.44436391  1
  Ce3+  Ce13  1  0.87835180  0.49860383  0.94316274  1
  Ce3+  Ce14  1  0.74946207  0.13319394  0.05721957  1
  Ce3+  Ce15  1  0.01197930  0.85608496  0.54992017  1
  Ce3+  Ce16  1  0.37248595  0.50248231  0.94208743  1
  Ce3+  Ce17  1  0.87469222  0.00130162  0.94182919  1
  Ce3+  Ce18  1  0.75348161  0.62672613  0.05542625  1
  Ce3+  Ce19  1  0.12354498  0.00042400  0.95049271  1
  Ce3+  Ce20  1  0.25085365  0.12052844  0.06880953  1
  Ce3+  Ce21  1  0.50927116  0.61169076  0.55950355  1
  Ce3+  Ce22  1  0.36930379  0.75282881  0.93330768  1
  Ce3+  Ce23  1  0.13893778  0.48721032  0.43256775  1
  Ce3+  Ce24  1  0.63703039  -0.01386197  0.44806743  1
  Ce3+  Ce25  1  0.88530403  -0.01153810  0.44604632  1
  Pr3+  Pr26  1  0.38898740  -0.01111229  0.44475705  1
  Pr3+  Pr27  1  0.88490308  0.75444777  0.92866564  1
  Pr3+  Pr28  1  0.01505397  0.36067169  0.58920120  1
  Pr3+  Pr29  1  0.50098436  0.37690023  0.06086167  1
  Pr3+  Pr30  1  0.38637908  0.48780341  0.42743088  1
  Pr3+  Pr31  1  0.13367951  0.24190358  0.44155166  1
  Pr3+  Pr32  1  0.01063056  0.60768173  0.54879709  1
  Pr3+  Pr33  1  0.63970007  0.48836652  0.44335768  1
  Pr3+  Pr34  1  0.37252178  0.00214510  0.93728679  1
  Pr3+  Pr35  1  0.62693456  0.25543258  0.92990524  1
  Pr3+  Pr36  1  0.25156499  0.87769250  0.07091561  1
  Pr3+  Pr37  1  0.14091339  0.74065497  0.41981228  1
  Pr3+  Pr38  1  -0.00353981  0.12830956  0.05668642  1
  Nd3+  Nd39  1  0.50125311  0.62631555  0.05274057  1
  Nd3+  Nd40  1  0.12662946  0.75332055  0.94029171  1
  Nd3+  Nd41  1  0.25850549  0.85773977  0.55679015  1
  Nd3+  Nd42  1  0.38904125  0.74069127  0.43339003  1
  Nd3+  Nd43  1  0.26178947  0.11126508  0.56070109  1
  Nd3+  Nd44  1  0.76050197  0.11377420  0.55911297  1
  Nd3+  Nd45  1  0.50391560  0.12593437  0.05506506  1
  Nd3+  Nd46  1  0.12179970  0.24665656  0.92872487  1
  Nd3+  Nd47  1  0.62761110  0.74957182  0.93498820  1
  Nd3+  Nd48  1  0.76654357  0.60893805  0.55547135  1
  Nd3+  Nd49  1  0.00132304  0.62461522  0.06182719  1
  Nd3+  Nd50  1  0.24894388  0.37321075  0.06292516  1
  Nd3+  Nd51  1  0.26253192  0.36422078  0.56340466  1
  Sm3+  Sm52  1  0.63475836  0.73936764  0.44021975  1
  Sm3+  Sm53  1  0.63880603  0.24203377  0.43840225  1
  Sm3+  Sm54  1  0.51119704  0.36275247  0.55802115  1
  Sm3+  Sm55  1  0.13587704  -0.00942044  0.43955242  1
  Sm3+  Sm56  1  0.51200262  0.11049123  0.55762523  1
  Sm3+  Sm57  1  0.25977442  0.61041036  0.55115209  1
  Sm3+  Sm58  1  0.38701074  0.23853107  0.44720345  1
  Sm3+  Sm59  1  0.62657854  -0.00062263  0.93831337  1
  Sm3+  Sm60  1  0.37552704  0.24963626  0.94500829  1
  Sm3+  Sm61  1  0.62627586  0.49968356  0.94643371  1
  Sm3+  Sm62  1  0.50140436  0.87511621  0.05172885  1
  Sm3+  Sm63  1  0.75028414  0.87490755  0.05533682  1
  Bi2+  Bi64  1  -0.06133540  0.13010156  0.29742602  1
  Bi2+  Bi65  1  0.04960529  0.12628260  0.78101591  1
  Bi2+  Bi66  1  0.01189749  0.33754207  0.29082145  1
  Bi2+  Bi67  1  0.01033744  0.38664799  0.79826231  1
  Bi2+  Bi68  1  0.00369596  0.60934342  0.29045147  1
  Bi2+  Bi69  1  -0.04177933  0.65553710  0.78919201  1
  Bi2+  Bi70  1  0.00632686  0.87679279  0.28869918  1
  Bi2+  Bi71  1  0.04083801  0.85545632  0.76925297  1
  Bi2+  Bi72  1  0.31850214  0.12826040  0.28354522  1
  Bi2+  Bi73  1  0.24770199  0.12564490  0.79776674  1
  Bi2+  Bi74  1  0.26025377  0.34431783  0.28745620  1
  Bi2+  Bi75  1  0.27278325  0.39087121  0.78895020  1
  Bi2+  Bi76  1  0.27709819  0.60354521  0.28598889  1
  Bi2+  Bi77  1  0.25307933  0.64578239  0.78453244  1
  Bi2+  Bi78  1  0.33616257  0.85480612  0.27919969  1
  Bi2+  Bi79  1  0.26805828  0.88991649  0.79333841  1
  Bi2+  Bi80  1  0.50195572  0.01980895  0.29660238  1
  Bi2+  Bi81  1  0.50067765  0.22002854  0.80046059  1
  Bi2+  Bi82  1  0.45442615  0.38627451  0.29559181  1
  Bi2+  Bi83  1  0.49061492  0.41430965  0.79516199  1
  Bi2+  Bi84  1  0.46695412  0.61835873  0.31718124  1
  Bi2+  Bi85  1  0.45002904  0.62335218  0.79416970  1
  Bi2+  Bi86  1  0.51151527  0.81495563  0.32821234  1
  Bi2+  Bi87  1  0.45288820  0.82264407  0.80425942  1
  Bi2+  Bi88  1  0.76508452  0.11595635  0.23935208  1
  Bi2+  Bi89  1  0.75307649  0.12197056  0.77873159  1
  Bi2+  Bi90  1  0.72210851  0.36321689  0.30105153  1
  Bi2+  Bi91  1  0.75020842  0.38540210  0.78748926  1
  Bi2+  Bi92  1  0.65946752  0.63893078  0.28747223  1
  Bi2+  Bi93  1  0.64875385  0.61367496  0.77942638  1
  Bi2+  Bi94  1  0.75268948  0.93288100  0.28460745  1
  Bi2+  Bi95  1  0.75214428  0.87998291  0.80662882  1
  Bi2+  Bi96  1  0.12413078  0.08932227  0.26682928  1
  Bi2+  Bi97  1  0.15995291  -0.02034807  0.71269064  1
  Bi2+  Bi98  1  0.15525216  0.21562576  0.18430642  1
  Bi2+  Bi99  1  0.19213142  0.25024948  0.71306676  1
  Bi2+  Bi100  1  0.17226396  0.48490174  0.21731799  1
  Bi2+  Bi101  1  0.11186994  0.51997270  0.69882655  1
  Bi2+  Bi102  1  0.11915925  0.73118227  0.19688018  1
  Bi2+  Bi103  1  0.11917744  0.75021301  0.68047585  1
  Bi2+  Bi104  1  0.39641804  -0.01558059  0.19880657  1
  Bi2+  Bi105  1  0.40000031  0.10366401  0.71941770  1
  Bi2+  Bi106  1  0.34729000  0.21873890  0.17975205  1
  Bi2+  Bi107  1  0.38265411  0.29443706  0.69480262  1
  Bi2+  Bi108  1  0.35067399  0.42157070  0.18106652  1
  Bi2+  Bi109  1  0.36645022  0.49011027  0.70287779  1
  Bi2+  Bi110  1  0.38949908  0.69798077  0.21296121  1
  Bi2+  Bi111  1  0.36691933  0.74916571  0.71041164  1
  Bi2+  Bi112  1  0.62366812  -0.01114351  0.20110426  1
  Bi2+  Bi113  1  0.57688658  0.02797725  0.74469591  1
  Bi2+  Bi114  1  0.52695779  0.24752213  0.22477153  1
  Bi2+  Bi115  1  0.63349424  0.23780145  0.71377412  1
  Bi2+  Bi116  1  0.53329103  0.48387115  0.20750875  1
  Bi2+  Bi117  1  0.56005983  0.50769451  0.69863909  1
  Bi2+  Bi118  1  0.60613481  0.79714020  0.22641567  1
  Bi2+  Bi119  1  0.62509598  0.78700158  0.69847438  1
  Bi2+  Bi120  1  0.93778870  0.01004440  0.20402386  1
  Bi2+  Bi121  1  0.90458816  0.01224956  0.74699510  1
  Bi2+  Bi122  1  0.89003691  0.26958176  0.21321966  1
  Bi2+  Bi123  1  0.87962787  0.27334429  0.70804320  1
  Bi2+  Bi124  1  0.85437457  0.52716193  0.21415898  1
  Bi2+  Bi125  1  0.81853835  0.55286598  0.74035019  1
  Bi2+  Bi126  1  0.83671086  0.76135789  0.20491066  1
  Bi2+  Bi127  1  0.85603855  0.79186000  0.70314967  1
  S2-  S128  1  -0.00056093  0.21364553  0.14353313  1
  S2-  S129  1  -0.00719493  0.21604649  0.65162757  1
  S2-  S130  1  -0.09466756  0.40920880  0.14972153  1
  S2-  S131  1  -0.01114904  0.41590194  0.69190720  1
  S2-  S132  1  -0.03329397  0.72287599  0.14722484  1
  S2-  S133  1  0.01260383  0.62970661  0.65147497  1
  S2-  S134  1  0.06181177  0.89855232  0.18179782  1
  S2-  S135  1  -0.00593238  0.85991596  0.64691447  1
  S2-  S136  1  0.26055005  0.00448305  0.14354889  1
  S2-  S137  1  0.17259772  0.10838174  0.64586750  1
  S2-  S138  1  0.13678957  0.37440722  0.14096484  1
  S2-  S139  1  0.16747174  0.38006512  0.64572385  1
  S2-  S140  1  0.11714025  0.59464690  0.14168815  1
  S2-  S141  1  0.22862759  0.62375428  0.64806375  1
  S2-  S142  1  0.25723051  0.75658828  0.14702688  1
  S2-  S143  1  0.26365674  0.86103997  0.65671220  1
  S2-  S144  1  0.53190154  0.11789761  0.15425138  1
  S2-  S145  1  0.54215183  0.11998881  0.65388363  1
  S2-  S146  1  0.58160772  0.34470583  0.14782004  1
  S2-  S147  1  0.59296469  0.35876360  0.64428322  1
  S2-  S148  1  0.50584021  0.62241145  0.15245439  1
  S2-  S149  1  0.50322896  0.70528408  0.64231235  1
  S2-  S150  1  0.50441320  0.86609288  0.14978596  1
  S2-  S151  1  0.51926788  0.90444975  0.67515647  1
  S2-  S152  1  0.76050769  0.20857224  0.14577221  1
  S2-  S153  1  0.76370277  0.19910389  0.64571317  1
  S2-  S154  1  0.72378786  0.43735713  0.20495350  1
  S2-  S155  1  0.78416918  0.42093615  0.68130668  1
  S2-  S156  1  0.75740465  0.63920668  0.15420406  1
  S2-  S157  1  0.76297259  0.70287284  0.64137722  1
  S2-  S158  1  0.82713358  0.88759162  0.14381297  1
  S2-  S159  1  0.74465229  0.90782289  0.67112555  1
  S2-  S160  1  0.11622702  -0.02539897  0.34233697  1
  S2-  S161  1  0.13466359  0.02122229  0.85372701  1
  S2-  S162  1  0.13252346  0.25981888  0.34052162  1
  S2-  S163  1  0.14289996  0.36127200  0.85338692  1
  S2-  S164  1  0.04321037  0.47387674  0.35029714  1
  S2-  S165  1  0.05267368  0.54494116  0.83082731  1
  S2-  S166  1  0.09557794  0.74423936  0.31871013  1
  S2-  S167  1  0.02179555  0.77097495  0.85902171  1
  S2-  S168  1  0.34300015  -0.00486198  0.34798172  1
  S2-  S169  1  0.39236626  -0.01917162  0.83797828  1
  S2-  S170  1  0.38404203  0.25172457  0.34969708  1
  S2-  S171  1  0.34311127  0.24592782  0.84832462  1
  S2-  S172  1  0.25920861  0.47785109  0.35727811  1
  S2-  S173  1  0.28167292  0.52077739  0.85853563  1
  S2-  S174  1  0.28467438  0.74811397  0.35329912  1
  S2-  S175  1  0.24534817  0.75578677  0.86177915  1
  S2-  S176  1  0.64767076  0.01064188  0.35086590  1
  S2-  S177  1  0.64498375  0.01853757  0.84045023  1
  S2-  S178  1  0.62744441  0.25289658  0.33999317  1
  S2-  S179  1  0.73757700  0.24794967  0.84974041  1
  S2-  S180  1  0.64048077  0.48456853  0.34253251  1
  S2-  S181  1  0.63258669  0.47138749  0.84869105  1
  S2-  S182  1  0.71677262  0.74052485  0.35405352  1
  S2-  S183  1  0.61192886  0.80095347  0.84006476  1
  S2-  S184  1  0.87614215  -0.08136364  0.35703839  1
  S2-  S185  1  0.88514683  -0.03263773  0.84659021  1
  S2-  S186  1  0.86862613  0.32527693  0.35616154  1
  S2-  S187  1  0.99195260  0.23235802  0.84876705  1
  S2-  S188  1  0.84923310  0.54369020  0.31817655  1
  S2-  S189  1  0.87321656  0.41756619  0.85586184  1
  S2-  S190  1  0.90546723  0.73905789  0.30317437  1
  S2-  S191  1  0.81431726  0.73843733  0.83531554  1
  S2-  S192  1  0.01188403  0.11276068  0.45669586  1
  S2-  S193  1  -0.00283390  0.12424696  0.95210311  1
  S2-  S194  1  0.01056736  0.36521231  0.45917914  1
  S2-  S195  1  0.00374943  0.37458840  0.95653129  1
  S2-  S196  1  0.00762755  0.62039662  0.44084281  1
  S2-  S197  1  0.00240192  0.62453318  0.95524633  1
  S2-  S198  1  0.01452300  0.86321159  0.44589225  1
  S2-  S199  1  -0.00069396  0.88109698  0.96345676  1
  S2-  S200  1  0.26098307  0.11499421  0.45404827  1
  S2-  S201  1  0.25160919  0.12681072  0.95792132  1
  S2-  S202  1  0.26552535  0.35978341  0.45754670  1
  S2-  S203  1  0.25671796  0.37045341  0.95766847  1
  S2-  S204  1  0.26449923  0.61486390  0.44922151  1
  S2-  S205  1  0.25157510  0.62919111  0.96275636  1
  S2-  S206  1  0.26009229  0.86861427  0.45177934  1
  S2-  S207  1  0.25063727  0.88049639  0.96154618  1
  S2-  S208  1  0.51301825  0.11728219  0.45204998  1
  S2-  S209  1  0.50320996  0.12546363  0.94747919  1
  S2-  S210  1  0.51034694  0.36264888  0.45289302  1
  S2-  S211  1  0.49862531  0.37623554  0.95199464  1
  S2-  S212  1  0.51131850  0.61394542  0.45253043  1
  S2-  S213  1  0.50052669  0.62635643  0.94559040  1
  S2-  S214  1  0.51217178  0.86231049  0.46264490  1
  S2-  S215  1  0.50163812  0.87646637  0.94780778  1
  S2-  S216  1  0.76115125  0.11672655  0.45262577  1
  S2-  S217  1  0.74769446  0.12321154  0.95120174  1
  S2-  S218  1  0.75954809  0.36396021  0.46081919  1
  S2-  S219  1  0.74523665  0.38123398  0.95475808  1
  S2-  S220  1  0.76643543  0.61036478  0.45024520  1
  S2-  S221  1  0.74942472  0.62366340  0.94737230  1
  S2-  S222  1  0.75839600  0.86299314  0.46124345  1
  S2-  S223  1  0.74879857  0.87547977  0.95072912  1
  S2-  S224  1  0.11687020  -0.00077827  0.05514272  1
  S2-  S225  1  0.13759617  -0.01573802  0.54457460  1
  S2-  S226  1  0.13146012  0.24262324  0.03731231  1
  S2-  S227  1  0.13954037  0.23997706  0.54682291  1
  S2-  S228  1  0.12852661  0.49789678  0.03626065  1
  S2-  S229  1  0.13844233  0.48685970  0.54034558  1
  S2-  S230  1  0.12052416  0.75701433  0.04685555  1
  S2-  S231  1  0.13811623  0.73445666  0.53378750  1
  S2-  S232  1  0.38245321  0.00030081  0.04359175  1
  S2-  S233  1  0.38626300  -0.01366343  0.55333878  1
  S2-  S234  1  0.37749465  0.24821620  0.04896986  1
  S2-  S235  1  0.38843862  0.23621997  0.55233784  1
  S2-  S236  1  0.37491856  0.50291206  0.04842705  1
  S2-  S237  1  0.38660057  0.48685577  0.54360005  1
  S2-  S238  1  0.37985449  0.75255454  0.04180486  1
  S2-  S239  1  0.38120369  0.73468670  0.54090682  1
  S2-  S240  1  0.62715427  -0.00163844  0.04410555  1
  S2-  S241  1  0.63590609  -0.01298199  0.55468646  1
  S2-  S242  1  0.62391461  0.25148461  0.03782563  1
  S2-  S243  1  0.63069167  0.23516980  0.54311313  1
  S2-  S244  1  0.62865778  0.50057674  0.05161699  1
  S2-  S245  1  0.63609867  0.48870266  0.54942692  1
  S2-  S246  1  0.62620834  0.75249892  0.04352427  1
  S2-  S247  1  0.63614396  0.73291692  0.54282712  1
  S2-  S248  1  0.87000954  0.00464621  0.04704540  1
  S2-  S249  1  0.88669286  -0.01014747  0.55331097  1
  S2-  S250  1  0.87058239  0.25481610  0.03878843  1
  S2-  S251  1  0.88757123  0.23922219  0.54742616  1
  S2-  S252  1  0.87331586  0.50214696  0.04707430  1
  S2-  S253  1  0.88611129  0.48243389  0.56102160  1
  S2-  S254  1  0.87144281  0.75219595  0.03718285  1
  S2-  S255  1  0.88821626  0.73518551  0.53698441  1
