# generated using pymatgen
data_La12Ce14Pr13Nd13Sm12(BiS2)64
_symmetry_space_group_name_H-M   'P 1'
_cell_length_a   16.09854030
_cell_length_b   16.08163224
_cell_length_c   27.23952964
_cell_angle_alpha   89.70485899
_cell_angle_beta   90.49122898
_cell_angle_gamma   89.96976892
_symmetry_Int_Tables_number   1
_chemical_formula_structural   La12Ce14Pr13Nd13Sm12(BiS2)64
_chemical_formula_sum   'La12 Ce14 Pr13 Nd13 Sm12 Bi64 S128'
_cell_volume   7051.70985695
_cell_formula_units_Z   1
loop_
 _symmetry_equiv_pos_site_id
 _symmetry_equiv_pos_as_xyz
  1  'x, y, z'
loop_
 _atom_type_symbol
 _atom_type_oxidation_number
  La3+  3.0
  Ce3+  3.0
  Pr3+  3.0
  Nd3+  3.0
  Sm3+  3.0
  Bi2+  2.0
  S2-  -2.0
loop_
 _atom_site_type_symbol
 _atom_site_label
 _atom_site_symmetry_multiplicity
 _atom_site_fract_x
 _atom_site_fract_y
 _atom_site_fract_z
 _atom_site_occupancy
  La3+  La0  1  0.62494637  0.49100278  0.91631205  1
  La3+  La1  1  0.61601536  0.75309989  0.42539368  1
  La3+  La2  1  0.26514611  0.11421809  0.07220617  1
  La3+  La3  1  0.88227649  0.74563638  0.92236336  1
  La3+  La4  1  0.13155030  0.49727865  0.38620113  1
  La3+  La5  1  0.87591951  -0.00264296  0.43698508  1
  La3+  La6  1  0.36938795  -0.01313312  0.91456229  1
  La3+  La7  1  0.50373268  0.86123705  0.06044911  1
  La3+  La8  1  0.63349281  0.74368269  0.92278287  1
  La3+  La9  1  0.25706702  0.86471827  0.60635530  1
  La3+  La10  1  0.87608464  0.25199850  0.42540087  1
  La3+  La11  1  0.50933920  0.12376051  0.57482175  1
  Ce3+  Ce12  1  0.75317992  0.62490389  0.55013013  1
  Ce3+  Ce13  1  0.37336857  0.48958612  0.93294913  1
  Ce3+  Ce14  1  0.50891162  0.61411627  0.05004154  1
  Ce3+  Ce15  1  0.12829874  0.24709844  0.94076069  1
  Ce3+  Ce16  1  0.75566408  0.12525376  0.56258298  1
  Ce3+  Ce17  1  0.36960834  0.49669646  0.45431339  1
  Ce3+  Ce18  1  0.75379555  0.11705663  0.06384414  1
  Ce3+  Ce19  1  0.50704360  0.87156662  0.57157794  1
  Ce3+  Ce20  1  0.00196099  0.35289600  0.08059620  1
  Ce3+  Ce21  1  0.87843855  -0.00438523  0.93552014  1
  Ce3+  Ce22  1  0.50449403  0.36490595  0.05359294  1
  Ce3+  Ce23  1  0.13033210  0.24666474  0.43874054  1
  Ce3+  Ce24  1  0.87892310  0.50017488  0.42405196  1
  Ce3+  Ce25  1  0.74903906  0.87190315  0.56329220  1
  Pr3+  Pr26  1  0.75955908  0.37910340  0.56140263  1
  Pr3+  Pr27  1  0.75234593  0.62206932  0.07182229  1
  Pr3+  Pr28  1  0.87850561  0.75085434  0.43582105  1
  Pr3+  Pr29  1  0.37218118  0.75023682  0.44799451  1
  Pr3+  Pr30  1  0.00644287  0.87168088  0.56820811  1
  Pr3+  Pr31  1  0.25523658  0.36699625  0.07041638  1
  Pr3+  Pr32  1  -0.00063902  0.12386686  0.56358442  1
  Pr3+  Pr33  1  0.25550102  0.61399066  0.06346076  1
  Pr3+  Pr34  1  0.62751467  0.25350319  0.43489920  1
  Pr3+  Pr35  1  0.13002841  0.75263306  0.43397484  1
  Pr3+  Pr36  1  0.51309840  0.37821664  0.57537583  1
  Pr3+  Pr37  1  0.62789414  -0.00938921  0.94442644  1
  Pr3+  Pr38  1  0.62710167  0.50369193  0.42305113  1
  Nd3+  Nd39  1  0.37636428  0.73980737  0.93130975  1
  Nd3+  Nd40  1  0.24660096  0.36673118  0.57481365  1
  Nd3+  Nd41  1  0.38031589  0.24314283  0.92396806  1
  Nd3+  Nd42  1  0.61848638  -0.00132838  0.43349903  1
  Nd3+  Nd43  1  0.12350195  0.48505735  0.94222422  1
  Nd3+  Nd44  1  0.87379665  0.49051854  0.94985948  1
  Nd3+  Nd45  1  0.62752295  0.23931136  0.93238159  1
  Nd3+  Nd46  1  0.13079617  0.00393234  0.44491535  1
  Nd3+  Nd47  1  0.00613487  0.86558497  0.05165364  1
  Nd3+  Nd48  1  0.75291132  0.35887980  0.07149659  1
  Nd3+  Nd49  1  0.37588563  0.25313035  0.45288473  1
  Nd3+  Nd50  1  0.87219912  0.25310242  0.93269054  1
  Nd3+  Nd51  1  0.12755486  0.00526093  0.93049982  1
  Sm3+  Sm52  1  0.38000711  0.00377651  0.44937795  1
  Sm3+  Sm53  1  0.25874611  0.11570081  0.57813905  1
  Sm3+  Sm54  1  0.50526762  0.62450980  0.55969045  1
  Sm3+  Sm55  1  0.25083437  0.62264236  0.56503025  1
  Sm3+  Sm56  1  0.50002090  0.11406381  0.04908811  1
  Sm3+  Sm57  1  0.00276273  0.61313948  0.05958007  1
  Sm3+  Sm58  1  0.75840674  0.86546322  0.05941709  1
  Sm3+  Sm59  1  0.00031983  0.37784397  0.55126514  1
  Sm3+  Sm60  1  0.25284886  0.86548299  0.05817840  1
  Sm3+  Sm61  1  0.12602629  0.73978716  0.93299047  1
  Sm3+  Sm62  1  0.00712072  0.62491036  0.54827757  1
  Sm3+  Sm63  1  0.00456381  0.11595513  0.05810647  1
  Bi2+  Bi64  1  0.03147383  0.09875700  0.29269469  1
  Bi2+  Bi65  1  -0.05154270  0.11710066  0.82223303  1
  Bi2+  Bi66  1  0.05033347  0.35581194  0.27100433  1
  Bi2+  Bi67  1  -0.02274859  0.32236719  0.79302774  1
  Bi2+  Bi68  1  -0.00513740  0.74238702  0.28643432  1
  Bi2+  Bi69  1  0.05906542  0.57689520  0.82077931  1
  Bi2+  Bi70  1  0.04954165  0.91168886  0.33215439  1
  Bi2+  Bi71  1  -0.00525019  0.93571996  0.78547585  1
  Bi2+  Bi72  1  0.30612604  0.08804450  0.31596083  1
  Bi2+  Bi73  1  0.11177733  0.16396512  0.75845380  1
  Bi2+  Bi74  1  0.29598097  0.36084347  0.29967440  1
  Bi2+  Bi75  1  0.23471451  0.45372038  0.82039126  1
  Bi2+  Bi76  1  0.28585584  0.70824564  0.32502742  1
  Bi2+  Bi77  1  0.24927817  0.66179466  0.83137545  1
  Bi2+  Bi78  1  0.24239310  0.89789334  0.29686736  1
  Bi2+  Bi79  1  0.18906877  0.85479920  0.78621878  1
  Bi2+  Bi80  1  0.55069197  0.19599943  0.27664339  1
  Bi2+  Bi81  1  0.55616714  0.11307389  0.79317429  1
  Bi2+  Bi82  1  0.55898268  0.38078181  0.31367639  1
  Bi2+  Bi83  1  0.45647201  0.36582048  0.78473755  1
  Bi2+  Bi84  1  0.47615329  0.65159930  0.28662578  1
  Bi2+  Bi85  1  0.43408428  0.62383814  0.78405869  1
  Bi2+  Bi86  1  0.50729755  0.91212000  0.29445170  1
  Bi2+  Bi87  1  0.51512187  0.86896436  0.79299654  1
  Bi2+  Bi88  1  0.73158412  0.11861947  0.28432679  1
  Bi2+  Bi89  1  0.76737853  0.11712342  0.77655531  1
  Bi2+  Bi90  1  0.83737084  0.36917679  0.29976440  1
  Bi2+  Bi91  1  0.70301733  0.33609449  0.78103056  1
  Bi2+  Bi92  1  0.73511510  0.61422532  0.27772550  1
  Bi2+  Bi93  1  0.84785961  0.55896442  0.81750812  1
  Bi2+  Bi94  1  0.77730273  0.87432394  0.29361879  1
  Bi2+  Bi95  1  0.76339114  0.83498543  0.77987128  1
  Bi2+  Bi96  1  0.11187322  -0.00731737  0.21009417  1
  Bi2+  Bi97  1  0.00080466  0.04843295  0.69196138  1
  Bi2+  Bi98  1  0.19551887  0.16496218  0.23129667  1
  Bi2+  Bi99  1  0.09769474  0.33526983  0.70194020  1
  Bi2+  Bi100  1  0.14976180  0.54758096  0.18898749  1
  Bi2+  Bi101  1  0.05583565  0.52530841  0.71019763  1
  Bi2+  Bi102  1  0.14160073  0.77834492  0.21433114  1
  Bi2+  Bi103  1  0.05427486  0.75294504  0.72582341  1
  Bi2+  Bi104  1  0.36595241  -0.01230254  0.20790615  1
  Bi2+  Bi105  1  0.36324799  0.01546784  0.72067689  1
  Bi2+  Bi106  1  0.40110869  0.22917692  0.20377263  1
  Bi2+  Bi107  1  0.32845588  0.26823028  0.71264872  1
  Bi2+  Bi108  1  0.42631729  0.47373959  0.24808922  1
  Bi2+  Bi109  1  0.26940608  0.56446348  0.72494242  1
  Bi2+  Bi110  1  0.34003617  0.73520407  0.21938215  1
  Bi2+  Bi111  1  0.34329625  0.77508950  0.72866483  1
  Bi2+  Bi112  1  0.64186321  -0.01526396  0.21589893  1
  Bi2+  Bi113  1  0.69773476  -0.01955607  0.70583812  1
  Bi2+  Bi114  1  0.64560258  0.33383578  0.21215336  1
  Bi2+  Bi115  1  0.59695895  0.25199718  0.69974119  1
  Bi2+  Bi116  1  0.60420694  0.52965107  0.20731799  1
  Bi2+  Bi117  1  0.63626826  0.51717629  0.71226209  1
  Bi2+  Bi118  1  0.60423842  0.78650442  0.19806971  1
  Bi2+  Bi119  1  0.62638092  0.71184441  0.70445797  1
  Bi2+  Bi120  1  0.82473383  0.01824814  0.18012958  1
  Bi2+  Bi121  1  0.87050343  -0.10389511  0.67789161  1
  Bi2+  Bi122  1  0.87285434  0.21054413  0.19697805  1
  Bi2+  Bi123  1  0.84380896  0.26566598  0.70825968  1
  Bi2+  Bi124  1  0.91307819  0.50536761  0.20668152  1
  Bi2+  Bi125  1  0.86268051  0.47213925  0.71776273  1
  Bi2+  Bi126  1  0.87430842  0.83294472  0.20056618  1
  Bi2+  Bi127  1  0.86154812  0.70444294  0.71625202  1
  S2-  S128  1  0.00773451  0.19519056  0.14553000  1
  S2-  S129  1  -0.12293964  0.14174441  0.63777148  1
  S2-  S130  1  0.08026926  0.40172931  0.16977622  1
  S2-  S131  1  -0.10459815  0.38609237  0.63189933  1
  S2-  S132  1  -0.00823433  0.62512697  0.15878682  1
  S2-  S133  1  -0.01004991  0.64627356  0.64638091  1
  S2-  S134  1  0.02593663  0.87071006  0.15088110  1
  S2-  S135  1  0.09599538  0.85909722  0.65524425  1
  S2-  S136  1  0.25887589  0.24325762  0.14688012  1
  S2-  S137  1  0.21344893  0.23276283  0.64541387  1
  S2-  S138  1  0.28082740  0.49701385  0.14154466  1
  S2-  S139  1  0.26010527  0.41975943  0.67333129  1
  S2-  S140  1  0.24940509  0.74507281  0.13413514  1
  S2-  S141  1  0.25518374  0.70209761  0.65264478  1
  S2-  S142  1  0.24984454  0.97456541  0.13877869  1
  S2-  S143  1  0.24004619  1.01306706  0.66061047  1
  S2-  S144  1  0.42856100  0.10194875  0.13823760  1
  S2-  S145  1  0.41115924  0.13534226  0.66236594  1
  S2-  S146  1  0.49958775  0.34340313  0.15102228  1
  S2-  S147  1  0.45997525  0.35857442  0.67514557  1
  S2-  S148  1  0.52925670  0.65404963  0.14504757  1
  S2-  S149  1  0.51208866  0.61487568  0.65991574  1
  S2-  S150  1  0.47480211  0.86914279  0.16008982  1
  S2-  S151  1  0.41953372  0.88359434  0.65970863  1
  S2-  S152  1  0.72169661  0.22403837  0.14034935  1
  S2-  S153  1  0.64669509  0.11986653  0.64293773  1
  S2-  S154  1  0.87220427  0.36600488  0.14939506  1
  S2-  S155  1  0.65347282  0.39609975  0.64398025  1
  S2-  S156  1  0.77251451  0.56069866  0.17135761  1
  S2-  S157  1  0.74383436  0.61808292  0.64912809  1
  S2-  S158  1  0.74741047  0.76406939  0.13887228  1
  S2-  S159  1  0.63787675  0.85342479  0.64048750  1
  S2-  S160  1  0.15684054  0.11603820  0.36764387  1
  S2-  S161  1  0.22172042  -0.03254730  0.84946755  1
  S2-  S162  1  0.15212972  0.33053689  0.35230520  1
  S2-  S163  1  0.11659587  0.14410357  0.85903901  1
  S2-  S164  1  0.15601381  0.48875721  0.27777450  1
  S2-  S165  1  0.10751056  0.36821571  0.86614955  1
  S2-  S166  1  0.12278781  0.66411337  0.34597547  1
  S2-  S167  1  0.01751709  0.72881674  0.85414932  1
  S2-  S168  1  0.47773201  0.01848431  0.36515743  1
  S2-  S169  1  0.40992750  0.06643241  0.82059125  1
  S2-  S170  1  0.37198868  0.23816839  0.35238929  1
  S2-  S171  1  0.31772762  0.29977590  0.83167620  1
  S2-  S172  1  0.31204648  0.49603385  0.36345569  1
  S2-  S173  1  0.47345586  0.48724088  0.84944884  1
  S2-  S174  1  0.45359273  0.77873609  0.35884096  1
  S2-  S175  1  0.39351517  0.84650776  0.85076756  1
  S2-  S176  1  0.64478498  -0.11723786  0.35528862  1
  S2-  S177  1  0.62401435  -0.03601164  0.84439551  1
  S2-  S178  1  0.74101880  0.25091224  0.35496835  1
  S2-  S179  1  0.51862479  0.24817910  0.85093238  1
  S2-  S180  1  0.75640527  0.48805094  0.34745801  1
  S2-  S181  1  0.68120419  0.49985113  0.81876621  1
  S2-  S182  1  0.61828175  0.63461586  0.34758890  1
  S2-  S183  1  0.55216166  0.71364794  0.83106247  1
  S2-  S184  1  0.83729504  0.01478310  0.33814833  1
  S2-  S185  1  0.86827632  -0.09910122  0.85277897  1
  S2-  S186  1  0.95621853  0.23902217  0.33119782  1
  S2-  S187  1  0.74642073  0.23126594  0.85784193  1
  S2-  S188  1  0.96609022  0.47308553  0.33649763  1
  S2-  S189  1  0.88203339  0.39804674  0.86461267  1
  S2-  S190  1  0.84220103  0.71849675  0.33772570  1
  S2-  S191  1  0.76398719  0.70946189  0.84996972  1
  S2-  S192  1  -0.00107324  0.12290589  0.45585027  1
  S2-  S193  1  -0.00463954  0.12424779  0.95603248  1
  S2-  S194  1  0.00640438  0.37778795  0.44875033  1
  S2-  S195  1  -0.00116371  0.36505818  0.97099912  1
  S2-  S196  1  0.00425474  0.62430116  0.44512596  1
  S2-  S197  1  0.00125639  0.61199877  0.95610298  1
  S2-  S198  1  0.00495629  0.87493383  0.45907746  1
  S2-  S199  1  0.00986390  0.87340303  0.94782229  1
  S2-  S200  1  0.25951728  0.12507369  0.47221527  1
  S2-  S201  1  0.25974826  0.12178606  0.95283096  1
  S2-  S202  1  0.24899393  0.37267877  0.46691069  1
  S2-  S203  1  0.25716915  0.36655792  0.96014360  1
  S2-  S204  1  0.24714701  0.62259112  0.46144907  1
  S2-  S205  1  0.24840214  0.61356781  0.95462347  1
  S2-  S206  1  0.25523561  0.88200108  0.44580884  1
  S2-  S207  1  0.24695809  0.85931130  0.95400305  1
  S2-  S208  1  0.50372018  0.13151359  0.46444262  1
  S2-  S209  1  0.49956573  0.11147263  0.94710900  1
  S2-  S210  1  0.50280291  0.37762509  0.45833213  1
  S2-  S211  1  0.50416349  0.36848566  0.95059657  1
  S2-  S212  1  0.49529430  0.61986520  0.45470905  1
  S2-  S213  1  0.50340240  0.61701708  0.94625943  1
  S2-  S214  1  0.49831637  0.87735352  0.46517334  1
  S2-  S215  1  0.50517672  0.86395229  0.95211832  1
  S2-  S216  1  0.74760013  0.12032853  0.45386142  1
  S2-  S217  1  0.75383604  0.11424148  0.95666131  1
  S2-  S218  1  0.75041585  0.38026674  0.45440201  1
  S2-  S219  1  0.74271573  0.37002220  0.96133606  1
  S2-  S220  1  0.75257890  0.62829405  0.44721242  1
  S2-  S221  1  0.74756232  0.61049722  0.95690435  1
  S2-  S222  1  0.75210302  0.87256680  0.45658011  1
  S2-  S223  1  0.75531189  0.86808389  0.95577001  1
  S2-  S224  1  0.12686709  -0.00602048  0.03890560  1
  S2-  S225  1  0.12897678  0.00067518  0.55009154  1
  S2-  S226  1  0.13201693  0.23688525  0.04610756  1
  S2-  S227  1  0.11732079  0.25073091  0.54456032  1
  S2-  S228  1  0.12423658  0.49030847  0.04796406  1
  S2-  S229  1  0.12467253  0.49973059  0.56235742  1
  S2-  S230  1  0.12389910  0.73801141  0.03795719  1
  S2-  S231  1  0.13175066  0.74832305  0.54278010  1
  S2-  S232  1  0.37962806  -0.01551708  0.03379546  1
  S2-  S233  1  0.38015997  -0.00455791  0.55241116  1
  S2-  S234  1  0.38291375  0.24193218  0.03652539  1
  S2-  S235  1  0.38286858  0.25452047  0.55711525  1
  S2-  S236  1  0.38428129  0.49171124  0.03866699  1
  S2-  S237  1  0.37802283  0.50013375  0.56090413  1
  S2-  S238  1  0.38007439  0.73813326  0.03799055  1
  S2-  S239  1  0.37860051  0.74574149  0.55336809  1
  S2-  S240  1  0.62942849  -0.00956514  0.05269733  1
  S2-  S241  1  0.63026970  -0.00300458  0.54136018  1
  S2-  S242  1  0.62251968  0.23589053  0.03833161  1
  S2-  S243  1  0.63209496  0.25455947  0.54265690  1
  S2-  S244  1  0.63209102  0.48888098  0.05266958  1
  S2-  S245  1  0.62694311  0.50425495  0.53727103  1
  S2-  S246  1  0.63139297  0.74289114  0.03523808  1
  S2-  S247  1  0.62581444  0.74399193  0.53746197  1
  S2-  S248  1  0.88070368  -0.00926268  0.04406798  1
  S2-  S249  1  0.87697609  -0.00682648  0.54509675  1
  S2-  S250  1  0.87464041  0.23617046  0.04071912  1
  S2-  S251  1  0.87854034  0.25174911  0.53320250  1
  S2-  S252  1  0.87550246  0.49406095  0.05294689  1
  S2-  S253  1  0.88153653  0.50709462  0.53317480  1
  S2-  S254  1  0.88235150  0.74101476  0.03955542  1
  S2-  S255  1  0.88000911  0.74916500  0.54400348  1
