# generated using pymatgen
data_La12Ce14Pr13Nd13Sm12(BiS2)64
_symmetry_space_group_name_H-M   'P 1'
_cell_length_a   16.19927451
_cell_length_b   16.21960697
_cell_length_c   27.34500275
_cell_angle_alpha   89.94654118
_cell_angle_beta   89.89100437
_cell_angle_gamma   89.93427727
_symmetry_Int_Tables_number   1
_chemical_formula_structural   La12Ce14Pr13Nd13Sm12(BiS2)64
_chemical_formula_sum   'La12 Ce14 Pr13 Nd13 Sm12 Bi64 S128'
_cell_volume   7184.76558587
_cell_formula_units_Z   1
loop_
 _symmetry_equiv_pos_site_id
 _symmetry_equiv_pos_as_xyz
  1  'x, y, z'
loop_
 _atom_type_symbol
 _atom_type_oxidation_number
  La3+  3.0
  Ce3+  3.0
  Pr3+  3.0
  Nd3+  3.0
  Sm3+  3.0
  Bi2+  2.0
  S2-  -2.0
loop_
 _atom_site_type_symbol
 _atom_site_label
 _atom_site_symmetry_multiplicity
 _atom_site_fract_x
 _atom_site_fract_y
 _atom_site_fract_z
 _atom_site_occupancy
  La3+  La0  1  0.61992472  0.50252196  0.41893882  1
  La3+  La1  1  0.00117380  0.39022997  0.57108726  1
  La3+  La2  1  0.13287864  0.26116878  0.40904550  1
  La3+  La3  1  0.00215915  0.37874264  0.07877450  1
  La3+  La4  1  -0.00509144  0.11760378  0.10682715  1
  La3+  La5  1  0.25644218  0.38119369  0.07377461  1
  La3+  La6  1  0.51346423  0.88510254  0.07638373  1
  La3+  La7  1  0.89172647  0.00052088  0.92203853  1
  La3+  La8  1  0.63604402  0.75257775  0.38855120  1
  La3+  La9  1  0.50078171  0.37949828  0.56308979  1
  La3+  La10  1  0.25453318  0.87807169  0.06329504  1
  La3+  La11  1  0.12830925  0.49084853  0.92694184  1
  Ce3+  Ce12  1  0.00254430  0.13617207  0.55540230  1
  Ce3+  Ce13  1  0.00120657  0.63102989  0.55135782  1
  Ce3+  Ce14  1  0.88060650  0.26325192  0.43824458  1
  Ce3+  Ce15  1  0.13140467  0.75092133  0.94162461  1
  Ce3+  Ce16  1  0.24838164  0.13569266  0.56046986  1
  Ce3+  Ce17  1  0.38241786  0.50097927  0.94530676  1
  Ce3+  Ce18  1  0.12679213  0.00725706  0.44149896  1
  Ce3+  Ce19  1  0.62679379  0.00279573  0.43909480  1
  Ce3+  Ce20  1  0.75273377  0.63103832  0.05802247  1
  Ce3+  Ce21  1  0.37863926  0.50817164  0.43868883  1
  Ce3+  Ce22  1  0.12583299  0.50597771  0.43279818  1
  Ce3+  Ce23  1  0.87363762  0.75823598  0.43964569  1
  Ce3+  Ce24  1  0.87702193  0.50632032  0.43816053  1
  Ce3+  Ce25  1  0.74692803  0.63346784  0.55107251  1
  Pr3+  Pr26  1  0.88352636  0.25556682  0.93886906  1
  Pr3+  Pr27  1  0.50015656  0.88017312  0.56483942  1
  Pr3+  Pr28  1  0.62988085  0.75523374  0.93682375  1
  Pr3+  Pr29  1  -0.00245969  0.88266447  0.56472358  1
  Pr3+  Pr30  1  0.50622498  0.63184159  0.06542188  1
  Pr3+  Pr31  1  0.74964890  0.88457551  0.55915908  1
  Pr3+  Pr32  1  0.88266204  0.75116285  0.94475373  1
  Pr3+  Pr33  1  0.88438532  0.01111819  0.43288622  1
  Pr3+  Pr34  1  0.76331447  0.12765854  0.04987365  1
  Pr3+  Pr35  1  0.62577523  0.25496400  0.42732460  1
  Pr3+  Pr36  1  0.50773436  0.37792285  0.06581123  1
  Pr3+  Pr37  1  0.50437577  0.63372859  0.55086918  1
  Pr3+  Pr38  1  0.00605239  0.62477361  0.06804997  1
  Nd3+  Nd39  1  0.74879869  0.38199869  0.55233460  1
  Nd3+  Nd40  1  0.63146901  0.25384825  0.94269511  1
  Nd3+  Nd41  1  0.75322743  0.13375709  0.55415779  1
  Nd3+  Nd42  1  0.37934807  0.75937530  0.43895902  1
  Nd3+  Nd43  1  0.50714260  0.12834173  0.05311873  1
  Nd3+  Nd44  1  0.38030082  0.00243977  0.94565071  1
  Nd3+  Nd45  1  0.50075000  0.13320799  0.55378451  1
  Nd3+  Nd46  1  0.37526900  0.25766099  0.43764033  1
  Nd3+  Nd47  1  0.25515778  0.62767125  0.05413048  1
  Nd3+  Nd48  1  0.12894217  0.25221348  0.95713556  1
  Nd3+  Nd49  1  0.24985112  0.88153903  0.55794975  1
  Nd3+  Nd50  1  0.37928471  0.25342746  0.94888372  1
  Nd3+  Nd51  1  0.37499955  0.00626939  0.44735220  1
  Sm3+  Sm52  1  0.38081653  0.75514474  0.94568484  1
  Sm3+  Sm53  1  0.25408057  0.12753273  0.06706976  1
  Sm3+  Sm54  1  0.62846729  0.50311321  0.94456160  1
  Sm3+  Sm55  1  0.75936434  0.88150915  0.05630793  1
  Sm3+  Sm56  1  0.24965887  0.38508684  0.55552425  1
  Sm3+  Sm57  1  0.63112378  0.00098817  0.93846189  1
  Sm3+  Sm58  1  0.75395381  0.37800823  0.05569580  1
  Sm3+  Sm59  1  0.25073688  0.63149142  0.55062906  1
  Sm3+  Sm60  1  0.12557562  0.75782648  0.44397619  1
  Sm3+  Sm61  1  0.88118067  0.50242678  0.94751680  1
  Sm3+  Sm62  1  0.12933531  0.00448221  0.94881635  1
  Sm3+  Sm63  1  0.00511041  0.87742868  0.05816517  1
  Bi2+  Bi64  1  -0.02149144  0.07660054  0.29168604  1
  Bi2+  Bi65  1  -0.00998089  0.15434691  0.75835533  1
  Bi2+  Bi66  1  -0.02149270  0.33710009  0.29928580  1
  Bi2+  Bi67  1  0.01701234  0.39990570  0.80524173  1
  Bi2+  Bi68  1  0.05196994  0.62105394  0.29458725  1
  Bi2+  Bi69  1  -0.00411817  0.63716195  0.73267222  1
  Bi2+  Bi70  1  -0.01072028  0.80907245  0.29314667  1
  Bi2+  Bi71  1  -0.02154697  0.87042118  0.80418169  1
  Bi2+  Bi72  1  0.29648191  0.04688951  0.25181275  1
  Bi2+  Bi73  1  0.29554293  0.12301577  0.81521922  1
  Bi2+  Bi74  1  0.27737518  0.39714267  0.31103891  1
  Bi2+  Bi75  1  0.25573504  0.40110028  0.80671392  1
  Bi2+  Bi76  1  0.24865692  0.58318873  0.27770279  1
  Bi2+  Bi77  1  0.26572349  0.66475655  0.73948591  1
  Bi2+  Bi78  1  0.26872926  0.84174838  0.29644125  1
  Bi2+  Bi79  1  0.23251068  0.83308304  0.79580282  1
  Bi2+  Bi80  1  0.54256720  0.14603855  0.31989587  1
  Bi2+  Bi81  1  0.51957270  0.15458854  0.75725159  1
  Bi2+  Bi82  1  0.47458269  0.33211486  0.31448325  1
  Bi2+  Bi83  1  0.49973043  0.38094531  0.81684927  1
  Bi2+  Bi84  1  0.49337733  0.62148216  0.28506798  1
  Bi2+  Bi85  1  0.45586612  0.63531141  0.74961905  1
  Bi2+  Bi86  1  0.45328942  0.89784514  0.31769665  1
  Bi2+  Bi87  1  0.48021123  0.85406165  0.80897353  1
  Bi2+  Bi88  1  0.73393029  0.16529380  0.29406016  1
  Bi2+  Bi89  1  0.71985027  0.15015617  0.74654162  1
  Bi2+  Bi90  1  0.71748100  0.36990013  0.25913951  1
  Bi2+  Bi91  1  0.77329406  0.31604104  0.80262729  1
  Bi2+  Bi92  1  0.77917180  0.63630743  0.27510822  1
  Bi2+  Bi93  1  0.72646577  0.63539425  0.78643857  1
  Bi2+  Bi94  1  0.74936444  0.88849377  0.28430781  1
  Bi2+  Bi95  1  0.73805651  0.87278111  0.80258814  1
  Bi2+  Bi96  1  0.10086675  -0.09937155  0.21695917  1
  Bi2+  Bi97  1  0.13962728  0.02516710  0.77333218  1
  Bi2+  Bi98  1  0.14685608  0.22779893  0.21842040  1
  Bi2+  Bi99  1  0.17077744  0.22409385  0.74502068  1
  Bi2+  Bi100  1  0.11092510  0.48366845  0.21561078  1
  Bi2+  Bi101  1  0.13047353  0.48544867  0.68935817  1
  Bi2+  Bi102  1  0.04597298  0.71937967  0.18773849  1
  Bi2+  Bi103  1  0.10715112  0.78768408  0.70600807  1
  Bi2+  Bi104  1  0.45255864  -0.03931288  0.20919455  1
  Bi2+  Bi105  1  0.32169890  -0.00245406  0.71763024  1
  Bi2+  Bi106  1  0.40778223  0.20110571  0.23731163  1
  Bi2+  Bi107  1  0.35453413  0.21163526  0.70548637  1
  Bi2+  Bi108  1  0.35740982  0.46908914  0.20851707  1
  Bi2+  Bi109  1  0.36685819  0.46995055  0.71820935  1
  Bi2+  Bi110  1  0.29485957  0.74400874  0.20244077  1
  Bi2+  Bi111  1  0.40055428  0.82544534  0.69678418  1
  Bi2+  Bi112  1  0.63587963  0.03013950  0.22940574  1
  Bi2+  Bi113  1  0.60786603  -0.01461646  0.73461927  1
  Bi2+  Bi114  1  0.59878986  0.22649902  0.20986861  1
  Bi2+  Bi115  1  0.60975218  0.29660026  0.68951868  1
  Bi2+  Bi116  1  0.62407757  0.48938230  0.18806842  1
  Bi2+  Bi117  1  0.66269371  0.45933493  0.75076945  1
  Bi2+  Bi118  1  0.61507970  0.74600361  0.18611557  1
  Bi2+  Bi119  1  0.61923051  0.71994363  0.69880526  1
  Bi2+  Bi120  1  0.83163929  -0.03379075  0.19459738  1
  Bi2+  Bi121  1  0.87542391  0.00033958  0.69438149  1
  Bi2+  Bi122  1  0.85344789  0.25289471  0.20917464  1
  Bi2+  Bi123  1  0.87871740  0.27189569  0.69578242  1
  Bi2+  Bi124  1  0.90768869  0.50492423  0.24940163  1
  Bi2+  Bi125  1  0.85869729  0.49821370  0.75276194  1
  Bi2+  Bi126  1  0.86087492  0.76959297  0.20340702  1
  Bi2+  Bi127  1  0.83439405  0.73178198  0.70749072  1
  S2-  S128  1  0.07078139  0.09329039  0.20085217  1
  S2-  S129  1  -0.02859649  0.13204729  0.65186846  1
  S2-  S130  1  -0.00323911  0.27444126  0.16203228  1
  S2-  S131  1  0.02023413  0.35510299  0.66993800  1
  S2-  S132  1  -0.00674914  0.51117269  0.14615969  1
  S2-  S133  1  -0.00186232  0.55405821  0.63770057  1
  S2-  S134  1  -0.02013723  0.95099859  0.14412945  1
  S2-  S135  1  0.01342595  0.90990770  0.66372347  1
  S2-  S136  1  0.27388963  0.14748002  0.16321250  1
  S2-  S137  1  0.23017672  0.11883344  0.65685919  1
  S2-  S138  1  0.22754286  0.36906481  0.17234446  1
  S2-  S139  1  0.25469730  0.38824337  0.65401150  1
  S2-  S140  1  0.27441291  0.60412115  0.15163660  1
  S2-  S141  1  0.22942970  0.61171648  0.64679584  1
  S2-  S142  1  0.23920452  0.90253594  0.16152466  1
  S2-  S143  1  0.24542730  0.87166464  0.65626446  1
  S2-  S144  1  0.53321555  0.08323077  0.14604989  1
  S2-  S145  1  0.50170351  0.16653388  0.65000760  1
  S2-  S146  1  0.48505073  0.38733798  0.16479160  1
  S2-  S147  1  0.49685108  0.41176120  0.66127059  1
  S2-  S148  1  0.51393979  0.60418105  0.16618206  1
  S2-  S149  1  0.49717364  0.64039873  0.65124170  1
  S2-  S150  1  0.45468434  0.80665789  0.16102061  1
  S2-  S151  1  0.56138507  0.88585614  0.65901617  1
  S2-  S152  1  0.82699826  0.12044948  0.14340056  1
  S2-  S153  1  0.74728683  0.09298309  0.65037747  1
  S2-  S154  1  0.76076408  0.38053731  0.15320963  1
  S2-  S155  1  0.76070007  0.36719758  0.65041151  1
  S2-  S156  1  0.72949977  0.62029004  0.15522900  1
  S2-  S157  1  0.73423754  0.62250792  0.64833455  1
  S2-  S158  1  0.66341317  0.87877868  0.13768669  1
  S2-  S159  1  0.79939058  0.87475145  0.65558437  1
  S2-  S160  1  0.07035530  -0.00436631  0.35076501  1
  S2-  S161  1  0.04707739  -0.00186151  0.86255730  1
  S2-  S162  1  0.09312091  0.20232993  0.31360641  1
  S2-  S163  1  0.13293537  0.33079778  0.86914149  1
  S2-  S164  1  0.11300956  0.40919403  0.35169242  1
  S2-  S165  1  0.13704954  0.51948303  0.82633477  1
  S2-  S166  1  0.13684944  0.77162907  0.34656410  1
  S2-  S167  1  0.09917801  0.76454995  0.84578298  1
  S2-  S168  1  0.33289724  0.00652043  0.35090538  1
  S2-  S169  1  0.38761450  -0.02258045  0.84813381  1
  S2-  S170  1  0.28609845  0.24762123  0.35298682  1
  S2-  S171  1  0.36948826  0.27508632  0.85088703  1
  S2-  S172  1  0.45915271  0.50066069  0.35280655  1
  S2-  S173  1  0.37346049  0.49969900  0.84836070  1
  S2-  S174  1  0.39245495  0.72891216  0.34158318  1
  S2-  S175  1  0.36996036  0.75231970  0.84824121  1
  S2-  S176  1  0.61880980  -0.08023475  0.35514999  1
  S2-  S177  1  0.61348869  -0.02766904  0.84301577  1
  S2-  S178  1  0.63446424  0.36900948  0.34980071  1
  S2-  S179  1  0.61272431  0.27056218  0.84548063  1
  S2-  S180  1  0.64646251  0.59971278  0.33560254  1
  S2-  S181  1  0.60389425  0.50217751  0.84861128  1
  S2-  S182  1  0.57592706  0.76093958  0.28339626  1
  S2-  S183  1  0.61883960  0.74687458  0.83714710  1
  S2-  S184  1  0.85378393  -0.01622507  0.33508355  1
  S2-  S185  1  0.84112073  -0.01059733  0.82431509  1
  S2-  S186  1  0.88383020  0.20775777  0.34580050  1
  S2-  S187  1  0.92118543  0.25085002  0.84029007  1
  S2-  S188  1  0.87140612  0.44359666  0.34826932  1
  S2-  S189  1  0.91880546  0.50475282  0.85236078  1
  S2-  S190  1  0.80375173  0.75361552  0.34958169  1
  S2-  S191  1  0.86766180  0.77522545  0.84590654  1
  S2-  S192  1  0.00772795  0.13916207  0.45003845  1
  S2-  S193  1  0.00777448  0.13162407  0.95320017  1
  S2-  S194  1  0.00355284  0.38383704  0.45827661  1
  S2-  S195  1  0.00209776  0.37958857  0.96611766  1
  S2-  S196  1  0.00185799  0.63408809  0.44499048  1
  S2-  S197  1  0.00634478  0.62419776  0.95795483  1
  S2-  S198  1  0.00208455  0.87938741  0.45612894  1
  S2-  S199  1  0.00914508  0.87420818  0.95694240  1
  S2-  S200  1  0.24834144  0.13281146  0.45517367  1
  S2-  S201  1  0.25397425  0.12727419  0.96127857  1
  S2-  S202  1  0.25313064  0.38442050  0.45269088  1
  S2-  S203  1  0.25856634  0.37733579  0.96585975  1
  S2-  S204  1  0.25118168  0.63430739  0.44539593  1
  S2-  S205  1  0.25659520  0.62755013  0.94836821  1
  S2-  S206  1  0.25025337  0.87988299  0.45256095  1
  S2-  S207  1  0.25407651  0.88000742  0.95522380  1
  S2-  S208  1  0.49890024  0.13059269  0.44919549  1
  S2-  S209  1  0.50677558  0.12695206  0.94652169  1
  S2-  S210  1  0.49888300  0.37807623  0.45598186  1
  S2-  S211  1  0.50736057  0.37631687  0.95924436  1
  S2-  S212  1  0.50850212  0.64089459  0.44656430  1
  S2-  S213  1  0.50546911  0.63006140  0.95561906  1
  S2-  S214  1  0.49884093  0.88295369  0.45771657  1
  S2-  S215  1  0.50503414  0.87926674  0.96039958  1
  S2-  S216  1  0.75157669  0.13185116  0.44765448  1
  S2-  S217  1  0.75596617  0.12636332  0.94195478  1
  S2-  S218  1  0.75145470  0.38114953  0.44904027  1
  S2-  S219  1  0.75422055  0.38108672  0.95082202  1
  S2-  S220  1  0.75103287  0.63048766  0.44703277  1
  S2-  S221  1  0.75440363  0.62531232  0.95000324  1
  S2-  S222  1  0.75489069  0.88436306  0.45250155  1
  S2-  S223  1  0.75610810  0.87961671  0.95176376  1
  S2-  S224  1  0.12669299  0.00751273  0.05315110  1
  S2-  S225  1  0.12537515  0.00554109  0.54881924  1
  S2-  S226  1  0.13089209  0.24882659  0.06117530  1
  S2-  S227  1  0.12717856  0.26245205  0.55305838  1
  S2-  S228  1  0.13268437  0.50313591  0.04668812  1
  S2-  S229  1  0.12979920  0.50872646  0.53807775  1
  S2-  S230  1  0.12913339  0.75235194  0.04943693  1
  S2-  S231  1  0.12602066  0.75604418  0.54863444  1
  S2-  S232  1  0.38010875  0.00579796  0.05239983  1
  S2-  S233  1  0.37542582  0.00766101  0.55386116  1
  S2-  S234  1  0.38071426  0.25078384  0.05603217  1
  S2-  S235  1  0.37288815  0.25832382  0.54570721  1
  S2-  S236  1  0.38389181  0.50453095  0.05185033  1
  S2-  S237  1  0.37444523  0.50894944  0.54566219  1
  S2-  S238  1  0.38001214  0.75347766  0.04893557  1
  S2-  S239  1  0.37357117  0.75610242  0.54616244  1
  S2-  S240  1  0.63633314  0.00716478  0.04059272  1
  S2-  S241  1  0.62455749  0.00936484  0.54587273  1
  S2-  S242  1  0.63345898  0.25117146  0.04913309  1
  S2-  S243  1  0.62661754  0.25435645  0.53897862  1
  S2-  S244  1  0.63026901  0.50319249  0.04835960  1
  S2-  S245  1  0.62444754  0.50484391  0.54022861  1
  S2-  S246  1  0.63086464  0.75411525  0.04269187  1
  S2-  S247  1  0.62654389  0.76049081  0.54923268  1
  S2-  S248  1  0.88275926  -0.00055039  0.03552419  1
  S2-  S249  1  0.87781980  0.00907258  0.54090525  1
  S2-  S250  1  0.87943029  0.25795297  0.04584196  1
  S2-  S251  1  0.87650193  0.25986073  0.54538497  1
  S2-  S252  1  0.87239753  0.50404965  0.04969761  1
  S2-  S253  1  0.87120614  0.50731950  0.54281863  1
  S2-  S254  1  0.88082027  0.75474184  0.05159086  1
  S2-  S255  1  0.87635763  0.75574793  0.54629253  1
