# generated using pymatgen
data_La12Ce14Pr13Nd13Sm12(BiS2)64
_symmetry_space_group_name_H-M   'P 1'
_cell_length_a   16.19196144
_cell_length_b   16.20076767
_cell_length_c   27.24682631
_cell_angle_alpha   89.82504458
_cell_angle_beta   90.15544687
_cell_angle_gamma   89.98568928
_symmetry_Int_Tables_number   1
_chemical_formula_structural   La12Ce14Pr13Nd13Sm12(BiS2)64
_chemical_formula_sum   'La12 Ce14 Pr13 Nd13 Sm12 Bi64 S128'
_cell_volume   7147.38770148
_cell_formula_units_Z   1
loop_
 _symmetry_equiv_pos_site_id
 _symmetry_equiv_pos_as_xyz
  1  'x, y, z'
loop_
 _atom_type_symbol
 _atom_type_oxidation_number
  La3+  3.0
  Ce3+  3.0
  Pr3+  3.0
  Nd3+  3.0
  Sm3+  3.0
  Bi2+  2.0
  S2-  -2.0
loop_
 _atom_site_type_symbol
 _atom_site_label
 _atom_site_symmetry_multiplicity
 _atom_site_fract_x
 _atom_site_fract_y
 _atom_site_fract_z
 _atom_site_occupancy
  La3+  La0  1  0.75624685  0.60555017  0.07700015  1
  La3+  La1  1  0.85982125  0.23884281  0.92339035  1
  La3+  La2  1  0.23819814  0.61092784  0.06917300  1
  La3+  La3  1  0.60977968  0.75646480  0.42133674  1
  La3+  La4  1  0.23948929  0.87785657  0.56679835  1
  La3+  La5  1  0.85529466  0.74026432  0.92269033  1
  La3+  La6  1  0.75148917  0.85807878  0.07585344  1
  La3+  La7  1  0.12053422  0.01222115  0.42314403  1
  La3+  La8  1  -0.00316686  0.36733910  0.60547846  1
  La3+  La9  1  0.74011773  0.35798719  0.06819260  1
  La3+  La10  1  -0.00188304  0.63324768  0.60432413  1
  La3+  La11  1  0.12001956  0.27459824  0.40755912  1
  Ce3+  Ce12  1  -0.00718492  0.11493404  0.05287556  1
  Ce3+  Ce13  1  -0.00618970  0.13436881  0.55169773  1
  Ce3+  Ce14  1  0.74187433  0.38012331  0.56417588  1
  Ce3+  Ce15  1  -0.00828069  0.87745016  0.55820761  1
  Ce3+  Ce16  1  0.11726597  -0.01293249  0.93827530  1
  Ce3+  Ce17  1  0.49448402  0.13215354  0.55639596  1
  Ce3+  Ce18  1  0.49323609  0.87929278  0.55774408  1
  Ce3+  Ce19  1  -0.00873986  0.86060455  0.04829353  1
  Ce3+  Ce20  1  0.11701327  0.48744065  0.94029546  1
  Ce3+  Ce21  1  0.61679531  0.48999448  0.94263193  1
  Ce3+  Ce22  1  0.24406885  0.62706115  0.56363448  1
  Ce3+  Ce23  1  0.86354548  -0.01281576  0.94462428  1
  Ce3+  Ce24  1  0.49523792  0.86043853  0.06039040  1
  Ce3+  Ce25  1  0.49801054  0.38124701  0.56024865  1
  Pr3+  Pr26  1  0.49366533  0.61103456  0.06715988  1
  Pr3+  Pr27  1  0.86881478  0.25951694  0.43353005  1
  Pr3+  Pr28  1  0.73946846  0.87657884  0.56341040  1
  Pr3+  Pr29  1  0.49198425  0.11042954  0.05475955  1
  Pr3+  Pr30  1  0.61773064  -0.01500646  0.94314057  1
  Pr3+  Pr31  1  0.49770731  0.63138816  0.56568213  1
  Pr3+  Pr32  1  0.74532954  0.63020004  0.56545184  1
  Pr3+  Pr33  1  0.49288481  0.35997106  0.05851215  1
  Pr3+  Pr34  1  0.61367134  0.23631945  0.92791081  1
  Pr3+  Pr35  1  0.36799866  0.25682800  0.44270929  1
  Pr3+  Pr36  1  -0.00678300  0.35749260  0.05406094  1
  Pr3+  Pr37  1  0.23979686  0.86042366  0.05807199  1
  Pr3+  Pr38  1  0.74330496  0.13375108  0.56048300  1
  Nd3+  Nd39  1  0.62004189  0.50710015  0.43756396  1
  Nd3+  Nd40  1  0.24051492  0.11079499  0.05589243  1
  Nd3+  Nd41  1  0.23750268  0.13299484  0.55911273  1
  Nd3+  Nd42  1  0.74187420  0.11629973  0.06095034  1
  Nd3+  Nd43  1  0.36645354  0.73546048  0.94437577  1
  Nd3+  Nd44  1  0.24153492  0.38093169  0.56638366  1
  Nd3+  Nd45  1  0.11475858  0.50613130  0.45045779  1
  Nd3+  Nd46  1  0.36562940  0.00661416  0.44622294  1
  Nd3+  Nd47  1  0.23859294  0.36040112  0.05557364  1
  Nd3+  Nd48  1  0.86752538  0.75358435  0.43886119  1
  Nd3+  Nd49  1  0.86649856  0.00416348  0.44318693  1
  Nd3+  Nd50  1  0.11106519  0.23075459  0.92286827  1
  Nd3+  Nd51  1  0.36833496  0.50570782  0.44190533  1
  Sm3+  Sm52  1  0.36574356  0.48804477  0.94621800  1
  Sm3+  Sm53  1  0.61835756  0.73396707  0.94841398  1
  Sm3+  Sm54  1  0.36346063  0.23745923  0.94510321  1
  Sm3+  Sm55  1  0.86423174  0.48884456  0.93359284  1
  Sm3+  Sm56  1  -0.01065291  0.61211517  0.04962616  1
  Sm3+  Sm57  1  0.62135773  0.25581044  0.43239372  1
  Sm3+  Sm58  1  0.11717686  0.73443053  0.93797618  1
  Sm3+  Sm59  1  0.61860777  0.00491995  0.44347250  1
  Sm3+  Sm60  1  0.36617535  -0.01476788  0.94364447  1
  Sm3+  Sm61  1  0.36383377  0.75456644  0.44166392  1
  Sm3+  Sm62  1  0.87157376  0.50751479  0.45148913  1
  Sm3+  Sm63  1  0.11673377  0.75600216  0.44375050  1
  Bi2+  Bi64  1  -0.00608874  0.13971445  0.28876030  1
  Bi2+  Bi65  1  0.00344545  0.10608828  0.77560183  1
  Bi2+  Bi66  1  0.02265259  0.39978482  0.28205386  1
  Bi2+  Bi67  1  0.02267610  0.38006641  0.81214473  1
  Bi2+  Bi68  1  0.00960871  0.62343037  0.23149553  1
  Bi2+  Bi69  1  0.03694770  0.63220776  0.79947576  1
  Bi2+  Bi70  1  0.00040551  0.89102367  0.24329560  1
  Bi2+  Bi71  1  0.01430946  0.91061484  0.75899190  1
  Bi2+  Bi72  1  0.28207240  0.13134039  0.29189835  1
  Bi2+  Bi73  1  0.26460637  0.12585699  0.80079020  1
  Bi2+  Bi74  1  0.25468704  0.38874174  0.28740924  1
  Bi2+  Bi75  1  0.28872235  0.37642406  0.79305942  1
  Bi2+  Bi76  1  0.21314661  0.62205172  0.28921660  1
  Bi2+  Bi77  1  0.28891279  0.63165413  0.79147920  1
  Bi2+  Bi78  1  0.22570984  0.88522328  0.30188753  1
  Bi2+  Bi79  1  0.22762852  0.92384161  0.78658417  1
  Bi2+  Bi80  1  0.52908232  0.19003063  0.31305964  1
  Bi2+  Bi81  1  0.49581359  0.20556112  0.77610833  1
  Bi2+  Bi82  1  0.50158772  0.37782210  0.29197363  1
  Bi2+  Bi83  1  0.51970108  0.39798174  0.79478151  1
  Bi2+  Bi84  1  0.47883737  0.60047011  0.30063414  1
  Bi2+  Bi85  1  0.53450231  0.62194726  0.79022578  1
  Bi2+  Bi86  1  0.46334519  0.92444086  0.25639173  1
  Bi2+  Bi87  1  0.49363974  0.81608781  0.78695287  1
  Bi2+  Bi88  1  0.71789778  0.10711261  0.30363607  1
  Bi2+  Bi89  1  0.74701057  0.09368347  0.79887482  1
  Bi2+  Bi90  1  0.76381696  0.34424407  0.27618566  1
  Bi2+  Bi91  1  0.70783328  0.36019034  0.77291118  1
  Bi2+  Bi92  1  0.77534377  0.62176164  0.31031011  1
  Bi2+  Bi93  1  0.75093740  0.64561123  0.79677873  1
  Bi2+  Bi94  1  0.77090915  0.87747588  0.31144107  1
  Bi2+  Bi95  1  0.70097082  0.90293445  0.79599072  1
  Bi2+  Bi96  1  0.15471123  -0.01375456  0.21158691  1
  Bi2+  Bi97  1  0.14278681  0.01231040  0.69281613  1
  Bi2+  Bi98  1  0.11198253  0.24863510  0.18573795  1
  Bi2+  Bi99  1  0.14349062  0.21113918  0.70422523  1
  Bi2+  Bi100  1  0.15595670  0.50730775  0.19569384  1
  Bi2+  Bi101  1  0.22093172  0.50174176  0.71206181  1
  Bi2+  Bi102  1  0.16797251  0.70841290  0.18524337  1
  Bi2+  Bi103  1  0.15557500  0.78379527  0.70524807  1
  Bi2+  Bi104  1  0.37066229  0.05909013  0.19607798  1
  Bi2+  Bi105  1  0.38738515  0.00434990  0.74074579  1
  Bi2+  Bi106  1  0.39413641  0.25026010  0.22872783  1
  Bi2+  Bi107  1  0.39700260  0.33185436  0.70430900  1
  Bi2+  Bi108  1  0.38572359  0.48537807  0.22208566  1
  Bi2+  Bi109  1  0.39933992  0.52002220  0.66592616  1
  Bi2+  Bi110  1  0.36403955  0.75690580  0.27090941  1
  Bi2+  Bi111  1  0.39941642  0.70597879  0.70619743  1
  Bi2+  Bi112  1  0.58921547  0.05873762  0.22213612  1
  Bi2+  Bi113  1  0.57314743  -0.01486393  0.71744602  1
  Bi2+  Bi114  1  0.62601315  0.27154618  0.20849439  1
  Bi2+  Bi115  1  0.63423968  0.22654491  0.69774590  1
  Bi2+  Bi116  1  0.63184719  0.52120299  0.20102569  1
  Bi2+  Bi117  1  0.61065669  0.49729322  0.70819067  1
  Bi2+  Bi118  1  0.59912953  0.76826262  0.21091446  1
  Bi2+  Bi119  1  0.63187656  0.74917889  0.71323430  1
  Bi2+  Bi120  1  0.86528909  0.03002976  0.23472057  1
  Bi2+  Bi121  1  0.85945706  0.00691141  0.71509823  1
  Bi2+  Bi122  1  0.88214954  0.23935345  0.20548979  1
  Bi2+  Bi123  1  0.87303244  0.25192341  0.71131480  1
  Bi2+  Bi124  1  0.86657638  0.48691687  0.23415551  1
  Bi2+  Bi125  1  0.85738939  0.50617643  0.72247840  1
  Bi2+  Bi126  1  0.85031906  0.76111454  0.19787894  1
  Bi2+  Bi127  1  0.87825062  0.76402762  0.71466456  1
  S2-  S128  1  -0.00718947  0.13439950  0.14917264  1
  S2-  S129  1  -0.00678114  0.19598554  0.64351543  1
  S2-  S130  1  -0.01285233  0.35497611  0.15497611  1
  S2-  S131  1  -0.01443640  0.36644490  0.71793330  1
  S2-  S132  1  -0.08058399  0.62963946  0.13763650  1
  S2-  S133  1  -0.00162921  0.56991437  0.70231483  1
  S2-  S134  1  -0.05859088  0.86207813  0.14108697  1
  S2-  S135  1  0.00323659  0.79831666  0.64631317  1
  S2-  S136  1  0.21844758  0.12348768  0.15388255  1
  S2-  S137  1  0.26338320  0.13309778  0.65861360  1
  S2-  S138  1  0.22474744  0.35110689  0.15430935  1
  S2-  S139  1  0.16043257  0.36616450  0.65407191  1
  S2-  S140  1  0.31143641  0.59851898  0.16070276  1
  S2-  S141  1  0.16989986  0.63929540  0.65155558  1
  S2-  S142  1  0.23525178  0.86431070  0.15865431  1
  S2-  S143  1  0.29083207  0.83510828  0.66045009  1
  S2-  S144  1  0.51148288  0.15637955  0.15036328  1
  S2-  S145  1  0.52343153  0.11939524  0.65166663  1
  S2-  S146  1  0.55853836  0.38944359  0.14941586  1
  S2-  S147  1  0.60895819  0.36839090  0.63579244  1
  S2-  S148  1  0.52294910  0.63071938  0.16656658  1
  S2-  S149  1  0.61962614  0.63499515  0.63959598  1
  S2-  S150  1  0.48614602  0.85699600  0.15746116  1
  S2-  S151  1  0.55379246  0.86301703  0.64758617  1
  S2-  S152  1  0.75119583  0.22684584  0.13743048  1
  S2-  S153  1  0.76974956  0.13178192  0.66008397  1
  S2-  S154  1  0.76243049  0.46702287  0.14584343  1
  S2-  S155  1  0.83299233  0.38029138  0.64785558  1
  S2-  S156  1  0.71389700  0.66717547  0.17040868  1
  S2-  S157  1  0.83403327  0.63555100  0.65590861  1
  S2-  S158  1  0.72025421  0.87336243  0.17529366  1
  S2-  S159  1  0.78932038  0.87181477  0.66135989  1
  S2-  S160  1  0.07873731  -0.06542905  0.33417221  1
  S2-  S161  1  0.12591774  0.05393201  0.84921924  1
  S2-  S162  1  0.13102290  0.13419372  0.34567599  1
  S2-  S163  1  0.16613689  0.27795795  0.83229070  1
  S2-  S164  1  0.12067162  0.43751201  0.35642623  1
  S2-  S165  1  0.12783848  0.51001839  0.84372815  1
  S2-  S166  1  0.16167674  0.74222885  0.34912473  1
  S2-  S167  1  0.12965773  0.74134694  0.84034834  1
  S2-  S168  1  0.34218519  0.00153984  0.34775409  1
  S2-  S169  1  0.36132475  -0.00529868  0.84623396  1
  S2-  S170  1  0.28124980  0.27812256  0.35570992  1
  S2-  S171  1  0.38076380  0.23207905  0.84816953  1
  S2-  S172  1  0.33734678  0.52608315  0.34492643  1
  S2-  S173  1  0.36306289  0.50277573  0.84846819  1
  S2-  S174  1  0.45744897  0.74907824  0.35961781  1
  S2-  S175  1  0.36210336  0.74959189  0.84558274  1
  S2-  S176  1  0.63500178  -0.02907004  0.34806691  1
  S2-  S177  1  0.61064140  0.03258212  0.84616160  1
  S2-  S178  1  0.74114086  0.25680199  0.36058424  1
  S2-  S179  1  0.72891307  0.24342760  0.85185239  1
  S2-  S180  1  0.62528271  0.54207842  0.33928497  1
  S2-  S181  1  0.65309261  0.54030098  0.85265500  1
  S2-  S182  1  0.66317074  0.76089087  0.32304493  1
  S2-  S183  1  0.70310716  0.76259536  0.86447613  1
  S2-  S184  1  0.86938994  0.02350628  0.34403148  1
  S2-  S185  1  0.84160127  -0.03054555  0.84943351  1
  S2-  S186  1  0.96930331  0.27507191  0.34645258  1
  S2-  S187  1  0.96177322  0.22780447  0.84174417  1
  S2-  S188  1  0.86041641  0.50597049  0.35070718  1
  S2-  S189  1  0.88687724  0.47270003  0.83534399  1
  S2-  S190  1  0.88081707  0.75752036  0.33855668  1
  S2-  S191  1  0.90160902  0.72395959  0.82357006  1
  S2-  S192  1  -0.00999334  0.13010083  0.44849219  1
  S2-  S193  1  -0.01074609  0.10919602  0.94794212  1
  S2-  S194  1  -0.00912103  0.38541417  0.45387927  1
  S2-  S195  1  -0.00876708  0.36337294  0.94660454  1
  S2-  S196  1  -0.00546818  0.63238114  0.44486185  1
  S2-  S197  1  -0.01074103  0.61373619  0.94505263  1
  S2-  S198  1  -0.00642151  0.87920964  0.45160795  1
  S2-  S199  1  -0.00722308  0.85986654  0.94121690  1
  S2-  S200  1  0.24481876  0.13349605  0.45468680  1
  S2-  S201  1  0.24483159  0.11189686  0.95067869  1
  S2-  S202  1  0.24452378  0.38476517  0.46075525  1
  S2-  S203  1  0.24329340  0.36223262  0.94978554  1
  S2-  S204  1  0.24428387  0.63068400  0.45607469  1
  S2-  S205  1  0.24230955  0.61260089  0.95770889  1
  S2-  S206  1  0.24254772  0.87880183  0.45671716  1
  S2-  S207  1  0.24140508  0.86084691  0.95001070  1
  S2-  S208  1  0.49508085  0.12927081  0.44949277  1
  S2-  S209  1  0.48742595  0.11173242  0.94900066  1
  S2-  S210  1  0.49593517  0.38035806  0.44937255  1
  S2-  S211  1  0.48846618  0.36206703  0.95060777  1
  S2-  S212  1  0.49161732  0.62820168  0.45766017  1
  S2-  S213  1  0.49061307  0.61306438  0.95691207  1
  S2-  S214  1  0.49016615  0.88468659  0.45251179  1
  S2-  S215  1  0.49256360  0.85981905  0.95189798  1
  S2-  S216  1  0.74046169  0.12603803  0.45481763  1
  S2-  S217  1  0.73838747  0.11173451  0.95526694  1
  S2-  S218  1  0.74327918  0.38648504  0.45624550  1
  S2-  S219  1  0.74011902  0.36737572  0.95310468  1
  S2-  S220  1  0.74161538  0.63214594  0.45438735  1
  S2-  S221  1  0.74338271  0.61088839  0.96074039  1
  S2-  S222  1  0.74109924  0.87949568  0.45447451  1
  S2-  S223  1  0.73948635  0.86474652  0.96562817  1
  S2-  S224  1  0.11629159  -0.01324888  0.04590747  1
  S2-  S225  1  0.11643341  0.00506690  0.54353444  1
  S2-  S226  1  0.11930406  0.23520686  0.03440128  1
  S2-  S227  1  0.11818374  0.25765823  0.54532877  1
  S2-  S228  1  0.11403507  0.48758960  0.04757697  1
  S2-  S229  1  0.11415020  0.50507198  0.55541014  1
  S2-  S230  1  0.11319187  0.73493403  0.04371165  1
  S2-  S231  1  0.11706273  0.75076819  0.54628053  1
  S2-  S232  1  0.36614305  -0.01493601  0.04848643  1
  S2-  S233  1  0.36597880  0.00620503  0.55327124  1
  S2-  S234  1  0.36454156  0.23658028  0.05018630  1
  S2-  S235  1  0.36780684  0.25638839  0.55005409  1
  S2-  S236  1  0.36670873  0.48418179  0.05121286  1
  S2-  S237  1  0.36969639  0.50326031  0.54701903  1
  S2-  S238  1  0.36733714  0.73671691  0.05134788  1
  S2-  S239  1  0.36965619  0.75272097  0.54671141  1
  S2-  S240  1  0.62067291  -0.01227947  0.05289424  1
  S2-  S241  1  0.61882384  0.00569781  0.54835465  1
  S2-  S242  1  0.61412463  0.23603569  0.03540725  1
  S2-  S243  1  0.61791030  0.25313478  0.53571698  1
  S2-  S244  1  0.61725650  0.48963570  0.04617791  1
  S2-  S245  1  0.61816502  0.50551541  0.54193806  1
  S2-  S246  1  0.62064756  0.73545811  0.05217567  1
  S2-  S247  1  0.61651501  0.75787075  0.53532241  1
  S2-  S248  1  0.86553230  -0.00751123  0.05046386  1
  S2-  S249  1  0.86695818  0.00468661  0.55010276  1
  S2-  S250  1  0.86820731  0.23636922  0.03431724  1
  S2-  S251  1  0.86763023  0.25653745  0.54182294  1
  S2-  S252  1  0.87341060  0.48275511  0.03847178  1
  S2-  S253  1  0.87736728  0.51006867  0.55388586  1
  S2-  S254  1  0.86879623  0.73768316  0.03484629  1
  S2-  S255  1  0.86859240  0.75539529  0.54523503  1
