# generated using pymatgen
data_La12Ce14Pr13Nd13Sm12(BiS2)64
_symmetry_space_group_name_H-M   'P 1'
_cell_length_a   16.14140423
_cell_length_b   16.12489862
_cell_length_c   27.24696807
_cell_angle_alpha   89.95092432
_cell_angle_beta   89.97599348
_cell_angle_gamma   90.02341917
_symmetry_Int_Tables_number   1
_chemical_formula_structural   La12Ce14Pr13Nd13Sm12(BiS2)64
_chemical_formula_sum   'La12 Ce14 Pr13 Nd13 Sm12 Bi64 S128'
_cell_volume   7091.79634761
_cell_formula_units_Z   1
loop_
 _symmetry_equiv_pos_site_id
 _symmetry_equiv_pos_as_xyz
  1  'x, y, z'
loop_
 _atom_type_symbol
 _atom_type_oxidation_number
  La3+  3.0
  Ce3+  3.0
  Pr3+  3.0
  Nd3+  3.0
  Sm3+  3.0
  Bi2+  2.0
  S2-  -2.0
loop_
 _atom_site_type_symbol
 _atom_site_label
 _atom_site_symmetry_multiplicity
 _atom_site_fract_x
 _atom_site_fract_y
 _atom_site_fract_z
 _atom_site_occupancy
  La3+  La0  1  0.38322607  -0.02397145  0.93116924  1
  La3+  La1  1  0.01252458  0.10446626  0.08241601  1
  La3+  La2  1  -0.00593337  0.89730523  0.57210406  1
  La3+  La3  1  0.75482335  0.09924535  0.08099495  1
  La3+  La4  1  0.25530304  0.84896322  0.07402732  1
  La3+  La5  1  0.50411013  0.09984838  0.07296997  1
  La3+  La6  1  0.63541219  0.47451801  0.92554780  1
  La3+  La7  1  0.76213237  0.61170463  0.05787150  1
  La3+  La8  1  0.01937676  0.37341525  0.09436875  1
  La3+  La9  1  0.48482602  0.14514347  0.57895592  1
  La3+  La10  1  0.87258784  0.25801714  0.39203288  1
  La3+  La11  1  0.11820504  0.52246803  0.42631781  1
  Ce3+  Ce12  1  0.37203541  0.26731677  0.44088332  1
  Ce3+  Ce13  1  0.61926769  0.02036640  0.44198077  1
  Ce3+  Ce14  1  0.74276602  0.14400875  0.54993871  1
  Ce3+  Ce15  1  0.23773256  0.63968178  0.56520106  1
  Ce3+  Ce16  1  0.50834799  0.85376410  0.06483473  1
  Ce3+  Ce17  1  0.11570622  0.01931803  0.43711478  1
  Ce3+  Ce18  1  0.86554509  0.51325421  0.43578282  1
  Ce3+  Ce19  1  0.12839099  0.73453138  0.93571799  1
  Ce3+  Ce20  1  0.24489020  0.14426687  0.55301321  1
  Ce3+  Ce21  1  0.50814829  0.35753964  0.06238123  1
  Ce3+  Ce22  1  0.74369059  0.38835768  0.55284916  1
  Ce3+  Ce23  1  0.00258898  0.85945713  0.06046680  1
  Ce3+  Ce24  1  0.76055025  0.85870076  0.05689360  1
  Ce3+  Ce25  1  0.74492743  0.64191332  0.56501781  1
  Pr3+  Pr26  1  0.37216300  0.01976321  0.43350127  1
  Pr3+  Pr27  1  0.24729046  0.60527601  0.05866519  1
  Pr3+  Pr28  1  0.88248519  -0.00607226  0.93503701  1
  Pr3+  Pr29  1  0.63035631  -0.02314003  0.93495016  1
  Pr3+  Pr30  1  -0.00738014  0.39347869  0.55740498  1
  Pr3+  Pr31  1  0.49571754  0.39392572  0.56882818  1
  Pr3+  Pr32  1  0.88629956  0.74477118  0.91378905  1
  Pr3+  Pr33  1  0.49169919  0.89337071  0.56272276  1
  Pr3+  Pr34  1  0.38054359  0.72982077  0.93427869  1
  Pr3+  Pr35  1  0.37143032  0.51619597  0.44716328  1
  Pr3+  Pr36  1  0.61058068  0.27010907  0.41097692  1
  Pr3+  Pr37  1  0.50884059  0.60916149  0.06537383  1
  Pr3+  Pr38  1  0.74313806  0.90349523  0.57403383  1
  Nd3+  Nd39  1  0.62137251  0.51489777  0.43952856  1
  Nd3+  Nd40  1  0.88128852  0.47912613  0.93593565  1
  Nd3+  Nd41  1  0.38026234  0.48211314  0.94586737  1
  Nd3+  Nd42  1  0.12855139  0.23198658  0.94442498  1
  Nd3+  Nd43  1  0.11757992  0.76634487  0.43952071  1
  Nd3+  Nd44  1  0.25859229  0.10687760  0.05342505  1
  Nd3+  Nd45  1  0.25482107  0.35902218  0.05669969  1
  Nd3+  Nd46  1  -0.00749610  0.14227044  0.55959885  1
  Nd3+  Nd47  1  0.12447931  0.48033628  0.92716218  1
  Nd3+  Nd48  1  0.86721087  0.01016680  0.43305733  1
  Nd3+  Nd49  1  0.75721358  0.36487892  0.07172550  1
  Nd3+  Nd50  1  0.63300772  0.72567558  0.93330159  1
  Nd3+  Nd51  1  0.24469243  0.89095795  0.55235958  1
  Sm3+  Sm52  1  0.37123522  0.76652422  0.44522482  1
  Sm3+  Sm53  1  0.11357449  0.26868605  0.43430718  1
  Sm3+  Sm54  1  0.49365461  0.64187140  0.56061296  1
  Sm3+  Sm55  1  0.63068733  0.22901950  0.95310132  1
  Sm3+  Sm56  1  0.23967225  0.39375507  0.55092482  1
  Sm3+  Sm57  1  0.13134529  -0.01597649  0.94514105  1
  Sm3+  Sm58  1  0.00266412  0.61257503  0.05312874  1
  Sm3+  Sm59  1  0.86576197  0.77018818  0.44457077  1
  Sm3+  Sm60  1  0.88199655  0.22874641  0.95801827  1
  Sm3+  Sm61  1  0.38395692  0.23179303  0.94270629  1
  Sm3+  Sm62  1  0.61981141  0.76854173  0.45069151  1
  Sm3+  Sm63  1  -0.00996767  0.64473770  0.55910096  1
  Bi2+  Bi64  1  0.00020841  0.12534255  0.28049697  1
  Bi2+  Bi65  1  0.00898766  0.11003460  0.81230337  1
  Bi2+  Bi66  1  -0.00658464  0.38578684  0.28121798  1
  Bi2+  Bi67  1  0.06294386  0.35103352  0.79908268  1
  Bi2+  Bi68  1  0.01798552  0.64255840  0.28055253  1
  Bi2+  Bi69  1  0.01715841  0.54778313  0.76413998  1
  Bi2+  Bi70  1  0.01089298  0.84288606  0.29492833  1
  Bi2+  Bi71  1  0.00430455  0.87019372  0.79341852  1
  Bi2+  Bi72  1  0.24459336  0.12340075  0.29196348  1
  Bi2+  Bi73  1  0.26075510  0.14500749  0.73906221  1
  Bi2+  Bi74  1  0.26521150  0.40004843  0.28803092  1
  Bi2+  Bi75  1  0.22077127  0.47253373  0.80699905  1
  Bi2+  Bi76  1  0.27096480  0.66683033  0.29623765  1
  Bi2+  Bi77  1  0.18912761  0.66955931  0.80867397  1
  Bi2+  Bi78  1  0.20031138  0.84561769  0.26644659  1
  Bi2+  Bi79  1  0.24463424  0.84917135  0.74693145  1
  Bi2+  Bi80  1  0.50877035  0.10824547  0.30936708  1
  Bi2+  Bi81  1  0.50716354  0.15571175  0.80846038  1
  Bi2+  Bi82  1  0.46118647  0.43699147  0.29140578  1
  Bi2+  Bi83  1  0.53598659  0.40219211  0.80050510  1
  Bi2+  Bi84  1  0.57937682  0.64050394  0.29596746  1
  Bi2+  Bi85  1  0.38428773  0.64511657  0.80677666  1
  Bi2+  Bi86  1  0.49884753  0.84249444  0.28746164  1
  Bi2+  Bi87  1  0.49649960  0.91519726  0.80424390  1
  Bi2+  Bi88  1  0.74488882  0.10116772  0.27891577  1
  Bi2+  Bi89  1  0.77813736  0.09912338  0.75465918  1
  Bi2+  Bi90  1  0.72919272  0.50952792  0.30258814  1
  Bi2+  Bi91  1  0.84374201  0.33632407  0.78879371  1
  Bi2+  Bi92  1  0.84378642  0.65772310  0.33182440  1
  Bi2+  Bi93  1  0.71735189  0.55590927  0.78322588  1
  Bi2+  Bi94  1  0.76773960  0.82962705  0.28799149  1
  Bi2+  Bi95  1  0.74757683  0.83011593  0.78599791  1
  Bi2+  Bi96  1  0.15707408  -0.00206514  0.20360728  1
  Bi2+  Bi97  1  0.12146193  0.00424832  0.73926066  1
  Bi2+  Bi98  1  0.16462190  0.26435422  0.22196342  1
  Bi2+  Bi99  1  0.11803577  0.26031886  0.70013684  1
  Bi2+  Bi100  1  0.17530211  0.56170457  0.19548286  1
  Bi2+  Bi101  1  0.17915655  0.50752665  0.69630103  1
  Bi2+  Bi102  1  0.08207925  0.75319432  0.18838777  1
  Bi2+  Bi103  1  0.11598630  0.72057203  0.69869737  1
  Bi2+  Bi104  1  0.38386448  0.03392867  0.19920559  1
  Bi2+  Bi105  1  0.38933889  0.01087091  0.69378528  1
  Bi2+  Bi106  1  0.36245988  0.25059963  0.23799166  1
  Bi2+  Bi107  1  0.35691082  0.31766583  0.74941065  1
  Bi2+  Bi108  1  0.36263338  0.50470799  0.19904378  1
  Bi2+  Bi109  1  0.42989413  0.48320975  0.70856607  1
  Bi2+  Bi110  1  0.42469815  0.69503839  0.22363694  1
  Bi2+  Bi111  1  0.40194987  0.74789429  0.70679567  1
  Bi2+  Bi112  1  0.63076350  -0.10061537  0.21056270  1
  Bi2+  Bi113  1  0.63262301  -0.00752976  0.70403661  1
  Bi2+  Bi114  1  0.59927408  0.26950242  0.21111980  1
  Bi2+  Bi115  1  0.67005699  0.26714807  0.75439083  1
  Bi2+  Bi116  1  0.56899405  0.54563087  0.19371951  1
  Bi2+  Bi117  1  0.61422967  0.43782770  0.69434985  1
  Bi2+  Bi118  1  0.70225520  0.71802140  0.19215489  1
  Bi2+  Bi119  1  0.56301017  0.67016930  0.76080468  1
  Bi2+  Bi120  1  0.89326904  -0.08563260  0.21239838  1
  Bi2+  Bi121  1  0.87619094  -0.03405189  0.69537362  1
  Bi2+  Bi122  1  0.85311707  0.23810792  0.18832268  1
  Bi2+  Bi123  1  0.92888936  0.20767015  0.71437650  1
  Bi2+  Bi124  1  0.85495381  0.58593256  0.21934352  1
  Bi2+  Bi125  1  0.87302945  0.46230261  0.70197671  1
  Bi2+  Bi126  1  0.88696282  0.73839786  0.14432208  1
  Bi2+  Bi127  1  0.85743211  0.72265968  0.71543036  1
  S2-  S128  1  0.01989687  0.17518250  0.17801622  1
  S2-  S129  1  -0.00422284  0.03390754  0.64042708  1
  S2-  S130  1  -0.07139760  0.38077470  0.18056120  1
  S2-  S131  1  -0.01221700  0.35072351  0.65533684  1
  S2-  S132  1  0.04445895  0.54171761  0.13926745  1
  S2-  S133  1  0.03735474  0.58743477  0.64734768  1
  S2-  S134  1  0.01337612  0.95891245  0.14446819  1
  S2-  S135  1  -0.01704273  0.80401430  0.65944637  1
  S2-  S136  1  0.24401060  0.11329514  0.15195599  1
  S2-  S137  1  0.32756171  0.14157612  0.63902688  1
  S2-  S138  1  0.17730469  0.36914649  0.14580901  1
  S2-  S139  1  0.22816459  0.37196422  0.64792071  1
  S2-  S140  1  0.23467882  0.70438495  0.14197641  1
  S2-  S141  1  0.27329042  0.65092122  0.66090372  1
  S2-  S142  1  0.29585446  0.90584682  0.17018293  1
  S2-  S143  1  0.25867075  0.91087920  0.65035042  1
  S2-  S144  1  0.47165707  0.17888039  0.16288521  1
  S2-  S145  1  0.53073771  0.11043156  0.67737435  1
  S2-  S146  1  0.50990942  0.39281150  0.15774242  1
  S2-  S147  1  0.46495943  0.33148925  0.66161090  1
  S2-  S148  1  0.49875371  0.73504302  0.13721412  1
  S2-  S149  1  0.52091333  0.65052721  0.65687964  1
  S2-  S150  1  0.51067136  0.96654288  0.14388484  1
  S2-  S151  1  0.51055766  0.89114974  0.66341447  1
  S2-  S152  1  0.70063072  0.13794154  0.17877599  1
  S2-  S153  1  0.75270320  0.05799654  0.63685674  1
  S2-  S154  1  0.72183098  0.34236683  0.16947334  1
  S2-  S155  1  0.75374365  0.36906892  0.65061815  1
  S2-  S156  1  0.72996276  0.54405984  0.14938103  1
  S2-  S157  1  0.78602013  0.61069729  0.65953276  1
  S2-  S158  1  0.76179135  0.94721362  0.14335974  1
  S2-  S159  1  0.74746340  0.83961192  0.67085747  1
  S2-  S160  1  0.10713335  0.03747409  0.33951914  1
  S2-  S161  1  0.12349345  -0.02854309  0.84645213  1
  S2-  S162  1  0.03424429  0.25377551  0.34631688  1
  S2-  S163  1  0.13417210  0.21596877  0.84502446  1
  S2-  S164  1  0.11248664  0.44513544  0.33394698  1
  S2-  S165  1  -0.00461482  0.48859256  0.85681404  1
  S2-  S166  1  0.13347637  0.66210997  0.35995058  1
  S2-  S167  1  0.03578446  0.74047885  0.85174505  1
  S2-  S168  1  0.36859974  0.01770519  0.33243723  1
  S2-  S169  1  0.39519999  0.04791306  0.83618075  1
  S2-  S170  1  0.45333264  0.25102962  0.35712520  1
  S2-  S171  1  0.38664642  0.25860784  0.84573760  1
  S2-  S172  1  0.35941829  0.53643122  0.34781827  1
  S2-  S173  1  0.40877807  0.48505352  0.84794265  1
  S2-  S174  1  0.37627300  0.78028699  0.34809859  1
  S2-  S175  1  0.38145970  0.84341694  0.85638390  1
  S2-  S176  1  0.63699856  0.01285059  0.34378902  1
  S2-  S177  1  0.61490026  0.03475711  0.83878483  1
  S2-  S178  1  0.64492664  0.22024563  0.31248313  1
  S2-  S179  1  0.62451002  0.27583581  0.85838016  1
  S2-  S180  1  0.60560817  0.42329198  0.35477264  1
  S2-  S181  1  0.61041070  0.60537717  0.85666950  1
  S2-  S182  1  0.62640702  0.78019940  0.35273651  1
  S2-  S183  1  0.62403786  0.83293565  0.85262743  1
  S2-  S184  1  0.87816534  0.09191500  0.34494789  1
  S2-  S185  1  0.87027948  -0.10204537  0.84831602  1
  S2-  S186  1  0.84152131  0.25076178  0.28485956  1
  S2-  S187  1  0.88121003  0.13994112  0.87203748  1
  S2-  S188  1  0.87379044  0.42681425  0.34961893  1
  S2-  S189  1  0.77089855  0.45319218  0.85653666  1
  S2-  S190  1  0.87676492  0.87613508  0.36556420  1
  S2-  S191  1  0.82329412  0.69041736  0.82083999  1
  S2-  S192  1  -0.00825318  0.14357236  0.45371290  1
  S2-  S193  1  0.01234180  0.10770359  0.96954218  1
  S2-  S194  1  -0.00623174  0.39037712  0.45116325  1
  S2-  S195  1  0.00280530  0.35033420  0.95434669  1
  S2-  S196  1  -0.01199125  0.64539740  0.45409733  1
  S2-  S197  1  0.00476517  0.60992726  0.95091593  1
  S2-  S198  1  -0.00089703  0.89110189  0.46132962  1
  S2-  S199  1  0.00808226  0.86558701  0.95417062  1
  S2-  S200  1  0.24220323  0.14563441  0.44570669  1
  S2-  S201  1  0.25762611  0.10837300  0.94791524  1
  S2-  S202  1  0.24257331  0.39020319  0.44594077  1
  S2-  S203  1  0.25627523  0.35611177  0.95009583  1
  S2-  S204  1  0.24938871  0.64459859  0.45914807  1
  S2-  S205  1  0.25214060  0.60472286  0.94926759  1
  S2-  S206  1  0.24474789  0.89081744  0.44507184  1
  S2-  S207  1  0.25083231  0.85660513  0.95696848  1
  S2-  S208  1  0.49619954  0.14365149  0.46054392  1
  S2-  S209  1  0.50537997  0.10839370  0.95946307  1
  S2-  S210  1  0.49608297  0.39113947  0.46079760  1
  S2-  S211  1  0.50473388  0.35611312  0.95679165  1
  S2-  S212  1  0.49674915  0.64316141  0.45460106  1
  S2-  S213  1  0.50308266  0.60469856  0.95868859  1
  S2-  S214  1  0.49440625  0.89110540  0.45426163  1
  S2-  S215  1  0.50869103  0.85156756  0.95849131  1
  S2-  S216  1  0.74231526  0.14905991  0.44423205  1
  S2-  S217  1  0.75066204  0.10869497  0.96734133  1
  S2-  S218  1  0.74236988  0.38411304  0.44899745  1
  S2-  S219  1  0.75837327  0.34851483  0.96414270  1
  S2-  S220  1  0.74198058  0.64397901  0.45725421  1
  S2-  S221  1  0.76355944  0.60805411  0.94987825  1
  S2-  S222  1  0.73909929  0.89179416  0.46334702  1
  S2-  S223  1  0.75848381  0.85842382  0.95184607  1
  S2-  S224  1  0.13836932  -0.01976548  0.04866116  1
  S2-  S225  1  0.12422563  0.01899133  0.54301723  1
  S2-  S226  1  0.13102260  0.23326967  0.05072429  1
  S2-  S227  1  0.11835710  0.26675514  0.54069641  1
  S2-  S228  1  0.12932726  0.48086250  0.03270161  1
  S2-  S229  1  0.11727680  0.51741811  0.53708607  1
  S2-  S230  1  0.12434574  0.73342369  0.04014930  1
  S2-  S231  1  0.11740250  0.76640294  0.54621156  1
  S2-  S232  1  0.37668465  -0.02232608  0.04248525  1
  S2-  S233  1  0.36796476  0.01595615  0.54022542  1
  S2-  S234  1  0.37995075  0.23495163  0.04806392  1
  S2-  S235  1  0.36620279  0.27431461  0.54447593  1
  S2-  S236  1  0.37902082  0.48464770  0.05169218  1
  S2-  S237  1  0.36755819  0.51693826  0.55420345  1
  S2-  S238  1  0.37585499  0.72766851  0.03995287  1
  S2-  S239  1  0.36927090  0.76436528  0.55036778  1
  S2-  S240  1  0.63281775  -0.02036440  0.04292212  1
  S2-  S241  1  0.61220932  0.02013318  0.54787923  1
  S2-  S242  1  0.63212298  0.23211117  0.05732043  1
  S2-  S243  1  0.61681736  0.26451772  0.55722092  1
  S2-  S244  1  0.63136464  0.48194094  0.04048251  1
  S2-  S245  1  0.61874442  0.51914562  0.54737736  1
  S2-  S246  1  0.63646717  0.73289241  0.04025418  1
  S2-  S247  1  0.61812334  0.76751289  0.55528889  1
  S2-  S248  1  0.88351407  -0.01396669  0.04306942  1
  S2-  S249  1  0.86896111  0.01875373  0.53786603  1
  S2-  S250  1  0.88299419  0.23411022  0.06270911  1
  S2-  S251  1  0.86946060  0.26400880  0.54989989  1
  S2-  S252  1  0.88583711  0.48094301  0.04646169  1
  S2-  S253  1  0.86901378  0.51820495  0.54401974  1
  S2-  S254  1  0.88440839  0.73675895  0.02854789  1
  S2-  S255  1  0.86644224  0.76937517  0.54924064  1
