# generated using pymatgen
data_La12Ce14Pr13Nd13Sm12(BiS2)64
_symmetry_space_group_name_H-M   'P 1'
_cell_length_a   16.08343323
_cell_length_b   16.07384871
_cell_length_c   27.39910185
_cell_angle_alpha   90.05408289
_cell_angle_beta   90.02518650
_cell_angle_gamma   89.89680858
_symmetry_Int_Tables_number   1
_chemical_formula_structural   La12Ce14Pr13Nd13Sm12(BiS2)64
_chemical_formula_sum   'La12 Ce14 Pr13 Nd13 Sm12 Bi64 S128'
_cell_volume   7083.27371451
_cell_formula_units_Z   1
loop_
 _symmetry_equiv_pos_site_id
 _symmetry_equiv_pos_as_xyz
  1  'x, y, z'
loop_
 _atom_type_symbol
 _atom_type_oxidation_number
  La3+  3.0
  Ce3+  3.0
  Pr3+  3.0
  Nd3+  3.0
  Sm3+  3.0
  Bi2+  2.0
  S2-  -2.0
loop_
 _atom_site_type_symbol
 _atom_site_label
 _atom_site_symmetry_multiplicity
 _atom_site_fract_x
 _atom_site_fract_y
 _atom_site_fract_z
 _atom_site_occupancy
  La3+  La0  1  0.14718232  0.24930520  0.91950899  1
  La3+  La1  1  0.51774573  0.87780194  0.06741732  1
  La3+  La2  1  0.27163918  0.63219984  0.11376576  1
  La3+  La3  1  0.39828460  0.25542678  0.92434295  1
  La3+  La4  1  0.14340729  -0.00736648  0.92397279  1
  La3+  La5  1  0.87924022  -0.00099536  0.41560681  1
  La3+  La6  1  0.39423922  0.74845372  0.94195715  1
  La3+  La7  1  0.10474666  0.74506592  0.40423380  1
  La3+  La8  1  0.89452423  -0.00299723  0.93047107  1
  La3+  La9  1  0.73927775  0.36213272  0.56624091  1
  La3+  La10  1  0.64460953  0.75072428  0.93805179  1
  La3+  La11  1  -0.02099085  0.88215022  0.58780411  1
  Ce3+  Ce12  1  0.76995613  0.37305885  0.06519895  1
  Ce3+  Ce13  1  0.01801602  0.12491354  0.05651462  1
  Ce3+  Ce14  1  0.60846842  0.74524174  0.42696162  1
  Ce3+  Ce15  1  0.26584811  0.12571070  0.06138408  1
  Ce3+  Ce16  1  0.61179570  -0.01044001  0.42429925  1
  Ce3+  Ce17  1  0.36942410  0.24751275  0.44514573  1
  Ce3+  Ce18  1  0.86654616  0.74691380  0.43662947  1
  Ce3+  Ce19  1  0.01542677  0.37432408  0.06261268  1
  Ce3+  Ce20  1  0.74171747  0.87291265  0.54821506  1
  Ce3+  Ce21  1  0.36248089  -0.00810039  0.44375306  1
  Ce3+  Ce22  1  0.52132612  0.37285847  0.05457144  1
  Ce3+  Ce23  1  0.02195247  0.87541574  0.06196504  1
  Ce3+  Ce24  1  0.35984749  0.74405924  0.44479243  1
  Ce3+  Ce25  1  0.49111739  0.62421312  0.56586414  1
  Pr3+  Pr26  1  0.60543358  0.24125833  0.41938263  1
  Pr3+  Pr27  1  0.89183535  0.49737798  0.93690744  1
  Pr3+  Pr28  1  0.64591279  0.50204756  0.91076211  1
  Pr3+  Pr29  1  -0.01166513  0.62296108  0.55574167  1
  Pr3+  Pr30  1  0.77003437  0.12310507  0.07509733  1
  Pr3+  Pr31  1  0.49230942  0.12239284  0.56016185  1
  Pr3+  Pr32  1  -0.01450244  0.37076865  0.56300539  1
  Pr3+  Pr33  1  0.49629850  0.37457256  0.57705627  1
  Pr3+  Pr34  1  0.14444209  0.49492784  0.93865944  1
  Pr3+  Pr35  1  0.14730357  0.74681954  0.94080520  1
  Pr3+  Pr36  1  0.11667688  0.48914792  0.42766604  1
  Pr3+  Pr37  1  0.36120999  0.49751364  0.45202626  1
  Pr3+  Pr38  1  0.11539444  0.24630943  0.43507002  1
  Nd3+  Nd39  1  0.23808182  0.11974429  0.56177350  1
  Nd3+  Nd40  1  0.77059394  0.87311933  0.06818470  1
  Nd3+  Nd41  1  0.60885825  0.49831741  0.43500061  1
  Nd3+  Nd42  1  0.49124278  0.87140011  0.55994840  1
  Nd3+  Nd43  1  0.89291012  0.74605275  0.94671000  1
  Nd3+  Nd44  1  0.39191530  0.00154002  0.93670259  1
  Nd3+  Nd45  1  0.39488132  0.49690670  0.94103169  1
  Nd3+  Nd46  1  0.86189576  0.49549315  0.43502372  1
  Nd3+  Nd47  1  0.23267896  0.62488503  0.56211525  1
  Nd3+  Nd48  1  0.64947169  -0.00262567  0.93197976  1
  Nd3+  Nd49  1  0.65417344  0.24878596  0.92473652  1
  Nd3+  Nd50  1  0.26663124  0.88144928  0.06789058  1
  Nd3+  Nd51  1  0.23757373  0.37043704  0.56804609  1
  Sm3+  Sm52  1  0.52176016  0.12724977  0.04915715  1
  Sm3+  Sm53  1  0.02662877  0.62263467  0.05722870  1
  Sm3+  Sm54  1  0.73962623  0.12095217  0.54110703  1
  Sm3+  Sm55  1  -0.01412452  0.12230283  0.55515054  1
  Sm3+  Sm56  1  0.76734459  0.62654066  0.06637530  1
  Sm3+  Sm57  1  0.73890590  0.62267066  0.55310475  1
  Sm3+  Sm58  1  0.23413404  0.87040949  0.55638841  1
  Sm3+  Sm59  1  0.85283584  0.25878503  0.42020684  1
  Sm3+  Sm60  1  0.26295774  0.37373318  0.06494440  1
  Sm3+  Sm61  1  0.89111675  0.24932575  0.94456169  1
  Sm3+  Sm62  1  0.11407442  -0.00652098  0.44364356  1
  Sm3+  Sm63  1  0.51297797  0.62204391  0.06127230  1
  Bi2+  Bi64  1  0.02560632  0.15851214  0.28069132  1
  Bi2+  Bi65  1  0.02369899  0.16483947  0.72114840  1
  Bi2+  Bi66  1  0.02308753  0.34486642  0.24389919  1
  Bi2+  Bi67  1  0.00596627  0.47078512  0.81936506  1
  Bi2+  Bi68  1  -0.02845465  0.52128961  0.29473906  1
  Bi2+  Bi69  1  -0.04353641  0.65959065  0.79932858  1
  Bi2+  Bi70  1  -0.04170512  0.89350852  0.28680032  1
  Bi2+  Bi71  1  0.00640191  0.88359317  0.79216202  1
  Bi2+  Bi72  1  0.21402026  0.15848726  0.32196756  1
  Bi2+  Bi73  1  0.18405416  0.10177655  0.79778869  1
  Bi2+  Bi74  1  0.25636190  0.33965414  0.29410332  1
  Bi2+  Bi75  1  0.19882659  0.30383084  0.77499252  1
  Bi2+  Bi76  1  0.27684270  0.62704695  0.31878836  1
  Bi2+  Bi77  1  0.15349171  0.60984171  0.80161523  1
  Bi2+  Bi78  1  0.32716251  0.86559888  0.29625734  1
  Bi2+  Bi79  1  0.25716863  0.85143968  0.78650356  1
  Bi2+  Bi80  1  0.47986581  0.19635225  0.22762870  1
  Bi2+  Bi81  1  0.56704771  0.07959931  0.80704274  1
  Bi2+  Bi82  1  0.53265351  0.39915894  0.31745972  1
  Bi2+  Bi83  1  0.46705936  0.35154264  0.77824754  1
  Bi2+  Bi84  1  0.52497453  0.57897467  0.27183311  1
  Bi2+  Bi85  1  0.51113345  0.58256561  0.79474567  1
  Bi2+  Bi86  1  0.53900096  0.97615746  0.28447718  1
  Bi2+  Bi87  1  0.49771176  0.79769180  0.80493518  1
  Bi2+  Bi88  1  0.75517004  0.13481588  0.29685411  1
  Bi2+  Bi89  1  0.69706695  0.22134200  0.78047474  1
  Bi2+  Bi90  1  0.77644584  0.48257264  0.29703920  1
  Bi2+  Bi91  1  0.83914528  0.37816599  0.78457120  1
  Bi2+  Bi92  1  0.80027980  0.67753900  0.31428471  1
  Bi2+  Bi93  1  0.76627064  0.62823465  0.78251683  1
  Bi2+  Bi94  1  0.72104651  0.84671632  0.27150411  1
  Bi2+  Bi95  1  0.75270409  0.87535447  0.79250653  1
  Bi2+  Bi96  1  0.15064814  0.01382578  0.25440202  1
  Bi2+  Bi97  1  0.14140416  0.00650754  0.69839462  1
  Bi2+  Bi98  1  0.11491962  0.17352998  0.17627039  1
  Bi2+  Bi99  1  0.05518246  0.35264946  0.68846587  1
  Bi2+  Bi100  1  0.14501030  0.48927612  0.20633522  1
  Bi2+  Bi101  1  0.17296688  0.51227589  0.69946113  1
  Bi2+  Bi102  1  0.13485891  0.75790379  0.21434043  1
  Bi2+  Bi103  1  0.16172597  0.75299166  0.70872195  1
  Bi2+  Bi104  1  0.33763632  0.05360529  0.22784679  1
  Bi2+  Bi105  1  0.41131573  -0.02353611  0.77776803  1
  Bi2+  Bi106  1  0.29684141  0.23616559  0.18345350  1
  Bi2+  Bi107  1  0.37310677  0.14326406  0.72454325  1
  Bi2+  Bi108  1  0.39915950  0.41360190  0.22699264  1
  Bi2+  Bi109  1  0.32796328  0.52214398  0.77629556  1
  Bi2+  Bi110  1  0.41654243  0.77067318  0.21241836  1
  Bi2+  Bi111  1  0.42102705  0.70935731  0.70702337  1
  Bi2+  Bi112  1  0.64984538  0.08116810  0.20938819  1
  Bi2+  Bi113  1  0.62417376  -0.00661302  0.70835809  1
  Bi2+  Bi114  1  0.62882958  0.33254454  0.22318591  1
  Bi2+  Bi115  1  0.58513510  0.24086668  0.68520215  1
  Bi2+  Bi116  1  0.67529799  0.52810679  0.19797954  1
  Bi2+  Bi117  1  0.64688911  0.52645875  0.71157561  1
  Bi2+  Bi118  1  0.61725946  0.71997091  0.20636655  1
  Bi2+  Bi119  1  0.60602180  0.79940046  0.70678451  1
  Bi2+  Bi120  1  0.90311254  -0.01109690  0.19657177  1
  Bi2+  Bi121  1  0.79780178  0.04552165  0.75530206  1
  Bi2+  Bi122  1  0.85579929  0.26580071  0.20304143  1
  Bi2+  Bi123  1  0.84689660  0.23752072  0.69942755  1
  Bi2+  Bi124  1  0.87419995  0.54604725  0.19359514  1
  Bi2+  Bi125  1  0.91788973  0.50640537  0.70935030  1
  Bi2+  Bi126  1  0.87625744  0.73902725  0.21511265  1
  Bi2+  Bi127  1  0.86430386  0.74457911  0.68880071  1
  S2-  S128  1  -0.07528399  0.13000868  0.14377143  1
  S2-  S129  1  -0.01008322  0.04429382  0.64272445  1
  S2-  S130  1  0.10705579  0.35046893  0.14610565  1
  S2-  S131  1  -0.13367776  0.38067566  0.63761042  1
  S2-  S132  1  0.09184060  0.62693977  0.14865803  1
  S2-  S133  1  -0.01302588  0.62994935  0.65649594  1
  S2-  S134  1  0.03405316  0.87661664  0.16065173  1
  S2-  S135  1  0.00818396  0.83931430  0.68865652  1
  S2-  S136  1  0.27100790  0.01498685  0.13792803  1
  S2-  S137  1  0.24690298  0.12842645  0.66128219  1
  S2-  S138  1  0.28275726  0.46520403  0.14920176  1
  S2-  S139  1  0.22808580  0.35474564  0.66764333  1
  S2-  S140  1  0.24879938  0.62522784  0.22448917  1
  S2-  S141  1  0.26801701  0.64903345  0.65840503  1
  S2-  S142  1  0.26209989  0.79666128  0.15702956  1
  S2-  S143  1  0.23255960  0.88644027  0.65475267  1
  S2-  S144  1  0.51907954  0.09618417  0.14657774  1
  S2-  S145  1  0.49230050  0.08747183  0.65881459  1
  S2-  S146  1  0.50826028  0.37299387  0.15320469  1
  S2-  S147  1  0.44409021  0.32162201  0.67200281  1
  S2-  S148  1  0.43988029  0.63605003  0.15024640  1
  S2-  S149  1  0.50474800  0.57404845  0.65906810  1
  S2-  S150  1  0.53205479  0.86419359  0.16772164  1
  S2-  S151  1  0.46341313  0.85157264  0.65768322  1
  S2-  S152  1  0.72557437  0.25827486  0.14055528  1
  S2-  S153  1  0.73138070  0.18759779  0.63175975  1
  S2-  S154  1  0.89253528  0.39233697  0.13786224  1
  S2-  S155  1  0.63377611  0.39218570  0.64668567  1
  S2-  S156  1  0.76187876  0.74697494  0.14072244  1
  S2-  S157  1  0.74388316  0.62573614  0.65207476  1
  S2-  S158  1  0.75934817  0.98490609  0.14616367  1
  S2-  S159  1  0.81519217  0.87588689  0.63714094  1
  S2-  S160  1  0.03963635  -0.02644081  0.35537624  1
  S2-  S161  1  0.01122731  0.00622091  0.85133960  1
  S2-  S162  1  0.12530715  0.35730910  0.35718126  1
  S2-  S163  1  0.06611004  0.21775378  0.82372943  1
  S2-  S164  1  0.11371034  0.59405245  0.34643955  1
  S2-  S165  1  0.15341096  0.39618998  0.85508142  1
  S2-  S166  1  0.17886836  0.79192649  0.31381651  1
  S2-  S167  1  0.13206496  0.83679804  0.85408420  1
  S2-  S168  1  0.39784605  -0.00115378  0.34870748  1
  S2-  S169  1  0.28626462  -0.00853390  0.85719939  1
  S2-  S170  1  0.45716115  0.26513802  0.36183432  1
  S2-  S171  1  0.28347066  0.21881845  0.84656013  1
  S2-  S172  1  0.32009458  0.48153501  0.35452903  1
  S2-  S173  1  0.38008534  0.40968972  0.85361190  1
  S2-  S174  1  0.40561789  0.73797955  0.35089877  1
  S2-  S175  1  0.34876061  0.74327298  0.84427275  1
  S2-  S176  1  0.60200309  0.09641233  0.34657055  1
  S2-  S177  1  0.63153637  -0.13256901  0.85994824  1
  S2-  S178  1  0.72448656  0.26965582  0.34636307  1
  S2-  S179  1  0.52522681  0.23611330  0.85083195  1
  S2-  S180  1  0.60117789  0.61513677  0.35847608  1
  S2-  S181  1  0.59431180  0.43275579  0.81689908  1
  S2-  S182  1  0.59894870  0.86275405  0.35018847  1
  S2-  S183  1  0.64213054  0.65080653  0.85325356  1
  S2-  S184  1  0.80208753  -0.03950070  0.32461352  1
  S2-  S185  1  0.77330599  0.01661572  0.85661453  1
  S2-  S186  1  0.89991218  0.14664309  0.34992799  1
  S2-  S187  1  0.80044599  0.25600407  0.86060142  1
  S2-  S188  1  0.89101216  0.39453448  0.35499512  1
  S2-  S189  1  0.79333650  0.50223275  0.85314907  1
  S2-  S190  1  0.95037588  0.75497936  0.35046666  1
  S2-  S191  1  0.88635115  0.80398845  0.85291993  1
  S2-  S192  1  -0.00290099  0.12216600  0.45347747  1
  S2-  S193  1  0.01755861  0.12962152  0.95136019  1
  S2-  S194  1  -0.01043889  0.36912780  0.45816209  1
  S2-  S195  1  0.01425413  0.37056693  0.95447138  1
  S2-  S196  1  -0.01013540  0.61674605  0.45042402  1
  S2-  S197  1  0.01971242  0.62296192  0.95157413  1
  S2-  S198  1  -0.00636064  0.86636784  0.45661082  1
  S2-  S199  1  0.01798984  0.86840698  0.95837008  1
  S2-  S200  1  0.23929947  0.11923788  0.45627752  1
  S2-  S201  1  0.26962738  0.12569920  0.95585786  1
  S2-  S202  1  0.24118514  0.36750300  0.46302405  1
  S2-  S203  1  0.27085025  0.37217638  0.96053076  1
  S2-  S204  1  0.22999111  0.62417918  0.45652844  1
  S2-  S205  1  0.26966443  0.61885463  0.94406091  1
  S2-  S206  1  0.23249007  0.86708410  0.45026361  1
  S2-  S207  1  0.27027792  0.87347070  0.96052975  1
  S2-  S208  1  0.48634304  0.11444442  0.45552857  1
  S2-  S209  1  0.52235880  0.11992324  0.94765408  1
  S2-  S210  1  0.48765511  0.37687605  0.46580870  1
  S2-  S211  1  0.52999211  0.37949245  0.94981052  1
  S2-  S212  1  0.48518486  0.62278243  0.46092907  1
  S2-  S213  1  0.51943062  0.61932686  0.95592012  1
  S2-  S214  1  0.48510994  0.86914199  0.45568944  1
  S2-  S215  1  0.51543492  0.87827032  0.95839083  1
  S2-  S216  1  0.74170256  0.11777485  0.44153610  1
  S2-  S217  1  0.76936958  0.12519186  0.96319569  1
  S2-  S218  1  0.73213076  0.37677957  0.45393320  1
  S2-  S219  1  0.76499363  0.37851914  0.95832168  1
  S2-  S220  1  0.73937848  0.62203064  0.45026433  1
  S2-  S221  1  0.76706761  0.62261545  0.96192455  1
  S2-  S222  1  0.74154882  0.86834954  0.44450970  1
  S2-  S223  1  0.77147924  0.87155470  0.96268533  1
  S2-  S224  1  0.14008052  0.00052987  0.03890736  1
  S2-  S225  1  0.11329796  -0.00406092  0.54604612  1
  S2-  S226  1  0.14309389  0.24874500  0.03903675  1
  S2-  S227  1  0.11264170  0.24381361  0.54874115  1
  S2-  S228  1  0.14305235  0.49683958  0.04396036  1
  S2-  S229  1  0.11332427  0.49425329  0.54797182  1
  S2-  S230  1  0.14774208  0.74776042  0.04661332  1
  S2-  S231  1  0.10926095  0.75292497  0.55917077  1
  S2-  S232  1  0.39704595  0.00325859  0.04114010  1
  S2-  S233  1  0.36208042  -0.00615530  0.55081535  1
  S2-  S234  1  0.39490300  0.24984215  0.04271800  1
  S2-  S235  1  0.36361737  0.24643296  0.55244995  1
  S2-  S236  1  0.39419273  0.49680197  0.04493265  1
  S2-  S237  1  0.36101400  0.49702296  0.55920840  1
  S2-  S238  1  0.39100155  0.75022017  0.04908573  1
  S2-  S239  1  0.36089726  0.74838038  0.55058225  1
  S2-  S240  1  0.64304440  -0.00040184  0.04197814  1
  S2-  S241  1  0.61568430  -0.00398195  0.54192190  1
  S2-  S242  1  0.64146748  0.24881222  0.03387840  1
  S2-  S243  1  0.61104393  0.24481433  0.53426226  1
  S2-  S244  1  0.64371616  0.50370056  0.05874854  1
  S2-  S245  1  0.61545737  0.50195093  0.54157412  1
  S2-  S246  1  0.63693018  0.74629079  0.04612630  1
  S2-  S247  1  0.61567551  0.74733371  0.54460510  1
  S2-  S248  1  0.89693730  -0.00431625  0.04237228  1
  S2-  S249  1  0.86494323  0.00043685  0.53392219  1
  S2-  S250  1  0.89260483  0.24855899  0.04464300  1
  S2-  S251  1  0.86563113  0.24202371  0.53219975  1
  S2-  S252  1  0.89412502  0.50904079  0.04256638  1
  S2-  S253  1  0.86093014  0.49998380  0.54013259  1
  S2-  S254  1  0.90068867  0.74514382  0.05121790  1
  S2-  S255  1  0.86440551  0.74588921  0.54172114  1
