# generated using pymatgen
data_La12Ce14Pr13Nd13Sm12(BiS2)64
_symmetry_space_group_name_H-M   'P 1'
_cell_length_a   16.20176257
_cell_length_b   16.21212498
_cell_length_c   27.08714541
_cell_angle_alpha   90.23842763
_cell_angle_beta   89.92803592
_cell_angle_gamma   89.98092015
_symmetry_Int_Tables_number   1
_chemical_formula_structural   La12Ce14Pr13Nd13Sm12(BiS2)64
_chemical_formula_sum   'La12 Ce14 Pr13 Nd13 Sm12 Bi64 S128'
_cell_volume   7114.77741966
_cell_formula_units_Z   1
loop_
 _symmetry_equiv_pos_site_id
 _symmetry_equiv_pos_as_xyz
  1  'x, y, z'
loop_
 _atom_type_symbol
 _atom_type_oxidation_number
  La3+  3.0
  Ce3+  3.0
  Pr3+  3.0
  Nd3+  3.0
  Sm3+  3.0
  Bi2+  2.0
  S2-  -2.0
loop_
 _atom_site_type_symbol
 _atom_site_label
 _atom_site_symmetry_multiplicity
 _atom_site_fract_x
 _atom_site_fract_y
 _atom_site_fract_z
 _atom_site_occupancy
  La3+  La0  1  0.49536088  0.64006104  0.09868632  1
  La3+  La1  1  0.85852605  -0.01734759  0.41391987  1
  La3+  La2  1  0.49658215  0.13519389  0.05804421  1
  La3+  La3  1  0.73436685  0.87265560  0.57384010  1
  La3+  La4  1  0.61577082  0.74269622  0.43170183  1
  La3+  La5  1  0.73842323  0.62264270  0.59075971  1
  La3+  La6  1  0.11903445  -0.01307479  0.42657690  1
  La3+  La7  1  0.73490807  0.38579007  0.07182054  1
  La3+  La8  1  0.36775248  0.75286123  0.93868766  1
  La3+  La9  1  0.24234329  0.14511487  0.07237842  1
  La3+  La10  1  0.11224707  0.25115604  0.92065613  1
  La3+  La11  1  0.61349469  0.24075331  0.43052954  1
  Ce3+  Ce12  1  0.24431665  0.36246092  0.57375195  1
  Ce3+  Ce13  1  0.74616219  0.13211734  0.05449646  1
  Ce3+  Ce14  1  -0.00479693  0.88370232  0.06415712  1
  Ce3+  Ce15  1  0.87049791  0.25857062  0.94210536  1
  Ce3+  Ce16  1  0.74631486  0.88010661  0.05724165  1
  Ce3+  Ce17  1  0.74602158  0.63557512  0.05802725  1
  Ce3+  Ce18  1  0.49382765  0.61931446  0.56222361  1
  Ce3+  Ce19  1  0.86445160  0.74348093  0.44376078  1
  Ce3+  Ce20  1  0.11653921  0.74540470  0.43840012  1
  Ce3+  Ce21  1  0.87387424  0.00468443  0.94329279  1
  Ce3+  Ce22  1  -0.00588122  0.37163171  0.56061239  1
  Ce3+  Ce23  1  0.24296592  0.88193714  0.06403576  1
  Ce3+  Ce24  1  -0.00481602  0.62926507  0.05991328  1
  Ce3+  Ce25  1  0.61617957  -0.00840013  0.43677591  1
  Pr3+  Pr26  1  0.23075219  0.11633326  0.57574341  1
  Pr3+  Pr27  1  0.11938089  0.23846831  0.43822327  1
  Pr3+  Pr28  1  0.86978933  0.24472757  0.43766504  1
  Pr3+  Pr29  1  0.86634912  0.49511725  0.44394317  1
  Pr3+  Pr30  1  0.12105514  0.50791681  0.93735258  1
  Pr3+  Pr31  1  0.62125296  0.00464304  0.94414309  1
  Pr3+  Pr32  1  0.24471205  0.62943328  0.07248491  1
  Pr3+  Pr33  1  -0.00549292  0.14021413  0.07135948  1
  Pr3+  Pr34  1  0.62299090  0.25665602  0.92999890  1
  Pr3+  Pr35  1  0.36980893  0.50474034  0.94358417  1
  Pr3+  Pr36  1  0.11986603  0.49315625  0.44249546  1
  Pr3+  Pr37  1  0.24129141  0.86858924  0.57117178  1
  Pr3+  Pr38  1  0.49424686  0.87991901  0.06270797  1
  Nd3+  Nd39  1  0.36688463  0.49386764  0.44370755  1
  Nd3+  Nd40  1  0.36713584  0.25209735  0.93214617  1
  Nd3+  Nd41  1  0.86889988  0.50718881  0.94158373  1
  Nd3+  Nd42  1  -0.01079536  0.86886088  0.55675490  1
  Nd3+  Nd43  1  0.74297957  0.11857290  0.55211630  1
  Nd3+  Nd44  1  0.36349784  0.24147833  0.44135978  1
  Nd3+  Nd45  1  0.49708256  0.38387526  0.05448397  1
  Nd3+  Nd46  1  0.12099696  0.00662992  0.94726744  1
  Nd3+  Nd47  1  0.61901246  0.75447678  0.93746697  1
  Nd3+  Nd48  1  0.74262583  0.36838122  0.55955853  1
  Nd3+  Nd49  1  0.49296406  0.12166256  0.55990322  1
  Nd3+  Nd50  1  0.61752305  0.49431396  0.43956764  1
  Nd3+  Nd51  1  -0.00652375  0.38277172  0.06241526  1
  Sm3+  Sm52  1  -0.00754118  0.61981913  0.55637086  1
  Sm3+  Sm53  1  0.24519042  0.38225417  0.05198420  1
  Sm3+  Sm54  1  -0.00810295  0.11602302  0.55252219  1
  Sm3+  Sm55  1  0.49355459  0.86820462  0.55743527  1
  Sm3+  Sm56  1  0.87242404  0.75578601  0.94214208  1
  Sm3+  Sm57  1  0.24316869  0.61988845  0.55300615  1
  Sm3+  Sm58  1  0.49419099  0.37065550  0.55103082  1
  Sm3+  Sm59  1  0.36922042  0.00717894  0.95136499  1
  Sm3+  Sm60  1  0.62107435  0.50813945  0.94207119  1
  Sm3+  Sm61  1  0.12076181  0.75553934  0.95118850  1
  Sm3+  Sm62  1  0.36805569  0.74488523  0.44379706  1
  Sm3+  Sm63  1  0.36552445  -0.00768632  0.44843262  1
  Bi2+  Bi64  1  0.01303571  0.14619487  0.29215319  1
  Bi2+  Bi65  1  -0.05530295  0.07116795  0.76193264  1
  Bi2+  Bi66  1  0.06252537  0.39930599  0.25499334  1
  Bi2+  Bi67  1  -0.01179864  0.37393704  0.79581015  1
  Bi2+  Bi68  1  0.03105787  0.66282648  0.30731228  1
  Bi2+  Bi69  1  0.03366617  0.66639603  0.78890206  1
  Bi2+  Bi70  1  -0.00977939  0.85961550  0.29248091  1
  Bi2+  Bi71  1  -0.02062940  0.85758320  0.79371881  1
  Bi2+  Bi72  1  0.26227598  0.15551640  0.29586382  1
  Bi2+  Bi73  1  0.24649399  0.11031875  0.79639519  1
  Bi2+  Bi74  1  0.25973352  0.36900941  0.28965721  1
  Bi2+  Bi75  1  0.27861040  0.38385287  0.79950829  1
  Bi2+  Bi76  1  0.22016850  0.60065954  0.29037361  1
  Bi2+  Bi77  1  0.26424528  0.63974668  0.79333622  1
  Bi2+  Bi78  1  0.25497148  0.86470248  0.29126331  1
  Bi2+  Bi79  1  0.17022255  0.90115238  0.79369851  1
  Bi2+  Bi80  1  0.53222283  0.13475157  0.29764277  1
  Bi2+  Bi81  1  0.48482853  0.06794943  0.78491300  1
  Bi2+  Bi82  1  0.45227238  0.39959202  0.26660643  1
  Bi2+  Bi83  1  0.47709867  0.40754351  0.74378869  1
  Bi2+  Bi84  1  0.50358542  0.61294777  0.30061663  1
  Bi2+  Bi85  1  0.50567483  0.66728843  0.78358279  1
  Bi2+  Bi86  1  0.50162478  0.86175980  0.31095435  1
  Bi2+  Bi87  1  0.49489587  0.86686891  0.78678595  1
  Bi2+  Bi88  1  0.74117224  0.14354350  0.25949054  1
  Bi2+  Bi89  1  0.72532393  0.11550723  0.79439413  1
  Bi2+  Bi90  1  0.73740993  0.39700161  0.29729059  1
  Bi2+  Bi91  1  0.73624166  0.37497700  0.80289431  1
  Bi2+  Bi92  1  0.84017866  0.60170910  0.29725350  1
  Bi2+  Bi93  1  0.76230250  0.61640559  0.80910865  1
  Bi2+  Bi94  1  0.74090090  0.87876274  0.28286742  1
  Bi2+  Bi95  1  0.73147583  0.91896188  0.77079334  1
  Bi2+  Bi96  1  0.10968082  -0.02103336  0.20036859  1
  Bi2+  Bi97  1  0.09538517  0.00097798  0.70121766  1
  Bi2+  Bi98  1  0.13263986  0.23784026  0.20055640  1
  Bi2+  Bi99  1  0.13562121  0.27003067  0.69773563  1
  Bi2+  Bi100  1  0.12744318  0.52862836  0.17322478  1
  Bi2+  Bi101  1  0.12665123  0.51285878  0.73898711  1
  Bi2+  Bi102  1  0.14594379  0.71957414  0.21563329  1
  Bi2+  Bi103  1  0.17270838  0.76696075  0.70800693  1
  Bi2+  Bi104  1  0.39017463  -0.01421070  0.24206405  1
  Bi2+  Bi105  1  0.35520209  -0.04216318  0.72504679  1
  Bi2+  Bi106  1  0.37378694  0.25466566  0.21230083  1
  Bi2+  Bi107  1  0.39333511  0.22035605  0.72947130  1
  Bi2+  Bi108  1  0.31382986  0.49410018  0.20355323  1
  Bi2+  Bi109  1  0.38507861  0.57045984  0.70882297  1
  Bi2+  Bi110  1  0.37571528  0.78860560  0.21526462  1
  Bi2+  Bi111  1  0.36636916  0.76777658  0.69576556  1
  Bi2+  Bi112  1  0.58911881  -0.01473250  0.23345127  1
  Bi2+  Bi113  1  0.63074665  0.01871599  0.69170148  1
  Bi2+  Bi114  1  0.61805736  0.23794137  0.19559371  1
  Bi2+  Bi115  1  0.62240342  0.25115113  0.69142715  1
  Bi2+  Bi116  1  0.67558632  0.48663029  0.20821796  1
  Bi2+  Bi117  1  0.64504955  0.49316759  0.71022702  1
  Bi2+  Bi118  1  0.64538302  0.73506558  0.20697515  1
  Bi2+  Bi119  1  0.62826400  0.75633583  0.71193062  1
  Bi2+  Bi120  1  0.85194634  -0.01209283  0.19368079  1
  Bi2+  Bi121  1  0.83124900  -0.01273493  0.68109908  1
  Bi2+  Bi122  1  0.86785467  0.28978682  0.23655841  1
  Bi2+  Bi123  1  0.85663442  0.24258254  0.75661510  1
  Bi2+  Bi124  1  0.92954342  0.51041280  0.20627269  1
  Bi2+  Bi125  1  0.93844885  0.48774481  0.70645286  1
  Bi2+  Bi126  1  0.87691665  0.74911600  0.22437174  1
  Bi2+  Bi127  1  0.90741622  0.74180039  0.71115871  1
  S2-  S128  1  -0.02226115  0.07788665  0.16953448  1
  S2-  S129  1  0.07031196  0.13165726  0.64053271  1
  S2-  S130  1  0.01357508  0.27638339  0.13917577  1
  S2-  S131  1  -0.01509044  0.34293236  0.65734781  1
  S2-  S132  1  -0.04329769  0.65708345  0.15392127  1
  S2-  S133  1  -0.00330980  0.63381152  0.65443456  1
  S2-  S134  1  -0.02455900  0.87848018  0.16249420  1
  S2-  S135  1  -0.02493015  0.88766318  0.65629905  1
  S2-  S136  1  0.21463523  0.08428264  0.16831267  1
  S2-  S137  1  0.27156668  0.22733131  0.65155104  1
  S2-  S138  1  0.25495115  0.29305587  0.13536356  1
  S2-  S139  1  0.20476003  0.40934862  0.66843113  1
  S2-  S140  1  0.34769684  0.64760507  0.15422978  1
  S2-  S141  1  0.24785340  0.64088046  0.65022021  1
  S2-  S142  1  0.21852280  0.85885306  0.16047126  1
  S2-  S143  1  0.23987864  0.98698235  0.64612299  1
  S2-  S144  1  0.48310673  0.15657238  0.15778249  1
  S2-  S145  1  0.49613713  0.13043196  0.65974892  1
  S2-  S146  1  0.59061635  0.37649014  0.13966953  1
  S2-  S147  1  0.50165127  0.35455174  0.64812613  1
  S2-  S148  1  0.54621306  0.59427394  0.19636629  1
  S2-  S149  1  0.58410891  0.61992502  0.64626285  1
  S2-  S150  1  0.51265337  0.79541330  0.15052460  1
  S2-  S151  1  0.58091156  0.87672812  0.64214164  1
  S2-  S152  1  0.74575652  0.13012112  0.15284429  1
  S2-  S153  1  0.74063045  0.14384005  0.65101449  1
  S2-  S154  1  0.81602709  0.38965156  0.16343744  1
  S2-  S155  1  0.72520538  0.36283575  0.65978211  1
  S2-  S156  1  0.73281159  0.62013034  0.15551572  1
  S2-  S157  1  0.78826872  0.56059065  0.68514785  1
  S2-  S158  1  0.73656310  0.86400543  0.15479526  1
  S2-  S159  1  0.76384898  0.76330909  0.65198455  1
  S2-  S160  1  0.14941655  0.06341772  0.33595134  1
  S2-  S161  1  0.12360292  0.04670946  0.85023886  1
  S2-  S162  1  0.14550842  0.26789340  0.33993619  1
  S2-  S163  1  0.17585886  0.24919141  0.82395969  1
  S2-  S164  1  0.10443428  0.50655616  0.34194930  1
  S2-  S165  1  0.12541971  0.45559017  0.84158727  1
  S2-  S166  1  0.13415023  0.84723025  0.35860773  1
  S2-  S167  1  0.15399052  0.72425540  0.85684096  1
  S2-  S168  1  0.36431437  -0.03100120  0.35021907  1
  S2-  S169  1  0.36590157  0.01991984  0.85366471  1
  S2-  S170  1  0.40873681  0.21963354  0.34589470  1
  S2-  S171  1  0.39119858  0.26991679  0.83409453  1
  S2-  S172  1  0.39390179  0.50412172  0.34531629  1
  S2-  S173  1  0.35168506  0.51448535  0.84375362  1
  S2-  S174  1  0.40097900  0.73251032  0.34709758  1
  S2-  S175  1  0.38850088  0.76446566  0.83866384  1
  S2-  S176  1  0.70933208  -0.01187403  0.35419419  1
  S2-  S177  1  0.62092875  -0.00470119  0.84407836  1
  S2-  S178  1  0.65132399  0.25166725  0.33276859  1
  S2-  S179  1  0.62905429  0.25173444  0.82860605  1
  S2-  S180  1  0.61760561  0.51262503  0.34007789  1
  S2-  S181  1  0.64058411  0.49568060  0.84366726  1
  S2-  S182  1  0.62152784  0.73798960  0.32912055  1
  S2-  S183  1  0.64966001  0.72504189  0.83963941  1
  S2-  S184  1  0.94270510  0.01142887  0.32457928  1
  S2-  S185  1  0.89043477  -0.02369534  0.84714718  1
  S2-  S186  1  0.89608355  0.22816912  0.33810339  1
  S2-  S187  1  0.96428518  0.24511882  0.86031993  1
  S2-  S188  1  0.87229766  0.45349098  0.34563232  1
  S2-  S189  1  0.86784336  0.48709447  0.84133163  1
  S2-  S190  1  0.85399734  0.82190637  0.35646992  1
  S2-  S191  1  0.87146344  0.71773070  0.84542576  1
  S2-  S192  1  -0.00831144  0.11470845  0.44789134  1
  S2-  S193  1  -0.00649261  0.12764610  0.96188460  1
  S2-  S194  1  -0.00440908  0.36865742  0.45198827  1
  S2-  S195  1  -0.00592997  0.38575926  0.95560600  1
  S2-  S196  1  -0.00700869  0.61930808  0.45124421  1
  S2-  S197  1  -0.00435405  0.63230414  0.95209077  1
  S2-  S198  1  -0.01101671  0.86743313  0.45186303  1
  S2-  S199  1  -0.00179848  0.87735658  0.95515684  1
  S2-  S200  1  0.24420914  0.11531112  0.45868365  1
  S2-  S201  1  0.24672045  0.13089948  0.95795587  1
  S2-  S202  1  0.24371556  0.36822075  0.45682982  1
  S2-  S203  1  0.24454295  0.37780654  0.94774279  1
  S2-  S204  1  0.24453804  0.62169305  0.44779433  1
  S2-  S205  1  0.24395116  0.62953470  0.96199817  1
  S2-  S206  1  0.24809530  0.86652813  0.46268019  1
  S2-  S207  1  0.24471691  0.88195705  0.95541449  1
  S2-  S208  1  0.48957545  0.11508229  0.45255639  1
  S2-  S209  1  0.49528759  0.13090545  0.94886542  1
  S2-  S210  1  0.49065991  0.36877377  0.44570159  1
  S2-  S211  1  0.49772063  0.38143894  0.94722058  1
  S2-  S212  1  0.49058730  0.61826515  0.45509394  1
  S2-  S213  1  0.49677940  0.62884562  0.94456544  1
  S2-  S214  1  0.49023225  0.86885739  0.45338716  1
  S2-  S215  1  0.49351474  0.88208701  0.95405807  1
  S2-  S216  1  0.74419740  0.12113841  0.44669314  1
  S2-  S217  1  0.74726044  0.13027792  0.94668906  1
  S2-  S218  1  0.74115219  0.36782859  0.45199945  1
  S2-  S219  1  0.74351016  0.38405611  0.95646294  1
  S2-  S220  1  0.74095965  0.61810116  0.44859324  1
  S2-  S221  1  0.74564370  0.63264844  0.95220383  1
  S2-  S222  1  0.73748194  0.86662956  0.46110295  1
  S2-  S223  1  0.74670145  0.87734016  0.94868178  1
  S2-  S224  1  0.11958609  0.00975980  0.05367762  1
  S2-  S225  1  0.11327976  -0.00955135  0.53951906  1
  S2-  S226  1  0.12062443  0.26171511  0.03355454  1
  S2-  S227  1  0.11595499  0.24655266  0.54421810  1
  S2-  S228  1  0.12121829  0.50326896  0.04501546  1
  S2-  S229  1  0.11972648  0.49790299  0.55042712  1
  S2-  S230  1  0.11943831  0.75471266  0.05558676  1
  S2-  S231  1  0.11735696  0.74344449  0.54743227  1
  S2-  S232  1  0.36845036  0.00882441  0.05739155  1
  S2-  S233  1  0.37235281  -0.00677291  0.55275131  1
  S2-  S234  1  0.37474033  0.26173474  0.03922732  1
  S2-  S235  1  0.37228448  0.24571585  0.54617448  1
  S2-  S236  1  0.37227363  0.50547754  0.05110713  1
  S2-  S237  1  0.36671822  0.49320412  0.55151591  1
  S2-  S238  1  0.36985310  0.75609132  0.04752671  1
  S2-  S239  1  0.36876734  0.74507623  0.54952916  1
  S2-  S240  1  0.61987985  0.00525223  0.05211615  1
  S2-  S241  1  0.61480371  -0.00195682  0.54231994  1
  S2-  S242  1  0.62123704  0.25596264  0.03777962  1
  S2-  S243  1  0.61713318  0.24564055  0.54046498  1
  S2-  S244  1  0.61193805  0.51872289  0.04749068  1
  S2-  S245  1  0.61961618  0.49176304  0.54637394  1
  S2-  S246  1  0.61854447  0.75502994  0.04442372  1
  S2-  S247  1  0.61522150  0.74296368  0.54159014  1
  S2-  S248  1  0.86973617  0.00675640  0.04966244  1
  S2-  S249  1  0.86698709  -0.00510308  0.54173235  1
  S2-  S250  1  0.86413960  0.26062561  0.04792770  1
  S2-  S251  1  0.86982588  0.24256870  0.54605115  1
  S2-  S252  1  0.86819466  0.50653931  0.04891233  1
  S2-  S253  1  0.86555082  0.49757507  0.55220129  1
  S2-  S254  1  0.87194085  0.75781083  0.04745926  1
  S2-  S255  1  0.86748765  0.74087352  0.54853395  1
