# generated using pymatgen
data_La12Ce14Pr13Nd13Sm12(BiS2)64
_symmetry_space_group_name_H-M   'P 1'
_cell_length_a   16.14835321
_cell_length_b   16.04612543
_cell_length_c   27.30178994
_cell_angle_alpha   89.84898956
_cell_angle_beta   89.72699178
_cell_angle_gamma   89.84228541
_symmetry_Int_Tables_number   1
_chemical_formula_structural   La12Ce14Pr13Nd13Sm12(BiS2)64
_chemical_formula_sum   'La12 Ce14 Pr13 Nd13 Sm12 Bi64 S128'
_cell_volume   7074.26744551
_cell_formula_units_Z   1
loop_
 _symmetry_equiv_pos_site_id
 _symmetry_equiv_pos_as_xyz
  1  'x, y, z'
loop_
 _atom_type_symbol
 _atom_type_oxidation_number
  La3+  3.0
  Ce3+  3.0
  Pr3+  3.0
  Nd3+  3.0
  Sm3+  3.0
  Bi2+  2.0
  S2-  -2.0
loop_
 _atom_site_type_symbol
 _atom_site_label
 _atom_site_symmetry_multiplicity
 _atom_site_fract_x
 _atom_site_fract_y
 _atom_site_fract_z
 _atom_site_occupancy
  La3+  La0  1  0.25610302  0.36942962  0.57417716  1
  La3+  La1  1  0.75618393  0.87026023  0.10067858  1
  La3+  La2  1  0.76104684  0.36413993  0.60165747  1
  La3+  La3  1  -0.00378838  0.61740756  0.56894371  1
  La3+  La4  1  0.25912498  0.11931850  0.56698957  1
  La3+  La5  1  0.87918023  0.50314760  0.93175879  1
  La3+  La6  1  0.38904532  0.74604226  0.92946112  1
  La3+  La7  1  0.00278941  0.87722263  0.56661471  1
  La3+  La8  1  0.25637628  0.12417063  0.06965792  1
  La3+  La9  1  0.50416939  0.37200837  0.57270495  1
  La3+  La10  1  0.61486134  0.49788129  0.88651157  1
  La3+  La11  1  0.75383171  0.11643412  0.56861942  1
  Ce3+  Ce12  1  0.13031878  0.74678254  0.44881863  1
  Ce3+  Ce13  1  0.12971966  0.75638921  0.92901493  1
  Ce3+  Ce14  1  0.25593042  0.38021678  0.05356405  1
  Ce3+  Ce15  1  0.88289973  0.74976680  0.43489576  1
  Ce3+  Ce16  1  0.00737963  0.87590279  0.06794603  1
  Ce3+  Ce17  1  0.38035942  0.24596934  0.43427604  1
  Ce3+  Ce18  1  0.25847482  0.87454456  0.05001421  1
  Ce3+  Ce19  1  0.88177326  0.25161884  0.94498561  1
  Ce3+  Ce20  1  -0.00036719  0.37121104  0.55284495  1
  Ce3+  Ce21  1  0.50922102  0.62930932  0.05888048  1
  Ce3+  Ce22  1  0.13334264  -0.00391464  0.43936820  1
  Ce3+  Ce23  1  0.87537429  -0.00803831  0.42550717  1
  Ce3+  Ce24  1  0.13153728  0.25114546  0.94231332  1
  Ce3+  Ce25  1  0.75603792  0.62878334  0.06203355  1
  Pr3+  Pr26  1  0.63503724  0.74978015  0.94182014  1
  Pr3+  Pr27  1  0.50807093  0.13048019  0.07929327  1
  Pr3+  Pr28  1  0.88133811  0.00332320  0.94660653  1
  Pr3+  Pr29  1  0.75721438  0.37718994  0.06096945  1
  Pr3+  Pr30  1  0.37786454  0.49981902  0.42775074  1
  Pr3+  Pr31  1  0.13194293  0.49788228  0.43615826  1
  Pr3+  Pr32  1  0.00793737  0.12426743  0.07041438  1
  Pr3+  Pr33  1  0.50503295  0.62035828  0.56090600  1
  Pr3+  Pr34  1  0.48983600  0.87115211  0.09830741  1
  Pr3+  Pr35  1  0.50700017  0.37595994  0.05898881  1
  Pr3+  Pr36  1  0.75650616  0.13319786  0.08251728  1
  Pr3+  Pr37  1  0.25813294  0.87343353  0.56602626  1
  Pr3+  Pr38  1  0.63306328  0.00243987  0.95659392  1
  Nd3+  Nd39  1  0.01068267  0.62838160  0.06098725  1
  Nd3+  Nd40  1  0.13277637  0.24541987  0.43668865  1
  Nd3+  Nd41  1  0.75539519  0.61954929  0.55791249  1
  Nd3+  Nd42  1  0.38562383  -0.00448888  0.41850614  1
  Nd3+  Nd43  1  0.38378228  0.24523866  0.93445256  1
  Nd3+  Nd44  1  0.50420240  0.87216913  0.55557200  1
  Nd3+  Nd45  1  0.63671900  0.24497230  0.93449965  1
  Nd3+  Nd46  1  0.87506976  0.24636507  0.43463047  1
  Nd3+  Nd47  1  0.25852308  0.62763827  0.05118383  1
  Nd3+  Nd48  1  0.88585475  0.50171238  0.42459683  1
  Nd3+  Nd49  1  0.63166438  0.49545801  0.44571036  1
  Nd3+  Nd50  1  0.25576171  0.62039192  0.56558647  1
  Nd3+  Nd51  1  0.63191175  -0.00470643  0.42673947  1
  Sm3+  Sm52  1  0.37851745  0.74833707  0.43341833  1
  Sm3+  Sm53  1  0.63317644  0.25057385  0.44210045  1
  Sm3+  Sm54  1  0.13141362  -0.00143093  0.93635826  1
  Sm3+  Sm55  1  0.75630299  0.87354980  0.55905279  1
  Sm3+  Sm56  1  0.38214689  0.49066459  0.93408662  1
  Sm3+  Sm57  1  0.63100176  0.74583735  0.44327141  1
  Sm3+  Sm58  1  0.01017035  0.38071870  0.05870702  1
  Sm3+  Sm59  1  0.12710873  0.50930558  0.92450516  1
  Sm3+  Sm60  1  0.00055989  0.12213307  0.54522078  1
  Sm3+  Sm61  1  0.88257465  0.75393767  0.94902817  1
  Sm3+  Sm62  1  0.38626148  0.00608619  0.94047523  1
  Sm3+  Sm63  1  0.50578006  0.12136667  0.55013537  1
  Bi2+  Bi64  1  0.00382208  0.08176953  0.28763694  1
  Bi2+  Bi65  1  0.04868231  0.06160424  0.80753392  1
  Bi2+  Bi66  1  -0.02002479  0.41672988  0.27356967  1
  Bi2+  Bi67  1  -0.01832170  0.34608379  0.79469607  1
  Bi2+  Bi68  1  0.01887534  0.64364823  0.29379402  1
  Bi2+  Bi69  1  0.01465261  0.62657045  0.79243072  1
  Bi2+  Bi70  1  0.01076841  0.86841348  0.27724266  1
  Bi2+  Bi71  1  0.08355702  0.83161616  0.71895543  1
  Bi2+  Bi72  1  0.21695940  0.14412199  0.29219957  1
  Bi2+  Bi73  1  0.24195023  0.10009675  0.78999111  1
  Bi2+  Bi74  1  0.29251190  0.40871309  0.26591897  1
  Bi2+  Bi75  1  0.22841836  0.38157655  0.78820106  1
  Bi2+  Bi76  1  0.25055411  0.61891594  0.29728387  1
  Bi2+  Bi77  1  0.25686075  0.63320636  0.77114618  1
  Bi2+  Bi78  1  0.23666972  0.82899415  0.23706166  1
  Bi2+  Bi79  1  0.23343150  0.90247106  0.78862353  1
  Bi2+  Bi80  1  0.46390476  0.17526560  0.27989452  1
  Bi2+  Bi81  1  0.50854088  0.08122126  0.79628923  1
  Bi2+  Bi82  1  0.45208969  0.36079345  0.32543784  1
  Bi2+  Bi83  1  0.47825837  0.38531750  0.78706246  1
  Bi2+  Bi84  1  0.49640964  0.55474988  0.28745135  1
  Bi2+  Bi85  1  0.48242891  0.68145296  0.79132386  1
  Bi2+  Bi86  1  0.49133766  0.85204351  0.29767472  1
  Bi2+  Bi87  1  0.50665622  0.88443376  0.79629726  1
  Bi2+  Bi88  1  0.81699029  0.15420604  0.30420761  1
  Bi2+  Bi89  1  0.77110933  0.12002522  0.80396881  1
  Bi2+  Bi90  1  0.74448345  0.39700988  0.31436540  1
  Bi2+  Bi91  1  0.73679208  0.37582772  0.78417857  1
  Bi2+  Bi92  1  0.76464261  0.61270850  0.28497309  1
  Bi2+  Bi93  1  0.77366525  0.66041014  0.79865470  1
  Bi2+  Bi94  1  0.75127189  0.86275745  0.29763922  1
  Bi2+  Bi95  1  0.70634945  0.85594266  0.80152810  1
  Bi2+  Bi96  1  0.11769222  -0.02243926  0.19895247  1
  Bi2+  Bi97  1  0.13143888  0.02142127  0.70343565  1
  Bi2+  Bi98  1  0.07804389  0.25109085  0.23859169  1
  Bi2+  Bi99  1  0.10931153  0.29606775  0.71157314  1
  Bi2+  Bi100  1  0.12407756  0.48688799  0.18783348  1
  Bi2+  Bi101  1  0.12284730  0.50378467  0.71948916  1
  Bi2+  Bi102  1  0.07783915  0.75083154  0.18565674  1
  Bi2+  Bi103  1  0.24996268  0.75215507  0.67904015  1
  Bi2+  Bi104  1  0.34105155  -0.01270289  0.21690549  1
  Bi2+  Bi105  1  0.38575532  -0.02599069  0.71985427  1
  Bi2+  Bi106  1  0.35801865  0.25822070  0.19565182  1
  Bi2+  Bi107  1  0.36037201  0.22214803  0.70699319  1
  Bi2+  Bi108  1  0.42238593  0.47846140  0.18571037  1
  Bi2+  Bi109  1  0.36271362  0.49482019  0.71188457  1
  Bi2+  Bi110  1  0.36108405  0.66499135  0.20814347  1
  Bi2+  Bi111  1  0.43800503  0.70302374  0.67904491  1
  Bi2+  Bi112  1  0.60735844  0.03914737  0.23745397  1
  Bi2+  Bi113  1  0.66104094  0.00911269  0.73111966  1
  Bi2+  Bi114  1  0.60455923  0.30382956  0.25618813  1
  Bi2+  Bi115  1  0.61692797  0.20919006  0.70037129  1
  Bi2+  Bi116  1  0.61777205  0.47265086  0.19112409  1
  Bi2+  Bi117  1  0.66105781  0.59450679  0.69652023  1
  Bi2+  Bi118  1  0.61933818  0.66921077  0.21742081  1
  Bi2+  Bi119  1  0.61457797  0.78991797  0.70193426  1
  Bi2+  Bi120  1  0.85634158  0.01123886  0.21983306  1
  Bi2+  Bi121  1  0.87472897  -0.00135824  0.70028074  1
  Bi2+  Bi122  1  0.86582092  0.26843541  0.20706960  1
  Bi2+  Bi123  1  0.94836162  0.18352332  0.73369401  1
  Bi2+  Bi124  1  0.81664730  0.47274013  0.21081154  1
  Bi2+  Bi125  1  0.90473600  0.52395689  0.69961140  1
  Bi2+  Bi126  1  0.88478462  0.75037738  0.21625280  1
  Bi2+  Bi127  1  0.89334218  0.83085188  0.76016787  1
  S2-  S128  1  -0.10656541  0.12288479  0.15071740  1
  S2-  S129  1  -0.00882515  0.09307829  0.64194780  1
  S2-  S130  1  0.01204080  0.35065560  0.15626659  1
  S2-  S131  1  -0.06652684  0.38758344  0.64171908  1
  S2-  S132  1  0.00506045  0.59106437  0.15916364  1
  S2-  S133  1  0.03417373  0.62787507  0.66730689  1
  S2-  S134  1  -0.08786950  0.88541439  0.15146333  1
  S2-  S135  1  -0.07575177  0.85182324  0.65518593  1
  S2-  S136  1  0.13181901  0.11724607  0.14491589  1
  S2-  S137  1  0.22741787  0.23089698  0.64491927  1
  S2-  S138  1  0.23307449  0.36162422  0.14911862  1
  S2-  S139  1  0.38511609  0.35412182  0.65053165  1
  S2-  S140  1  0.23159000  0.60276842  0.14935085  1
  S2-  S141  1  0.24199372  0.50757739  0.64159559  1
  S2-  S142  1  0.31927290  0.86579432  0.14074152  1
  S2-  S143  1  0.27114795  0.99211548  0.64160997  1
  S2-  S144  1  0.37111299  0.10134942  0.14649667  1
  S2-  S145  1  0.47664868  0.14208697  0.64778518  1
  S2-  S146  1  0.49504145  0.27892526  0.14289474  1
  S2-  S147  1  0.60452810  0.34540491  0.65389290  1
  S2-  S148  1  0.50098519  0.71343318  0.14629075  1
  S2-  S149  1  0.50635348  0.54284397  0.65158000  1
  S2-  S150  1  0.49819999  0.92397610  0.19848983  1
  S2-  S151  1  0.50036453  0.89756517  0.65425495  1
  S2-  S152  1  0.62974019  0.10744951  0.15530242  1
  S2-  S153  1  0.76304775  0.21021688  0.65544586  1
  S2-  S154  1  0.74457769  0.28299922  0.14607296  1
  S2-  S155  1  0.75774259  0.44721956  0.69457523  1
  S2-  S156  1  0.75217791  0.70718968  0.15062520  1
  S2-  S157  1  0.80991619  0.64284651  0.65149772  1
  S2-  S158  1  0.70727330  0.91511230  0.19985993  1
  S2-  S159  1  0.74250322  0.97920214  0.63702326  1
  S2-  S160  1  0.14645593  0.01228320  0.34208735  1
  S2-  S161  1  0.11071833  -0.11265944  0.85909679  1
  S2-  S162  1  0.13767809  0.27164293  0.33755689  1
  S2-  S163  1  0.11468341  0.28221770  0.84608468  1
  S2-  S164  1  0.02277787  0.50174807  0.35392926  1
  S2-  S165  1  0.00072489  0.49126387  0.85339416  1
  S2-  S166  1  0.13423593  0.72355563  0.35101811  1
  S2-  S167  1  0.14120002  0.64271046  0.85218857  1
  S2-  S168  1  0.36224196  -0.14125950  0.35446981  1
  S2-  S169  1  0.38183877  0.11428762  0.86159536  1
  S2-  S170  1  0.35563060  0.13607345  0.35654741  1
  S2-  S171  1  0.36012383  0.34355018  0.85198291  1
  S2-  S172  1  0.24519441  0.48226830  0.35668383  1
  S2-  S173  1  0.44921015  0.53064131  0.84632692  1
  S2-  S174  1  0.39137034  0.63545188  0.35646944  1
  S2-  S175  1  0.34077871  0.74998856  0.83246929  1
  S2-  S176  1  0.52580627  -0.01143410  0.34506645  1
  S2-  S177  1  0.63831033  0.09999873  0.86964003  1
  S2-  S178  1  0.67131180  0.23195630  0.34539020  1
  S2-  S179  1  0.60387004  0.32761066  0.84619155  1
  S2-  S180  1  0.64225078  0.52650948  0.34722786  1
  S2-  S181  1  0.61349359  0.48833550  0.77474233  1
  S2-  S182  1  0.63037303  0.77818143  0.34536236  1
  S2-  S183  1  0.63261828  0.66999945  0.85109246  1
  S2-  S184  1  0.75113253  0.00773277  0.35168168  1
  S2-  S185  1  0.89216896  0.01963217  0.84532198  1
  S2-  S186  1  0.89316870  0.30566158  0.34029627  1
  S2-  S187  1  0.82349171  0.26014837  0.85221406  1
  S2-  S188  1  0.87858510  0.64062101  0.35704955  1
  S2-  S189  1  0.78064160  0.50488839  0.84612383  1
  S2-  S190  1  0.89469628  0.86161695  0.35622263  1
  S2-  S191  1  0.91189407  0.73672049  0.85186910  1
  S2-  S192  1  0.00328328  0.12113723  0.44063366  1
  S2-  S193  1  0.00999836  0.12485696  0.95751231  1
  S2-  S194  1  0.00424001  0.36813882  0.44905859  1
  S2-  S195  1  0.00773880  0.37693015  0.95491496  1
  S2-  S196  1  0.00585873  0.62427269  0.46080427  1
  S2-  S197  1  0.00766932  0.63069621  0.95590650  1
  S2-  S198  1  0.00961006  0.87427356  0.45753757  1
  S2-  S199  1  0.00420278  0.87789987  0.96190914  1
  S2-  S200  1  0.25353736  0.11984222  0.45755558  1
  S2-  S201  1  0.25201210  0.12201258  0.95818512  1
  S2-  S202  1  0.25607851  0.36669915  0.45852176  1
  S2-  S203  1  0.24836310  0.38185805  0.94936638  1
  S2-  S204  1  0.25538932  0.62484924  0.45997222  1
  S2-  S205  1  0.26166459  0.62140320  0.94674738  1
  S2-  S206  1  0.25517771  0.87164083  0.45893169  1
  S2-  S207  1  0.26432206  0.87974225  0.94577304  1
  S2-  S208  1  0.51127185  0.12564533  0.44659818  1
  S2-  S209  1  0.50597196  0.12639386  0.96761562  1
  S2-  S210  1  0.50650737  0.37241901  0.45528452  1
  S2-  S211  1  0.50765421  0.37471392  0.95254876  1
  S2-  S212  1  0.50893688  0.62337131  0.45505573  1
  S2-  S213  1  0.51151066  0.61786035  0.95373232  1
  S2-  S214  1  0.50676277  0.86709550  0.45153490  1
  S2-  S215  1  0.50868290  0.87994353  0.93849741  1
  S2-  S216  1  0.75313359  0.12318243  0.45623785  1
  S2-  S217  1  0.76138375  0.12732561  0.97024589  1
  S2-  S218  1  0.75795617  0.37519712  0.44625045  1
  S2-  S219  1  0.75503980  0.37658096  0.95522996  1
  S2-  S220  1  0.75359530  0.62280361  0.45328266  1
  S2-  S221  1  0.76179309  0.63025881  0.95798952  1
  S2-  S222  1  0.75142508  0.86897955  0.45606887  1
  S2-  S223  1  0.75879249  0.87630157  0.94873059  1
  S2-  S224  1  0.13176794  -0.00378716  0.04132753  1
  S2-  S225  1  0.12754987  -0.00122388  0.54508242  1
  S2-  S226  1  0.13034201  0.25456702  0.04629398  1
  S2-  S227  1  0.12252217  0.24459714  0.54194122  1
  S2-  S228  1  0.13121113  0.50435250  0.03657485  1
  S2-  S229  1  0.12463309  0.49560307  0.54385874  1
  S2-  S230  1  0.13347462  0.75188927  0.03987478  1
  S2-  S231  1  0.12832297  0.74726978  0.55541259  1
  S2-  S232  1  0.38801096  -0.00673539  0.04292353  1
  S2-  S233  1  0.38583538  -0.00369379  0.53506677  1
  S2-  S234  1  0.37549499  0.25370876  0.04034553  1
  S2-  S235  1  0.38271145  0.24387972  0.53958304  1
  S2-  S236  1  0.38265578  0.50311659  0.04128882  1
  S2-  S237  1  0.38006646  0.49867919  0.53966815  1
  S2-  S238  1  0.38497482  0.75159268  0.03771495  1
  S2-  S239  1  0.37964478  0.74671548  0.54259094  1
  S2-  S240  1  0.62535940  -0.01730496  0.06079290  1
  S2-  S241  1  0.62579689  -0.00572477  0.53636715  1
  S2-  S242  1  0.63216146  0.25151769  0.04202260  1
  S2-  S243  1  0.63078779  0.24467315  0.54464454  1
  S2-  S244  1  0.63242568  0.50352011  0.05838328  1
  S2-  S245  1  0.63752811  0.49203574  0.55068388  1
  S2-  S246  1  0.63154999  0.75792285  0.04799268  1
  S2-  S247  1  0.63226096  0.74836622  0.54932087  1
  S2-  S248  1  0.87617237  -0.00322197  0.05195304  1
  S2-  S249  1  0.87925366  -0.00452275  0.53527333  1
  S2-  S250  1  0.88984850  0.25613553  0.04851190  1
  S2-  S251  1  0.87734708  0.24523489  0.54162922  1
  S2-  S252  1  0.88448444  0.50329455  0.04759042  1
  S2-  S253  1  0.87463811  0.49472883  0.53798639  1
  S2-  S254  1  0.88308230  0.75214591  0.05214068  1
  S2-  S255  1  0.87728591  0.74963958  0.54302877  1
