# generated using pymatgen
data_La12Ce14Pr13Nd13Sm12(BiS2)64
_symmetry_space_group_name_H-M   'P 1'
_cell_length_a   16.15501182
_cell_length_b   16.11140182
_cell_length_c   27.19193972
_cell_angle_alpha   90.12769679
_cell_angle_beta   90.26988474
_cell_angle_gamma   89.99214704
_symmetry_Int_Tables_number   1
_chemical_formula_structural   La12Ce14Pr13Nd13Sm12(BiS2)64
_chemical_formula_sum   'La12 Ce14 Pr13 Nd13 Sm12 Bi64 S128'
_cell_volume   7077.41884310
_cell_formula_units_Z   1
loop_
 _symmetry_equiv_pos_site_id
 _symmetry_equiv_pos_as_xyz
  1  'x, y, z'
loop_
 _atom_type_symbol
 _atom_type_oxidation_number
  La3+  3.0
  Ce3+  3.0
  Pr3+  3.0
  Nd3+  3.0
  Sm3+  3.0
  Bi2+  2.0
  S2-  -2.0
loop_
 _atom_site_type_symbol
 _atom_site_label
 _atom_site_symmetry_multiplicity
 _atom_site_fract_x
 _atom_site_fract_y
 _atom_site_fract_z
 _atom_site_occupancy
  La3+  La0  1  0.75152774  0.62887413  0.06901726  1
  La3+  La1  1  0.89474473  0.25472865  0.43058468  1
  La3+  La2  1  0.60937665  0.25382669  0.92073396  1
  La3+  La3  1  0.49363891  0.87287425  0.11617677  1
  La3+  La4  1  0.38265127  0.00043806  0.43334305  1
  La3+  La5  1  0.63912107  0.74217524  0.42076096  1
  La3+  La6  1  0.01118784  0.38393767  0.57521295  1
  La3+  La7  1  0.74765077  0.11522824  0.60694429  1
  La3+  La8  1  0.13762671  0.74480893  0.43525710  1
  La3+  La9  1  0.64286640  0.01296449  0.41134709  1
  La3+  La10  1  0.11627646  0.75600693  0.91326598  1
  La3+  La11  1  0.26909513  0.63371405  0.58932805  1
  Ce3+  Ce12  1  0.88737311  0.50436701  0.44828934  1
  Ce3+  Ce13  1  0.51546478  0.37302681  0.55760142  1
  Ce3+  Ce14  1  0.36675677  0.25331191  0.94294472  1
  Ce3+  Ce15  1  0.25743051  0.12336949  0.55841286  1
  Ce3+  Ce16  1  0.37005215  -0.00047498  0.94522200  1
  Ce3+  Ce17  1  0.88534906  0.74905032  0.44606454  1
  Ce3+  Ce18  1  0.76298785  0.36920968  0.55861225  1
  Ce3+  Ce19  1  0.63719203  0.50194551  0.44331883  1
  Ce3+  Ce20  1  0.12667576  -0.00456415  0.43095663  1
  Ce3+  Ce21  1  0.26211562  0.87545593  0.55681439  1
  Ce3+  Ce22  1  0.51625297  0.87931485  0.54509462  1
  Ce3+  Ce23  1  0.49529907  0.37462036  0.06428968  1
  Ce3+  Ce24  1  0.13478159  0.25378280  0.44507962  1
  Ce3+  Ce25  1  -0.00576602  0.37835920  0.05668122  1
  Pr3+  Pr26  1  0.61495913  0.00185605  0.94091770  1
  Pr3+  Pr27  1  0.88602565  0.00278935  0.43481545  1
  Pr3+  Pr28  1  0.49654833  0.62866780  0.06302052  1
  Pr3+  Pr29  1  0.86867047  0.75200000  0.93249996  1
  Pr3+  Pr30  1  0.38483476  0.73760189  0.43434834  1
  Pr3+  Pr31  1  0.36710567  0.50491974  0.93868959  1
  Pr3+  Pr32  1  0.11365597  0.50494231  0.90238330  1
  Pr3+  Pr33  1  -0.00550416  0.12692806  0.05839662  1
  Pr3+  Pr34  1  0.26536025  0.36733363  0.57758571  1
  Pr3+  Pr35  1  0.01151685  0.63323248  0.57642937  1
  Pr3+  Pr36  1  0.61896493  0.75276607  0.94435998  1
  Pr3+  Pr37  1  0.51600345  0.63189987  0.57093336  1
  Pr3+  Pr38  1  0.24469023  0.87424717  0.06523812  1
  Nd3+  Nd39  1  0.51308486  0.12519179  0.55121114  1
  Nd3+  Nd40  1  0.86765927  0.00228820  0.93849041  1
  Nd3+  Nd41  1  0.00610358  0.12765945  0.56564879  1
  Nd3+  Nd42  1  0.24355044  0.62971946  0.05693141  1
  Nd3+  Nd43  1  0.74348553  0.13043956  0.05477136  1
  Nd3+  Nd44  1  0.11841025  -0.00142664  0.93815321  1
  Nd3+  Nd45  1  0.38289761  0.25343706  0.43523855  1
  Nd3+  Nd46  1  0.01136766  0.87746787  0.56710709  1
  Nd3+  Nd47  1  -0.00711047  0.87458019  0.06454790  1
  Nd3+  Nd48  1  0.74649320  0.88119661  0.06985255  1
  Nd3+  Nd49  1  0.86972562  0.50183410  0.93515516  1
  Nd3+  Nd50  1  0.24548504  0.12513232  0.05531691  1
  Nd3+  Nd51  1  0.49660877  0.12747101  0.06794741  1
  Sm3+  Sm52  1  0.36905898  0.75165602  0.94273316  1
  Sm3+  Sm53  1  0.87896584  0.25242652  0.93100455  1
  Sm3+  Sm54  1  0.11867416  0.25313510  0.94215816  1
  Sm3+  Sm55  1  -0.00296586  0.62778276  0.05145043  1
  Sm3+  Sm56  1  0.13889828  0.50719738  0.45432287  1
  Sm3+  Sm57  1  0.74679682  0.37508252  0.04704334  1
  Sm3+  Sm58  1  0.24268176  0.38058659  0.05296202  1
  Sm3+  Sm59  1  0.61847298  0.50231923  0.94704124  1
  Sm3+  Sm60  1  0.64178258  0.25307712  0.43645565  1
  Sm3+  Sm61  1  0.75779227  0.88306994  0.54997659  1
  Sm3+  Sm62  1  0.75711810  0.62969880  0.56626443  1
  Sm3+  Sm63  1  0.38562873  0.50144086  0.45305719  1
  Bi2+  Bi64  1  0.00210395  0.14472462  0.28918348  1
  Bi2+  Bi65  1  0.04656317  0.09712768  0.78859975  1
  Bi2+  Bi66  1  0.00357599  0.39093674  0.28881208  1
  Bi2+  Bi67  1  0.00485353  0.35845673  0.78898604  1
  Bi2+  Bi68  1  0.02789475  0.67759966  0.24432944  1
  Bi2+  Bi69  1  -0.06206550  0.61902190  0.77502083  1
  Bi2+  Bi70  1  -0.00189871  0.88467398  0.28182438  1
  Bi2+  Bi71  1  -0.00558761  0.88043015  0.78587017  1
  Bi2+  Bi72  1  0.19630455  0.14549645  0.28064719  1
  Bi2+  Bi73  1  0.24079709  0.12707303  0.79347661  1
  Bi2+  Bi74  1  0.28788334  0.38883003  0.29726398  1
  Bi2+  Bi75  1  0.26603197  0.31708072  0.76475125  1
  Bi2+  Bi76  1  0.25088266  0.63448502  0.30269575  1
  Bi2+  Bi77  1  0.27253067  0.61027362  0.78211932  1
  Bi2+  Bi78  1  0.21563278  0.87667460  0.27682205  1
  Bi2+  Bi79  1  0.23241166  0.90838495  0.76959302  1
  Bi2+  Bi80  1  0.46712287  0.12924565  0.30354946  1
  Bi2+  Bi81  1  0.50576922  0.11527661  0.80861901  1
  Bi2+  Bi82  1  0.50110299  0.37959280  0.30477726  1
  Bi2+  Bi83  1  0.49843421  0.39342444  0.79581553  1
  Bi2+  Bi84  1  0.49338654  0.57970654  0.28919941  1
  Bi2+  Bi85  1  0.49125427  0.63299059  0.81471250  1
  Bi2+  Bi86  1  0.47389847  0.86404429  0.31880411  1
  Bi2+  Bi87  1  0.49869188  0.89253622  0.78842217  1
  Bi2+  Bi88  1  0.75407271  0.14157995  0.28834458  1
  Bi2+  Bi89  1  0.75627937  0.09835088  0.81339573  1
  Bi2+  Bi90  1  0.71531448  0.39668911  0.29528118  1
  Bi2+  Bi91  1  0.80388076  0.39235547  0.78389178  1
  Bi2+  Bi92  1  0.78593130  0.58148626  0.30393090  1
  Bi2+  Bi93  1  0.77654247  0.70636783  0.81083728  1
  Bi2+  Bi94  1  0.80245699  0.85784912  0.28950685  1
  Bi2+  Bi95  1  0.76474147  0.86397856  0.73872762  1
  Bi2+  Bi96  1  0.11088797  0.01587569  0.20834289  1
  Bi2+  Bi97  1  0.19184765  -0.01431963  0.66222561  1
  Bi2+  Bi98  1  0.15346746  0.30960062  0.22246980  1
  Bi2+  Bi99  1  0.13775021  0.17001881  0.69434398  1
  Bi2+  Bi100  1  0.13746865  0.50995992  0.24471076  1
  Bi2+  Bi101  1  0.12101271  0.45699245  0.70829848  1
  Bi2+  Bi102  1  0.10543607  0.82323792  0.18213553  1
  Bi2+  Bi103  1  0.13507417  0.76687881  0.71454550  1
  Bi2+  Bi104  1  0.34688434  0.03645160  0.20889861  1
  Bi2+  Bi105  1  0.37764824  -0.00050736  0.70784704  1
  Bi2+  Bi106  1  0.40423575  0.27745464  0.21606267  1
  Bi2+  Bi107  1  0.39690760  0.19488358  0.72159757  1
  Bi2+  Bi108  1  0.38540232  0.47543566  0.20457054  1
  Bi2+  Bi109  1  0.44364669  0.48863034  0.70467839  1
  Bi2+  Bi110  1  0.34805056  0.73390579  0.20683883  1
  Bi2+  Bi111  1  0.39810532  0.78416558  0.70937768  1
  Bi2+  Bi112  1  0.64055827  0.01569285  0.21379594  1
  Bi2+  Bi113  1  0.59620118  -0.02633650  0.69972484  1
  Bi2+  Bi114  1  0.61175187  0.27374062  0.22497903  1
  Bi2+  Bi115  1  0.63143843  0.24795889  0.71321517  1
  Bi2+  Bi116  1  0.58506391  0.47314430  0.20889147  1
  Bi2+  Bi117  1  0.64839124  0.49427091  0.74235095  1
  Bi2+  Bi118  1  0.61871530  0.74266360  0.22345320  1
  Bi2+  Bi119  1  0.63388940  0.71504294  0.73001440  1
  Bi2+  Bi120  1  0.88621065  0.02514144  0.20453370  1
  Bi2+  Bi121  1  1.00180794  -0.01076055  0.69121887  1
  Bi2+  Bi122  1  0.87341779  0.27711686  0.19332410  1
  Bi2+  Bi123  1  0.89014376  0.25615824  0.71237002  1
  Bi2+  Bi124  1  0.85922904  0.46483111  0.21749194  1
  Bi2+  Bi125  1  0.82853685  0.51032557  0.69344722  1
  Bi2+  Bi126  1  0.85760788  0.73806691  0.20022597  1
  Bi2+  Bi127  1  0.84603863  0.70795610  0.68851438  1
  S2-  S128  1  -0.02268242  0.14478881  0.15757574  1
  S2-  S129  1  -0.09222234  0.12481412  0.64905345  1
  S2-  S130  1  -0.01379564  0.38476716  0.15406488  1
  S2-  S131  1  0.03938306  0.31067143  0.66791586  1
  S2-  S132  1  -0.04400137  0.63365654  0.14709930  1
  S2-  S133  1  0.00008864  0.51388605  0.65199270  1
  S2-  S134  1  -0.12095660  0.88586831  0.14044641  1
  S2-  S135  1  0.01459890  0.76491370  0.64772783  1
  S2-  S136  1  0.24787461  0.12287516  0.15487356  1
  S2-  S137  1  0.28315320  0.21801744  0.63942906  1
  S2-  S138  1  0.26250332  0.37987659  0.15071440  1
  S2-  S139  1  0.28246829  0.42174276  0.67533434  1
  S2-  S140  1  0.23630949  0.66319171  0.15519105  1
  S2-  S141  1  0.19141072  0.60857113  0.68547314  1
  S2-  S142  1  0.32659135  0.88796024  0.15405275  1
  S2-  S143  1  0.26801108  0.79154347  0.64387276  1
  S2-  S144  1  0.50077808  0.03953060  0.15590560  1
  S2-  S145  1  0.57993177  0.12622118  0.64343335  1
  S2-  S146  1  0.51476434  0.25952979  0.13750908  1
  S2-  S147  1  0.52832674  0.35935297  0.65525425  1
  S2-  S148  1  0.49470552  0.69895156  0.15413368  1
  S2-  S149  1  0.41358747  0.63265330  0.65470186  1
  S2-  S150  1  0.48404922  0.85311061  0.22504320  1
  S2-  S151  1  0.51666033  0.85743389  0.64307406  1
  S2-  S152  1  0.74636068  0.10277273  0.15472688  1
  S2-  S153  1  0.73596442  0.11554002  0.71933036  1
  S2-  S154  1  0.75899166  0.36863965  0.14515330  1
  S2-  S155  1  0.75715117  0.29049513  0.64720235  1
  S2-  S156  1  0.71972059  0.64367743  0.16808301  1
  S2-  S157  1  0.64551121  0.64559044  0.64076668  1
  S2-  S158  1  0.65824953  0.87466856  0.15782120  1
  S2-  S159  1  0.74237337  0.94180308  0.64248626  1
  S2-  S160  1  0.00322958  0.02881789  0.35726757  1
  S2-  S161  1  0.13146724  -0.09700038  0.85421733  1
  S2-  S162  1  0.04028606  0.26606708  0.36275963  1
  S2-  S163  1  0.04259160  0.23534272  0.85472747  1
  S2-  S164  1  0.13555585  0.60463131  0.37047319  1
  S2-  S165  1  0.16283703  0.41793655  0.81706828  1
  S2-  S166  1  0.12348656  0.86260693  0.35730623  1
  S2-  S167  1  0.14891009  0.63826641  0.83771310  1
  S2-  S168  1  0.36361576  0.00165626  0.33194789  1
  S2-  S169  1  0.39379484  -0.00764283  0.84851418  1
  S2-  S170  1  0.32810981  0.22707931  0.34067336  1
  S2-  S171  1  0.44985087  0.25760648  0.85857094  1
  S2-  S172  1  0.38183581  0.58803069  0.36758153  1
  S2-  S173  1  0.37241731  0.49616801  0.83753452  1
  S2-  S174  1  0.32217963  0.78295910  0.34069459  1
  S2-  S175  1  0.35604834  0.72312519  0.84427973  1
  S2-  S176  1  0.57264009  -0.00155477  0.31320033  1
  S2-  S177  1  0.62865452  -0.00905379  0.83996788  1
  S2-  S178  1  0.61771245  0.17762885  0.34834956  1
  S2-  S179  1  0.63686701  0.22836176  0.81981148  1
  S2-  S180  1  0.63273392  0.59208401  0.35907141  1
  S2-  S181  1  0.60809571  0.50035535  0.84893956  1
  S2-  S182  1  0.63936730  0.80091437  0.32310482  1
  S2-  S183  1  0.57800549  0.75895974  0.84560557  1
  S2-  S184  1  0.78474572  -0.00037269  0.34685508  1
  S2-  S185  1  0.88126413  -0.01555087  0.84015785  1
  S2-  S186  1  0.81558058  0.26716000  0.33653623  1
  S2-  S187  1  0.83923976  0.24458991  0.83561034  1
  S2-  S188  1  0.91409839  0.49570271  0.35165130  1
  S2-  S189  1  0.95872139  0.50123487  0.84923453  1
  S2-  S190  1  0.85808276  0.72390003  0.35002493  1
  S2-  S191  1  0.96803004  0.75391304  0.84897532  1
  S2-  S192  1  0.01409715  0.12790814  0.46133647  1
  S2-  S193  1  -0.00461684  0.12445489  0.95234948  1
  S2-  S194  1  0.01651575  0.38602008  0.46455323  1
  S2-  S195  1  -0.00208085  0.37896232  0.95076416  1
  S2-  S196  1  0.00894700  0.62592640  0.46911809  1
  S2-  S197  1  -0.00289901  0.62509577  0.94919456  1
  S2-  S198  1  0.00633175  0.87203945  0.46038643  1
  S2-  S199  1  -0.00840642  0.87927447  0.95745903  1
  S2-  S200  1  0.25598818  0.12536174  0.45039909  1
  S2-  S201  1  0.24041258  0.12688004  0.94818800  1
  S2-  S202  1  0.26058008  0.37966013  0.45821522  1
  S2-  S203  1  0.23854261  0.37991117  0.94676543  1
  S2-  S204  1  0.26522107  0.62287136  0.47383605  1
  S2-  S205  1  0.24119812  0.62776396  0.95096210  1
  S2-  S206  1  0.26159586  0.87498639  0.45322168  1
  S2-  S207  1  0.24606174  0.87357786  0.95682898  1
  S2-  S208  1  0.50755635  0.12934464  0.44599000  1
  S2-  S209  1  0.49144417  0.12786175  0.95873724  1
  S2-  S210  1  0.51029176  0.37545443  0.44930020  1
  S2-  S211  1  0.49316712  0.38225809  0.95737688  1
  S2-  S212  1  0.51326030  0.62187007  0.46391790  1
  S2-  S213  1  0.49451484  0.62646756  0.95594633  1
  S2-  S214  1  0.51218534  0.87415609  0.43805010  1
  S2-  S215  1  0.49170382  0.87392895  0.95060664  1
  S2-  S216  1  0.76516344  0.13480618  0.44549367  1
  S2-  S217  1  0.74444308  0.13174935  0.94668621  1
  S2-  S218  1  0.76171069  0.37801124  0.45170493  1
  S2-  S219  1  0.74424145  0.37665703  0.94178560  1
  S2-  S220  1  0.76195198  0.62468114  0.46144998  1
  S2-  S221  1  0.74450438  0.62400521  0.95544307  1
  S2-  S222  1  0.75933793  0.87370727  0.44618948  1
  S2-  S223  1  0.74464234  0.87788373  0.95308965  1
  S2-  S224  1  0.11882778  0.00008805  0.04638655  1
  S2-  S225  1  0.13161211  0.00069749  0.54097011  1
  S2-  S226  1  0.12194700  0.25306759  0.04756190  1
  S2-  S227  1  0.13455795  0.25113280  0.54919583  1
  S2-  S228  1  0.11987167  0.50420634  0.05358259  1
  S2-  S229  1  0.14650909  0.50279394  0.55827959  1
  S2-  S230  1  0.11680267  0.75211505  0.04247299  1
  S2-  S231  1  0.13687387  0.75305401  0.54557144  1
  S2-  S232  1  0.37069459  0.00267793  0.04942369  1
  S2-  S233  1  0.38697267  0.00235432  0.54341622  1
  S2-  S234  1  0.36466899  0.25398256  0.04696329  1
  S2-  S235  1  0.38955943  0.25026580  0.54061906  1
  S2-  S236  1  0.36904721  0.50313724  0.04724236  1
  S2-  S237  1  0.38938110  0.49534899  0.55574677  1
  S2-  S238  1  0.37145655  0.75233739  0.04724819  1
  S2-  S239  1  0.39246185  0.75598870  0.54170327  1
  S2-  S240  1  0.62234594  0.00410325  0.04716099  1
  S2-  S241  1  0.63757008  0.00531534  0.53098567  1
  S2-  S242  1  0.62345633  0.25511335  0.03381818  1
  S2-  S243  1  0.63833016  0.24778169  0.53992284  1
  S2-  S244  1  0.62338230  0.50077556  0.05228389  1
  S2-  S245  1  0.63940834  0.49713935  0.54949834  1
  S2-  S246  1  0.62317614  0.75328815  0.05042720  1
  S2-  S247  1  0.64010992  0.75644350  0.53476180  1
  S2-  S248  1  0.86854157  0.00631393  0.04348622  1
  S2-  S249  1  0.88607609  -0.00108188  0.54341635  1
  S2-  S250  1  0.87032064  0.25250515  0.03835943  1
  S2-  S251  1  0.89346106  0.25789660  0.54275419  1
  S2-  S252  1  0.87029283  0.50178328  0.04206527  1
  S2-  S253  1  0.87820111  0.50578594  0.55275648  1
  S2-  S254  1  0.87135970  0.75138284  0.03983764  1
  S2-  S255  1  0.87835082  0.75520779  0.55074806  1
