# generated using pymatgen
data_La12Ce14Pr13Nd13Sm12(BiS2)64
_symmetry_space_group_name_H-M   'P 1'
_cell_length_a   16.15331152
_cell_length_b   16.16551291
_cell_length_c   27.28327250
_cell_angle_alpha   90.00390977
_cell_angle_beta   89.90414203
_cell_angle_gamma   89.99250086
_symmetry_Int_Tables_number   1
_chemical_formula_structural   La12Ce14Pr13Nd13Sm12(BiS2)64
_chemical_formula_sum   'La12 Ce14 Pr13 Nd13 Sm12 Bi64 S128'
_cell_volume   7124.37720559
_cell_formula_units_Z   1
loop_
 _symmetry_equiv_pos_site_id
 _symmetry_equiv_pos_as_xyz
  1  'x, y, z'
loop_
 _atom_type_symbol
 _atom_type_oxidation_number
  La3+  3.0
  Ce3+  3.0
  Pr3+  3.0
  Nd3+  3.0
  Sm3+  3.0
  Bi2+  2.0
  S2-  -2.0
loop_
 _atom_site_type_symbol
 _atom_site_label
 _atom_site_symmetry_multiplicity
 _atom_site_fract_x
 _atom_site_fract_y
 _atom_site_fract_z
 _atom_site_occupancy
  La3+  La0  1  0.49665679  0.60187281  0.09994710  1
  La3+  La1  1  0.75573759  0.37173688  0.58202319  1
  La3+  La2  1  0.62458929  0.74103877  0.38726921  1
  La3+  La3  1  0.49686747  0.37637110  0.56525933  1
  La3+  La4  1  0.75749599  0.60972473  0.06883922  1
  La3+  La5  1  0.62967033  0.24275245  0.43647448  1
  La3+  La6  1  0.39692570  0.74727099  0.90926397  1
  La3+  La7  1  0.00987306  0.62623949  0.57096734  1
  La3+  La8  1  0.74699326  0.11400832  0.58977525  1
  La3+  La9  1  0.27073801  0.60614062  0.61303236  1
  La3+  La10  1  0.00459840  0.12805004  0.56538734  1
  La3+  La11  1  0.63574522  0.48725814  0.92774666  1
  Ce3+  Ce12  1  0.13890199  -0.01312218  0.94803306  1
  Ce3+  Ce13  1  0.62818142  0.49967299  0.44507106  1
  Ce3+  Ce14  1  0.26677275  0.85924037  0.05694359  1
  Ce3+  Ce15  1  0.01153259  0.86165979  0.05836774  1
  Ce3+  Ce16  1  0.51583393  0.11791837  0.05651222  1
  Ce3+  Ce17  1  0.51547840  0.36397340  0.05692830  1
  Ce3+  Ce18  1  0.76041221  0.36060468  0.05034840  1
  Ce3+  Ce19  1  0.25023915  0.86286380  0.55709160  1
  Ce3+  Ce20  1  0.87356163  0.74563069  0.44174773  1
  Ce3+  Ce21  1  0.88494927  0.73710519  0.93675112  1
  Ce3+  Ce22  1  0.49964406  0.62725738  0.55377163  1
  Ce3+  Ce23  1  0.88803873  0.48760605  0.94006553  1
  Ce3+  Ce24  1  0.64274849  0.23194404  0.91731688  1
  Ce3+  Ce25  1  0.63392367  -0.00671974  0.42633727  1
  Pr3+  Pr26  1  0.26437697  0.36598992  0.06950397  1
  Pr3+  Pr27  1  0.64011272  0.73677636  0.93983139  1
  Pr3+  Pr28  1  0.74808953  0.87272727  0.56075665  1
  Pr3+  Pr29  1  0.00404557  0.87001340  0.56023139  1
  Pr3+  Pr30  1  0.89173737  0.22958273  0.91756550  1
  Pr3+  Pr31  1  0.00681952  0.61420121  0.06849171  1
  Pr3+  Pr32  1  0.37791932  0.50053721  0.43283075  1
  Pr3+  Pr33  1  0.12722665  0.24323018  0.42140994  1
  Pr3+  Pr34  1  0.12701372  0.74368881  0.42972612  1
  Pr3+  Pr35  1  0.24682248  0.37211671  0.55623135  1
  Pr3+  Pr36  1  0.50905412  0.86483732  0.07301690  1
  Pr3+  Pr37  1  0.63531805  -0.01037787  0.94367437  1
  Pr3+  Pr38  1  0.26396474  0.11278982  0.06206329  1
  Nd3+  Nd39  1  0.01362686  0.11396003  0.06406095  1
  Nd3+  Nd40  1  0.26408882  0.61399845  0.05162590  1
  Nd3+  Nd41  1  0.37285151  0.74715914  0.43032837  1
  Nd3+  Nd42  1  0.87114307  0.24478218  0.44084605  1
  Nd3+  Nd43  1  0.38630250  0.48257534  0.92876961  1
  Nd3+  Nd44  1  0.13812237  0.49053176  0.94382390  1
  Nd3+  Nd45  1  0.38821666  -0.00915892  0.94055644  1
  Nd3+  Nd46  1  0.74914475  0.62439268  0.56228183  1
  Nd3+  Nd47  1  0.37791374  -0.00417203  0.44026596  1
  Nd3+  Nd48  1  0.12328328  -0.00214708  0.43366406  1
  Nd3+  Nd49  1  0.50015231  0.11931917  0.56093065  1
  Nd3+  Nd50  1  0.76324017  0.11668647  0.05992192  1
  Nd3+  Nd51  1  0.00971251  0.36208064  0.05916599  1
  Sm3+  Sm52  1  0.12724483  0.49583374  0.43564617  1
  Sm3+  Sm53  1  0.37486718  0.24669593  0.44853042  1
  Sm3+  Sm54  1  0.13573634  0.73785669  0.94275785  1
  Sm3+  Sm55  1  0.87377480  0.49826211  0.44506747  1
  Sm3+  Sm56  1  0.89020369  -0.01028055  0.94543211  1
  Sm3+  Sm57  1  0.76215705  0.86381115  0.06170831  1
  Sm3+  Sm58  1  0.38480022  0.24268579  0.94311918  1
  Sm3+  Sm59  1  0.00133005  0.37317979  0.54669529  1
  Sm3+  Sm60  1  0.24711374  0.12000097  0.55997028  1
  Sm3+  Sm61  1  0.87234114  -0.00315067  0.44554569  1
  Sm3+  Sm62  1  0.13488238  0.23926876  0.94134449  1
  Sm3+  Sm63  1  0.50042416  0.87018823  0.55313608  1
  Bi2+  Bi64  1  -0.02094984  0.12507432  0.30233276  1
  Bi2+  Bi65  1  0.02316782  0.09936687  0.79239480  1
  Bi2+  Bi66  1  -0.01444540  0.31491622  0.28810593  1
  Bi2+  Bi67  1  -0.03229928  0.34692868  0.78933371  1
  Bi2+  Bi68  1  0.01962336  0.68135588  0.28534221  1
  Bi2+  Bi69  1  -0.01961070  0.65071655  0.78612337  1
  Bi2+  Bi70  1  0.06523760  0.86796085  0.32367568  1
  Bi2+  Bi71  1  -0.03064640  0.84942308  0.79224990  1
  Bi2+  Bi72  1  0.25018944  0.19097537  0.29666092  1
  Bi2+  Bi73  1  0.25449707  0.15927921  0.80679898  1
  Bi2+  Bi74  1  0.14474433  0.43060031  0.26350632  1
  Bi2+  Bi75  1  0.23312969  0.35249799  0.79564829  1
  Bi2+  Bi76  1  0.24381012  0.62349193  0.29145114  1
  Bi2+  Bi77  1  0.23399553  0.60967283  0.81369800  1
  Bi2+  Bi78  1  0.25535521  0.89939812  0.29130751  1
  Bi2+  Bi79  1  0.24545846  0.94869649  0.78489157  1
  Bi2+  Bi80  1  0.49187379  0.13456558  0.28561543  1
  Bi2+  Bi81  1  0.45205280  0.12075108  0.79562798  1
  Bi2+  Bi82  1  0.55637398  0.32563635  0.27472807  1
  Bi2+  Bi83  1  0.48636989  0.31209126  0.78178274  1
  Bi2+  Bi84  1  0.49631719  0.61217467  0.28628418  1
  Bi2+  Bi85  1  0.50928513  0.64128741  0.79097823  1
  Bi2+  Bi86  1  0.48887399  0.88292665  0.28063426  1
  Bi2+  Bi87  1  0.54607421  0.93023976  0.81081128  1
  Bi2+  Bi88  1  0.74751091  0.13750671  0.29800958  1
  Bi2+  Bi89  1  0.76594798  0.09636307  0.78769383  1
  Bi2+  Bi90  1  0.79398361  0.38395303  0.28524569  1
  Bi2+  Bi91  1  0.73688916  0.38322999  0.78840920  1
  Bi2+  Bi92  1  0.76030032  0.61389709  0.29181406  1
  Bi2+  Bi93  1  0.78264288  0.62817093  0.79254906  1
  Bi2+  Bi94  1  0.87531756  0.88306074  0.29968885  1
  Bi2+  Bi95  1  0.76740807  0.87173880  0.78492850  1
  Bi2+  Bi96  1  0.11042294  -0.00167238  0.22430551  1
  Bi2+  Bi97  1  0.15460298  0.01406385  0.68525386  1
  Bi2+  Bi98  1  0.09983226  0.19937488  0.21428461  1
  Bi2+  Bi99  1  0.12196571  0.23529867  0.72991006  1
  Bi2+  Bi100  1  0.10454112  0.60238222  0.18794582  1
  Bi2+  Bi101  1  0.04265311  0.47936636  0.71644079  1
  Bi2+  Bi102  1  0.11512966  0.79548135  0.20140583  1
  Bi2+  Bi103  1  0.11980258  0.83469097  0.71369064  1
  Bi2+  Bi104  1  0.30393556  0.02519515  0.20679338  1
  Bi2+  Bi105  1  0.35066124  0.02238811  0.69785557  1
  Bi2+  Bi106  1  0.38535013  0.26736509  0.21917961  1
  Bi2+  Bi107  1  0.35710618  0.21472173  0.70848952  1
  Bi2+  Bi108  1  0.35801722  0.45866785  0.21012520  1
  Bi2+  Bi109  1  0.38081714  0.47602902  0.71852115  1
  Bi2+  Bi110  1  0.31313691  0.73032525  0.20116708  1
  Bi2+  Bi111  1  0.37354799  0.75507511  0.71414027  1
  Bi2+  Bi112  1  0.63120525  0.06319610  0.21622015  1
  Bi2+  Bi113  1  0.60691448  -0.02764329  0.70146169  1
  Bi2+  Bi114  1  0.57129769  0.24021864  0.17206566  1
  Bi2+  Bi115  1  0.62493287  0.19526882  0.73385031  1
  Bi2+  Bi116  1  0.64944568  0.46503786  0.21510225  1
  Bi2+  Bi117  1  0.60187811  0.54238884  0.69077454  1
  Bi2+  Bi118  1  0.63863865  0.76966698  0.18331065  1
  Bi2+  Bi119  1  0.59328404  0.78527183  0.72878954  1
  Bi2+  Bi120  1  0.91134676  0.01199172  0.21667915  1
  Bi2+  Bi121  1  0.89382509  -0.01767450  0.71714484  1
  Bi2+  Bi122  1  0.85231078  0.28015531  0.19106014  1
  Bi2+  Bi123  1  0.88722375  0.25315137  0.70548797  1
  Bi2+  Bi124  1  0.93882494  0.50842862  0.21455218  1
  Bi2+  Bi125  1  0.86687060  0.55750754  0.69645939  1
  Bi2+  Bi126  1  0.87872031  0.75331264  0.21108445  1
  Bi2+  Bi127  1  0.86294389  0.76628622  0.70032369  1
  S2-  S128  1  -0.03943565  0.14567411  0.15674413  1
  S2-  S129  1  -0.09372766  0.11630451  0.64978459  1
  S2-  S130  1  -0.01536237  0.37921725  0.15755584  1
  S2-  S131  1  -0.02197594  0.36524333  0.64373260  1
  S2-  S132  1  -0.11659142  0.62355924  0.14406924  1
  S2-  S133  1  0.10538475  0.57936641  0.65064809  1
  S2-  S134  1  -0.02679687  0.86473736  0.15327519  1
  S2-  S135  1  0.00713503  0.77091516  0.64369521  1
  S2-  S136  1  0.24797427  0.16845038  0.15629562  1
  S2-  S137  1  0.14102706  0.16617426  0.63285537  1
  S2-  S138  1  0.22478534  0.39348367  0.16767424  1
  S2-  S139  1  0.28345389  0.43356803  0.64760664  1
  S2-  S140  1  0.32128704  0.58603775  0.14364804  1
  S2-  S141  1  0.27719013  0.61024186  0.72074899  1
  S2-  S142  1  0.31715860  0.88634050  0.14896601  1
  S2-  S143  1  0.25029650  0.77839034  0.64399858  1
  S2-  S144  1  0.48963799  0.09138502  0.15123507  1
  S2-  S145  1  0.58428027  0.11439666  0.64769311  1
  S2-  S146  1  0.49215968  0.44196500  0.14402762  1
  S2-  S147  1  0.51714633  0.40508962  0.66453494  1
  S2-  S148  1  0.47195551  0.68745374  0.19266845  1
  S2-  S149  1  0.44653077  0.62242183  0.64744509  1
  S2-  S150  1  0.53247404  0.88927215  0.17524326  1
  S2-  S151  1  0.49019536  0.85374735  0.65338839  1
  S2-  S152  1  0.73659414  0.15779084  0.15615687  1
  S2-  S153  1  0.74121922  0.24859065  0.65563862  1
  S2-  S154  1  0.75286869  0.40147660  0.14590017  1
  S2-  S155  1  0.73081411  0.44569202  0.68124318  1
  S2-  S156  1  0.65298536  0.59946419  0.15075275  1
  S2-  S157  1  0.72431995  0.66097649  0.65986422  1
  S2-  S158  1  0.75522674  0.87532296  0.15987439  1
  S2-  S159  1  0.75145536  0.96236298  0.64785908  1
  S2-  S160  1  0.13168331  0.10504293  0.35522089  1
  S2-  S161  1  0.11773190  -0.01220921  0.85076438  1
  S2-  S162  1  0.18090874  0.33537950  0.33834113  1
  S2-  S163  1  0.03833401  0.23561114  0.85885451  1
  S2-  S164  1  0.11189198  0.54783752  0.34123692  1
  S2-  S165  1  0.13830465  0.46376431  0.84546478  1
  S2-  S166  1  0.24888102  0.74930103  0.35327556  1
  S2-  S167  1  0.11231009  0.71951233  0.84608147  1
  S2-  S168  1  0.38288332  -0.02022505  0.33979226  1
  S2-  S169  1  0.38877104  -0.08117789  0.85135785  1
  S2-  S170  1  0.38808358  0.22838188  0.35244944  1
  S2-  S171  1  0.37239151  0.33785229  0.86115223  1
  S2-  S172  1  0.37531493  0.51670488  0.33087944  1
  S2-  S173  1  0.39240102  0.53909597  0.83207356  1
  S2-  S174  1  0.46097738  0.74561173  0.34059177  1
  S2-  S175  1  0.33317012  0.73705912  0.81245110  1
  S2-  S176  1  0.60769398  -0.09816635  0.34273473  1
  S2-  S177  1  0.63810876  0.07443272  0.85514570  1
  S2-  S178  1  0.60879417  0.12409076  0.35862797  1
  S2-  S179  1  0.61209199  0.36554423  0.84911828  1
  S2-  S180  1  0.62630929  0.55908896  0.35263915  1
  S2-  S181  1  0.64586934  0.56890766  0.83381374  1
  S2-  S182  1  0.64072013  0.72088890  0.27958085  1
  S2-  S183  1  0.54726425  0.77044248  0.85597917  1
  S2-  S184  1  0.79634481  0.00996052  0.35715336  1
  S2-  S185  1  0.89307126  0.07145383  0.85869343  1
  S2-  S186  1  0.76133844  0.26758819  0.36387523  1
  S2-  S187  1  0.76926940  0.24602463  0.84302800  1
  S2-  S188  1  0.86666010  0.50161511  0.34652970  1
  S2-  S189  1  0.86303043  0.45758028  0.84351928  1
  S2-  S190  1  0.79950506  0.74403003  0.35361505  1
  S2-  S191  1  0.76945484  0.74961116  0.86388246  1
  S2-  S192  1  -0.00464784  0.12142813  0.45392843  1
  S2-  S193  1  0.01644946  0.11076918  0.95993553  1
  S2-  S194  1  -0.00159033  0.37213797  0.44156017  1
  S2-  S195  1  0.01437310  0.36474338  0.95424749  1
  S2-  S196  1  0.00035677  0.61941835  0.45325272  1
  S2-  S197  1  0.01230900  0.61423148  0.95677446  1
  S2-  S198  1  -0.00122282  0.87398389  0.45297802  1
  S2-  S199  1  0.01157965  0.86236214  0.95188200  1
  S2-  S200  1  0.25372892  0.12161495  0.45642751  1
  S2-  S201  1  0.26149917  0.11698336  0.95343720  1
  S2-  S202  1  0.25451742  0.37434457  0.44996828  1
  S2-  S203  1  0.25518073  0.36130800  0.96121982  1
  S2-  S204  1  0.24895999  0.61608373  0.44520511  1
  S2-  S205  1  0.26377297  0.61799752  0.94597699  1
  S2-  S206  1  0.24848141  0.87683250  0.45102896  1
  S2-  S207  1  0.26262974  0.85898084  0.95058156  1
  S2-  S208  1  0.49504428  0.12182293  0.45799631  1
  S2-  S209  1  0.50747674  0.11928358  0.95020544  1
  S2-  S210  1  0.50070581  0.37083670  0.45315373  1
  S2-  S211  1  0.51120051  0.35947147  0.95390473  1
  S2-  S212  1  0.50358230  0.62592604  0.44948194  1
  S2-  S213  1  0.50709031  0.61282975  0.94246958  1
  S2-  S214  1  0.49954005  0.87009049  0.45011405  1
  S2-  S215  1  0.51048025  0.86729984  0.96369939  1
  S2-  S216  1  0.75322196  0.11912114  0.46450351  1
  S2-  S217  1  0.76617325  0.11172738  0.95597609  1
  S2-  S218  1  0.75199822  0.37811851  0.46583387  1
  S2-  S219  1  0.76754684  0.35999436  0.94814620  1
  S2-  S220  1  0.75124938  0.62131911  0.45691912  1
  S2-  S221  1  0.76474197  0.61051116  0.95773586  1
  S2-  S222  1  0.75202245  0.86922029  0.45543365  1
  S2-  S223  1  0.76436441  0.87144242  0.95704838  1
  S2-  S224  1  0.13852256  -0.01297791  0.05618063  1
  S2-  S225  1  0.12763775  -0.00406074  0.54086591  1
  S2-  S226  1  0.13706397  0.24000200  0.04740150  1
  S2-  S227  1  0.12547355  0.25155633  0.52851199  1
  S2-  S228  1  0.13496455  0.48955552  0.05038352  1
  S2-  S229  1  0.12421359  0.49284813  0.53935747  1
  S2-  S230  1  0.13676442  0.73681348  0.04904244  1
  S2-  S231  1  0.12577718  0.74722453  0.53530402  1
  S2-  S232  1  0.38902650  -0.00855120  0.04559303  1
  S2-  S233  1  0.37243667  -0.00420968  0.54854207  1
  S2-  S234  1  0.38619346  0.24072771  0.04818199  1
  S2-  S235  1  0.37228412  0.24399203  0.55405198  1
  S2-  S236  1  0.38502452  0.48681821  0.03711542  1
  S2-  S237  1  0.37357247  0.50112520  0.54095267  1
  S2-  S238  1  0.39147142  0.73399293  0.05202272  1
  S2-  S239  1  0.37653270  0.74762775  0.53846110  1
  S2-  S240  1  0.63957054  -0.01025511  0.05154880  1
  S2-  S241  1  0.62040271  -0.00596001  0.54102190  1
  S2-  S242  1  0.63882165  0.23750161  0.03570790  1
  S2-  S243  1  0.62018693  0.25040412  0.54767205  1
  S2-  S244  1  0.63386064  0.48751344  0.03909619  1
  S2-  S245  1  0.62675767  0.49832296  0.55182271  1
  S2-  S246  1  0.63656157  0.74360647  0.04950844  1
  S2-  S247  1  0.62370261  0.74911034  0.55368225  1
  S2-  S248  1  0.88677148  -0.01004874  0.05040873  1
  S2-  S249  1  0.88027695  -0.00534597  0.54756086  1
  S2-  S250  1  0.88945920  0.23703212  0.04177444  1
  S2-  S251  1  0.87647482  0.24997373  0.54502857  1
  S2-  S252  1  0.88791890  0.48593424  0.04517966  1
  S2-  S253  1  0.87860942  0.50045290  0.55057276  1
  S2-  S254  1  0.88491509  0.74241243  0.04291637  1
  S2-  S255  1  0.87375480  0.74704037  0.54675951  1
