# generated using pymatgen
data_La12Ce14Pr13Nd13Sm12(BiS2)64
_symmetry_space_group_name_H-M   'P 1'
_cell_length_a   16.12919157
_cell_length_b   16.11982832
_cell_length_c   27.17371650
_cell_angle_alpha   90.39582051
_cell_angle_beta   90.03850681
_cell_angle_gamma   89.95040574
_symmetry_Int_Tables_number   1
_chemical_formula_structural   La12Ce14Pr13Nd13Sm12(BiS2)64
_chemical_formula_sum   'La12 Ce14 Pr13 Nd13 Sm12 Bi64 S128'
_cell_volume   7064.98801979
_cell_formula_units_Z   1
loop_
 _symmetry_equiv_pos_site_id
 _symmetry_equiv_pos_as_xyz
  1  'x, y, z'
loop_
 _atom_type_symbol
 _atom_type_oxidation_number
  La3+  3.0
  Ce3+  3.0
  Pr3+  3.0
  Nd3+  3.0
  Sm3+  3.0
  Bi2+  2.0
  S2-  -2.0
loop_
 _atom_site_type_symbol
 _atom_site_label
 _atom_site_symmetry_multiplicity
 _atom_site_fract_x
 _atom_site_fract_y
 _atom_site_fract_z
 _atom_site_occupancy
  La3+  La0  1  0.75322096  0.88337506  0.59941054  1
  La3+  La1  1  0.62325088  -0.00158122  0.92955630  1
  La3+  La2  1  0.12451839  0.75235699  0.93113637  1
  La3+  La3  1  0.37896591  0.48886364  0.89010771  1
  La3+  La4  1  0.11911995  -0.00389346  0.41921816  1
  La3+  La5  1  0.38352042  0.75455399  0.41355080  1
  La3+  La6  1  0.36739278  0.24062646  0.92348310  1
  La3+  La7  1  0.61882363  0.75194565  0.91327458  1
  La3+  La8  1  0.51118587  0.13520800  0.07850532  1
  La3+  La9  1  0.24243546  0.64919338  0.57952594  1
  La3+  La10  1  0.37066371  0.75409350  0.92581725  1
  La3+  La11  1  0.51041353  0.86216778  0.08245758  1
  Ce3+  Ce12  1  -0.00618346  0.63654078  0.56511331  1
  Ce3+  Ce13  1  0.62643258  0.00980720  0.44419090  1
  Ce3+  Ce14  1  0.12129841  0.75386048  0.43941948  1
  Ce3+  Ce15  1  0.24927241  0.13283628  0.55025917  1
  Ce3+  Ce16  1  0.37595290  0.26299482  0.44263233  1
  Ce3+  Ce17  1  0.50063433  0.13518703  0.56315548  1
  Ce3+  Ce18  1  0.63180198  0.75997484  0.43503674  1
  Ce3+  Ce19  1  0.50070165  0.88323148  0.55594782  1
  Ce3+  Ce20  1  0.25215914  0.87199803  0.06684509  1
  Ce3+  Ce21  1  0.25151784  0.88406246  0.54791690  1
  Ce3+  Ce22  1  0.62465029  0.51005332  0.45060101  1
  Ce3+  Ce23  1  0.37278989  0.51672711  0.44956786  1
  Ce3+  Ce24  1  0.74848958  0.12224144  0.04959552  1
  Ce3+  Ce25  1  0.12274974  0.50837142  0.45376387  1
  Pr3+  Pr26  1  0.62592917  0.24488195  0.92354317  1
  Pr3+  Pr27  1  0.49907086  0.64581764  0.57339514  1
  Pr3+  Pr28  1  0.87301120  0.01461137  0.43536232  1
  Pr3+  Pr29  1  0.00028652  0.37682101  0.05972088  1
  Pr3+  Pr30  1  0.12198408  0.24288891  0.94549348  1
  Pr3+  Pr31  1  0.89830357  0.01076868  0.90400627  1
  Pr3+  Pr32  1  0.87677697  0.49726737  0.92702187  1
  Pr3+  Pr33  1  0.87888753  0.74689438  0.92281569  1
  Pr3+  Pr34  1  0.75218568  0.38465789  0.56916538  1
  Pr3+  Pr35  1  0.37880309  -0.00276864  0.95677412  1
  Pr3+  Pr36  1  0.75016013  0.13832530  0.56809316  1
  Pr3+  Pr37  1  -0.00299830  0.87394925  0.06485635  1
  Pr3+  Pr38  1  0.62536033  0.49585771  0.93272512  1
  Nd3+  Nd39  1  0.49807318  0.37473475  0.04885678  1
  Nd3+  Nd40  1  0.49618231  0.39071753  0.56389992  1
  Nd3+  Nd41  1  -0.00159485  0.89132907  0.56610579  1
  Nd3+  Nd42  1  0.13125317  0.49558367  0.93859678  1
  Nd3+  Nd43  1  -0.00274388  0.12689754  0.08015827  1
  Nd3+  Nd44  1  0.87532763  0.50587555  0.43384710  1
  Nd3+  Nd45  1  0.74863899  0.62529576  0.05027040  1
  Nd3+  Nd46  1  -0.00140127  0.13403087  0.56218971  1
  Nd3+  Nd47  1  0.88021010  0.26059443  0.42880051  1
  Nd3+  Nd48  1  0.74913286  0.87257973  0.04645348  1
  Nd3+  Nd49  1  -0.00230774  0.37829214  0.56981782  1
  Nd3+  Nd50  1  0.25413024  0.37475955  0.05913032  1
  Nd3+  Nd51  1  0.74809737  0.37505024  0.05725049  1
  Sm3+  Sm52  1  0.86918388  0.76119833  0.43808247  1
  Sm3+  Sm53  1  0.49867392  0.62698199  0.04574324  1
  Sm3+  Sm54  1  0.37916520  0.01255682  0.43760390  1
  Sm3+  Sm55  1  0.12139169  0.00028489  0.95900107  1
  Sm3+  Sm56  1  0.62512924  0.26185903  0.44521475  1
  Sm3+  Sm57  1  -0.00010316  0.62518628  0.05271642  1
  Sm3+  Sm58  1  0.12419202  0.25727396  0.44139396  1
  Sm3+  Sm59  1  0.75162736  0.63675818  0.55981305  1
  Sm3+  Sm60  1  0.25458486  0.12472077  0.06825826  1
  Sm3+  Sm61  1  0.25375068  0.62539942  0.05439860  1
  Sm3+  Sm62  1  0.87747632  0.24684716  0.94572074  1
  Sm3+  Sm63  1  0.25020707  0.38665093  0.56326945  1
  Bi2+  Bi64  1  -0.00160004  0.12760135  0.30499176  1
  Bi2+  Bi65  1  0.05350234  0.15826648  0.80683156  1
  Bi2+  Bi66  1  -0.00023261  0.44769334  0.31462078  1
  Bi2+  Bi67  1  -0.03580160  0.38601547  0.80430953  1
  Bi2+  Bi68  1  -0.05383755  0.65025322  0.33001959  1
  Bi2+  Bi69  1  0.02206861  0.57682902  0.78945680  1
  Bi2+  Bi70  1  -0.10856994  0.84422629  0.30758550  1
  Bi2+  Bi71  1  0.00538199  0.89755783  0.78941578  1
  Bi2+  Bi72  1  0.26035434  0.18125882  0.27606850  1
  Bi2+  Bi73  1  0.28045880  0.07751676  0.80763423  1
  Bi2+  Bi74  1  0.28225087  0.42999965  0.31291399  1
  Bi2+  Bi75  1  0.17596792  0.34791300  0.78354819  1
  Bi2+  Bi76  1  0.19946113  0.60219640  0.26377104  1
  Bi2+  Bi77  1  0.21479713  0.61216787  0.78211604  1
  Bi2+  Bi78  1  0.24333530  0.91977942  0.29353976  1
  Bi2+  Bi79  1  0.25345045  0.86651875  0.77982750  1
  Bi2+  Bi80  1  0.52637290  0.14242318  0.30729619  1
  Bi2+  Bi81  1  0.46218704  0.16931559  0.80512968  1
  Bi2+  Bi82  1  0.47063396  0.39609677  0.28013144  1
  Bi2+  Bi83  1  0.55574841  0.34403614  0.79112553  1
  Bi2+  Bi84  1  0.49944096  0.60520365  0.29565262  1
  Bi2+  Bi85  1  0.53157849  0.61815463  0.77673566  1
  Bi2+  Bi86  1  0.49288427  0.88678324  0.29388447  1
  Bi2+  Bi87  1  0.48558515  0.88012653  0.78670780  1
  Bi2+  Bi88  1  0.79150689  0.10967157  0.26321114  1
  Bi2+  Bi89  1  0.72157307  0.22801401  0.79896056  1
  Bi2+  Bi90  1  0.74427544  0.34279182  0.28407347  1
  Bi2+  Bi91  1  0.76787608  0.41765277  0.81814637  1
  Bi2+  Bi92  1  0.75524694  0.61199264  0.29848789  1
  Bi2+  Bi93  1  0.79268622  0.60041045  0.76274997  1
  Bi2+  Bi94  1  0.74721592  0.89104613  0.23255455  1
  Bi2+  Bi95  1  0.74498863  0.84643211  0.77920554  1
  Bi2+  Bi96  1  0.07683203  -0.04617486  0.22215042  1
  Bi2+  Bi97  1  0.15431811  -0.00079396  0.71348622  1
  Bi2+  Bi98  1  0.13646512  0.32829096  0.26497775  1
  Bi2+  Bi99  1  0.11129444  0.21939036  0.70587154  1
  Bi2+  Bi100  1  0.08438548  0.48105564  0.19930710  1
  Bi2+  Bi101  1  0.06134280  0.43709110  0.70508798  1
  Bi2+  Bi102  1  0.07671986  0.75498924  0.26388703  1
  Bi2+  Bi103  1  0.10922497  0.80134852  0.70666310  1
  Bi2+  Bi104  1  0.33735832  0.00575894  0.20320483  1
  Bi2+  Bi105  1  0.39715974  0.00841583  0.71924874  1
  Bi2+  Bi106  1  0.38310313  0.25992875  0.20159065  1
  Bi2+  Bi107  1  0.33288812  0.20067042  0.71989289  1
  Bi2+  Bi108  1  0.35184398  0.50364438  0.21103425  1
  Bi2+  Bi109  1  0.38239357  0.46470594  0.70259162  1
  Bi2+  Bi110  1  0.36402693  0.74951871  0.20099797  1
  Bi2+  Bi111  1  0.35544521  0.74769650  0.70690012  1
  Bi2+  Bi112  1  0.61672807  0.05277531  0.22342952  1
  Bi2+  Bi113  1  0.65843165  0.04789885  0.72480692  1
  Bi2+  Bi114  1  0.66441585  0.28257711  0.18770900  1
  Bi2+  Bi115  1  0.59607164  0.22611200  0.69822748  1
  Bi2+  Bi116  1  0.62549423  0.49161396  0.23362909  1
  Bi2+  Bi117  1  0.72028047  0.44802203  0.70343463  1
  Bi2+  Bi118  1  0.63031837  0.73730315  0.19952949  1
  Bi2+  Bi119  1  0.60551358  0.72191383  0.69742426  1
  Bi2+  Bi120  1  0.89839665  0.00139976  0.18890451  1
  Bi2+  Bi121  1  0.91546296  0.00066529  0.71104966  1
  Bi2+  Bi122  1  0.87352911  0.26705333  0.21225405  1
  Bi2+  Bi123  1  0.85938260  0.28887733  0.71891345  1
  Bi2+  Bi124  1  0.89536971  0.53650723  0.23014591  1
  Bi2+  Bi125  1  0.88769785  0.50309021  0.65577480  1
  Bi2+  Bi126  1  0.88613031  0.73268325  0.19785827  1
  Bi2+  Bi127  1  0.94487818  0.68248586  0.70069894  1
  S2-  S128  1  0.03592837  0.10515005  0.17812944  1
  S2-  S129  1  0.03166796  0.02161709  0.63893537  1
  S2-  S130  1  -0.00552242  0.34023872  0.15757198  1
  S2-  S131  1  -0.01793906  0.24863747  0.64186690  1
  S2-  S132  1  -0.00719886  0.60915865  0.15054920  1
  S2-  S133  1  0.09124294  0.65845300  0.64599294  1
  S2-  S134  1  0.01748854  0.82665082  0.16089427  1
  S2-  S135  1  -0.09653856  0.86489511  0.65246543  1
  S2-  S136  1  0.25171382  0.14201494  0.16650949  1
  S2-  S137  1  0.24114826  0.12135732  0.64820122  1
  S2-  S138  1  0.27656308  0.37401024  0.15849339  1
  S2-  S139  1  0.26801869  0.37813017  0.66131852  1
  S2-  S140  1  0.26300686  0.63894202  0.15382681  1
  S2-  S141  1  0.29079572  0.59866290  0.67431066  1
  S2-  S142  1  0.25096626  0.86205704  0.16504950  1
  S2-  S143  1  0.25454467  0.81531189  0.63783230  1
  S2-  S144  1  0.46367201  0.10025570  0.17720585  1
  S2-  S145  1  0.52065071  0.07689319  0.65544615  1
  S2-  S146  1  0.51167467  0.29612116  0.13708572  1
  S2-  S147  1  0.49187637  0.34713291  0.66024346  1
  S2-  S148  1  0.50117959  0.69608236  0.13847577  1
  S2-  S149  1  0.51631750  0.57351138  0.66929733  1
  S2-  S150  1  0.46308391  0.88820930  0.18566181  1
  S2-  S151  1  0.47908638  0.79024410  0.63841879  1
  S2-  S152  1  0.67014123  0.12593518  0.13591325  1
  S2-  S153  1  0.77938131  0.04638925  0.65432630  1
  S2-  S154  1  0.72751736  0.42654303  0.15195334  1
  S2-  S155  1  0.74833372  0.26492895  0.64382148  1
  S2-  S156  1  0.74597263  0.65838651  0.14913319  1
  S2-  S157  1  0.74326654  0.71551913  0.64718274  1
  S2-  S158  1  0.66525587  0.86839515  0.13540657  1
  S2-  S159  1  0.65390224  0.89478852  0.69020189  1
  S2-  S160  1  0.16194763  0.08175843  0.33128964  1
  S2-  S161  1  0.06827362  0.01280176  0.86509218  1
  S2-  S162  1  0.02540166  0.26178187  0.36050944  1
  S2-  S163  1  0.20740065  0.22676022  0.85762879  1
  S2-  S164  1  0.14465806  0.52728265  0.35659121  1
  S2-  S165  1  0.20840972  0.48056051  0.84910777  1
  S2-  S166  1  0.13217568  0.83277498  0.35307383  1
  S2-  S167  1  0.23937827  0.74421434  0.85251890  1
  S2-  S168  1  0.38404463  -0.00804405  0.33871786  1
  S2-  S169  1  0.38515638  -0.04099865  0.85778273  1
  S2-  S170  1  0.38961714  0.21728721  0.34790208  1
  S2-  S171  1  0.39849901  0.33428636  0.83808945  1
  S2-  S172  1  0.37819735  0.59589173  0.36228831  1
  S2-  S173  1  0.36759041  0.56342218  0.79511668  1
  S2-  S174  1  0.34453529  0.79239967  0.30681820  1
  S2-  S175  1  0.47714150  0.74252181  0.84417312  1
  S2-  S176  1  0.60565926  -0.00597160  0.34562043  1
  S2-  S177  1  0.62712406  -0.10442784  0.84517577  1
  S2-  S178  1  0.62953746  0.25174204  0.34611569  1
  S2-  S179  1  0.61265224  0.11757830  0.85171097  1
  S2-  S180  1  0.63331248  0.52690521  0.35255334  1
  S2-  S181  1  0.54718322  0.49712037  0.84234290  1
  S2-  S182  1  0.53292809  0.75479415  0.35209518  1
  S2-  S183  1  0.68416689  0.69443588  0.82030973  1
  S2-  S184  1  0.97661926  -0.02103043  0.35217914  1
  S2-  S185  1  0.83237691  -0.02753976  0.80978195  1
  S2-  S186  1  0.84777745  0.13656015  0.35767331  1
  S2-  S187  1  0.91643862  0.17327242  0.85902521  1
  S2-  S188  1  0.85002863  0.39241235  0.35873873  1
  S2-  S189  1  0.88392789  0.61307846  0.85101503  1
  S2-  S190  1  0.75493457  0.75968979  0.35857946  1
  S2-  S191  1  1.00865209  0.77902813  0.85472499  1
  S2-  S192  1  0.00631403  0.13214226  0.45664742  1
  S2-  S193  1  -0.00242255  0.12337409  0.97191130  1
  S2-  S194  1  0.00224371  0.38477074  0.46355551  1
  S2-  S195  1  0.00109301  0.37297949  0.95145775  1
  S2-  S196  1  -0.00435744  0.63269000  0.45794653  1
  S2-  S197  1  0.00575865  0.61923070  0.95012703  1
  S2-  S198  1  -0.00514136  0.87645951  0.45733962  1
  S2-  S199  1  -0.00559858  0.88233635  0.95921960  1
  S2-  S200  1  0.25190866  0.13521971  0.44588662  1
  S2-  S201  1  0.24735080  0.11809158  0.96336218  1
  S2-  S202  1  0.24828294  0.38363665  0.45683424  1
  S2-  S203  1  0.25231675  0.37041159  0.95414518  1
  S2-  S204  1  0.24417465  0.63529291  0.46226411  1
  S2-  S205  1  0.25499359  0.61671281  0.95030934  1
  S2-  S206  1  0.25982045  0.88284215  0.44427575  1
  S2-  S207  1  0.24449505  0.87985172  0.95954162  1
  S2-  S208  1  0.50080713  0.13701264  0.45616091  1
  S2-  S209  1  0.49716579  0.12765954  0.95799572  1
  S2-  S210  1  0.49892007  0.38674508  0.45478406  1
  S2-  S211  1  0.49881598  0.36987267  0.94536151  1
  S2-  S212  1  0.50489524  0.63437357  0.46345923  1
  S2-  S213  1  0.49257068  0.61552694  0.94399205  1
  S2-  S214  1  0.50004713  0.88747337  0.45145510  1
  S2-  S215  1  0.50057838  0.87104818  0.95856418  1
  S2-  S216  1  0.74296460  0.13944071  0.46016272  1
  S2-  S217  1  0.76082805  0.11934778  0.94576775  1
  S2-  S218  1  0.74588528  0.38438292  0.46175065  1
  S2-  S219  1  0.75338349  0.37056228  0.94952413  1
  S2-  S220  1  0.75279700  0.63001447  0.45618720  1
  S2-  S221  1  0.74872420  0.62272645  0.94477401  1
  S2-  S222  1  0.75203760  0.88983008  0.45255586  1
  S2-  S223  1  0.76406953  0.87968342  0.94130195  1
  S2-  S224  1  0.12511274  0.00171093  0.06371172  1
  S2-  S225  1  0.12970848  0.00763073  0.53259300  1
  S2-  S226  1  0.12696297  0.24750285  0.05449285  1
  S2-  S227  1  0.12887852  0.26111270  0.54689942  1
  S2-  S228  1  0.12749109  0.50137537  0.04654533  1
  S2-  S229  1  0.12248734  0.50566799  0.55862910  1
  S2-  S230  1  0.12502622  0.74674034  0.04498873  1
  S2-  S231  1  0.11809036  0.76636838  0.54248424  1
  S2-  S232  1  0.37993804  -0.00069730  0.06254951  1
  S2-  S233  1  0.37647881  0.00960865  0.54487769  1
  S2-  S234  1  0.37269008  0.24657360  0.04198289  1
  S2-  S235  1  0.37379676  0.26163386  0.54975044  1
  S2-  S236  1  0.37758960  0.50199721  0.05209984  1
  S2-  S237  1  0.37105227  0.51541806  0.55519191  1
  S2-  S238  1  0.37366222  0.75013913  0.03987176  1
  S2-  S239  1  0.37373321  0.76034904  0.53446402  1
  S2-  S240  1  0.62296217  -0.00200945  0.03864712  1
  S2-  S241  1  0.62678935  0.00682119  0.55094320  1
  S2-  S242  1  0.62953458  0.25303127  0.03144622  1
  S2-  S243  1  0.61787731  0.26360191  0.54908611  1
  S2-  S244  1  0.62198593  0.50100758  0.04096113  1
  S2-  S245  1  0.62664339  0.51168213  0.55712588  1
  S2-  S246  1  0.62672466  0.74522163  0.02897726  1
  S2-  S247  1  0.62976783  0.76283342  0.54369040  1
  S2-  S248  1  0.87236469  -0.00025199  0.05906481  1
  S2-  S249  1  0.87225339  0.01137294  0.54275918  1
  S2-  S250  1  0.87344856  0.24985102  0.05116410  1
  S2-  S251  1  0.87465060  0.26026108  0.53689248  1
  S2-  S252  1  0.87519090  0.50029703  0.04045281  1
  S2-  S253  1  0.87421029  0.50879051  0.54084139  1
  S2-  S254  1  0.87620025  0.74685199  0.03799433  1
  S2-  S255  1  0.87252300  0.76010415  0.54309617  1
