# generated using pymatgen
data_La12Ce14Pr13Nd13Sm12(BiS2)64
_symmetry_space_group_name_H-M   'P 1'
_cell_length_a   16.04967697
_cell_length_b   16.14007836
_cell_length_c   27.42604548
_cell_angle_alpha   89.88557847
_cell_angle_beta   89.80522300
_cell_angle_gamma   90.01827885
_symmetry_Int_Tables_number   1
_chemical_formula_structural   La12Ce14Pr13Nd13Sm12(BiS2)64
_chemical_formula_sum   'La12 Ce14 Pr13 Nd13 Sm12 Bi64 S128'
_cell_volume   7104.47070734
_cell_formula_units_Z   1
loop_
 _symmetry_equiv_pos_site_id
 _symmetry_equiv_pos_as_xyz
  1  'x, y, z'
loop_
 _atom_type_symbol
 _atom_type_oxidation_number
  La3+  3.0
  Ce3+  3.0
  Pr3+  3.0
  Nd3+  3.0
  Sm3+  3.0
  Bi2+  2.0
  S2-  -2.0
loop_
 _atom_site_type_symbol
 _atom_site_label
 _atom_site_symmetry_multiplicity
 _atom_site_fract_x
 _atom_site_fract_y
 _atom_site_fract_z
 _atom_site_occupancy
  La3+  La0  1  -0.01815081  0.12982896  0.06325357  1
  La3+  La1  1  0.62063525  0.50173923  0.90483832  1
  La3+  La2  1  0.35793858  0.00993556  0.90522286  1
  La3+  La3  1  0.87153149  -0.00061318  0.41919530  1
  La3+  La4  1  0.73658768  0.62744360  0.05922764  1
  La3+  La5  1  -0.01706736  0.88137554  0.06345696  1
  La3+  La6  1  0.23511691  0.63417741  0.07256635  1
  La3+  La7  1  0.25810931  0.87243689  0.60386681  1
  La3+  La8  1  0.24509934  0.38495271  0.11165881  1
  La3+  La9  1  0.85304243  0.00907966  0.92637441  1
  La3+  La10  1  0.75067626  0.36463244  0.61108557  1
  La3+  La11  1  0.00143379  0.60984488  0.57995061  1
  Ce3+  Ce12  1  0.37446076  0.48993797  0.42085412  1
  Ce3+  Ce13  1  0.62555559  0.24555344  0.44572775  1
  Ce3+  Ce14  1  0.23036038  0.88199481  0.07084013  1
  Ce3+  Ce15  1  0.50286127  0.37017290  0.55949221  1
  Ce3+  Ce16  1  0.86239515  0.75692825  0.93401847  1
  Ce3+  Ce17  1  0.36115942  0.50473596  0.94487239  1
  Ce3+  Ce18  1  0.85772307  0.25981024  0.94114174  1
  Ce3+  Ce19  1  0.25306553  0.11774501  0.56002635  1
  Ce3+  Ce20  1  0.61360489  0.75247331  0.93378677  1
  Ce3+  Ce21  1  0.00508536  0.86964237  0.56124015  1
  Ce3+  Ce22  1  0.49992823  0.61764647  0.54972867  1
  Ce3+  Ce23  1  0.11550310  0.50380462  0.94206002  1
  Ce3+  Ce24  1  0.11205199  0.25568363  0.94406255  1
  Ce3+  Ce25  1  0.12646945  0.24272464  0.43655158  1
  Pr3+  Pr26  1  0.25131223  0.61117962  0.56681605  1
  Pr3+  Pr27  1  -0.01282072  0.62803222  0.05549536  1
  Pr3+  Pr28  1  0.48559991  0.62995921  0.05970772  1
  Pr3+  Pr29  1  0.48246942  0.12883910  0.06327959  1
  Pr3+  Pr30  1  0.38270986  0.24385604  0.42363498  1
  Pr3+  Pr31  1  0.37335899  -0.00430609  0.42609578  1
  Pr3+  Pr32  1  0.87675029  0.49448870  0.43818424  1
  Pr3+  Pr33  1  0.25269544  0.36753096  0.55845260  1
  Pr3+  Pr34  1  0.48498514  0.37917904  0.05670179  1
  Pr3+  Pr35  1  0.74673063  0.11102199  0.57094298  1
  Pr3+  Pr36  1  0.74874035  0.61544865  0.56550378  1
  Pr3+  Pr37  1  -0.00208024  0.11659931  0.56519279  1
  Pr3+  Pr38  1  0.49551440  0.11779074  0.55586836  1
  Nd3+  Nd39  1  0.73858379  0.87650740  0.06424185  1
  Nd3+  Nd40  1  0.49555653  0.86688240  0.54772040  1
  Nd3+  Nd41  1  0.11568116  0.75777381  0.93849736  1
  Nd3+  Nd42  1  -0.01040738  0.38140170  0.06579694  1
  Nd3+  Nd43  1  0.48420206  0.88193912  0.05191715  1
  Nd3+  Nd44  1  0.63299884  0.74386631  0.43389205  1
  Nd3+  Nd45  1  0.36307931  0.75476265  0.93934311  1
  Nd3+  Nd46  1  0.87420455  0.24264595  0.44831869  1
  Nd3+  Nd47  1  0.23330645  0.13321353  0.06288742  1
  Nd3+  Nd48  1  0.62721046  0.49405820  0.43199843  1
  Nd3+  Nd49  1  0.00120424  0.35932853  0.56710059  1
  Nd3+  Nd50  1  0.36992592  0.74267055  0.43757578  1
  Nd3+  Nd51  1  0.73970736  0.37941874  0.06923442  1
  Sm3+  Sm52  1  0.61341414  0.00637513  0.94962062  1
  Sm3+  Sm53  1  0.86478194  0.50766704  0.93483528  1
  Sm3+  Sm54  1  0.12572044  -0.00665317  0.44389355  1
  Sm3+  Sm55  1  0.12339100  0.49789158  0.43825445  1
  Sm3+  Sm56  1  0.61091229  0.25381137  0.94819702  1
  Sm3+  Sm57  1  0.87803782  0.74530463  0.45082294  1
  Sm3+  Sm58  1  0.62677074  -0.00699191  0.43766673  1
  Sm3+  Sm59  1  0.73973236  0.12880741  0.06658034  1
  Sm3+  Sm60  1  0.36212660  0.25418266  0.93816977  1
  Sm3+  Sm61  1  0.75124922  0.87040136  0.56175595  1
  Sm3+  Sm62  1  0.11233184  0.00531942  0.93937731  1
  Sm3+  Sm63  1  0.12515057  0.74597778  0.44840922  1
  Bi2+  Bi64  1  0.00864408  0.11178929  0.30654009  1
  Bi2+  Bi65  1  0.00541188  0.16221245  0.79792130  1
  Bi2+  Bi66  1  -0.06964025  0.39163409  0.29617084  1
  Bi2+  Bi67  1  0.08675552  0.32653794  0.75346297  1
  Bi2+  Bi68  1  -0.03082258  0.68635283  0.29349894  1
  Bi2+  Bi69  1  0.02986975  0.65050961  0.79785746  1
  Bi2+  Bi70  1  0.09057204  0.88766517  0.28602475  1
  Bi2+  Bi71  1  -0.00245986  0.92336367  0.75568730  1
  Bi2+  Bi72  1  0.26208844  0.10296303  0.27865185  1
  Bi2+  Bi73  1  0.31126740  0.16657843  0.75864089  1
  Bi2+  Bi74  1  0.19244969  0.39336622  0.31321242  1
  Bi2+  Bi75  1  0.26754877  0.35540240  0.79985451  1
  Bi2+  Bi76  1  0.23453047  0.66174096  0.28841745  1
  Bi2+  Bi77  1  0.22415991  0.54847243  0.80711045  1
  Bi2+  Bi78  1  0.32181729  0.88235063  0.28612322  1
  Bi2+  Bi79  1  0.25379176  0.86197790  0.79441832  1
  Bi2+  Bi80  1  0.57030887  0.14280858  0.27545414  1
  Bi2+  Bi81  1  0.55594614  0.09089491  0.81911649  1
  Bi2+  Bi82  1  0.50349303  0.37090203  0.29368673  1
  Bi2+  Bi83  1  0.46491285  0.32853861  0.77273850  1
  Bi2+  Bi84  1  0.56029561  0.61177844  0.27355346  1
  Bi2+  Bi85  1  0.45657144  0.64906788  0.79289341  1
  Bi2+  Bi86  1  0.50133351  0.96726865  0.30312584  1
  Bi2+  Bi87  1  0.57027520  0.83473895  0.77306069  1
  Bi2+  Bi88  1  0.76492854  0.14803752  0.27788818  1
  Bi2+  Bi89  1  0.82388244  0.05284338  0.79022397  1
  Bi2+  Bi90  1  0.72961274  0.37412881  0.29328208  1
  Bi2+  Bi91  1  0.74347422  0.34071749  0.79630379  1
  Bi2+  Bi92  1  0.74988099  0.63906186  0.29663179  1
  Bi2+  Bi93  1  0.73126472  0.61708064  0.78340102  1
  Bi2+  Bi94  1  0.78684348  0.89547911  0.28580650  1
  Bi2+  Bi95  1  0.75084804  0.80408634  0.81663862  1
  Bi2+  Bi96  1  0.23385587  -0.01966531  0.19494869  1
  Bi2+  Bi97  1  0.14806031  0.04648629  0.75910049  1
  Bi2+  Bi98  1  0.11291670  0.25064602  0.21093506  1
  Bi2+  Bi99  1  0.20624234  0.25451652  0.67184949  1
  Bi2+  Bi100  1  0.01697400  0.52809855  0.23258442  1
  Bi2+  Bi101  1  0.13256938  0.49803028  0.70621286  1
  Bi2+  Bi102  1  0.12156180  0.74523037  0.21096564  1
  Bi2+  Bi103  1  0.08505350  0.74944325  0.70901460  1
  Bi2+  Bi104  1  0.42675560  0.00311960  0.19179551  1
  Bi2+  Bi105  1  0.39886876  0.00432888  0.71163584  1
  Bi2+  Bi106  1  0.37433549  0.25166846  0.21516059  1
  Bi2+  Bi107  1  0.40235034  0.26356664  0.66797021  1
  Bi2+  Bi108  1  0.37234466  0.51233168  0.21354568  1
  Bi2+  Bi109  1  0.36489180  0.48317581  0.72173977  1
  Bi2+  Bi110  1  0.39365498  0.75908701  0.20631883  1
  Bi2+  Bi111  1  0.42669028  0.74265210  0.69967741  1
  Bi2+  Bi112  1  0.67757755  0.00793436  0.21269040  1
  Bi2+  Bi113  1  0.65880452  -0.00300649  0.73329602  1
  Bi2+  Bi114  1  0.67529930  0.28554456  0.19240216  1
  Bi2+  Bi115  1  0.60666331  0.18804747  0.72586245  1
  Bi2+  Bi116  1  0.64775856  0.47974239  0.20623882  1
  Bi2+  Bi117  1  0.56853885  0.49294040  0.71598957  1
  Bi2+  Bi118  1  0.60700728  0.83351836  0.24348592  1
  Bi2+  Bi119  1  0.66185438  0.72423322  0.69382154  1
  Bi2+  Bi120  1  0.95071864  0.00519626  0.18838792  1
  Bi2+  Bi121  1  0.90069241  -0.02348719  0.65873342  1
  Bi2+  Bi122  1  0.86981209  0.27156661  0.21289852  1
  Bi2+  Bi123  1  0.89619339  0.15692380  0.69882861  1
  Bi2+  Bi124  1  0.83070535  0.55297373  0.18690690  1
  Bi2+  Bi125  1  0.87831701  0.52330375  0.71388740  1
  Bi2+  Bi126  1  0.85818750  0.75548853  0.20918902  1
  Bi2+  Bi127  1  0.83785763  0.80285537  0.71192113  1
  S2-  S128  1  0.06010387  0.12873171  0.15675590  1
  S2-  S129  1  0.02274631  0.23108848  0.64163801  1
  S2-  S130  1  0.08155638  0.37430653  0.15316203  1
  S2-  S131  1  -0.00437097  0.46482678  0.64639909  1
  S2-  S132  1  0.03183961  0.63541299  0.15263484  1
  S2-  S133  1  -0.06661712  0.67778409  0.67088987  1
  S2-  S134  1  0.08669926  0.90779365  0.14493022  1
  S2-  S135  1  0.09188201  0.87873453  0.64616165  1
  S2-  S136  1  0.25476604  0.21636551  0.15079682  1
  S2-  S137  1  0.27045782  0.03225692  0.64534908  1
  S2-  S138  1  0.25619234  0.38019621  0.22682944  1
  S2-  S139  1  0.27161589  0.47506389  0.63961469  1
  S2-  S140  1  0.24837716  0.54269822  0.15806680  1
  S2-  S141  1  0.14052994  0.63196266  0.64476860  1
  S2-  S142  1  0.25749932  0.76553903  0.14400974  1
  S2-  S143  1  0.26701414  0.79019718  0.69915186  1
  S2-  S144  1  0.48728374  0.15453179  0.16258991  1
  S2-  S145  1  0.49960244  0.10776192  0.65646988  1
  S2-  S146  1  0.41982599  0.38109304  0.15024654  1
  S2-  S147  1  0.58428311  0.38030736  0.64792231  1
  S2-  S148  1  0.46597394  0.62878184  0.16019050  1
  S2-  S149  1  0.52960938  0.62323348  0.64640190  1
  S2-  S150  1  0.50551179  0.85654363  0.15011169  1
  S2-  S151  1  0.43841675  0.88332640  0.64111474  1
  S2-  S152  1  0.85328456  0.10962268  0.14027067  1
  S2-  S153  1  0.73541120  0.20421155  0.65679422  1
  S2-  S154  1  0.86330103  0.39331730  0.14037920  1
  S2-  S155  1  0.82077209  0.36767178  0.71238009  1
  S2-  S156  1  0.73070510  0.68935346  0.15331499  1
  S2-  S157  1  0.75368672  0.52913352  0.65250642  1
  S2-  S158  1  0.85581872  0.88610465  0.13885177  1
  S2-  S159  1  0.72253431  0.97344663  0.63880951  1
  S2-  S160  1  0.14530294  0.02048518  0.34628358  1
  S2-  S161  1  0.19962722  0.00043498  0.85375092  1
  S2-  S162  1  0.10549679  0.24699059  0.33791539  1
  S2-  S163  1  0.13583159  0.25063963  0.84726459  1
  S2-  S164  1  0.00289279  0.49391901  0.36403811  1
  S2-  S165  1  0.06594963  0.50170647  0.84810288  1
  S2-  S166  1  0.11092313  0.74013056  0.34933868  1
  S2-  S167  1  0.11386834  0.77846708  0.83908316  1
  S2-  S168  1  0.36533635  0.11619005  0.35092715  1
  S2-  S169  1  0.40078250  -0.05399818  0.81149486  1
  S2-  S170  1  0.35532345  0.35788586  0.34790577  1
  S2-  S171  1  0.38625342  0.16250843  0.85562112  1
  S2-  S172  1  0.23392425  0.53255112  0.35874576  1
  S2-  S173  1  0.39057163  0.52281509  0.85032215  1
  S2-  S174  1  0.36301795  0.72909695  0.33752426  1
  S2-  S175  1  0.33825028  0.74401022  0.84133712  1
  S2-  S176  1  0.72460021  -0.01162055  0.35766725  1
  S2-  S177  1  0.69815279  0.01579869  0.86462012  1
  S2-  S178  1  0.54827357  0.24672969  0.35754894  1
  S2-  S179  1  0.63447330  0.22944589  0.85228258  1
  S2-  S180  1  0.51288150  0.50230858  0.35208677  1
  S2-  S181  1  0.58706643  0.42548852  0.81433826  1
  S2-  S182  1  0.60380336  0.74004219  0.33549980  1
  S2-  S183  1  0.60602562  0.65248818  0.85203024  1
  S2-  S184  1  0.94929853  -0.04610273  0.32787961  1
  S2-  S185  1  0.91961861  -0.06432472  0.84229287  1
  S2-  S186  1  0.87951057  0.15661893  0.36007839  1
  S2-  S187  1  0.86533364  0.25021601  0.84400199  1
  S2-  S188  1  0.75648314  0.51276180  0.35914867  1
  S2-  S189  1  0.78149051  0.48206499  0.85086807  1
  S2-  S190  1  0.83575014  0.75551658  0.35603573  1
  S2-  S191  1  0.87472226  0.68718358  0.84446872  1
  S2-  S192  1  0.00275007  0.11716916  0.45847416  1
  S2-  S193  1  -0.01424193  0.12910425  0.95057595  1
  S2-  S194  1  0.00160036  0.36253625  0.45990727  1
  S2-  S195  1  -0.01531859  0.38144416  0.95449362  1
  S2-  S196  1  0.00072208  0.62478298  0.46458684  1
  S2-  S197  1  -0.01160407  0.63070895  0.95051909  1
  S2-  S198  1  0.00011619  0.87059072  0.45312527  1
  S2-  S199  1  -0.01041404  0.88142313  0.95350385  1
  S2-  S200  1  0.24854388  0.11875329  0.45313112  1
  S2-  S201  1  0.23908752  0.13025488  0.95590461  1
  S2-  S202  1  0.24608067  0.36979146  0.45276316  1
  S2-  S203  1  0.23992174  0.37794363  0.94501929  1
  S2-  S204  1  0.24718984  0.62367352  0.46049782  1
  S2-  S205  1  0.23742951  0.63167527  0.95593694  1
  S2-  S206  1  0.24799025  0.87004366  0.43936166  1
  S2-  S207  1  0.24061160  0.88227318  0.95626360  1
  S2-  S208  1  0.50409182  0.11341863  0.45104984  1
  S2-  S209  1  0.48841713  0.12595738  0.95832515  1
  S2-  S210  1  0.50203984  0.37093480  0.45569321  1
  S2-  S211  1  0.49004512  0.37859526  0.94866911  1
  S2-  S212  1  0.50202063  0.62495689  0.44680440  1
  S2-  S213  1  0.48989036  0.62685743  0.95449069  1
  S2-  S214  1  0.50184851  0.86733063  0.44197772  1
  S2-  S215  1  0.48743810  0.88517846  0.94444386  1
  S2-  S216  1  0.74523740  0.11845225  0.46128387  1
  S2-  S217  1  0.73410383  0.13491344  0.96344622  1
  S2-  S218  1  0.75149655  0.36484713  0.44682503  1
  S2-  S219  1  0.73143498  0.38206623  0.95955000  1
  S2-  S220  1  0.75351787  0.62412770  0.45972316  1
  S2-  S221  1  0.73789645  0.62667983  0.95195499  1
  S2-  S222  1  0.75106212  0.86884610  0.45862890  1
  S2-  S223  1  0.73448317  0.87672746  0.95831636  1
  S2-  S224  1  0.11207120  0.00945607  0.04102310  1
  S2-  S225  1  0.12808573  -0.00407107  0.54620460  1
  S2-  S226  1  0.11101710  0.25633096  0.04706757  1
  S2-  S227  1  0.12945908  0.24049340  0.53990353  1
  S2-  S228  1  0.11456792  0.50366656  0.04741191  1
  S2-  S229  1  0.12377591  0.48896877  0.54103255  1
  S2-  S230  1  0.10919762  0.75657519  0.04384692  1
  S2-  S231  1  0.13347736  0.75170276  0.54917464  1
  S2-  S232  1  0.35795044  0.00442393  0.05445275  1
  S2-  S233  1  0.37235470  -0.00950248  0.53376716  1
  S2-  S234  1  0.36111924  0.25468109  0.04169252  1
  S2-  S235  1  0.37582219  0.24404010  0.53629825  1
  S2-  S236  1  0.35975161  0.50416141  0.04861169  1
  S2-  S237  1  0.37956088  0.49361619  0.53520723  1
  S2-  S238  1  0.36455022  0.75732680  0.04324158  1
  S2-  S239  1  0.37045491  0.74362856  0.54551552  1
  S2-  S240  1  0.61518567  0.00505376  0.05409415  1
  S2-  S241  1  0.61878924  -0.01010490  0.54006161  1
  S2-  S242  1  0.61410966  0.25253705  0.05292059  1
  S2-  S243  1  0.62420699  0.24259131  0.54954268  1
  S2-  S244  1  0.61123520  0.50245539  0.05832929  1
  S2-  S245  1  0.62499665  0.49435908  0.53893499  1
  S2-  S246  1  0.61045018  0.75754737  0.04185881  1
  S2-  S247  1  0.62678037  0.74701055  0.54250316  1
  S2-  S248  1  0.85578731  0.00479849  0.03467618  1
  S2-  S249  1  0.87527477  -0.00883459  0.53739312  1
  S2-  S250  1  0.85868233  0.25604659  0.04566548  1
  S2-  S251  1  0.86723182  0.24388897  0.55223958  1
  S2-  S252  1  0.86225874  0.50412300  0.03833831  1
  S2-  S253  1  0.87114310  0.48621097  0.54628674  1
  S2-  S254  1  0.86142729  0.75181221  0.04057111  1
  S2-  S255  1  0.87360162  0.74638987  0.55439298  1
