# generated using pymatgen
data_La12Ce14Pr13Nd13Sm12(BiS2)64
_symmetry_space_group_name_H-M   'P 1'
_cell_length_a   16.19096210
_cell_length_b   16.17479710
_cell_length_c   27.17781778
_cell_angle_alpha   89.82136830
_cell_angle_beta   90.09917198
_cell_angle_gamma   90.07009544
_symmetry_Int_Tables_number   1
_chemical_formula_structural   La12Ce14Pr13Nd13Sm12(BiS2)64
_chemical_formula_sum   'La12 Ce14 Pr13 Nd13 Sm12 Bi64 S128'
_cell_volume   7117.42659410
_cell_formula_units_Z   1
loop_
 _symmetry_equiv_pos_site_id
 _symmetry_equiv_pos_as_xyz
  1  'x, y, z'
loop_
 _atom_type_symbol
 _atom_type_oxidation_number
  La3+  3.0
  Ce3+  3.0
  Pr3+  3.0
  Nd3+  3.0
  Sm3+  3.0
  Bi2+  2.0
  S2-  -2.0
loop_
 _atom_site_type_symbol
 _atom_site_label
 _atom_site_symmetry_multiplicity
 _atom_site_fract_x
 _atom_site_fract_y
 _atom_site_fract_z
 _atom_site_occupancy
  La3+  La0  1  0.38292262  0.01581933  0.42629635  1
  La3+  La1  1  0.12540606  0.24849125  0.39263243  1
  La3+  La2  1  0.76512357  0.11967076  0.58130508  1
  La3+  La3  1  0.38072725  0.50128089  0.42884403  1
  La3+  La4  1  0.50180183  0.11549527  0.58506685  1
  La3+  La5  1  0.64011448  0.00974079  0.42609244  1
  La3+  La6  1  0.00764624  0.86520155  0.06552542  1
  La3+  La7  1  0.12986404  -0.01427956  0.92791297  1
  La3+  La8  1  0.12576446  0.51530007  0.40597223  1
  La3+  La9  1  0.87981149  -0.02479097  0.90653682  1
  La3+  La10  1  0.61935428  0.23057593  0.91618050  1
  La3+  La11  1  0.63374585  0.73967328  0.93267559  1
  Ce3+  Ce12  1  0.25544003  0.86296678  0.05784483  1
  Ce3+  Ce13  1  0.00970626  0.37678699  0.55197788  1
  Ce3+  Ce14  1  0.38245419  0.75593769  0.44147551  1
  Ce3+  Ce15  1  0.75333056  0.63160793  0.56302272  1
  Ce3+  Ce16  1  0.12935669  0.00508927  0.43882286  1
  Ce3+  Ce17  1  0.88297093  0.25538925  0.43896458  1
  Ce3+  Ce18  1  0.50537823  0.35479032  0.06308797  1
  Ce3+  Ce19  1  0.50744431  0.37670786  0.56420321  1
  Ce3+  Ce20  1  0.00897984  0.62342635  0.55854043  1
  Ce3+  Ce21  1  0.62995613  0.48456412  0.93905155  1
  Ce3+  Ce22  1  0.75404855  0.61083354  0.06418415  1
  Ce3+  Ce23  1  0.75350847  0.10615270  0.05014328  1
  Ce3+  Ce24  1  0.13094826  0.75268855  0.43739272  1
  Ce3+  Ce25  1  0.88107318  0.00323316  0.44002797  1
  Pr3+  Pr26  1  0.63351960  0.24888321  0.45138911  1
  Pr3+  Pr27  1  0.13133846  0.48497622  0.93835280  1
  Pr3+  Pr28  1  0.87679290  0.48247243  0.94749080  1
  Pr3+  Pr29  1  0.37985773  0.23376812  0.94757041  1
  Pr3+  Pr30  1  0.25781412  0.87776686  0.55160228  1
  Pr3+  Pr31  1  0.00545238  0.60424781  0.06621102  1
  Pr3+  Pr32  1  0.50761926  0.10351609  0.06839239  1
  Pr3+  Pr33  1  0.62984703  0.50161249  0.43371557  1
  Pr3+  Pr34  1  0.50790067  0.60967024  0.06777257  1
  Pr3+  Pr35  1  0.38115589  -0.01625600  0.94172422  1
  Pr3+  Pr36  1  0.13198155  0.23603087  0.94511623  1
  Pr3+  Pr37  1  0.26128986  0.36444092  0.08450265  1
  Pr3+  Pr38  1  0.50653566  0.85391981  0.06914763  1
  Nd3+  Nd39  1  0.38029623  0.73443248  0.94445419  1
  Nd3+  Nd40  1  0.88306808  0.73344469  0.94165968  1
  Nd3+  Nd41  1  0.24167420  0.10100344  0.09499940  1
  Nd3+  Nd42  1  0.76105708  0.85422598  0.07591420  1
  Nd3+  Nd43  1  0.63251909  0.75613730  0.43653033  1
  Nd3+  Nd44  1  0.75787381  0.37498857  0.56730075  1
  Nd3+  Nd45  1  0.00845863  0.87540995  0.56051293  1
  Nd3+  Nd46  1  0.50975809  0.88118438  0.55272270  1
  Nd3+  Nd47  1  0.74725447  0.35231550  0.06177551  1
  Nd3+  Nd48  1  0.25429328  0.60725426  0.06157651  1
  Nd3+  Nd49  1  0.25839254  0.62397973  0.55823235  1
  Nd3+  Nd50  1  0.00432483  0.11316770  0.05587333  1
  Nd3+  Nd51  1  0.25453993  0.12693716  0.56006555  1
  Sm3+  Sm52  1  0.75717772  0.87328738  0.56539733  1
  Sm3+  Sm53  1  0.50563413  0.62504161  0.55607708  1
  Sm3+  Sm54  1  0.38093021  0.25063946  0.44840980  1
  Sm3+  Sm55  1  0.88087036  0.75163637  0.44339019  1
  Sm3+  Sm56  1  0.87663093  0.23464968  0.93684427  1
  Sm3+  Sm57  1  0.38089817  0.48673961  0.94308007  1
  Sm3+  Sm58  1  0.00586276  0.35723889  0.05767636  1
  Sm3+  Sm59  1  0.12807915  0.73388936  0.95059980  1
  Sm3+  Sm60  1  0.25347167  0.37550025  0.54931243  1
  Sm3+  Sm61  1  0.63092153  -0.01643339  0.93727780  1
  Sm3+  Sm62  1  0.88056578  0.50221113  0.44301772  1
  Sm3+  Sm63  1  0.00570137  0.12829095  0.55590798  1
  Bi2+  Bi64  1  -0.07151342  0.13404596  0.27143818  1
  Bi2+  Bi65  1  0.03740779  0.13315298  0.77099189  1
  Bi2+  Bi66  1  -0.04536474  0.39967636  0.28708510  1
  Bi2+  Bi67  1  0.02822110  0.40094187  0.74742595  1
  Bi2+  Bi68  1  -0.00763365  0.65450560  0.28972929  1
  Bi2+  Bi69  1  -0.01341233  0.64380315  0.79479732  1
  Bi2+  Bi70  1  0.03331107  0.89712926  0.30419114  1
  Bi2+  Bi71  1  0.00978571  0.84857575  0.79345613  1
  Bi2+  Bi72  1  0.26235790  0.10441096  0.28946563  1
  Bi2+  Bi73  1  0.25048866  0.11773370  0.79722610  1
  Bi2+  Bi74  1  0.23380796  0.41200341  0.26683771  1
  Bi2+  Bi75  1  0.22591793  0.33939432  0.80153465  1
  Bi2+  Bi76  1  0.21406153  0.64958218  0.20941007  1
  Bi2+  Bi77  1  0.24882698  0.53706433  0.80080023  1
  Bi2+  Bi78  1  0.20980490  0.81705062  0.28560985  1
  Bi2+  Bi79  1  0.22927862  0.92615016  0.79515064  1
  Bi2+  Bi80  1  0.49026034  0.09972311  0.30407210  1
  Bi2+  Bi81  1  0.49999589  0.12230841  0.79246937  1
  Bi2+  Bi82  1  0.58588666  0.38642945  0.31204107  1
  Bi2+  Bi83  1  0.42328338  0.38992797  0.76189254  1
  Bi2+  Bi84  1  0.40051691  0.60155040  0.28782772  1
  Bi2+  Bi85  1  0.49043999  0.65605003  0.78651023  1
  Bi2+  Bi86  1  0.50899152  0.83744762  0.28349296  1
  Bi2+  Bi87  1  0.49909846  0.85874311  0.79619525  1
  Bi2+  Bi88  1  0.73993475  0.17706626  0.29092185  1
  Bi2+  Bi89  1  0.75773372  0.16654177  0.79690710  1
  Bi2+  Bi90  1  0.77441851  0.36250794  0.34140261  1
  Bi2+  Bi91  1  0.78420792  0.41961134  0.80893986  1
  Bi2+  Bi92  1  0.71947139  0.54496889  0.30688841  1
  Bi2+  Bi93  1  0.70902047  0.66868606  0.80354117  1
  Bi2+  Bi94  1  0.75528340  0.86178871  0.29981481  1
  Bi2+  Bi95  1  0.74807386  0.85803859  0.78021832  1
  Bi2+  Bi96  1  0.13309038  -0.02731168  0.21686620  1
  Bi2+  Bi97  1  0.15025938  0.03033462  0.70446567  1
  Bi2+  Bi98  1  0.07871713  0.22507675  0.21346630  1
  Bi2+  Bi99  1  0.12813339  0.25834370  0.69754875  1
  Bi2+  Bi100  1  0.07351965  0.47622135  0.18709656  1
  Bi2+  Bi101  1  0.12384079  0.55918406  0.70802088  1
  Bi2+  Bi102  1  0.07193993  0.78361812  0.19896758  1
  Bi2+  Bi103  1  0.15977623  0.75119723  0.74875296  1
  Bi2+  Bi104  1  0.39286878  0.01540154  0.19793930  1
  Bi2+  Bi105  1  0.35591498  -0.02931738  0.70206382  1
  Bi2+  Bi106  1  0.41745168  0.34218823  0.24712423  1
  Bi2+  Bi107  1  0.32548483  0.23933895  0.71550638  1
  Bi2+  Bi108  1  0.45383125  0.51391394  0.19383413  1
  Bi2+  Bi109  1  0.31769032  0.50764827  0.69317353  1
  Bi2+  Bi110  1  0.36344283  0.76982459  0.21280905  1
  Bi2+  Bi111  1  0.35492039  0.76625390  0.73127652  1
  Bi2+  Bi112  1  0.64276294  0.03231218  0.20211820  1
  Bi2+  Bi113  1  0.61878800  0.01469123  0.70926755  1
  Bi2+  Bi114  1  0.59727772  0.26668050  0.22335116  1
  Bi2+  Bi115  1  0.62665065  0.30350700  0.71488506  1
  Bi2+  Bi116  1  0.64120706  0.51774882  0.16954837  1
  Bi2+  Bi117  1  0.62046645  0.55162569  0.72424103  1
  Bi2+  Bi118  1  0.62205950  0.69399012  0.21487829  1
  Bi2+  Bi119  1  0.62189280  0.76129586  0.70778413  1
  Bi2+  Bi120  1  0.88592684  -0.04400108  0.23114271  1
  Bi2+  Bi121  1  0.88775766  0.00964352  0.70767089  1
  Bi2+  Bi122  1  0.82754133  0.26204014  0.19922223  1
  Bi2+  Bi123  1  0.86999388  0.27489556  0.70135155  1
  Bi2+  Bi124  1  0.80922324  0.46152851  0.21639752  1
  Bi2+  Bi125  1  0.83813062  0.57414434  0.73112455  1
  Bi2+  Bi126  1  0.81373625  0.68688903  0.24363979  1
  Bi2+  Bi127  1  0.89075903  0.75727501  0.70403957  1
  S2-  S128  1  0.08343004  0.09406331  0.14465963  1
  S2-  S129  1  -0.07340904  0.12603604  0.64425095  1
  S2-  S130  1  -0.02294562  0.33170818  0.15359343  1
  S2-  S131  1  -0.01066228  0.37380995  0.64972903  1
  S2-  S132  1  -0.02424129  0.59625926  0.16585201  1
  S2-  S133  1  -0.00059043  0.64224750  0.65507297  1
  S2-  S134  1  -0.06766421  0.84652649  0.15524706  1
  S2-  S135  1  -0.02383268  0.89105837  0.65886349  1
  S2-  S136  1  0.29922275  0.14485156  0.18689274  1
  S2-  S137  1  0.34848646  0.11196556  0.64382325  1
  S2-  S138  1  0.17954622  0.32968855  0.17287570  1
  S2-  S139  1  0.24638682  0.36222905  0.64851145  1
  S2-  S140  1  0.24005504  0.51788864  0.14635177  1
  S2-  S141  1  0.29210608  0.66361686  0.65359124  1
  S2-  S142  1  0.25496804  0.94240379  0.14512304  1
  S2-  S143  1  0.22952347  0.90160870  0.64958411  1
  S2-  S144  1  0.50963262  0.13758137  0.16871990  1
  S2-  S145  1  0.54382071  0.15752486  0.68679555  1
  S2-  S146  1  0.40523128  0.36086856  0.14567778  1
  S2-  S147  1  0.50714133  0.38289012  0.66264390  1
  S2-  S148  1  0.49834994  0.72642081  0.14553439  1
  S2-  S149  1  0.54092242  0.63148852  0.65260672  1
  S2-  S150  1  0.52821615  0.94051636  0.15663285  1
  S2-  S151  1  0.51188715  0.95516459  0.64420056  1
  S2-  S152  1  0.74308917  0.14236324  0.14573721  1
  S2-  S153  1  0.74201093  0.18442424  0.68079770  1
  S2-  S154  1  0.62845944  0.34633828  0.13532643  1
  S2-  S155  1  0.75460817  0.38859660  0.66718783  1
  S2-  S156  1  0.75038239  0.71379203  0.14366322  1
  S2-  S157  1  0.75305420  0.74676696  0.63765400  1
  S2-  S158  1  0.74286163  0.92395848  0.16998519  1
  S2-  S159  1  0.75148281  0.97584708  0.64640961  1
  S2-  S160  1  0.13572458  0.07962207  0.35143962  1
  S2-  S161  1  0.02569246  -0.01155591  0.84727967  1
  S2-  S162  1  0.18836563  0.24994367  0.29302995  1
  S2-  S163  1  0.12055560  0.21039203  0.84545473  1
  S2-  S164  1  0.10473757  0.40136699  0.33267935  1
  S2-  S165  1  0.10567362  0.44915044  0.84165362  1
  S2-  S166  1  0.12511079  0.66918895  0.35064602  1
  S2-  S167  1  0.11251007  0.72939358  0.85306959  1
  S2-  S168  1  0.36751905  -0.02009109  0.32648348  1
  S2-  S169  1  0.43167243  -0.01280959  0.84441567  1
  S2-  S170  1  0.38201717  0.18387318  0.35772039  1
  S2-  S171  1  0.45698823  0.23041599  0.85660136  1
  S2-  S172  1  0.28103095  0.50927829  0.34425883  1
  S2-  S173  1  0.39973150  0.48322788  0.84498773  1
  S2-  S174  1  0.39631464  0.74328417  0.34477243  1
  S2-  S175  1  0.38113711  0.74584332  0.84519710  1
  S2-  S176  1  0.58029494  -0.04100421  0.32941045  1
  S2-  S177  1  0.62948346  0.08986892  0.85264173  1
  S2-  S178  1  0.61911501  0.15895400  0.36476043  1
  S2-  S179  1  0.65011685  0.30456723  0.82125486  1
  S2-  S180  1  0.50885644  0.51884303  0.35784335  1
  S2-  S181  1  0.64855993  0.51229994  0.84287753  1
  S2-  S182  1  0.63087098  0.75251794  0.33640607  1
  S2-  S183  1  0.63526054  0.86771498  0.86185783  1
  S2-  S184  1  0.78615469  -0.00672377  0.35948414  1
  S2-  S185  1  0.82427913  0.02342934  0.80897407  1
  S2-  S186  1  0.96169644  0.24123559  0.35032803  1
  S2-  S187  1  0.87354302  0.27355444  0.84043066  1
  S2-  S188  1  0.94877306  0.53128414  0.35284299  1
  S2-  S189  1  0.88857766  0.52831487  0.85055424  1
  S2-  S190  1  0.87407266  0.75803958  0.34412197  1
  S2-  S191  1  0.86876669  0.81908340  0.85465126  1
  S2-  S192  1  0.00596530  0.12848315  0.45316621  1
  S2-  S193  1  0.00017715  0.11253245  0.94990136  1
  S2-  S194  1  0.00714895  0.38166861  0.44865864  1
  S2-  S195  1  0.00316401  0.35810377  0.95232669  1
  S2-  S196  1  0.00377684  0.62945389  0.45526067  1
  S2-  S197  1  0.00670545  0.60887051  0.95833345  1
  S2-  S198  1  0.00501837  0.87559575  0.45233787  1
  S2-  S199  1  0.00660022  0.85878635  0.95681632  1
  S2-  S200  1  0.25063344  0.13281230  0.45525005  1
  S2-  S201  1  0.25540519  0.10934531  0.94448435  1
  S2-  S202  1  0.25214280  0.36912929  0.44430806  1
  S2-  S203  1  0.25840054  0.36305332  0.95379624  1
  S2-  S204  1  0.25791792  0.63063597  0.45236528  1
  S2-  S205  1  0.25454363  0.61084170  0.95417089  1
  S2-  S206  1  0.25519047  0.88075321  0.44374236  1
  S2-  S207  1  0.25249447  0.85671374  0.95058221  1
  S2-  S208  1  0.50398714  0.12978067  0.46767397  1
  S2-  S209  1  0.50512647  0.10366946  0.95980215  1
  S2-  S210  1  0.50629104  0.37251513  0.45658002  1
  S2-  S211  1  0.50354653  0.36439796  0.95423875  1
  S2-  S212  1  0.50828153  0.63218459  0.45390415  1
  S2-  S213  1  0.50525842  0.61164315  0.95305282  1
  S2-  S214  1  0.50798082  0.88133284  0.44707758  1
  S2-  S215  1  0.50288154  0.85826085  0.96021561  1
  S2-  S216  1  0.76488864  0.13066839  0.46358425  1
  S2-  S217  1  0.76415699  0.10321180  0.94514160  1
  S2-  S218  1  0.75550426  0.38049346  0.46096303  1
  S2-  S219  1  0.75170920  0.35630953  0.95322449  1
  S2-  S220  1  0.75670035  0.62754833  0.45308491  1
  S2-  S221  1  0.75605413  0.61201399  0.95513909  1
  S2-  S222  1  0.75887748  0.87241444  0.45936571  1
  S2-  S223  1  0.76183838  0.86224112  0.96220788  1
  S2-  S224  1  0.13235264  -0.01077678  0.03800763  1
  S2-  S225  1  0.12842651  0.00423270  0.54592658  1
  S2-  S226  1  0.13389899  0.23763276  0.05067749  1
  S2-  S227  1  0.13069288  0.24961852  0.55047668  1
  S2-  S228  1  0.12842166  0.47905829  0.04516407  1
  S2-  S229  1  0.13504769  0.50132040  0.54793258  1
  S2-  S230  1  0.13101462  0.73303786  0.05584379  1
  S2-  S231  1  0.13332402  0.75020943  0.54683484  1
  S2-  S232  1  0.37831106  -0.01406759  0.04828578  1
  S2-  S233  1  0.37958765  0.00042503  0.53715606  1
  S2-  S234  1  0.37177574  0.22411835  0.05350550  1
  S2-  S235  1  0.38021064  0.25438828  0.55188796  1
  S2-  S236  1  0.38196946  0.48855504  0.04605426  1
  S2-  S237  1  0.38178427  0.49973494  0.54269378  1
  S2-  S238  1  0.37417274  0.73285519  0.04958105  1
  S2-  S239  1  0.38630234  0.75327308  0.54825089  1
  S2-  S240  1  0.63285869  -0.02051670  0.04390690  1
  S2-  S241  1  0.63677523  0.00087115  0.54129815  1
  S2-  S242  1  0.62746255  0.22812698  0.03376517  1
  S2-  S243  1  0.63207460  0.24864328  0.55914177  1
  S2-  S244  1  0.62983782  0.48655074  0.04222285  1
  S2-  S245  1  0.63195042  0.50274824  0.54676128  1
  S2-  S246  1  0.63151591  0.73324511  0.04139748  1
  S2-  S247  1  0.62626753  0.75158540  0.54236856  1
  S2-  S248  1  0.88225151  -0.01154652  0.05461535  1
  S2-  S249  1  0.88640124  -0.00264136  0.54416761  1
  S2-  S250  1  0.87907511  0.23646438  0.04320744  1
  S2-  S251  1  0.88199947  0.25383174  0.54602910  1
  S2-  S252  1  0.87640593  0.47768967  0.05425045  1
  S2-  S253  1  0.87852767  0.50334833  0.54973782  1
  S2-  S254  1  0.88504726  0.73125555  0.04668853  1
  S2-  S255  1  0.88589989  0.75088856  0.54644606  1
