# generated using pymatgen
data_La12Ce14Pr13Nd13Sm12(BiS2)64
_symmetry_space_group_name_H-M   'P 1'
_cell_length_a   16.13076251
_cell_length_b   16.12900120
_cell_length_c   27.13215179
_cell_angle_alpha   90.23564704
_cell_angle_beta   89.97475336
_cell_angle_gamma   89.99341613
_symmetry_Int_Tables_number   1
_chemical_formula_structural   La12Ce14Pr13Nd13Sm12(BiS2)64
_chemical_formula_sum   'La12 Ce14 Pr13 Nd13 Sm12 Bi64 S128'
_cell_volume   7058.99527675
_cell_formula_units_Z   1
loop_
 _symmetry_equiv_pos_site_id
 _symmetry_equiv_pos_as_xyz
  1  'x, y, z'
loop_
 _atom_type_symbol
 _atom_type_oxidation_number
  La3+  3.0
  Ce3+  3.0
  Pr3+  3.0
  Nd3+  3.0
  Sm3+  3.0
  Bi2+  2.0
  S2-  -2.0
loop_
 _atom_site_type_symbol
 _atom_site_label
 _atom_site_symmetry_multiplicity
 _atom_site_fract_x
 _atom_site_fract_y
 _atom_site_fract_z
 _atom_site_occupancy
  La3+  La0  1  0.86803343  0.25390724  0.92101473  1
  La3+  La1  1  0.00728349  0.63946174  0.58728163  1
  La3+  La2  1  0.61676170  0.01292004  0.41435074  1
  La3+  La3  1  0.24024995  0.14521591  0.06153940  1
  La3+  La4  1  0.61688353  0.25535979  0.92798855  1
  La3+  La5  1  -0.00868132  0.37726490  0.59844611  1
  La3+  La6  1  0.50436383  0.89189306  0.56089259  1
  La3+  La7  1  0.37170934  0.75918878  0.93053106  1
  La3+  La8  1  0.86473698  0.50572040  0.92368247  1
  La3+  La9  1  -0.00031671  0.88657450  0.56766248  1
  La3+  La10  1  0.62313613  0.74386738  0.39805944  1
  La3+  La11  1  -0.01525120  0.37800697  0.07960015  1
  Ce3+  Ce12  1  0.73996260  0.13097336  0.06167091  1
  Ce3+  Ce13  1  0.49961487  0.37810629  0.56876640  1
  Ce3+  Ce14  1  0.75048150  0.38414578  0.56674523  1
  Ce3+  Ce15  1  0.74568325  0.63250464  0.05929859  1
  Ce3+  Ce16  1  0.23801225  0.63456584  0.05240251  1
  Ce3+  Ce17  1  0.61663052  0.50811527  0.94564046  1
  Ce3+  Ce18  1  -0.00905581  0.88115432  0.06006257  1
  Ce3+  Ce19  1  -0.00956281  0.13530770  0.05486573  1
  Ce3+  Ce20  1  0.36355667  0.00441442  0.93448680  1
  Ce3+  Ce21  1  0.25541563  0.64417875  0.57603141  1
  Ce3+  Ce22  1  0.75172739  0.63726252  0.56046806  1
  Ce3+  Ce23  1  0.74398719  0.38163561  0.05721191  1
  Ce3+  Ce24  1  0.11613435  0.00490470  0.94170468  1
  Ce3+  Ce25  1  0.61517393  0.76059919  0.95867523  1
  Pr3+  Pr26  1  0.48916873  0.63197535  0.07013705  1
  Pr3+  Pr27  1  0.48154671  0.89355374  0.08201987  1
  Pr3+  Pr28  1  0.86295533  0.76045591  0.92751451  1
  Pr3+  Pr29  1  0.86362007  0.00044335  0.93780846  1
  Pr3+  Pr30  1  0.87371676  0.00768647  0.43491091  1
  Pr3+  Pr31  1  0.61262780  0.00138261  0.94277234  1
  Pr3+  Pr32  1  0.11254937  0.50725121  0.93739715  1
  Pr3+  Pr33  1  0.11421849  0.76405268  0.90874065  1
  Pr3+  Pr34  1  0.87743465  0.75722449  0.43320903  1
  Pr3+  Pr35  1  -0.00161243  0.13244811  0.56439850  1
  Pr3+  Pr36  1  0.11569096  0.25729559  0.92790931  1
  Pr3+  Pr37  1  0.12785697  0.01008938  0.43333895  1
  Pr3+  Pr38  1  0.12379648  0.51177434  0.44964645  1
  Nd3+  Nd39  1  0.62415315  0.50960191  0.44760784  1
  Nd3+  Nd40  1  0.37574253  0.26125340  0.43841197  1
  Nd3+  Nd41  1  0.36766723  0.26493487  0.91936855  1
  Nd3+  Nd42  1  0.24787383  0.38671160  0.55899156  1
  Nd3+  Nd43  1  0.12424275  0.75566119  0.43803424  1
  Nd3+  Nd44  1  0.87702021  0.26275558  0.44140300  1
  Nd3+  Nd45  1  0.50069654  0.64282543  0.57529314  1
  Nd3+  Nd46  1  0.74854417  0.89014626  0.08452796  1
  Nd3+  Nd47  1  0.36697806  0.51276406  0.93179024  1
  Nd3+  Nd48  1  0.37268376  0.01667583  0.42211845  1
  Nd3+  Nd49  1  0.48785326  0.13895723  0.05908361  1
  Nd3+  Nd50  1  0.24983006  0.13488484  0.56437705  1
  Nd3+  Nd51  1  0.74725002  0.88369371  0.54662867  1
  Sm3+  Sm52  1  -0.01120787  0.63343745  0.04917788  1
  Sm3+  Sm53  1  0.24011032  0.88362765  0.05952404  1
  Sm3+  Sm54  1  0.62494382  0.26045656  0.44038651  1
  Sm3+  Sm55  1  0.25218950  0.88603108  0.55364066  1
  Sm3+  Sm56  1  0.48731074  0.38049388  0.05854206  1
  Sm3+  Sm57  1  0.37746315  0.51166282  0.45092750  1
  Sm3+  Sm58  1  0.87725618  0.50964214  0.45173689  1
  Sm3+  Sm59  1  0.12318406  0.26150644  0.44630555  1
  Sm3+  Sm60  1  0.38004571  0.75805981  0.44182703  1
  Sm3+  Sm61  1  0.49739046  0.13437542  0.56508797  1
  Sm3+  Sm62  1  0.23725551  0.38449150  0.05309152  1
  Sm3+  Sm63  1  0.74785951  0.13338703  0.55110742  1
  Bi2+  Bi64  1  0.05058381  0.12967773  0.27997033  1
  Bi2+  Bi65  1  0.07692308  0.08053263  0.81198053  1
  Bi2+  Bi66  1  0.00274643  0.38561085  0.32224071  1
  Bi2+  Bi67  1  0.00869154  0.36897083  0.78747956  1
  Bi2+  Bi68  1  0.02344927  0.68390224  0.26138778  1
  Bi2+  Bi69  1  0.00740987  0.62000953  0.78762070  1
  Bi2+  Bi70  1  0.03168685  0.88025053  0.29709987  1
  Bi2+  Bi71  1  -0.04029180  0.90209872  0.79490099  1
  Bi2+  Bi72  1  0.24294293  0.14852214  0.29530586  1
  Bi2+  Bi73  1  0.28413941  0.09279180  0.81855941  1
  Bi2+  Bi74  1  0.30310498  0.41315989  0.27341328  1
  Bi2+  Bi75  1  0.23753437  0.28081686  0.80572918  1
  Bi2+  Bi76  1  0.19511843  0.66364880  0.32045796  1
  Bi2+  Bi77  1  0.28223105  0.57503940  0.79280023  1
  Bi2+  Bi78  1  0.23123937  0.86607237  0.28767974  1
  Bi2+  Bi79  1  0.25406463  0.92603910  0.75551675  1
  Bi2+  Bi80  1  0.50368988  0.18054784  0.27640056  1
  Bi2+  Bi81  1  0.47248945  0.12926619  0.78459791  1
  Bi2+  Bi82  1  0.49331938  0.37593083  0.30366632  1
  Bi2+  Bi83  1  0.50055887  0.41903655  0.80617886  1
  Bi2+  Bi84  1  0.48098783  0.58894662  0.29445377  1
  Bi2+  Bi85  1  0.53422930  0.65560704  0.78679419  1
  Bi2+  Bi86  1  0.46374277  0.85621767  0.28318097  1
  Bi2+  Bi87  1  0.51005687  0.89500043  0.80184872  1
  Bi2+  Bi88  1  0.75675682  0.14277860  0.29551014  1
  Bi2+  Bi89  1  0.85508610  0.07142660  0.80982305  1
  Bi2+  Bi90  1  0.69229725  0.35874511  0.31635258  1
  Bi2+  Bi91  1  0.73469668  0.34619969  0.79133064  1
  Bi2+  Bi92  1  0.75803993  0.53361931  0.28401909  1
  Bi2+  Bi93  1  0.73199106  0.66384847  0.77883586  1
  Bi2+  Bi94  1  0.78240436  0.86174204  0.28613985  1
  Bi2+  Bi95  1  0.75377931  0.94516793  0.74098580  1
  Bi2+  Bi96  1  0.12008532  -0.00041120  0.20044570  1
  Bi2+  Bi97  1  0.12524488  0.00644523  0.68241459  1
  Bi2+  Bi98  1  0.11035245  0.27463863  0.20438397  1
  Bi2+  Bi99  1  0.13761342  0.18734253  0.72168892  1
  Bi2+  Bi100  1  0.16625731  0.53271507  0.23121350  1
  Bi2+  Bi101  1  0.19323507  0.48027796  0.71447734  1
  Bi2+  Bi102  1  0.12929242  0.80358390  0.18922654  1
  Bi2+  Bi103  1  0.14044880  0.75614907  0.71539991  1
  Bi2+  Bi104  1  0.36043839  -0.00437911  0.20788340  1
  Bi2+  Bi105  1  0.40440666  -0.00494041  0.70077576  1
  Bi2+  Bi106  1  0.37182278  0.26537377  0.20694117  1
  Bi2+  Bi107  1  0.36875851  0.26318874  0.71441328  1
  Bi2+  Bi108  1  0.43226196  0.47067293  0.18793267  1
  Bi2+  Bi109  1  0.40567312  0.46732932  0.70802533  1
  Bi2+  Bi110  1  0.29818475  0.71092260  0.22644592  1
  Bi2+  Bi111  1  0.37815199  0.74923622  0.71018549  1
  Bi2+  Bi112  1  0.61656103  -0.00426783  0.20779129  1
  Bi2+  Bi113  1  0.63008661  0.09494972  0.71635173  1
  Bi2+  Bi114  1  0.66003298  0.23775162  0.20848908  1
  Bi2+  Bi115  1  0.62333586  0.29962876  0.70533168  1
  Bi2+  Bi116  1  0.62146634  0.43561242  0.21428388  1
  Bi2+  Bi117  1  0.59788178  0.49600865  0.70882561  1
  Bi2+  Bi118  1  0.62049136  0.71344201  0.20604561  1
  Bi2+  Bi119  1  0.61859602  0.79862115  0.72163949  1
  Bi2+  Bi120  1  0.93046631  0.00926006  0.22030770  1
  Bi2+  Bi121  1  0.93300939  0.00210382  0.68565131  1
  Bi2+  Bi122  1  0.84699750  0.28745856  0.23485572  1
  Bi2+  Bi123  1  0.88152329  0.18239707  0.71843809  1
  Bi2+  Bi124  1  0.90892036  0.47336618  0.21642256  1
  Bi2+  Bi125  1  0.82132480  0.50157528  0.71903216  1
  Bi2+  Bi126  1  0.86900288  0.71717662  0.18813991  1
  Bi2+  Bi127  1  0.85560237  0.74463648  0.69526305  1
  S2-  S128  1  0.00007533  0.22070545  0.13967657  1
  S2-  S129  1  0.00513211  0.22178056  0.65216494  1
  S2-  S130  1  0.06976615  0.42093588  0.16898218  1
  S2-  S131  1  0.04775540  0.41949010  0.69285015  1
  S2-  S132  1  -0.04250771  0.60273745  0.14500972  1
  S2-  S133  1  -0.05480982  0.59921793  0.68543817  1
  S2-  S134  1  -0.08385961  0.88177542  0.14923977  1
  S2-  S135  1  0.00346577  0.78826881  0.65137763  1
  S2-  S136  1  0.25237501  0.08476234  0.15905118  1
  S2-  S137  1  0.32855483  0.12546637  0.65317969  1
  S2-  S138  1  0.24146122  0.28861851  0.13456640  1
  S2-  S139  1  0.25326136  0.34975878  0.65563213  1
  S2-  S140  1  0.21940376  0.62490280  0.15050056  1
  S2-  S141  1  0.15099759  0.62733756  0.65558779  1
  S2-  S142  1  0.33339615  0.87594050  0.14255345  1
  S2-  S143  1  0.25571122  0.80809769  0.64295872  1
  S2-  S144  1  0.48981568  0.04638881  0.14730738  1
  S2-  S145  1  0.53539284  0.01819233  0.63668567  1
  S2-  S146  1  0.48302686  0.26810463  0.13288141  1
  S2-  S147  1  0.49999900  0.25673657  0.64054299  1
  S2-  S148  1  0.46917456  0.64048775  0.17116675  1
  S2-  S149  1  0.37821387  0.61908258  0.65098988  1
  S2-  S150  1  0.53215165  0.85709321  0.18086623  1
  S2-  S151  1  0.50529129  0.78247698  0.64457207  1
  S2-  S152  1  0.73584946  0.03786166  0.14670214  1
  S2-  S153  1  0.74966760  0.14631930  0.65056331  1
  S2-  S154  1  0.83666543  0.38508782  0.14171975  1
  S2-  S155  1  0.83304586  0.38051659  0.65381010  1
  S2-  S156  1  0.73442045  0.61448121  0.15705455  1
  S2-  S157  1  0.73921612  0.62510498  0.65886042  1
  S2-  S158  1  0.72899080  0.83092360  0.18200414  1
  S2-  S159  1  0.75333536  0.86839604  0.64788078  1
  S2-  S160  1  0.23698591  0.00912089  0.35371574  1
  S2-  S161  1  0.11061736  -0.07899450  0.85459997  1
  S2-  S162  1  0.12856481  0.25978202  0.34670687  1
  S2-  S163  1  0.00955537  0.23352689  0.84803024  1
  S2-  S164  1  0.11125730  0.49657120  0.34786229  1
  S2-  S165  1  0.09273381  0.48867101  0.83611113  1
  S2-  S166  1  0.00839128  0.73855748  0.36288798  1
  S2-  S167  1  0.17952389  0.70253815  0.81535141  1
  S2-  S168  1  0.47947780  -0.02151595  0.34589475  1
  S2-  S169  1  0.37219505  -0.11254860  0.85892951  1
  S2-  S170  1  0.37484615  0.17213242  0.35195104  1
  S2-  S171  1  0.50155761  0.26119637  0.85065445  1
  S2-  S172  1  0.36780727  0.51981440  0.35192564  1
  S2-  S173  1  0.34376097  0.40546298  0.85128277  1
  S2-  S174  1  0.45156958  0.73113128  0.35292349  1
  S2-  S175  1  0.39539346  0.63421513  0.85662919  1
  S2-  S176  1  0.69428090  -0.00702783  0.31807780  1
  S2-  S177  1  0.58548385  0.02415965  0.84276963  1
  S2-  S178  1  0.61326444  0.17106443  0.35533486  1
  S2-  S179  1  0.73564149  0.21975914  0.85228789  1
  S2-  S180  1  0.61946275  0.57822462  0.35476872  1
  S2-  S181  1  0.64625663  0.47221432  0.85063308  1
  S2-  S182  1  0.61863886  0.79722450  0.29723899  1
  S2-  S183  1  0.59426624  0.77210470  0.86173286  1
  S2-  S184  1  0.90382367  -0.02828257  0.33751679  1
  S2-  S185  1  0.82526127  -0.10839260  0.85968808  1
  S2-  S186  1  0.88484076  0.25053728  0.34108400  1
  S2-  S187  1  0.87143778  0.38537207  0.84756513  1
  S2-  S188  1  0.88566126  0.49752978  0.35183588  1
  S2-  S189  1  0.85950332  0.59360587  0.83085841  1
  S2-  S190  1  0.78480724  0.73965348  0.34724482  1
  S2-  S191  1  0.97645363  0.75108010  0.84386463  1
  S2-  S192  1  0.00128249  0.13445503  0.45246302  1
  S2-  S193  1  -0.01028628  0.12536160  0.95149118  1
  S2-  S194  1  0.00040257  0.38390772  0.45996039  1
  S2-  S195  1  -0.00846488  0.38156128  0.95273612  1
  S2-  S196  1  -0.00120570  0.63093908  0.46717757  1
  S2-  S197  1  -0.00820284  0.63644473  0.94614550  1
  S2-  S198  1  0.00413867  0.88781472  0.45670474  1
  S2-  S199  1  -0.00816715  0.87894397  0.95600744  1
  S2-  S200  1  0.24670602  0.13987309  0.45718533  1
  S2-  S201  1  0.24021192  0.13381626  0.94905183  1
  S2-  S202  1  0.25048210  0.38519512  0.45132232  1
  S2-  S203  1  0.23840034  0.38460548  0.95030081  1
  S2-  S204  1  0.25388845  0.63468042  0.46189140  1
  S2-  S205  1  0.23537830  0.63585283  0.94676977  1
  S2-  S206  1  0.25238007  0.87873418  0.44963154  1
  S2-  S207  1  0.23642916  0.87747172  0.95608564  1
  S2-  S208  1  0.49799490  0.13907354  0.45874651  1
  S2-  S209  1  0.48644391  0.12986118  0.95135876  1
  S2-  S210  1  0.50026073  0.38376446  0.45714638  1
  S2-  S211  1  0.49040032  0.38790533  0.95471910  1
  S2-  S212  1  0.49968182  0.63226953  0.46437570  1
  S2-  S213  1  0.49498658  0.63155349  0.96295761  1
  S2-  S214  1  0.50132931  0.87912241  0.45153893  1
  S2-  S215  1  0.48888929  0.88323354  0.96821205  1
  S2-  S216  1  0.75285323  0.13740716  0.44690230  1
  S2-  S217  1  0.73938770  0.12452758  0.95730406  1
  S2-  S218  1  0.75070431  0.38491222  0.45782673  1
  S2-  S219  1  0.74007416  0.38200706  0.95385942  1
  S2-  S220  1  0.75169288  0.62970888  0.45533360  1
  S2-  S221  1  0.74039122  0.63517529  0.95085005  1
  S2-  S222  1  0.74576322  0.88385980  0.44148456  1
  S2-  S223  1  0.73759474  0.88185027  0.97135918  1
  S2-  S224  1  0.11660666  0.00837503  0.04995892  1
  S2-  S225  1  0.12708155  0.00970418  0.54255298  1
  S2-  S226  1  0.11199611  0.26309561  0.03498111  1
  S2-  S227  1  0.12398902  0.26014680  0.55100311  1
  S2-  S228  1  0.11203106  0.50687348  0.04444754  1
  S2-  S229  1  0.11916319  0.50313418  0.55697900  1
  S2-  S230  1  0.11401067  0.75770707  0.04708658  1
  S2-  S231  1  0.12724368  0.76386723  0.54307830  1
  S2-  S232  1  0.35849226  0.01319451  0.04097462  1
  S2-  S233  1  0.37109542  0.01179138  0.53862096  1
  S2-  S234  1  0.36399336  0.26474149  0.02895908  1
  S2-  S235  1  0.37111924  0.25982840  0.54353560  1
  S2-  S236  1  0.36352439  0.50559669  0.04437525  1
  S2-  S237  1  0.37812620  0.50513395  0.55320675  1
  S2-  S238  1  0.36446076  0.75398836  0.04383583  1
  S2-  S239  1  0.37690318  0.76342242  0.54377723  1
  S2-  S240  1  0.61297007  0.00955723  0.04879166  1
  S2-  S241  1  0.62995995  0.01408974  0.53047603  1
  S2-  S242  1  0.61903702  0.25867910  0.04028450  1
  S2-  S243  1  0.62790092  0.25774217  0.54384575  1
  S2-  S244  1  0.61435159  0.50430680  0.05424732  1
  S2-  S245  1  0.62189347  0.50879972  0.55527905  1
  S2-  S246  1  0.61603297  0.75944574  0.06376792  1
  S2-  S247  1  0.62814831  0.75804379  0.54604174  1
  S2-  S248  1  0.86910206  0.00950454  0.04590205  1
  S2-  S249  1  0.87278163  0.01050871  0.54290677  1
  S2-  S250  1  0.86265387  0.25381094  0.03750071  1
  S2-  S251  1  0.87354571  0.25683795  0.54696796  1
  S2-  S252  1  0.86696710  0.50857020  0.03642663  1
  S2-  S253  1  0.87672251  0.50959766  0.55617544  1
  S2-  S254  1  0.86581375  0.75737679  0.04251044  1
  S2-  S255  1  0.87489936  0.76109064  0.54341120  1
