# generated using pymatgen
data_La12Ce14Pr13Nd13Sm12(BiS2)64
_symmetry_space_group_name_H-M   'P 1'
_cell_length_a   16.12622842
_cell_length_b   16.16140082
_cell_length_c   27.19056087
_cell_angle_alpha   89.73926027
_cell_angle_beta   90.07430220
_cell_angle_gamma   89.96116326
_symmetry_Int_Tables_number   1
_chemical_formula_structural   La12Ce14Pr13Nd13Sm12(BiS2)64
_chemical_formula_sum   'La12 Ce14 Pr13 Nd13 Sm12 Bi64 S128'
_cell_volume   7086.38935632
_cell_formula_units_Z   1
loop_
 _symmetry_equiv_pos_site_id
 _symmetry_equiv_pos_as_xyz
  1  'x, y, z'
loop_
 _atom_type_symbol
 _atom_type_oxidation_number
  La3+  3.0
  Ce3+  3.0
  Pr3+  3.0
  Nd3+  3.0
  Sm3+  3.0
  Bi2+  2.0
  S2-  -2.0
loop_
 _atom_site_type_symbol
 _atom_site_label
 _atom_site_symmetry_multiplicity
 _atom_site_fract_x
 _atom_site_fract_y
 _atom_site_fract_z
 _atom_site_occupancy
  La3+  La0  1  0.76366826  0.63407716  0.06384925  1
  La3+  La1  1  0.24850458  0.12276658  0.56262110  1
  La3+  La2  1  0.50907051  0.63133297  0.06417768  1
  La3+  La3  1  0.13274427  0.77086992  0.92538725  1
  La3+  La4  1  0.88342788  0.24801646  0.39779720  1
  La3+  La5  1  0.50699395  0.13446979  0.08060647  1
  La3+  La6  1  0.50082387  0.38500554  0.08352718  1
  La3+  La7  1  0.26085112  0.36656840  0.58499318  1
  La3+  La8  1  0.01095648  0.63329194  0.05129793  1
  La3+  La9  1  0.51871650  0.87949973  0.08111957  1
  La3+  La10  1  0.63697176  0.76858911  0.93105538  1
  La3+  La11  1  0.36819781  0.49508493  0.41591515  1
  Ce3+  Ce12  1  0.37963559  0.24839486  0.42427137  1
  Ce3+  Ce13  1  -0.00257101  0.86541282  0.56146989  1
  Ce3+  Ce14  1  0.01611365  0.38160406  0.05637094  1
  Ce3+  Ce15  1  0.49795831  0.37036058  0.55029894  1
  Ce3+  Ce16  1  0.37510372  0.00049414  0.44054484  1
  Ce3+  Ce17  1  0.63224674  0.50836680  0.94521072  1
  Ce3+  Ce18  1  0.74930309  0.86892589  0.55309141  1
  Ce3+  Ce19  1  -0.00069643  0.37397647  0.55871813  1
  Ce3+  Ce20  1  0.87462751  -0.00514279  0.43410322  1
  Ce3+  Ce21  1  0.88199445  0.50835350  0.93797361  1
  Ce3+  Ce22  1  0.26104484  0.13368752  0.06478740  1
  Ce3+  Ce23  1  0.00258481  0.61906905  0.55596129  1
  Ce3+  Ce24  1  0.87484994  0.49814120  0.43564198  1
  Ce3+  Ce25  1  0.62777375  -0.00038394  0.44052540  1
  Pr3+  Pr26  1  0.12666706  0.49509433  0.44214080  1
  Pr3+  Pr27  1  0.63030577  0.24699643  0.42116544  1
  Pr3+  Pr28  1  0.75909533  0.14413947  0.08038012  1
  Pr3+  Pr29  1  0.12131279  0.00063383  0.44596931  1
  Pr3+  Pr30  1  0.13323775  0.51140097  0.92478449  1
  Pr3+  Pr31  1  0.36948638  0.74933693  0.43137356  1
  Pr3+  Pr32  1  0.76580516  0.88565059  0.06902145  1
  Pr3+  Pr33  1  0.38403707  0.26470313  0.93200378  1
  Pr3+  Pr34  1  0.13780916  0.25458216  0.92823737  1
  Pr3+  Pr35  1  0.39147989  0.76140991  0.92361825  1
  Pr3+  Pr36  1  0.12770308  0.74658106  0.43486987  1
  Pr3+  Pr37  1  0.87962445  0.76713825  0.92637616  1
  Pr3+  Pr38  1  0.25098363  0.86774925  0.56069970  1
  Nd3+  Nd39  1  0.25500359  0.38351684  0.05910061  1
  Nd3+  Nd40  1  -0.00419996  0.12430821  0.56327934  1
  Nd3+  Nd41  1  0.01052664  0.88254621  0.06580151  1
  Nd3+  Nd42  1  0.62766881  0.25770781  0.93984696  1
  Nd3+  Nd43  1  0.25949841  0.61867394  0.56910976  1
  Nd3+  Nd44  1  0.87399729  0.75083937  0.43161852  1
  Nd3+  Nd45  1  0.50096438  0.12462639  0.55288433  1
  Nd3+  Nd46  1  0.50332240  0.62164461  0.55795638  1
  Nd3+  Nd47  1  0.26455684  0.88071467  0.06323322  1
  Nd3+  Nd48  1  0.00727744  0.13251595  0.06956898  1
  Nd3+  Nd49  1  0.61457850  0.74706786  0.42281757  1
  Nd3+  Nd50  1  0.38595431  0.51315117  0.93042308  1
  Nd3+  Nd51  1  0.63385888  0.01330447  0.95022117  1
  Sm3+  Sm52  1  0.62495705  0.49730933  0.43673189  1
  Sm3+  Sm53  1  0.74467952  0.62157863  0.55354677  1
  Sm3+  Sm54  1  0.75053270  0.37056477  0.55182003  1
  Sm3+  Sm55  1  0.12461505  0.24854596  0.44182435  1
  Sm3+  Sm56  1  0.75089077  0.12408671  0.55471201  1
  Sm3+  Sm57  1  0.25966739  0.63465297  0.05238992  1
  Sm3+  Sm58  1  0.50233025  0.87042020  0.55397098  1
  Sm3+  Sm59  1  0.13445171  0.00836788  0.94697494  1
  Sm3+  Sm60  1  0.38773439  0.00491914  0.94568402  1
  Sm3+  Sm61  1  0.88498726  0.25381094  0.94112960  1
  Sm3+  Sm62  1  0.88294346  0.01452416  0.93998682  1
  Sm3+  Sm63  1  0.75893685  0.37837464  0.05297908  1
  Bi2+  Bi64  1  0.02565604  0.10280532  0.28605934  1
  Bi2+  Bi65  1  0.02496741  0.13620868  0.80820083  1
  Bi2+  Bi66  1  0.04154185  0.38839111  0.28876685  1
  Bi2+  Bi67  1  -0.10844176  0.35909806  0.74580086  1
  Bi2+  Bi68  1  -0.00973676  0.57346377  0.31742004  1
  Bi2+  Bi69  1  -0.07616848  0.65027617  0.77950968  1
  Bi2+  Bi70  1  0.00840014  0.77739204  0.32218211  1
  Bi2+  Bi71  1  0.01030624  0.82283506  0.80327032  1
  Bi2+  Bi72  1  0.22886143  0.18414410  0.30276336  1
  Bi2+  Bi73  1  0.30308049  0.10056651  0.78949360  1
  Bi2+  Bi74  1  0.23521054  0.38497474  0.28125140  1
  Bi2+  Bi75  1  0.23631637  0.36148636  0.80055345  1
  Bi2+  Bi76  1  0.16950038  0.63753185  0.28719953  1
  Bi2+  Bi77  1  0.24471500  0.61332042  0.78109676  1
  Bi2+  Bi78  1  0.19988569  0.88397245  0.29147796  1
  Bi2+  Bi79  1  0.29869643  0.87478051  0.77031728  1
  Bi2+  Bi80  1  0.41611740  0.12096510  0.30143938  1
  Bi2+  Bi81  1  0.51631186  0.10050410  0.80192824  1
  Bi2+  Bi82  1  0.50376557  0.39062563  0.28934587  1
  Bi2+  Bi83  1  0.51252310  0.35476711  0.78175857  1
  Bi2+  Bi84  1  0.56695728  0.62918498  0.29971725  1
  Bi2+  Bi85  1  0.50014313  0.63249406  0.78442986  1
  Bi2+  Bi86  1  0.51030430  0.87988853  0.29122829  1
  Bi2+  Bi87  1  0.51184917  0.89793401  0.79566456  1
  Bi2+  Bi88  1  0.75729120  0.10686843  0.28158462  1
  Bi2+  Bi89  1  0.70965488  0.14255410  0.82667593  1
  Bi2+  Bi90  1  0.81264131  0.36571572  0.26223551  1
  Bi2+  Bi91  1  0.71808875  0.32952642  0.79405696  1
  Bi2+  Bi92  1  0.82311709  0.67112543  0.30908869  1
  Bi2+  Bi93  1  0.73546738  0.57281453  0.80543661  1
  Bi2+  Bi94  1  0.76030652  0.85383844  0.25233972  1
  Bi2+  Bi95  1  0.75175514  0.86511500  0.79323779  1
  Bi2+  Bi96  1  0.09370012  0.04333644  0.18091910  1
  Bi2+  Bi97  1  0.13988607  -0.00511496  0.76779865  1
  Bi2+  Bi98  1  0.15460645  0.22866997  0.19405907  1
  Bi2+  Bi99  1  0.11982891  0.24970190  0.70295968  1
  Bi2+  Bi100  1  0.12843023  0.52743584  0.19336045  1
  Bi2+  Bi101  1  0.08018652  0.50208915  0.70429371  1
  Bi2+  Bi102  1  0.08403841  0.78552306  0.21388181  1
  Bi2+  Bi103  1  0.11101619  0.75112767  0.69206232  1
  Bi2+  Bi104  1  0.27698304  0.03060516  0.22776882  1
  Bi2+  Bi105  1  0.41530052  0.01465903  0.71207349  1
  Bi2+  Bi106  1  0.35551680  0.25733388  0.20373327  1
  Bi2+  Bi107  1  0.39289904  0.24176824  0.71002466  1
  Bi2+  Bi108  1  0.39905308  0.52085386  0.20541173  1
  Bi2+  Bi109  1  0.42816989  0.49293536  0.71531118  1
  Bi2+  Bi110  1  0.34659382  0.75769364  0.19908318  1
  Bi2+  Bi111  1  0.38812806  0.74969477  0.70061913  1
  Bi2+  Bi112  1  0.57553829  0.04951229  0.24585709  1
  Bi2+  Bi113  1  0.69939833  0.03042997  0.73138898  1
  Bi2+  Bi114  1  0.64941843  0.25266764  0.21132963  1
  Bi2+  Bi115  1  0.63083164  0.21540683  0.71218598  1
  Bi2+  Bi116  1  0.71672977  0.53637285  0.25135878  1
  Bi2+  Bi117  1  0.62491686  0.48089434  0.70451019  1
  Bi2+  Bi118  1  0.61598903  0.75340482  0.20468462  1
  Bi2+  Bi119  1  0.63017091  0.74327772  0.70321023  1
  Bi2+  Bi120  1  0.94847282  -0.07120704  0.22995662  1
  Bi2+  Bi121  1  0.90094157  -0.00808246  0.75416629  1
  Bi2+  Bi122  1  0.93853401  0.23695359  0.20924196  1
  Bi2+  Bi123  1  0.91013567  0.17394571  0.71182938  1
  Bi2+  Bi124  1  0.95081403  0.42842234  0.18513767  1
  Bi2+  Bi125  1  0.81815094  0.53016272  0.70333042  1
  Bi2+  Bi126  1  0.86605796  0.71175752  0.19581074  1
  Bi2+  Bi127  1  0.86805276  0.79435755  0.70511222  1
  S2-  S128  1  -0.10700136  0.11782772  0.14723708  1
  S2-  S129  1  0.06578283  0.12389304  0.65597069  1
  S2-  S130  1  0.12750520  0.38966199  0.13340005  1
  S2-  S131  1  -0.00407195  0.37215934  0.65837554  1
  S2-  S132  1  0.01236723  0.64927487  0.15223484  1
  S2-  S133  1  -0.00707764  0.63448501  0.65305630  1
  S2-  S134  1  -0.10522345  0.86586360  0.14099385  1
  S2-  S135  1  0.00550663  0.87790503  0.65872988  1
  S2-  S136  1  0.35637284  0.11001102  0.14804424  1
  S2-  S137  1  0.26118158  0.21538740  0.64731479  1
  S2-  S138  1  0.34903335  0.40081670  0.14463447  1
  S2-  S139  1  0.20352197  0.40771221  0.68336094  1
  S2-  S140  1  0.26758545  0.61740811  0.15200162  1
  S2-  S141  1  0.19503664  0.61750140  0.66707084  1
  S2-  S142  1  0.22247679  0.83996797  0.15781951  1
  S2-  S143  1  0.24605875  0.84066970  0.66004262  1
  S2-  S144  1  0.50631690  0.25803532  0.15479949  1
  S2-  S145  1  0.49932384  0.13810741  0.65244080  1
  S2-  S146  1  0.53954930  0.45484908  0.18516969  1
  S2-  S147  1  0.42085712  0.36891784  0.63884024  1
  S2-  S148  1  0.48123334  0.66061780  0.16289544  1
  S2-  S149  1  0.39771084  0.61453776  0.63863367  1
  S2-  S150  1  0.43819870  0.87917851  0.17322592  1
  S2-  S151  1  0.50887598  0.83457147  0.65113252  1
  S2-  S152  1  0.64217256  0.10961505  0.15678828  1
  S2-  S153  1  0.75890787  0.13913009  0.65348249  1
  S2-  S154  1  0.74855086  0.30323357  0.14188650  1
  S2-  S155  1  0.74116239  0.39638928  0.65000605  1
  S2-  S156  1  0.72268408  0.62324704  0.16158028  1
  S2-  S157  1  0.63370976  0.63452517  0.63235742  1
  S2-  S158  1  0.66286576  0.88218709  0.15382830  1
  S2-  S159  1  0.73300699  0.85614486  0.65077055  1
  S2-  S160  1  0.12265830  -0.00286022  0.34489672  1
  S2-  S161  1  0.12708343  -0.07760978  0.86189648  1
  S2-  S162  1  0.04610978  0.24792404  0.35254727  1
  S2-  S163  1  0.07711846  0.28926782  0.83136486  1
  S2-  S164  1  0.21467149  0.50981534  0.35447827  1
  S2-  S165  1  0.14231036  0.49744190  0.82265916  1
  S2-  S166  1  0.24254124  0.74785028  0.35661145  1
  S2-  S167  1  0.14460054  0.70637030  0.82947444  1
  S2-  S168  1  0.38424019  -0.04059925  0.34540997  1
  S2-  S169  1  0.37589776  -0.09345948  0.86161836  1
  S2-  S170  1  0.36259328  0.35873417  0.34738588  1
  S2-  S171  1  0.26822294  0.22272968  0.85643738  1
  S2-  S172  1  0.42904348  0.54416954  0.31665378  1
  S2-  S173  1  0.36618766  0.40517671  0.85097937  1
  S2-  S174  1  0.47085470  0.74947512  0.34771148  1
  S2-  S175  1  0.36290281  0.63105138  0.85045956  1
  S2-  S176  1  0.64659723  0.03024754  0.34489295  1
  S2-  S177  1  0.63909116  -0.07463329  0.86343053  1
  S2-  S178  1  0.51769833  0.24643264  0.34153894  1
  S2-  S179  1  0.51467171  0.24558252  0.86109029  1
  S2-  S180  1  0.63343942  0.46810287  0.33952841  1
  S2-  S181  1  0.58653011  0.51941144  0.85111679  1
  S2-  S182  1  0.65753726  0.80852492  0.32945226  1
  S2-  S183  1  0.52449319  0.75425018  0.85141199  1
  S2-  S184  1  0.88414975  0.09031696  0.34913357  1
  S2-  S185  1  0.88826083  -0.09315601  0.85948636  1
  S2-  S186  1  0.73757766  0.24642716  0.33726220  1
  S2-  S187  1  0.87525106  0.14069399  0.86742384  1
  S2-  S188  1  0.88273223  0.41231188  0.35079771  1
  S2-  S189  1  0.89596596  0.51212411  0.84052071  1
  S2-  S190  1  0.88331201  0.87590578  0.36049426  1
  S2-  S191  1  0.75397211  0.72925586  0.85459163  1
  S2-  S192  1  -0.00247376  0.12645232  0.45750129  1
  S2-  S193  1  0.01377628  0.13199028  0.96024229  1
  S2-  S194  1  -0.00081580  0.37197763  0.45438309  1
  S2-  S195  1  0.00743559  0.38090758  0.94787445  1
  S2-  S196  1  -0.00037297  0.62344995  0.45037526  1
  S2-  S197  1  0.00647584  0.63751204  0.94224944  1
  S2-  S198  1  0.00299933  0.87025893  0.45792292  1
  S2-  S199  1  0.00636889  0.88887677  0.96163338  1
  S2-  S200  1  0.24883310  0.12450420  0.45278491  1
  S2-  S201  1  0.26095999  0.12354111  0.95856349  1
  S2-  S202  1  0.24731984  0.36610067  0.45375871  1
  S2-  S203  1  0.25255861  0.38717643  0.95238050  1
  S2-  S204  1  0.25084119  0.62163438  0.46039108  1
  S2-  S205  1  0.25445728  0.63860883  0.94891358  1
  S2-  S206  1  0.24842572  0.87811337  0.45499259  1
  S2-  S207  1  0.26010245  0.88460255  0.95899732  1
  S2-  S208  1  0.50276637  0.12205496  0.44786004  1
  S2-  S209  1  0.50483312  0.13029418  0.96326639  1
  S2-  S210  1  0.50447247  0.37410545  0.44639869  1
  S2-  S211  1  0.50865624  0.38757882  0.96006618  1
  S2-  S212  1  0.49923965  0.61775355  0.44932447  1
  S2-  S213  1  0.51170303  0.63444890  0.95691069  1
  S2-  S214  1  0.50056085  0.87673178  0.45043774  1
  S2-  S215  1  0.51047632  0.88528827  0.96666412  1
  S2-  S216  1  0.75297314  0.12534510  0.45158552  1
  S2-  S217  1  0.75676218  0.13819965  0.96819736  1
  S2-  S218  1  0.74975265  0.37287821  0.44869368  1
  S2-  S219  1  0.75942462  0.37767002  0.94755587  1
  S2-  S220  1  0.74657425  0.62408357  0.44792849  1
  S2-  S221  1  0.75950000  0.62909994  0.95713829  1
  S2-  S222  1  0.74406078  0.86932891  0.44961624  1
  S2-  S223  1  0.76207674  0.89051205  0.96236983  1
  S2-  S224  1  0.13528227  0.00601670  0.05118668  1
  S2-  S225  1  0.12381513  -0.00524179  0.55278189  1
  S2-  S226  1  0.13374795  0.25131716  0.03956151  1
  S2-  S227  1  0.12332428  0.24984556  0.54668653  1
  S2-  S228  1  0.13525358  0.51293005  0.03325561  1
  S2-  S229  1  0.13088082  0.49367877  0.55057301  1
  S2-  S230  1  0.13457279  0.75973985  0.04145224  1
  S2-  S231  1  0.12728687  0.74292652  0.54540160  1
  S2-  S232  1  0.38758215  0.00179126  0.04930788  1
  S2-  S233  1  0.37748558  -0.00398930  0.54985491  1
  S2-  S234  1  0.37890808  0.25908007  0.04303785  1
  S2-  S235  1  0.37594219  0.24435503  0.53526636  1
  S2-  S236  1  0.38066729  0.51202264  0.04035075  1
  S2-  S237  1  0.37557720  0.49344187  0.53665907  1
  S2-  S238  1  0.38368839  0.75663554  0.04642552  1
  S2-  S239  1  0.37897048  0.74977824  0.53997486  1
  S2-  S240  1  0.63518432  0.01069347  0.05297890  1
  S2-  S241  1  0.62531849  -0.00187094  0.54918502  1
  S2-  S242  1  0.62804215  0.26293235  0.04429429  1
  S2-  S243  1  0.62754661  0.24699610  0.54142752  1
  S2-  S244  1  0.63773090  0.50275109  0.05369859  1
  S2-  S245  1  0.62631461  0.49296917  0.54056221  1
  S2-  S246  1  0.63787574  0.75633735  0.04807073  1
  S2-  S247  1  0.62356510  0.74923117  0.53141160  1
  S2-  S248  1  0.88738160  0.01056955  0.04467803  1
  S2-  S249  1  0.87377440  -0.00283419  0.54771814  1
  S2-  S250  1  0.89005983  0.26099505  0.04454168  1
  S2-  S251  1  0.87289879  0.24861169  0.55409095  1
  S2-  S252  1  0.88484583  0.50255601  0.04603567  1
  S2-  S253  1  0.86992085  0.49936732  0.54434907  1
  S2-  S254  1  0.88602317  0.75700293  0.03718534  1
  S2-  S255  1  0.87155834  0.74139478  0.54256553  1
