# generated using pymatgen
data_La12Ce14Pr13Nd13Sm12(BiS2)64
_symmetry_space_group_name_H-M   'P 1'
_cell_length_a   16.10255540
_cell_length_b   16.10567974
_cell_length_c   27.15492072
_cell_angle_alpha   89.86080455
_cell_angle_beta   90.00276454
_cell_angle_gamma   89.88644234
_symmetry_Int_Tables_number   1
_chemical_formula_structural   La12Ce14Pr13Nd13Sm12(BiS2)64
_chemical_formula_sum   'La12 Ce14 Pr13 Nd13 Sm12 Bi64 S128'
_cell_volume   7042.39312641
_cell_formula_units_Z   1
loop_
 _symmetry_equiv_pos_site_id
 _symmetry_equiv_pos_as_xyz
  1  'x, y, z'
loop_
 _atom_type_symbol
 _atom_type_oxidation_number
  La3+  3.0
  Ce3+  3.0
  Pr3+  3.0
  Nd3+  3.0
  Sm3+  3.0
  Bi2+  2.0
  S2-  -2.0
loop_
 _atom_site_type_symbol
 _atom_site_label
 _atom_site_symmetry_multiplicity
 _atom_site_fract_x
 _atom_site_fract_y
 _atom_site_fract_z
 _atom_site_occupancy
  La3+  La0  1  0.62958813  0.50714895  0.89468724  1
  La3+  La1  1  0.13462417  0.76385600  0.41544320  1
  La3+  La2  1  0.74074124  0.89196770  0.07098460  1
  La3+  La3  1  0.13164455  0.49667190  0.43046457  1
  La3+  La4  1  -0.00234037  0.37475638  0.06818388  1
  La3+  La5  1  0.25080694  0.88993779  0.07709027  1
  La3+  La6  1  0.36769028  0.26493215  0.91180031  1
  La3+  La7  1  0.36452830  0.51511867  0.91590875  1
  La3+  La8  1  0.87595606  0.75469914  0.42217733  1
  La3+  La9  1  0.86804196  0.49609623  0.38298210  1
  La3+  La10  1  0.25067299  0.14555960  0.08130494  1
  La3+  La11  1  0.11571023  0.25726958  0.92675940  1
  Ce3+  Ce12  1  0.11684466  0.51031231  0.93856697  1
  Ce3+  Ce13  1  0.62031866  0.00859228  0.93442630  1
  Ce3+  Ce14  1  0.36836907  0.75563127  0.93623925  1
  Ce3+  Ce15  1  0.00808256  0.62121884  0.08799109  1
  Ce3+  Ce16  1  0.00522773  0.62809612  0.54365976  1
  Ce3+  Ce17  1  0.25424116  0.62672167  0.55568691  1
  Ce3+  Ce18  1  0.86657796  0.51118137  0.94939676  1
  Ce3+  Ce19  1  0.49249922  0.63160448  0.05671773  1
  Ce3+  Ce20  1  0.88509959  0.25287329  0.43787000  1
  Ce3+  Ce21  1  0.62709990  0.74745143  0.43614311  1
  Ce3+  Ce22  1  0.63155008  0.25791306  0.44565190  1
  Ce3+  Ce23  1  0.37938600  0.50071258  0.44072208  1
  Ce3+  Ce24  1  0.62093940  0.75187092  0.94531950  1
  Ce3+  Ce25  1  0.50691821  0.87569104  0.55584157  1
  Pr3+  Pr26  1  0.00269597  0.86565492  0.57277894  1
  Pr3+  Pr27  1  0.74092971  0.38501332  0.05954056  1
  Pr3+  Pr28  1  0.63187634  0.00123121  0.43009089  1
  Pr3+  Pr29  1  0.51601069  0.38593820  0.58549794  1
  Pr3+  Pr30  1  0.37565201  0.01083227  0.43130329  1
  Pr3+  Pr31  1  -0.00547669  0.88246551  0.06626044  1
  Pr3+  Pr32  1  -0.00493715  0.13398703  0.06286543  1
  Pr3+  Pr33  1  0.88572108  0.00210464  0.43667418  1
  Pr3+  Pr34  1  0.74204055  0.64044931  0.07998368  1
  Pr3+  Pr35  1  0.51050074  0.12359968  0.56581206  1
  Pr3+  Pr36  1  0.36860613  0.00971665  0.93157863  1
  Pr3+  Pr37  1  0.11714519  0.75889067  0.94846197  1
  Pr3+  Pr38  1  0.24852596  0.87790370  0.56948709  1
  Nd3+  Nd39  1  0.76025353  0.87500398  0.56246509  1
  Nd3+  Nd40  1  0.26057248  0.37354571  0.57295468  1
  Nd3+  Nd41  1  0.49813490  0.63443836  0.57225945  1
  Nd3+  Nd42  1  0.13102999  0.00483463  0.45440595  1
  Nd3+  Nd43  1  0.75774606  0.12547258  0.55683621  1
  Nd3+  Nd44  1  0.38823877  0.25300165  0.44332709  1
  Nd3+  Nd45  1  0.48990722  0.13639418  0.05252762  1
  Nd3+  Nd46  1  0.00451887  0.37998647  0.56322847  1
  Nd3+  Nd47  1  0.86690215  0.00748816  0.93753795  1
  Nd3+  Nd48  1  0.12099404  0.00579866  0.94126606  1
  Nd3+  Nd49  1  0.86676819  0.75452305  0.95067496  1
  Nd3+  Nd50  1  -0.00193148  0.13433999  0.58558000  1
  Nd3+  Nd51  1  0.26715752  0.12168360  0.58372900  1
  Sm3+  Sm52  1  0.37978712  0.75228024  0.43916294  1
  Sm3+  Sm53  1  0.49232282  0.38568992  0.04930412  1
  Sm3+  Sm54  1  0.49065676  0.88663961  0.04892265  1
  Sm3+  Sm55  1  0.24723954  0.63373081  0.06365845  1
  Sm3+  Sm56  1  0.74352081  0.13625272  0.05713286  1
  Sm3+  Sm57  1  0.24696999  0.38311821  0.05148743  1
  Sm3+  Sm58  1  0.87007352  0.26052736  0.93389811  1
  Sm3+  Sm59  1  0.75653280  0.62725793  0.55195645  1
  Sm3+  Sm60  1  0.62870738  0.50271814  0.44007800  1
  Sm3+  Sm61  1  0.75611826  0.38112625  0.55814087  1
  Sm3+  Sm62  1  0.13344844  0.24842470  0.45904017  1
  Sm3+  Sm63  1  0.61823657  0.26227394  0.93791886  1
  Bi2+  Bi64  1  -0.04751555  0.12540773  0.32806281  1
  Bi2+  Bi65  1  -0.03669714  0.12824448  0.78785811  1
  Bi2+  Bi66  1  0.01394560  0.32122280  0.29631144  1
  Bi2+  Bi67  1  0.02868590  0.43043711  0.79446844  1
  Bi2+  Bi68  1  0.00528061  0.59471524  0.27164873  1
  Bi2+  Bi69  1  0.00386331  0.62902403  0.79634185  1
  Bi2+  Bi70  1  -0.00676062  0.93519077  0.28759846  1
  Bi2+  Bi71  1  0.00912179  0.88221861  0.80776082  1
  Bi2+  Bi72  1  0.20787003  0.10863580  0.31659754  1
  Bi2+  Bi73  1  0.23362453  0.10445186  0.79396847  1
  Bi2+  Bi74  1  0.33094127  0.34821505  0.29944515  1
  Bi2+  Bi75  1  0.24867254  0.39079853  0.78478018  1
  Bi2+  Bi76  1  0.31745236  0.60270751  0.29368385  1
  Bi2+  Bi77  1  0.25772932  0.63186687  0.78037840  1
  Bi2+  Bi78  1  0.23757111  0.86981430  0.29134405  1
  Bi2+  Bi79  1  0.28042202  0.82797697  0.79399666  1
  Bi2+  Bi80  1  0.60141737  0.12386636  0.22349188  1
  Bi2+  Bi81  1  0.52908199  0.07151113  0.78065252  1
  Bi2+  Bi82  1  0.50314707  0.42772207  0.33666751  1
  Bi2+  Bi83  1  0.52189136  0.34099922  0.77995203  1
  Bi2+  Bi84  1  0.49223248  0.62795444  0.34813899  1
  Bi2+  Bi85  1  0.52110754  0.67004463  0.78054490  1
  Bi2+  Bi86  1  0.50163207  0.87725092  0.28520984  1
  Bi2+  Bi87  1  0.50506915  0.86794503  0.78876937  1
  Bi2+  Bi88  1  0.76211849  0.09886776  0.29711593  1
  Bi2+  Bi89  1  0.77258411  0.18669845  0.79193888  1
  Bi2+  Bi90  1  0.68833459  0.28031822  0.31388611  1
  Bi2+  Bi91  1  0.83482838  0.38034365  0.78884744  1
  Bi2+  Bi92  1  0.74688688  0.62901648  0.28226835  1
  Bi2+  Bi93  1  0.79201888  0.66317060  0.79785940  1
  Bi2+  Bi94  1  0.71156712  0.90576254  0.29608331  1
  Bi2+  Bi95  1  0.69841272  0.90146137  0.78668330  1
  Bi2+  Bi96  1  0.07057744  0.09070577  0.23098150  1
  Bi2+  Bi97  1  0.15816176  -0.01660547  0.71869896  1
  Bi2+  Bi98  1  0.18435153  0.25892193  0.23369968  1
  Bi2+  Bi99  1  0.07669454  0.24135493  0.72471966  1
  Bi2+  Bi100  1  0.17292437  0.44863639  0.19445834  1
  Bi2+  Bi101  1  0.10191568  0.52034768  0.69976406  1
  Bi2+  Bi102  1  0.10250966  0.74123912  0.20665819  1
  Bi2+  Bi103  1  0.11332104  0.71945340  0.71261895  1
  Bi2+  Bi104  1  0.36670335  0.02466585  0.20573588  1
  Bi2+  Bi105  1  0.44330734  -0.02940013  0.69034796  1
  Bi2+  Bi106  1  0.44586861  0.24286248  0.22667407  1
  Bi2+  Bi107  1  0.35140485  0.21419727  0.72595250  1
  Bi2+  Bi108  1  0.36871303  0.47240237  0.20924986  1
  Bi2+  Bi109  1  0.38625230  0.49910358  0.70216199  1
  Bi2+  Bi110  1  0.36991839  0.74551766  0.22071212  1
  Bi2+  Bi111  1  0.37587321  0.76691103  0.70269743  1
  Bi2+  Bi112  1  0.60663717  -0.06335650  0.19095578  1
  Bi2+  Bi113  1  0.63055041  -0.01477958  0.64964360  1
  Bi2+  Bi114  1  0.62905020  0.32039669  0.20662798  1
  Bi2+  Bi115  1  0.64566167  0.16348572  0.70235163  1
  Bi2+  Bi116  1  0.55991684  0.50028666  0.23620504  1
  Bi2+  Bi117  1  0.66910705  0.51370491  0.70748418  1
  Bi2+  Bi118  1  0.55556272  0.69827415  0.24060293  1
  Bi2+  Bi119  1  0.64919021  0.76967091  0.70723382  1
  Bi2+  Bi120  1  0.87372650  0.03343464  0.20207392  1
  Bi2+  Bi121  1  0.80008835  0.00314617  0.70959661  1
  Bi2+  Bi122  1  0.89888647  0.22862269  0.21671674  1
  Bi2+  Bi123  1  0.81668752  0.27864735  0.69021274  1
  Bi2+  Bi124  1  0.84570098  0.47574000  0.17889041  1
  Bi2+  Bi125  1  0.89993544  0.52466396  0.71602593  1
  Bi2+  Bi126  1  0.86412253  0.81906554  0.21275293  1
  Bi2+  Bi127  1  0.88458492  0.74703723  0.70764023  1
  S2-  S128  1  0.00348152  0.24359583  0.14088722  1
  S2-  S129  1  0.04215112  0.07955847  0.68298178  1
  S2-  S130  1  0.01778843  0.46901394  0.15357707  1
  S2-  S131  1  -0.01524772  0.29621476  0.65204463  1
  S2-  S132  1  -0.05860223  0.66893872  0.17735799  1
  S2-  S133  1  -0.00811194  0.69487732  0.63416481  1
  S2-  S134  1  0.01601334  0.87660180  0.16642602  1
  S2-  S135  1  0.12651023  0.85691682  0.64892223  1
  S2-  S136  1  0.23604433  0.01843420  0.15257208  1
  S2-  S137  1  0.22152607  0.21245249  0.66850052  1
  S2-  S138  1  0.23360722  0.30074855  0.13891963  1
  S2-  S139  1  0.23571886  0.42770219  0.66863851  1
  S2-  S140  1  0.16916312  0.60664334  0.15145538  1
  S2-  S141  1  0.33044110  0.63316747  0.64413621  1
  S2-  S142  1  0.23657636  0.80688324  0.16765827  1
  S2-  S143  1  0.28230111  0.98278090  0.65114481  1
  S2-  S144  1  0.40453509  0.14547632  0.14100967  1
  S2-  S145  1  0.41463836  0.13230513  0.65060222  1
  S2-  S146  1  0.47305280  0.36677784  0.14800199  1
  S2-  S147  1  0.44864898  0.34512951  0.67973332  1
  S2-  S148  1  0.45779118  0.65132600  0.15181272  1
  S2-  S149  1  0.52449238  0.53141423  0.65247550  1
  S2-  S150  1  0.45062437  0.91050266  0.14404837  1
  S2-  S151  1  0.51460803  0.77232202  0.63801764  1
  S2-  S152  1  0.73479469  0.03879326  0.13907141  1
  S2-  S153  1  0.84804344  0.12306496  0.64255416  1
  S2-  S154  1  0.78034444  0.31598832  0.15017187  1
  S2-  S155  1  0.68033062  0.38415984  0.64888457  1
  S2-  S156  1  0.71905792  0.57673585  0.17549404  1
  S2-  S157  1  0.73270276  0.64057871  0.65144456  1
  S2-  S158  1  0.73783342  0.79284893  0.15483145  1
  S2-  S159  1  0.86973574  0.87570108  0.64471263  1
  S2-  S160  1  0.13062410  -0.06751882  0.36015070  1
  S2-  S161  1  0.09915880  0.02487124  0.84155829  1
  S2-  S162  1  0.12504594  0.24120997  0.35940604  1
  S2-  S163  1  0.22339644  0.26341924  0.84434721  1
  S2-  S164  1  0.03631700  0.47428053  0.34412970  1
  S2-  S165  1  0.20663018  0.52176171  0.85363317  1
  S2-  S166  1  0.09457004  0.71008651  0.31267279  1
  S2-  S167  1  0.13403059  0.80381766  0.85049763  1
  S2-  S168  1  0.36030692  -0.04741026  0.33053938  1
  S2-  S169  1  0.32846122  -0.01565991  0.83380150  1
  S2-  S170  1  0.34183781  0.15197385  0.36588343  1
  S2-  S171  1  0.44748994  0.20162752  0.82356119  1
  S2-  S172  1  0.26659135  0.48324802  0.36038275  1
  S2-  S173  1  0.38853056  0.40141528  0.83812615  1
  S2-  S174  1  0.28469916  0.75566947  0.35470332  1
  S2-  S175  1  0.38199862  0.65980303  0.85271791  1
  S2-  S176  1  0.57526482  0.00826852  0.33462825  1
  S2-  S177  1  0.67110267  0.05164799  0.84428630  1
  S2-  S178  1  0.53840546  0.25744677  0.36301272  1
  S2-  S179  1  0.63304837  0.33772811  0.84969178  1
  S2-  S180  1  0.69843357  0.51081346  0.34760262  1
  S2-  S181  1  0.56556867  0.51126014  0.79505709  1
  S2-  S182  1  0.70334914  0.76100426  0.34740560  1
  S2-  S183  1  0.64401933  0.67989753  0.85737880  1
  S2-  S184  1  0.88321487  -0.10652249  0.35416747  1
  S2-  S185  1  0.89116525  -0.01038227  0.83919087  1
  S2-  S186  1  0.85495857  0.32239973  0.34947735  1
  S2-  S187  1  0.98155060  0.24454900  0.85731711  1
  S2-  S188  1  0.85518575  0.48932284  0.27217609  1
  S2-  S189  1  0.79733552  0.51585966  0.85797590  1
  S2-  S190  1  0.88691849  0.65556872  0.33649152  1
  S2-  S191  1  0.89891486  0.76551216  0.85146298  1
  S2-  S192  1  0.00642982  0.12826479  0.46653648  1
  S2-  S193  1  -0.00955552  0.12809256  0.95621611  1
  S2-  S194  1  0.00858690  0.37230586  0.45849317  1
  S2-  S195  1  -0.00981047  0.38595772  0.95597303  1
  S2-  S196  1  0.01127336  0.63110419  0.44112110  1
  S2-  S197  1  -0.00638505  0.63258261  0.95917417  1
  S2-  S198  1  0.00873535  0.87642424  0.45982082  1
  S2-  S199  1  -0.00945692  0.88423728  0.95890611  1
  S2-  S200  1  0.25481003  0.12781423  0.47409310  1
  S2-  S201  1  0.24405937  0.13103102  0.94550139  1
  S2-  S202  1  0.25765445  0.36903599  0.46450630  1
  S2-  S203  1  0.24359132  0.38669923  0.94929028  1
  S2-  S204  1  0.25576870  0.62797698  0.45259196  1
  S2-  S205  1  0.24283329  0.63582183  0.95865416  1
  S2-  S206  1  0.25924216  0.88195469  0.46050693  1
  S2-  S207  1  0.24608277  0.88294545  0.95797531  1
  S2-  S208  1  0.50965324  0.12408812  0.45872912  1
  S2-  S209  1  0.49654596  0.13593375  0.94508249  1
  S2-  S210  1  0.50830805  0.38142670  0.46823315  1
  S2-  S211  1  0.50063984  0.39142612  0.94587291  1
  S2-  S212  1  0.50228653  0.62738887  0.46342656  1
  S2-  S213  1  0.49879251  0.62651787  0.95218170  1
  S2-  S214  1  0.50326478  0.87619497  0.44609018  1
  S2-  S215  1  0.49531609  0.88104390  0.94342315  1
  S2-  S216  1  0.75599459  0.12836087  0.44877812  1
  S2-  S217  1  0.74494366  0.13859287  0.95227270  1
  S2-  S218  1  0.75576312  0.38332361  0.45519708  1
  S2-  S219  1  0.74549874  0.38172377  0.95373191  1
  S2-  S220  1  0.75509416  0.62326086  0.44898172  1
  S2-  S221  1  0.74300006  0.63132238  0.96876519  1
  S2-  S222  1  0.75274723  0.87939898  0.45564284  1
  S2-  S223  1  0.74328325  0.88236526  0.95599272  1
  S2-  S224  1  0.11972565  0.01041482  0.04871994  1
  S2-  S225  1  0.12309856  0.00941491  0.55815730  1
  S2-  S226  1  0.12374523  0.25438172  0.03508166  1
  S2-  S227  1  0.13017508  0.25244316  0.56048218  1
  S2-  S228  1  0.12474045  0.50568216  0.04270932  1
  S2-  S229  1  0.13162319  0.49951761  0.54553288  1
  S2-  S230  1  0.12115982  0.75714558  0.05456770  1
  S2-  S231  1  0.13261010  0.74919832  0.53637146  1
  S2-  S232  1  0.36842261  0.01277506  0.03777746  1
  S2-  S233  1  0.38645417  -0.00125913  0.54212690  1
  S2-  S234  1  0.37064466  0.26274046  0.03075140  1
  S2-  S235  1  0.38752916  0.25664399  0.55191191  1
  S2-  S236  1  0.36688064  0.50726194  0.04576312  1
  S2-  S237  1  0.38023518  0.49907051  0.54877723  1
  S2-  S238  1  0.36825588  0.75944482  0.04399800  1
  S2-  S239  1  0.37433358  0.75680328  0.54191465  1
  S2-  S240  1  0.61331174  0.01207802  0.03966126  1
  S2-  S241  1  0.63433769  -0.00067509  0.53751492  1
  S2-  S242  1  0.61726119  0.25805858  0.04517293  1
  S2-  S243  1  0.63346647  0.25207768  0.55186985  1
  S2-  S244  1  0.61587230  0.50790374  0.06064610  1
  S2-  S245  1  0.63265418  0.50765425  0.54459761  1
  S2-  S246  1  0.61311527  0.76250173  0.05124094  1
  S2-  S247  1  0.63551349  0.75214843  0.54080412  1
  S2-  S248  1  0.86986726  0.01114110  0.04531694  1
  S2-  S249  1  0.88308498  0.00150012  0.54323809  1
  S2-  S250  1  0.86568354  0.25482391  0.03824071  1
  S2-  S251  1  0.87680675  0.25653369  0.54356875  1
  S2-  S252  1  0.86909820  0.50980633  0.05581273  1
  S2-  S253  1  0.87919163  0.50291052  0.55830501  1
  S2-  S254  1  0.87278333  0.75672305  0.05566543  1
  S2-  S255  1  0.87614810  0.74945563  0.53390423  1
