# generated using pymatgen
data_La12Ce14Pr13Nd13Sm12(BiS2)64
_symmetry_space_group_name_H-M   'P 1'
_cell_length_a   16.16256693
_cell_length_b   16.14875188
_cell_length_c   27.17941533
_cell_angle_alpha   90.15087240
_cell_angle_beta   90.02337208
_cell_angle_gamma   90.03303434
_symmetry_Int_Tables_number   1
_chemical_formula_structural   La12Ce14Pr13Nd13Sm12(BiS2)64
_chemical_formula_sum   'La12 Ce14 Pr13 Nd13 Sm12 Bi64 S128'
_cell_volume   7093.94462196
_cell_formula_units_Z   1
loop_
 _symmetry_equiv_pos_site_id
 _symmetry_equiv_pos_as_xyz
  1  'x, y, z'
loop_
 _atom_type_symbol
 _atom_type_oxidation_number
  La3+  3.0
  Ce3+  3.0
  Pr3+  3.0
  Nd3+  3.0
  Sm3+  3.0
  Bi2+  2.0
  S2-  -2.0
loop_
 _atom_site_type_symbol
 _atom_site_label
 _atom_site_symmetry_multiplicity
 _atom_site_fract_x
 _atom_site_fract_y
 _atom_site_fract_z
 _atom_site_occupancy
  La3+  La0  1  0.62613597  0.24879164  0.43186165  1
  La3+  La1  1  0.51040415  0.87792474  0.07859085  1
  La3+  La2  1  0.37115325  -0.00496972  0.40603989  1
  La3+  La3  1  0.61951771  0.24808879  0.92322843  1
  La3+  La4  1  0.24978230  0.39082588  0.08770463  1
  La3+  La5  1  0.62780756  0.49930287  0.92865859  1
  La3+  La6  1  0.64165093  0.49671934  0.41538552  1
  La3+  La7  1  0.38205119  0.76337177  0.90955157  1
  La3+  La8  1  0.49811771  0.37558149  0.60415362  1
  La3+  La9  1  0.00465498  0.88361485  0.06357160  1
  La3+  La10  1  0.00584672  0.62506232  0.57581024  1
  La3+  La11  1  0.88166733  0.25863690  0.91668401  1
  Ce3+  Ce12  1  0.00531071  0.37798046  0.05814565  1
  Ce3+  Ce13  1  0.25563852  0.63137490  0.05306988  1
  Ce3+  Ce14  1  0.13146121  0.00247870  0.93239332  1
  Ce3+  Ce15  1  0.51177628  0.37978211  0.07727202  1
  Ce3+  Ce16  1  0.13336893  0.75332998  0.44844520  1
  Ce3+  Ce17  1  0.51048644  0.62748622  0.56088243  1
  Ce3+  Ce18  1  0.62728755  0.00059123  0.44411391  1
  Ce3+  Ce19  1  0.88071794  0.50461159  0.94348838  1
  Ce3+  Ce20  1  0.38717372  0.50086845  0.43936143  1
  Ce3+  Ce21  1  0.12872932  0.76392306  0.93403902  1
  Ce3+  Ce22  1  0.62447629  0.75415743  0.93724277  1
  Ce3+  Ce23  1  0.75135623  0.62705326  0.05634980  1
  Ce3+  Ce24  1  0.38610141  0.75185914  0.43970590  1
  Ce3+  Ce25  1  0.25847746  0.37657808  0.56138220  1
  Pr3+  Pr26  1  0.00325117  0.13416482  0.05781297  1
  Pr3+  Pr27  1  0.37829572  0.50552322  0.93972003  1
  Pr3+  Pr28  1  0.62555983  0.00412259  0.93281967  1
  Pr3+  Pr29  1  0.63397015  0.75318950  0.43260798  1
  Pr3+  Pr30  1  0.00784343  0.87669407  0.57480250  1
  Pr3+  Pr31  1  0.75194096  0.87959233  0.05489552  1
  Pr3+  Pr32  1  0.25696023  0.88020299  0.06232755  1
  Pr3+  Pr33  1  0.88475907  0.25152810  0.43856453  1
  Pr3+  Pr34  1  0.75384818  0.37658331  0.05833802  1
  Pr3+  Pr35  1  0.37792524  0.25508008  0.94696973  1
  Pr3+  Pr36  1  0.88430136  0.00038005  0.44238357  1
  Pr3+  Pr37  1  0.37533218  0.25547112  0.42797161  1
  Pr3+  Pr38  1  0.50362679  0.62659416  0.06624740  1
  Nd3+  Nd39  1  0.13103342  0.51110806  0.93195136  1
  Nd3+  Nd40  1  0.00662505  0.62912268  0.05724658  1
  Nd3+  Nd41  1  0.51223954  0.12995860  0.07617438  1
  Nd3+  Nd42  1  0.26200628  0.62449854  0.55853752  1
  Nd3+  Nd43  1  0.25159429  0.13232684  0.06648377  1
  Nd3+  Nd44  1  0.13419894  0.25343876  0.44147829  1
  Nd3+  Nd45  1  0.13031908  0.50337978  0.44742121  1
  Nd3+  Nd46  1  0.75578177  0.13190008  0.56039353  1
  Nd3+  Nd47  1  0.38073740  0.00481423  0.94774103  1
  Nd3+  Nd48  1  0.88458014  0.50010527  0.44290713  1
  Nd3+  Nd49  1  0.12879377  0.25399287  0.93325749  1
  Nd3+  Nd50  1  0.00089569  0.36698837  0.59284130  1
  Nd3+  Nd51  1  0.50934065  0.87478320  0.56673411  1
  Sm3+  Sm52  1  0.00905223  0.12696557  0.55690003  1
  Sm3+  Sm53  1  0.88532548  0.75241061  0.44561541  1
  Sm3+  Sm54  1  0.26117678  0.12845154  0.55717714  1
  Sm3+  Sm55  1  0.87884348  0.00520598  0.94198556  1
  Sm3+  Sm56  1  0.87765919  0.75353997  0.94399849  1
  Sm3+  Sm57  1  0.75423531  0.37979935  0.56287769  1
  Sm3+  Sm58  1  0.75667082  0.87923367  0.55533912  1
  Sm3+  Sm59  1  0.50452424  0.13247360  0.55292390  1
  Sm3+  Sm60  1  0.75350611  0.62466575  0.55505339  1
  Sm3+  Sm61  1  0.13360102  -0.00212713  0.44744659  1
  Sm3+  Sm62  1  0.75193033  0.13414656  0.05092606  1
  Sm3+  Sm63  1  0.26183500  0.87852108  0.56433775  1
  Bi2+  Bi64  1  -0.03414059  0.13508886  0.30078941  1
  Bi2+  Bi65  1  0.01377101  0.10412417  0.79044606  1
  Bi2+  Bi66  1  -0.00523302  0.34585613  0.30574337  1
  Bi2+  Bi67  1  0.02003972  0.36415598  0.77824527  1
  Bi2+  Bi68  1  0.02330128  0.61129062  0.29893489  1
  Bi2+  Bi69  1  -0.02438235  0.59103472  0.80822700  1
  Bi2+  Bi70  1  -0.04607196  0.86778673  0.31892831  1
  Bi2+  Bi71  1  -0.00502175  0.89349840  0.79412329  1
  Bi2+  Bi72  1  0.19472433  0.17034652  0.27155536  1
  Bi2+  Bi73  1  0.19897127  0.12580516  0.82531679  1
  Bi2+  Bi74  1  0.18570523  0.36737444  0.28651650  1
  Bi2+  Bi75  1  0.24568635  0.30540594  0.78154496  1
  Bi2+  Bi76  1  0.27419345  0.64961592  0.28172353  1
  Bi2+  Bi77  1  0.22727559  0.59335665  0.78957798  1
  Bi2+  Bi78  1  0.21262935  0.83992737  0.29811566  1
  Bi2+  Bi79  1  0.20351492  0.96042778  0.75559534  1
  Bi2+  Bi80  1  0.55776550  0.13795570  0.28782124  1
  Bi2+  Bi81  1  0.39699727  0.09489409  0.82420421  1
  Bi2+  Bi82  1  0.49820788  0.40144963  0.30219010  1
  Bi2+  Bi83  1  0.48981630  0.40634013  0.81770509  1
  Bi2+  Bi84  1  0.47578666  0.66040595  0.29198124  1
  Bi2+  Bi85  1  0.47560159  0.64729810  0.78497345  1
  Bi2+  Bi86  1  0.51852815  0.89941605  0.30167526  1
  Bi2+  Bi87  1  0.53139065  0.92605272  0.81601360  1
  Bi2+  Bi88  1  0.79973524  0.15309098  0.21603683  1
  Bi2+  Bi89  1  0.74251609  0.07866004  0.78776157  1
  Bi2+  Bi90  1  0.76564179  0.38558401  0.28578965  1
  Bi2+  Bi91  1  0.77288911  0.38246790  0.78049690  1
  Bi2+  Bi92  1  0.83189099  0.63293235  0.28136240  1
  Bi2+  Bi93  1  0.74960083  0.68480263  0.78442606  1
  Bi2+  Bi94  1  0.79711138  0.91841859  0.25307521  1
  Bi2+  Bi95  1  0.72208729  0.88125696  0.79671055  1
  Bi2+  Bi96  1  0.09428705  -0.00388063  0.27469831  1
  Bi2+  Bi97  1  0.03849584  -0.01360191  0.69192573  1
  Bi2+  Bi98  1  0.05010115  0.24421664  0.20516040  1
  Bi2+  Bi99  1  0.13114038  0.21131458  0.70539327  1
  Bi2+  Bi100  1  0.11384800  0.51415128  0.20780429  1
  Bi2+  Bi101  1  0.14567904  0.40829342  0.69703208  1
  Bi2+  Bi102  1  0.10606036  0.72955921  0.21607466  1
  Bi2+  Bi103  1  0.06861315  0.72816978  0.74564705  1
  Bi2+  Bi104  1  0.35177646  0.00000309  0.21345001  1
  Bi2+  Bi105  1  0.39313735  -0.01573539  0.72038610  1
  Bi2+  Bi106  1  0.38651803  0.23714638  0.22638949  1
  Bi2+  Bi107  1  0.37396462  0.18379362  0.72369254  1
  Bi2+  Bi108  1  0.36459599  0.51594406  0.21707011  1
  Bi2+  Bi109  1  0.35611797  0.51593048  0.70429512  1
  Bi2+  Bi110  1  0.37805535  0.77862794  0.21760395  1
  Bi2+  Bi111  1  0.35220214  0.76270402  0.70418616  1
  Bi2+  Bi112  1  0.62524090  0.00595981  0.21154097  1
  Bi2+  Bi113  1  0.58632666  -0.02110557  0.70984145  1
  Bi2+  Bi114  1  0.63420929  0.26292899  0.21081824  1
  Bi2+  Bi115  1  0.62225926  0.24044903  0.70761040  1
  Bi2+  Bi116  1  0.62649202  0.52004466  0.20817107  1
  Bi2+  Bi117  1  0.62688857  0.50778232  0.71037640  1
  Bi2+  Bi118  1  0.63573740  0.75603093  0.20824140  1
  Bi2+  Bi119  1  0.60913492  0.77917611  0.71620705  1
  Bi2+  Bi120  1  0.92680580  0.01170859  0.18530228  1
  Bi2+  Bi121  1  0.85022082  -0.05433650  0.70468226  1
  Bi2+  Bi122  1  0.87736104  0.30308014  0.15964248  1
  Bi2+  Bi123  1  0.86696079  0.24458280  0.71139860  1
  Bi2+  Bi124  1  0.90025825  0.47104915  0.22152423  1
  Bi2+  Bi125  1  0.87237527  0.54630012  0.71236897  1
  Bi2+  Bi126  1  0.90524085  0.77035234  0.21008062  1
  Bi2+  Bi127  1  0.88221465  0.74692165  0.70738049  1
  S2-  S128  1  0.06498476  0.09635254  0.14913117  1
  S2-  S129  1  -0.01218202  0.20480499  0.64347293  1
  S2-  S130  1  0.09979575  0.38155260  0.14189989  1
  S2-  S131  1  -0.14259893  0.36729923  0.64852402  1
  S2-  S132  1  0.00322902  0.62424733  0.15650560  1
  S2-  S133  1  0.01649267  0.51075520  0.65373152  1
  S2-  S134  1  0.03036118  0.86454839  0.16253632  1
  S2-  S135  1  0.02431483  0.75387139  0.64755570  1
  S2-  S136  1  0.28794463  0.13508024  0.16512694  1
  S2-  S137  1  0.26001129  0.13233932  0.65615980  1
  S2-  S138  1  0.32193498  0.36389600  0.18184577  1
  S2-  S139  1  0.33516345  0.37777125  0.64898768  1
  S2-  S140  1  0.24937739  0.55963760  0.14290629  1
  S2-  S141  1  0.26052097  0.63311698  0.65952098  1
  S2-  S142  1  0.26765815  0.88979450  0.16382718  1
  S2-  S143  1  0.24833852  0.86491486  0.66344506  1
  S2-  S144  1  0.48813432  0.00578264  0.15110496  1
  S2-  S145  1  0.50036783  0.20494173  0.64294291  1
  S2-  S146  1  0.49515374  0.25268569  0.14960466  1
  S2-  S147  1  0.51478267  0.37408978  0.72482357  1
  S2-  S148  1  0.49515378  0.51441625  0.14814033  1
  S2-  S149  1  0.50416768  0.54115351  0.64856351  1
  S2-  S150  1  0.50626497  0.74071759  0.14916108  1
  S2-  S151  1  0.49565874  0.75410044  0.63966020  1
  S2-  S152  1  0.67168293  0.12701459  0.13843608  1
  S2-  S153  1  0.74578155  0.14992288  0.66039831  1
  S2-  S154  1  0.66141232  0.39500462  0.14565312  1
  S2-  S155  1  0.65746302  0.37570866  0.64636565  1
  S2-  S156  1  0.71847520  0.63228760  0.15441802  1
  S2-  S157  1  0.74155265  0.59955485  0.65372487  1
  S2-  S158  1  0.66896920  0.87515696  0.14337651  1
  S2-  S159  1  0.72191914  0.86861558  0.65058348  1
  S2-  S160  1  0.20567672  -0.01094964  0.35810488  1
  S2-  S161  1  0.13568565  -0.10153034  0.85330849  1
  S2-  S162  1  0.23453154  0.24580027  0.35914014  1
  S2-  S163  1  0.02094476  0.25560941  0.85169250  1
  S2-  S164  1  0.10672290  0.48485999  0.34868073  1
  S2-  S165  1  0.11662846  0.47452491  0.83414677  1
  S2-  S166  1  0.08623542  0.75718275  0.35458184  1
  S2-  S167  1  0.11626248  0.68250349  0.84760621  1
  S2-  S168  1  0.41144763  0.04653281  0.31028647  1
  S2-  S169  1  0.37609525  -0.07576584  0.85781200  1
  S2-  S170  1  0.45266072  0.25326206  0.33511696  1
  S2-  S171  1  0.46227794  0.25560897  0.85808777  1
  S2-  S172  1  0.36577350  0.46281836  0.34317980  1
  S2-  S173  1  0.35258936  0.51481358  0.83827895  1
  S2-  S174  1  0.38103594  0.84014926  0.35541141  1
  S2-  S175  1  0.32280407  0.73068001  0.80974921  1
  S2-  S176  1  0.63229282  0.01370378  0.34665683  1
  S2-  S177  1  0.62541199  0.11066254  0.85115300  1
  S2-  S178  1  0.64665768  0.34861019  0.35020251  1
  S2-  S179  1  0.64631234  0.37082221  0.85227899  1
  S2-  S180  1  0.59268432  0.55215472  0.31634683  1
  S2-  S181  1  0.58598153  0.55753151  0.83089523  1
  S2-  S182  1  0.60311779  0.77006010  0.33210102  1
  S2-  S183  1  0.53165506  0.75924469  0.85347740  1
  S2-  S184  1  0.86083267  0.01098936  0.34261594  1
  S2-  S185  1  0.89012050  0.02256797  0.84389241  1
  S2-  S186  1  0.85153334  0.25769263  0.33949703  1
  S2-  S187  1  0.80725447  0.23528927  0.82213656  1
  S2-  S188  1  0.79861306  0.50770544  0.35582969  1
  S2-  S189  1  0.87395137  0.45745161  0.84955838  1
  S2-  S190  1  0.82815312  0.75630702  0.35282527  1
  S2-  S191  1  0.88040124  0.72473678  0.84661804  1
  S2-  S192  1  0.01308421  0.12454156  0.45162818  1
  S2-  S193  1  0.00443299  0.12484243  0.95071795  1
  S2-  S194  1  0.00899979  0.37590980  0.45557507  1
  S2-  S195  1  0.00868727  0.38360855  0.95227749  1
  S2-  S196  1  0.00535004  0.62801426  0.46218775  1
  S2-  S197  1  0.00294753  0.63309732  0.95240196  1
  S2-  S198  1  0.00808639  0.87705724  0.46522322  1
  S2-  S199  1  -0.00219985  0.87995820  0.95498565  1
  S2-  S200  1  0.25832483  0.11976727  0.45476379  1
  S2-  S201  1  0.25269970  0.12846652  0.95798502  1
  S2-  S202  1  0.25477975  0.38147068  0.45571409  1
  S2-  S203  1  0.24997551  0.37958053  0.94245217  1
  S2-  S204  1  0.25757567  0.62683337  0.45015131  1
  S2-  S205  1  0.25659273  0.63732914  0.94730771  1
  S2-  S206  1  0.25899645  0.87713017  0.46038551  1
  S2-  S207  1  0.25703636  0.87786936  0.95665437  1
  S2-  S208  1  0.49691668  0.12106724  0.44769116  1
  S2-  S209  1  0.50156285  0.12681098  0.96467902  1
  S2-  S210  1  0.50650503  0.37777738  0.44400643  1
  S2-  S211  1  0.50135811  0.38177362  0.95999421  1
  S2-  S212  1  0.51127798  0.62692065  0.44794969  1
  S2-  S213  1  0.49970959  0.63179373  0.95417112  1
  S2-  S214  1  0.50508665  0.87890652  0.45885830  1
  S2-  S215  1  0.50430291  0.87946767  0.96220275  1
  S2-  S216  1  0.75729046  0.12572668  0.45238366  1
  S2-  S217  1  0.75826674  0.12908451  0.94794896  1
  S2-  S218  1  0.76092343  0.37355880  0.45721941  1
  S2-  S219  1  0.75919940  0.37737239  0.95266915  1
  S2-  S220  1  0.75928993  0.63049063  0.45227326  1
  S2-  S221  1  0.75365564  0.62963089  0.94827844  1
  S2-  S222  1  0.75813464  0.87808295  0.45114966  1
  S2-  S223  1  0.75547311  0.87928796  0.94737269  1
  S2-  S224  1  0.13065290  0.00455574  0.04230039  1
  S2-  S225  1  0.13543159  0.00290075  0.55293547  1
  S2-  S226  1  0.13162796  0.25597378  0.04106209  1
  S2-  S227  1  0.13273706  0.25061207  0.54776584  1
  S2-  S228  1  0.12960331  0.50696710  0.03910234  1
  S2-  S229  1  0.13416831  0.50050153  0.55225964  1
  S2-  S230  1  0.12898217  0.75536830  0.04694451  1
  S2-  S231  1  0.13972190  0.75325789  0.55200907  1
  S2-  S232  1  0.37712421  0.00829706  0.05179717  1
  S2-  S233  1  0.38453327  0.00292044  0.55917281  1
  S2-  S234  1  0.36935617  0.26149759  0.05254577  1
  S2-  S235  1  0.38053151  0.25191561  0.53911826  1
  S2-  S236  1  0.37519658  0.50160202  0.04494417  1
  S2-  S237  1  0.38523467  0.50086617  0.54467361  1
  S2-  S238  1  0.37844800  0.75443614  0.05045285  1
  S2-  S239  1  0.37982134  0.75344028  0.54379875  1
  S2-  S240  1  0.63237006  0.00571166  0.03936648  1
  S2-  S241  1  0.63025425  0.00462984  0.55128836  1
  S2-  S242  1  0.62940402  0.25466848  0.03763828  1
  S2-  S243  1  0.63059190  0.25025475  0.54005966  1
  S2-  S244  1  0.63068690  0.50536743  0.03828942  1
  S2-  S245  1  0.63466712  0.50410219  0.53913411  1
  S2-  S246  1  0.63082890  0.75084567  0.04110457  1
  S2-  S247  1  0.63640601  0.75447386  0.54110815  1
  S2-  S248  1  0.87489929  0.00798187  0.04731734  1
  S2-  S249  1  0.88251972  0.00423727  0.55143334  1
  S2-  S250  1  0.87892564  0.25283247  0.03296349  1
  S2-  S251  1  0.88309507  0.25098833  0.54346643  1
  S2-  S252  1  0.88020414  0.50505431  0.05086712  1
  S2-  S253  1  0.87937062  0.50239552  0.54763992  1
  S2-  S254  1  0.87874477  0.75400514  0.04992860  1
  S2-  S255  1  0.87678516  0.75380606  0.55090382  1
