# generated using pymatgen
data_La12Ce14Pr13Nd13Sm12(BiS2)64
_symmetry_space_group_name_H-M   'P 1'
_cell_length_a   16.11435713
_cell_length_b   16.13425775
_cell_length_c   27.20886400
_cell_angle_alpha   89.93742691
_cell_angle_beta   90.48220853
_cell_angle_gamma   90.11489592
_symmetry_Int_Tables_number   1
_chemical_formula_structural   La12Ce14Pr13Nd13Sm12(BiS2)64
_chemical_formula_sum   'La12 Ce14 Pr13 Nd13 Sm12 Bi64 S128'
_cell_volume   7073.85054022
_cell_formula_units_Z   1
loop_
 _symmetry_equiv_pos_site_id
 _symmetry_equiv_pos_as_xyz
  1  'x, y, z'
loop_
 _atom_type_symbol
 _atom_type_oxidation_number
  La3+  3.0
  Ce3+  3.0
  Pr3+  3.0
  Nd3+  3.0
  Sm3+  3.0
  Bi2+  2.0
  S2-  -2.0
loop_
 _atom_site_type_symbol
 _atom_site_label
 _atom_site_symmetry_multiplicity
 _atom_site_fract_x
 _atom_site_fract_y
 _atom_site_fract_z
 _atom_site_occupancy
  La3+  La0  1  0.51320450  0.87430852  0.61019349  1
  La3+  La1  1  0.26308620  0.38730360  0.57351827  1
  La3+  La2  1  0.25176773  0.86306547  0.10589334  1
  La3+  La3  1  0.00924036  0.37189167  0.58075894  1
  La3+  La4  1  0.50650968  0.61059861  0.07067532  1
  La3+  La5  1  0.73499751  0.35584319  0.10663454  1
  La3+  La6  1  0.61563856  0.73214054  0.92551077  1
  La3+  La7  1  0.87812306  0.73978258  0.94047515  1
  La3+  La8  1  0.51174204  0.86418028  0.07344322  1
  La3+  La9  1  0.50146457  0.11735084  0.05972432  1
  La3+  La10  1  0.75018987  0.13327300  0.56979971  1
  La3+  La11  1  0.25476434  0.12903920  0.56341146  1
  Ce3+  Ce12  1  0.26029044  0.87857346  0.56110354  1
  Ce3+  Ce13  1  0.50322671  0.38330176  0.55336265  1
  Ce3+  Ce14  1  0.37280540  0.24553673  0.92878827  1
  Ce3+  Ce15  1  0.00044767  0.87793344  0.56174018  1
  Ce3+  Ce16  1  0.75315302  0.11244866  0.06219316  1
  Ce3+  Ce17  1  0.00288037  0.62669131  0.55940676  1
  Ce3+  Ce18  1  0.87421326  0.50272390  0.43967130  1
  Ce3+  Ce19  1  0.00036178  0.13129694  0.56132903  1
  Ce3+  Ce20  1  0.37620245  -0.01252380  0.94825786  1
  Ce3+  Ce21  1  0.12961613  0.50354346  0.44239169  1
  Ce3+  Ce22  1  0.74830727  0.38052438  0.56091836  1
  Ce3+  Ce23  1  0.75203141  0.61170320  0.06143475  1
  Ce3+  Ce24  1  0.74706534  0.62871995  0.55511085  1
  Ce3+  Ce25  1  0.12998609  0.24339250  0.93093538  1
  Pr3+  Pr26  1  0.36810382  0.49113440  0.93077818  1
  Pr3+  Pr27  1  0.37470832  0.00876325  0.43082051  1
  Pr3+  Pr28  1  0.24903721  0.36437205  0.06517502  1
  Pr3+  Pr29  1  0.63300776  0.25250576  0.42825033  1
  Pr3+  Pr30  1  0.87846388  0.25819911  0.43329924  1
  Pr3+  Pr31  1  0.12351332  0.25581618  0.43375760  1
  Pr3+  Pr32  1  0.87762814  0.48724753  0.93631779  1
  Pr3+  Pr33  1  0.25299014  0.60994959  0.07443544  1
  Pr3+  Pr34  1  0.61471970  0.50066842  0.41752382  1
  Pr3+  Pr35  1  0.36759566  0.76354677  0.41590699  1
  Pr3+  Pr36  1  0.62406856  0.75464086  0.43017757  1
  Pr3+  Pr37  1  -0.00235471  0.36151808  0.06806194  1
  Pr3+  Pr38  1  0.25068695  0.63592234  0.56457599  1
  Nd3+  Nd39  1  0.63077746  -0.01740212  0.93092391  1
  Nd3+  Nd40  1  0.11859681  0.48586455  0.92019629  1
  Nd3+  Nd41  1  0.00102766  0.86410545  0.06853939  1
  Nd3+  Nd42  1  0.36757578  0.50538846  0.43034865  1
  Nd3+  Nd43  1  0.37311170  0.74028455  0.95220467  1
  Nd3+  Nd44  1  0.62926784  0.23560161  0.93637351  1
  Nd3+  Nd45  1  0.88563412  -0.00945829  0.93347310  1
  Nd3+  Nd46  1  0.50282067  0.12612467  0.55698405  1
  Nd3+  Nd47  1  0.87503186  0.00561018  0.44059200  1
  Nd3+  Nd48  1  0.87595847  0.75332108  0.43925079  1
  Nd3+  Nd49  1  0.37423675  0.25214199  0.43313243  1
  Nd3+  Nd50  1  0.12527751  0.75542126  0.43637571  1
  Nd3+  Nd51  1  0.00151356  0.11522541  0.05469445  1
  Sm3+  Sm52  1  0.50114086  0.36345899  0.04916083  1
  Sm3+  Sm53  1  0.00238073  0.61123367  0.05841739  1
  Sm3+  Sm54  1  0.75643067  0.87825378  0.56032810  1
  Sm3+  Sm55  1  0.12373775  0.00400475  0.44911217  1
  Sm3+  Sm56  1  0.50190828  0.63751593  0.54740870  1
  Sm3+  Sm57  1  0.25095062  0.11387120  0.05760919  1
  Sm3+  Sm58  1  0.62905781  0.48956017  0.94046349  1
  Sm3+  Sm59  1  0.62560063  0.00185853  0.44047142  1
  Sm3+  Sm60  1  0.12849786  -0.01263774  0.94202643  1
  Sm3+  Sm61  1  0.75406647  0.86240337  0.05791850  1
  Sm3+  Sm62  1  0.12880549  0.73949396  0.95089339  1
  Sm3+  Sm63  1  0.87423066  0.24086360  0.94374855  1
  Bi2+  Bi64  1  0.00853269  0.10961983  0.30226292  1
  Bi2+  Bi65  1  0.03820322  0.11106280  0.77483278  1
  Bi2+  Bi66  1  0.08507672  0.36480967  0.29649180  1
  Bi2+  Bi67  1  0.01253618  0.40670791  0.76626815  1
  Bi2+  Bi68  1  0.02507396  0.66601644  0.31508288  1
  Bi2+  Bi69  1  0.01856495  0.60319572  0.76902204  1
  Bi2+  Bi70  1  -0.01083429  0.85557472  0.29099071  1
  Bi2+  Bi71  1  0.03191295  0.84458807  0.80138347  1
  Bi2+  Bi72  1  0.19998519  0.14601083  0.24705174  1
  Bi2+  Bi73  1  0.26953116  0.09815516  0.78852234  1
  Bi2+  Bi74  1  0.26110373  0.28466285  0.32183825  1
  Bi2+  Bi75  1  0.25457995  0.37953899  0.80717708  1
  Bi2+  Bi76  1  0.20684681  0.60965571  0.28371104  1
  Bi2+  Bi77  1  0.25672893  0.67285940  0.78466683  1
  Bi2+  Bi78  1  0.20549788  0.89072610  0.29655619  1
  Bi2+  Bi79  1  0.24974123  0.87126107  0.77648779  1
  Bi2+  Bi80  1  0.48550033  0.14421097  0.28626154  1
  Bi2+  Bi81  1  0.49525744  0.16690132  0.79508587  1
  Bi2+  Bi82  1  0.44967545  0.35637506  0.29497788  1
  Bi2+  Bi83  1  0.57840665  0.43154271  0.77559530  1
  Bi2+  Bi84  1  0.55885845  0.60709579  0.28590555  1
  Bi2+  Bi85  1  0.45250798  0.64940409  0.77722658  1
  Bi2+  Bi86  1  0.50772521  0.87188597  0.30787669  1
  Bi2+  Bi87  1  0.49305762  0.89651582  0.81581679  1
  Bi2+  Bi88  1  0.77481896  0.13713709  0.27699444  1
  Bi2+  Bi89  1  0.74263567  0.13306376  0.81031568  1
  Bi2+  Bi90  1  0.74582879  0.40033192  0.30143705  1
  Bi2+  Bi91  1  0.82623537  0.35735120  0.78256849  1
  Bi2+  Bi92  1  0.78599913  0.65542145  0.20058002  1
  Bi2+  Bi93  1  0.75211520  0.53852752  0.80100135  1
  Bi2+  Bi94  1  0.78487940  0.87573939  0.28855366  1
  Bi2+  Bi95  1  0.77233432  0.85906234  0.78306050  1
  Bi2+  Bi96  1  0.00382828  0.00558003  0.20787495  1
  Bi2+  Bi97  1  0.15163636  0.01215660  0.70101212  1
  Bi2+  Bi98  1  0.12654573  0.29346368  0.17739615  1
  Bi2+  Bi99  1  0.17080036  0.21181731  0.70828456  1
  Bi2+  Bi100  1  0.10569204  0.48376652  0.20520658  1
  Bi2+  Bi101  1  0.14636019  0.51144118  0.70092974  1
  Bi2+  Bi102  1  0.07252470  0.74556329  0.20508489  1
  Bi2+  Bi103  1  0.06747632  0.83345412  0.68905885  1
  Bi2+  Bi104  1  0.39162545  0.02311790  0.21326015  1
  Bi2+  Bi105  1  0.39813300  0.04366480  0.70835682  1
  Bi2+  Bi106  1  0.33252203  0.27682643  0.20710880  1
  Bi2+  Bi107  1  0.42229018  0.30347994  0.73070171  1
  Bi2+  Bi108  1  0.32042223  0.46832258  0.23792222  1
  Bi2+  Bi109  1  0.42177191  0.50588413  0.70716183  1
  Bi2+  Bi110  1  0.36605798  0.72150679  0.22021884  1
  Bi2+  Bi111  1  0.25479804  0.76017205  0.68228045  1
  Bi2+  Bi112  1  0.64136929  -0.00049860  0.24433310  1
  Bi2+  Bi113  1  0.65180135  -0.01592521  0.71425379  1
  Bi2+  Bi114  1  0.60805030  0.21792522  0.21019929  1
  Bi2+  Bi115  1  0.61777746  0.27388430  0.71020137  1
  Bi2+  Bi116  1  0.55244788  0.48192129  0.19994698  1
  Bi2+  Bi117  1  0.60862182  0.46074596  0.66278333  1
  Bi2+  Bi118  1  0.61322772  0.75550729  0.20316149  1
  Bi2+  Bi119  1  0.60804877  0.70812310  0.71320111  1
  Bi2+  Bi120  1  0.81196532  0.01767456  0.18438737  1
  Bi2+  Bi121  1  0.91374820  -0.00699845  0.71760881  1
  Bi2+  Bi122  1  0.94612014  0.28038063  0.22242346  1
  Bi2+  Bi123  1  0.86941763  0.20535756  0.70971901  1
  Bi2+  Bi124  1  0.92157323  0.54640260  0.24986994  1
  Bi2+  Bi125  1  0.79719060  0.49018305  0.68846483  1
  Bi2+  Bi126  1  0.87340056  0.82580957  0.18006079  1
  Bi2+  Bi127  1  0.84960524  0.68754596  0.74240483  1
  S2-  S128  1  0.00354152  0.16153280  0.15105971  1
  S2-  S129  1  -0.01093814  0.21954033  0.64497248  1
  S2-  S130  1  -0.10455010  0.37718526  0.15058654  1
  S2-  S131  1  -0.04305164  0.45063716  0.66807566  1
  S2-  S132  1  -0.00022092  0.60559099  0.15747590  1
  S2-  S133  1  0.08091679  0.64302895  0.64566536  1
  S2-  S134  1  0.09600241  0.89655929  0.15060467  1
  S2-  S135  1  -0.09194158  0.87264068  0.64478182  1
  S2-  S136  1  0.26682556  0.08978672  0.15530614  1
  S2-  S137  1  0.32029688  0.15602280  0.65603562  1
  S2-  S138  1  0.25327773  0.47844462  0.14321541  1
  S2-  S139  1  0.15772528  0.35417212  0.65247151  1
  S2-  S140  1  0.23047010  0.71116978  0.15804178  1
  S2-  S141  1  0.28293990  0.53421099  0.64532395  1
  S2-  S142  1  0.28424025  0.89886302  0.21023462  1
  S2-  S143  1  0.34733088  0.90009493  0.64648344  1
  S2-  S144  1  0.52786966  0.08396554  0.15742858  1
  S2-  S145  1  0.53461816  0.04776875  0.64622616  1
  S2-  S146  1  0.53889346  0.33878473  0.14415582  1
  S2-  S147  1  0.40943563  0.36404792  0.63649221  1
  S2-  S148  1  0.42873439  0.60108918  0.16273274  1
  S2-  S149  1  0.50273703  0.70166707  0.64057854  1
  S2-  S150  1  0.46335425  0.82690064  0.17064697  1
  S2-  S151  1  0.52145053  0.86358365  0.72348925  1
  S2-  S152  1  0.73943643  0.19610845  0.14999595  1
  S2-  S153  1  0.78296412  0.06356147  0.66430799  1
  S2-  S154  1  0.70232000  0.41688370  0.20419182  1
  S2-  S155  1  0.74914870  0.27232059  0.64020187  1
  S2-  S156  1  0.64481416  0.61292000  0.13972491  1
  S2-  S157  1  0.75027252  0.65856857  0.65348809  1
  S2-  S158  1  0.65675528  0.86761045  0.13859016  1
  S2-  S159  1  0.67987318  0.86838861  0.64782609  1
  S2-  S160  1  0.13594237  0.02260637  0.35148813  1
  S2-  S161  1  0.04053614  -0.01418771  0.85631845  1
  S2-  S162  1  0.00090079  0.25195612  0.35793796  1
  S2-  S163  1  0.10178169  0.35050832  0.85242033  1
  S2-  S164  1  0.23060467  0.50510098  0.36224142  1
  S2-  S165  1  0.24806868  0.52358167  0.85420220  1
  S2-  S166  1  0.22020680  0.74938128  0.35261844  1
  S2-  S167  1  0.13193421  0.73689765  0.85185122  1
  S2-  S168  1  0.35473785  -0.08907130  0.34672203  1
  S2-  S169  1  0.34130538  -0.03264421  0.85144595  1
  S2-  S170  1  0.36627875  0.13639228  0.35582186  1
  S2-  S171  1  0.25096881  0.22054228  0.85649874  1
  S2-  S172  1  0.46780065  0.51130300  0.34764527  1
  S2-  S173  1  0.39380724  0.36879247  0.85607475  1
  S2-  S174  1  0.43415866  0.72456511  0.32017768  1
  S2-  S175  1  0.45393057  0.74394799  0.86278155  1
  S2-  S176  1  0.59640144  0.02447308  0.34178457  1
  S2-  S177  1  0.58615317  0.04325728  0.83836637  1
  S2-  S178  1  0.60853278  0.36032620  0.34864555  1
  S2-  S179  1  0.62642674  0.26226666  0.83716026  1
  S2-  S180  1  0.69803761  0.55583329  0.33214165  1
  S2-  S181  1  0.62528570  0.59017839  0.85906315  1
  S2-  S182  1  0.64968398  0.79111775  0.33078844  1
  S2-  S183  1  0.64594086  0.84831456  0.85219341  1
  S2-  S184  1  0.86462855  0.02044232  0.34098014  1
  S2-  S185  1  0.81381256  -0.00291948  0.84165284  1
  S2-  S186  1  0.76719278  0.24169771  0.35203519  1
  S2-  S187  1  0.87134118  0.21928507  0.84479887  1
  S2-  S188  1  0.89447796  0.46420229  0.34421521  1
  S2-  S189  1  0.97853471  0.51686737  0.85305697  1
  S2-  S190  1  0.86810854  0.74655902  0.33944050  1
  S2-  S191  1  0.88144354  0.76268944  0.84043896  1
  S2-  S192  1  0.00053468  0.12662872  0.45686075  1
  S2-  S193  1  0.00340220  0.11962409  0.94951617  1
  S2-  S194  1  0.00339624  0.38377037  0.46058823  1
  S2-  S195  1  -0.00218157  0.36149518  0.95874609  1
  S2-  S196  1  0.00201734  0.62856756  0.45248381  1
  S2-  S197  1  0.00528604  0.61679446  0.95525563  1
  S2-  S198  1  -0.00029135  0.87951312  0.45186168  1
  S2-  S199  1  0.00507336  0.86397044  0.96092460  1
  S2-  S200  1  0.24355039  0.12876839  0.45578088  1
  S2-  S201  1  0.25093458  0.10991744  0.95510866  1
  S2-  S202  1  0.25070078  0.37485411  0.45974842  1
  S2-  S203  1  0.24645077  0.36849796  0.95817952  1
  S2-  S204  1  0.24957321  0.63431184  0.45784161  1
  S2-  S205  1  0.24819588  0.61735051  0.96486845  1
  S2-  S206  1  0.24617801  0.88328511  0.45609957  1
  S2-  S207  1  0.24853291  0.86366281  0.95493770  1
  S2-  S208  1  0.50767483  0.12976747  0.45166559  1
  S2-  S209  1  0.49793661  0.11668376  0.95146877  1
  S2-  S210  1  0.49357219  0.37640117  0.45030230  1
  S2-  S211  1  0.50964311  0.36528134  0.94827145  1
  S2-  S212  1  0.49524412  0.63624949  0.44452169  1
  S2-  S213  1  0.49644715  0.60671183  0.96140432  1
  S2-  S214  1  0.50265301  0.88147419  0.43972741  1
  S2-  S215  1  0.50142606  0.86740181  0.96280282  1
  S2-  S216  1  0.75056280  0.12523113  0.45668454  1
  S2-  S217  1  0.75418924  0.11164467  0.95309861  1
  S2-  S218  1  0.74992515  0.38329892  0.45412275  1
  S2-  S219  1  0.75118319  0.36455480  0.94013052  1
  S2-  S220  1  0.75074993  0.62993459  0.44834387  1
  S2-  S221  1  0.75528117  0.61300000  0.95508526  1
  S2-  S222  1  0.75264306  0.87967589  0.45069082  1
  S2-  S223  1  0.75811754  0.86635749  0.95487618  1
  S2-  S224  1  0.12775539  -0.00773303  0.04632706  1
  S2-  S225  1  0.12587397  0.00309781  0.55471910  1
  S2-  S226  1  0.12779739  0.23692240  0.04219982  1
  S2-  S227  1  0.12926220  0.25080735  0.54259306  1
  S2-  S228  1  0.11955481  0.48757872  0.04521286  1
  S2-  S229  1  0.12682338  0.50373202  0.54678913  1
  S2-  S230  1  0.12365718  0.73962906  0.05399837  1
  S2-  S231  1  0.12523416  0.75929555  0.54219219  1
  S2-  S232  1  0.37279553  -0.01487762  0.05602066  1
  S2-  S233  1  0.38008669  0.00586809  0.53935318  1
  S2-  S234  1  0.37395677  0.24047124  0.04423190  1
  S2-  S235  1  0.38013229  0.24971473  0.53781764  1
  S2-  S236  1  0.38029491  0.48458750  0.04216212  1
  S2-  S237  1  0.38235239  0.51254070  0.53682041  1
  S2-  S238  1  0.37580911  0.74183816  0.05673429  1
  S2-  S239  1  0.37766969  0.75654964  0.53912364  1
  S2-  S240  1  0.63022415  -0.00696949  0.03985296  1
  S2-  S241  1  0.63183643  -0.00018865  0.54296761  1
  S2-  S242  1  0.62913525  0.24108661  0.04217338  1
  S2-  S243  1  0.62235311  0.25555911  0.53945085  1
  S2-  S244  1  0.63347525  0.47703540  0.04477820  1
  S2-  S245  1  0.62333744  0.50909522  0.53388903  1
  S2-  S246  1  0.63142513  0.73773106  0.03728375  1
  S2-  S247  1  0.62890312  0.75875177  0.53791710  1
  S2-  S248  1  0.87868015  -0.01175374  0.04439122  1
  S2-  S249  1  0.87683260  0.00579717  0.54594305  1
  S2-  S250  1  0.87197913  0.23923774  0.04707222  1
  S2-  S251  1  0.87654871  0.25638449  0.54042678  1
  S2-  S252  1  0.87642014  0.49165486  0.04397066  1
  S2-  S253  1  0.87555452  0.50466286  0.54746751  1
  S2-  S254  1  0.87773676  0.73697768  0.04905333  1
  S2-  S255  1  0.87650177  0.75001730  0.54475706  1
