# generated using pymatgen
data_La12Ce14Pr13Nd13Sm12(BiS2)64
_symmetry_space_group_name_H-M   'P 1'
_cell_length_a   16.08166002
_cell_length_b   16.16013331
_cell_length_c   27.24438604
_cell_angle_alpha   90.53464021
_cell_angle_beta   89.56623169
_cell_angle_gamma   90.13305282
_symmetry_Int_Tables_number   1
_chemical_formula_structural   La12Ce14Pr13Nd13Sm12(BiS2)64
_chemical_formula_sum   'La12 Ce14 Pr13 Nd13 Sm12 Bi64 S128'
_cell_volume   7079.79017367
_cell_formula_units_Z   1
loop_
 _symmetry_equiv_pos_site_id
 _symmetry_equiv_pos_as_xyz
  1  'x, y, z'
loop_
 _atom_type_symbol
 _atom_type_oxidation_number
  La3+  3.0
  Ce3+  3.0
  Pr3+  3.0
  Nd3+  3.0
  Sm3+  3.0
  Bi2+  2.0
  S2-  -2.0
loop_
 _atom_site_type_symbol
 _atom_site_label
 _atom_site_symmetry_multiplicity
 _atom_site_fract_x
 _atom_site_fract_y
 _atom_site_fract_z
 _atom_site_occupancy
  La3+  La0  1  0.74556116  0.14861652  0.57732044  1
  La3+  La1  1  0.88190864  0.23853013  0.92634133  1
  La3+  La2  1  0.63670997  0.26298851  0.42485754  1
  La3+  La3  1  -0.00099215  0.65217577  0.58629284  1
  La3+  La4  1  -0.00410837  0.90010622  0.58499581  1
  La3+  La5  1  0.62402216  0.49020312  0.93287155  1
  La3+  La6  1  0.74752422  0.64753444  0.56805264  1
  La3+  La7  1  0.25600153  0.90356502  0.57451893  1
  La3+  La8  1  0.74902721  0.89485130  0.56513456  1
  La3+  La9  1  0.87475136  0.74047346  0.91377333  1
  La3+  La10  1  0.87783320  0.01756352  0.43958654  1
  La3+  La11  1  0.62079352  0.74684992  0.39196824  1
  Ce3+  Ce12  1  0.87791656  0.26937462  0.44854964  1
  Ce3+  Ce13  1  0.25152150  0.62103206  0.05437739  1
  Ce3+  Ce14  1  0.37654778  0.74487677  0.94500477  1
  Ce3+  Ce15  1  0.12185461  0.77135239  0.44780544  1
  Ce3+  Ce16  1  0.37776123  -0.00732903  0.94419358  1
  Ce3+  Ce17  1  -0.00646915  0.86579228  0.05347803  1
  Ce3+  Ce18  1  0.50015611  0.62097529  0.06303349  1
  Ce3+  Ce19  1  0.12937709  0.27023776  0.45084108  1
  Ce3+  Ce20  1  0.87743686  -0.01258905  0.92929019  1
  Ce3+  Ce21  1  0.12710618  -0.00937378  0.94377600  1
  Ce3+  Ce22  1  0.38045625  0.52030669  0.43699949  1
  Ce3+  Ce23  1  0.12441655  0.24111049  0.93204272  1
  Ce3+  Ce24  1  0.12817521  0.49248753  0.93574552  1
  Ce3+  Ce25  1  0.50187326  0.37040036  0.05893920  1
  Pr3+  Pr26  1  0.63405154  0.23862711  0.92805043  1
  Pr3+  Pr27  1  0.48368850  0.88883158  0.10784524  1
  Pr3+  Pr28  1  0.24543860  0.86682620  0.06560034  1
  Pr3+  Pr29  1  0.25698892  0.14929995  0.57012397  1
  Pr3+  Pr30  1  0.25559208  0.39863496  0.57032229  1
  Pr3+  Pr31  1  0.88007632  0.76619243  0.43922687  1
  Pr3+  Pr32  1  0.50839081  0.13074128  0.07928482  1
  Pr3+  Pr33  1  0.62581606  0.74319181  0.93738713  1
  Pr3+  Pr34  1  0.25251158  0.64908476  0.56203746  1
  Pr3+  Pr35  1  0.50711223  0.89798406  0.56499338  1
  Pr3+  Pr36  1  0.37917136  0.49039380  0.93179942  1
  Pr3+  Pr37  1  0.00860985  0.39823994  0.57341691  1
  Pr3+  Pr38  1  -0.00303936  0.11815432  0.06413936  1
  Nd3+  Nd39  1  0.12765410  0.52200924  0.44497439  1
  Nd3+  Nd40  1  -0.00055289  0.14444171  0.57148809  1
  Nd3+  Nd41  1  0.37796711  0.27002989  0.43861050  1
  Nd3+  Nd42  1  0.87466529  0.49441558  0.92207446  1
  Nd3+  Nd43  1  0.74765191  0.86833592  0.06479736  1
  Nd3+  Nd44  1  0.50299405  0.14934040  0.55994068  1
  Nd3+  Nd45  1  0.50297040  0.64688725  0.56392314  1
  Nd3+  Nd46  1  0.74572019  0.39424972  0.56863333  1
  Nd3+  Nd47  1  0.37746027  0.02391817  0.43386808  1
  Nd3+  Nd48  1  0.62486083  -0.00728080  0.94853075  1
  Nd3+  Nd49  1  0.75450690  0.61913031  0.05643196  1
  Nd3+  Nd50  1  0.00030618  0.37092935  0.05209846  1
  Nd3+  Nd51  1  0.75346306  0.36955499  0.05816516  1
  Sm3+  Sm52  1  0.63144963  0.51524878  0.43792329  1
  Sm3+  Sm53  1  0.50537049  0.39694353  0.55636034  1
  Sm3+  Sm54  1  0.13876249  0.74510661  0.92299320  1
  Sm3+  Sm55  1  0.62852676  0.01277221  0.43498350  1
  Sm3+  Sm56  1  0.25040174  0.11959062  0.05547868  1
  Sm3+  Sm57  1  -0.00011272  0.62116466  0.04438850  1
  Sm3+  Sm58  1  0.12863109  0.01991831  0.44860664  1
  Sm3+  Sm59  1  0.87739073  0.52065957  0.45058982  1
  Sm3+  Sm60  1  0.24915483  0.36928269  0.05223519  1
  Sm3+  Sm61  1  0.38160775  0.77386597  0.44526638  1
  Sm3+  Sm62  1  0.75168663  0.11888221  0.06040686  1
  Sm3+  Sm63  1  0.38042275  0.23705669  0.94025904  1
  Bi2+  Bi64  1  0.00996369  0.12236231  0.28399402  1
  Bi2+  Bi65  1  0.05798663  0.16675369  0.72551425  1
  Bi2+  Bi66  1  -0.00423973  0.35086717  0.25691451  1
  Bi2+  Bi67  1  -0.01512346  0.35505109  0.78929655  1
  Bi2+  Bi68  1  0.01962165  0.63081819  0.24168026  1
  Bi2+  Bi69  1  0.01927675  0.58114158  0.77125226  1
  Bi2+  Bi70  1  -0.02491848  0.82790762  0.26857924  1
  Bi2+  Bi71  1  0.06428973  0.86954109  0.78925442  1
  Bi2+  Bi72  1  0.20708064  0.13643043  0.30735933  1
  Bi2+  Bi73  1  0.22518669  0.16691581  0.79051059  1
  Bi2+  Bi74  1  0.20740790  0.38035535  0.29917944  1
  Bi2+  Bi75  1  0.22254070  0.36324879  0.79137513  1
  Bi2+  Bi76  1  0.15703376  0.67774806  0.32142519  1
  Bi2+  Bi77  1  0.34825114  0.61158455  0.80337379  1
  Bi2+  Bi78  1  0.16409012  0.87732608  0.29505256  1
  Bi2+  Bi79  1  0.32221356  0.91087845  0.80863796  1
  Bi2+  Bi80  1  0.47346152  0.09345837  0.29831827  1
  Bi2+  Bi81  1  0.41082439  0.09565168  0.75269476  1
  Bi2+  Bi82  1  0.41242822  0.37105210  0.32069578  1
  Bi2+  Bi83  1  0.44420751  0.37016226  0.78405327  1
  Bi2+  Bi84  1  0.40386381  0.59971870  0.25112997  1
  Bi2+  Bi85  1  0.54281308  0.64320753  0.81471571  1
  Bi2+  Bi86  1  0.48022758  0.85839868  0.28788722  1
  Bi2+  Bi87  1  0.51220413  0.84242196  0.79245323  1
  Bi2+  Bi88  1  0.75077993  0.12625906  0.29554669  1
  Bi2+  Bi89  1  0.68284318  0.14215383  0.78969325  1
  Bi2+  Bi90  1  0.80902268  0.39253998  0.29758662  1
  Bi2+  Bi91  1  0.68563970  0.35987927  0.78947491  1
  Bi2+  Bi92  1  0.76804878  0.61307324  0.29555399  1
  Bi2+  Bi93  1  0.75160029  0.61499164  0.78892591  1
  Bi2+  Bi94  1  0.73873590  0.87999327  0.28876216  1
  Bi2+  Bi95  1  0.76210645  0.91108958  0.80625566  1
  Bi2+  Bi96  1  0.07926853  0.04695280  0.18401565  1
  Bi2+  Bi97  1  0.18951554  -0.01695089  0.72480829  1
  Bi2+  Bi98  1  0.14896213  0.24698827  0.21129676  1
  Bi2+  Bi99  1  0.21462390  0.26392958  0.68392322  1
  Bi2+  Bi100  1  0.18829017  0.52347436  0.21419770  1
  Bi2+  Bi101  1  0.24725862  0.51266860  0.71773853  1
  Bi2+  Bi102  1  0.11069654  0.85000246  0.18138376  1
  Bi2+  Bi103  1  0.16153629  0.72705992  0.72152865  1
  Bi2+  Bi104  1  0.28966719  0.02408961  0.22111504  1
  Bi2+  Bi105  1  0.40817920  -0.07504381  0.68700223  1
  Bi2+  Bi106  1  0.42279510  0.24018246  0.23468981  1
  Bi2+  Bi107  1  0.40995903  0.23469881  0.67137945  1
  Bi2+  Bi108  1  0.36542402  0.43420499  0.20223786  1
  Bi2+  Bi109  1  0.41832434  0.43664028  0.67728929  1
  Bi2+  Bi110  1  0.26941756  0.74356835  0.23349781  1
  Bi2+  Bi111  1  0.43078537  0.71794477  0.71498184  1
  Bi2+  Bi112  1  0.62286961  0.01749974  0.20971360  1
  Bi2+  Bi113  1  0.57933186  0.00732253  0.71697544  1
  Bi2+  Bi114  1  0.61836931  0.27077620  0.21782938  1
  Bi2+  Bi115  1  0.60331341  0.27408970  0.69729727  1
  Bi2+  Bi116  1  0.61014449  0.38295083  0.31139522  1
  Bi2+  Bi117  1  0.58535210  0.52745099  0.71869138  1
  Bi2+  Bi118  1  0.60293997  0.70882962  0.18518039  1
  Bi2+  Bi119  1  0.63558728  0.76598564  0.71415684  1
  Bi2+  Bi120  1  0.89467437  -0.01328377  0.20519365  1
  Bi2+  Bi121  1  0.89888816  0.00305151  0.72596020  1
  Bi2+  Bi122  1  0.86855230  0.21578380  0.22226019  1
  Bi2+  Bi123  1  0.87401903  0.24361825  0.71329824  1
  Bi2+  Bi124  1  0.85951813  0.47238041  0.18319367  1
  Bi2+  Bi125  1  0.84650824  0.46140629  0.73521924  1
  Bi2+  Bi126  1  0.86142659  0.72153997  0.19523080  1
  Bi2+  Bi127  1  0.89051961  0.76232773  0.71548348  1
  S2-  S128  1  -0.12831397  0.11692443  0.13712711  1
  S2-  S129  1  0.01722919  0.04105759  0.65270673  1
  S2-  S130  1  -0.02661507  0.36836590  0.15053807  1
  S2-  S131  1  -0.06203628  0.38689673  0.66655305  1
  S2-  S132  1  -0.03114641  0.61199861  0.14187396  1
  S2-  S133  1  0.06788601  0.60277404  0.67946927  1
  S2-  S134  1  -0.11794487  0.86235688  0.13213206  1
  S2-  S135  1  0.03248185  0.79785231  0.66680874  1
  S2-  S136  1  0.26143786  0.14659854  0.15300314  1
  S2-  S137  1  0.26831847  0.03993020  0.64816284  1
  S2-  S138  1  0.22465580  0.37981963  0.14983888  1
  S2-  S139  1  0.14878787  0.41042627  0.65056180  1
  S2-  S140  1  0.23166938  0.65167954  0.15012273  1
  S2-  S141  1  0.31925608  0.63077802  0.65441362  1
  S2-  S142  1  0.31162832  0.90832510  0.15482961  1
  S2-  S143  1  0.24605198  0.83913825  0.67122400  1
  S2-  S144  1  0.48024939  0.03523026  0.16543338  1
  S2-  S145  1  0.59861646  0.12687285  0.64248043  1
  S2-  S146  1  0.49585478  0.27860552  0.14103942  1
  S2-  S147  1  0.60788996  0.41702468  0.63856725  1
  S2-  S148  1  0.49607934  0.57053126  0.15810802  1
  S2-  S149  1  0.61490013  0.64317060  0.64391315  1
  S2-  S150  1  0.46234877  0.78584391  0.18930933  1
  S2-  S151  1  0.62521650  0.89160160  0.64428256  1
  S2-  S152  1  0.65866529  0.13717386  0.14632339  1
  S2-  S153  1  0.80570141  0.09582898  0.67446700  1
  S2-  S154  1  0.73482922  0.36962207  0.15807079  1
  S2-  S155  1  0.75278888  0.28437199  0.64726861  1
  S2-  S156  1  0.74347526  0.60505004  0.15691522  1
  S2-  S157  1  0.85514719  0.65173766  0.65030142  1
  S2-  S158  1  0.64979896  0.86816963  0.15110735  1
  S2-  S159  1  0.84780348  0.88665534  0.65473233  1
  S2-  S160  1  0.09262791  0.01162990  0.35155704  1
  S2-  S161  1  0.15749636  -0.02211794  0.84779413  1
  S2-  S162  1  0.11048656  0.26285691  0.35434163  1
  S2-  S163  1  0.01573436  0.23307120  0.85449747  1
  S2-  S164  1  0.12360000  0.50733423  0.34527745  1
  S2-  S165  1  0.09895295  0.47127104  0.83921925  1
  S2-  S166  1  0.01733547  0.75889396  0.36895108  1
  S2-  S167  1  0.10229967  0.71369933  0.82588212  1
  S2-  S168  1  0.38211501  -0.04298005  0.33734185  1
  S2-  S169  1  0.40362147  0.03930254  0.85132950  1
  S2-  S170  1  0.35523086  0.15750672  0.36250118  1
  S2-  S171  1  0.34415087  0.27285685  0.84569623  1
  S2-  S172  1  0.36423959  0.53919763  0.34010051  1
  S2-  S173  1  0.49897141  0.47703329  0.85640398  1
  S2-  S174  1  0.44893094  0.74973230  0.35527815  1
  S2-  S175  1  0.29620782  0.75381876  0.85784234  1
  S2-  S176  1  0.61554625  -0.08960668  0.35056251  1
  S2-  S177  1  0.64486276  0.00038698  0.84843258  1
  S2-  S178  1  0.61349332  0.12860069  0.35689116  1
  S2-  S179  1  0.56445762  0.23767095  0.83371345  1
  S2-  S180  1  0.63025412  0.58118844  0.34785306  1
  S2-  S181  1  0.73725593  0.47682597  0.85309904  1
  S2-  S182  1  0.62761382  0.74824088  0.27724747  1
  S2-  S183  1  0.72378654  0.75330304  0.85236348  1
  S2-  S184  1  0.83193517  0.00248762  0.34149490  1
  S2-  S185  1  0.87283343  0.03299079  0.83350580  1
  S2-  S186  1  0.79647591  0.25713043  0.36255313  1
  S2-  S187  1  0.77110778  0.23948235  0.84829625  1
  S2-  S188  1  0.87694963  0.53252751  0.35031013  1
  S2-  S189  1  0.89564830  0.60593787  0.84434215  1
  S2-  S190  1  0.78909064  0.75552026  0.35101758  1
  S2-  S191  1  0.91618582  0.82561687  0.82248233  1
  S2-  S192  1  0.00440620  0.14463879  0.46049074  1
  S2-  S193  1  0.00296153  0.11190425  0.95609633  1
  S2-  S194  1  0.00336450  0.39688992  0.45961373  1
  S2-  S195  1  0.00164643  0.37283676  0.94757812  1
  S2-  S196  1  0.00260628  0.63900355  0.47000002  1
  S2-  S197  1  0.01098577  0.62210790  0.94234796  1
  S2-  S198  1  0.00481261  0.89930822  0.46548254  1
  S2-  S199  1  0.00655064  0.86252937  0.94540952  1
  S2-  S200  1  0.24951717  0.14451379  0.46414939  1
  S2-  S201  1  0.25064242  0.11968520  0.95047485  1
  S2-  S202  1  0.25381791  0.39637790  0.45775223  1
  S2-  S203  1  0.25215619  0.36559907  0.94814176  1
  S2-  S204  1  0.25526098  0.64890289  0.45438104  1
  S2-  S205  1  0.25225658  0.61545343  0.94884019  1
  S2-  S206  1  0.25272660  0.89517988  0.45670307  1
  S2-  S207  1  0.25131149  0.86935113  0.95895632  1
  S2-  S208  1  0.50221021  0.14646363  0.45592300  1
  S2-  S209  1  0.50370775  0.12076785  0.95904850  1
  S2-  S210  1  0.50514302  0.39304547  0.45137581  1
  S2-  S211  1  0.50035708  0.35994430  0.95430786  1
  S2-  S212  1  0.50411709  0.64265366  0.45699927  1
  S2-  S213  1  0.49881561  0.61959668  0.95606143  1
  S2-  S214  1  0.49671127  0.89977265  0.45770811  1
  S2-  S215  1  0.50081489  0.86772464  0.94464016  1
  S2-  S216  1  0.75419071  0.14113537  0.46265752  1
  S2-  S217  1  0.75448591  0.11329290  0.95486499  1
  S2-  S218  1  0.75454025  0.39641267  0.45899644  1
  S2-  S219  1  0.75563563  0.36650892  0.95247116  1
  S2-  S220  1  0.75227498  0.63903877  0.45750767  1
  S2-  S221  1  0.75020773  0.61563351  0.95123802  1
  S2-  S222  1  0.75396076  0.89392144  0.45533582  1
  S2-  S223  1  0.75133276  0.87000871  0.95630643  1
  S2-  S224  1  0.12409849  -0.00569251  0.04943347  1
  S2-  S225  1  0.12843248  0.02341199  0.55086046  1
  S2-  S226  1  0.12490791  0.24377663  0.04274709  1
  S2-  S227  1  0.12653259  0.26720005  0.55491780  1
  S2-  S228  1  0.12546278  0.49590682  0.04387170  1
  S2-  S229  1  0.12881263  0.52537390  0.55091176  1
  S2-  S230  1  0.12393568  0.74282364  0.03675373  1
  S2-  S231  1  0.12949611  0.77512067  0.55433499  1
  S2-  S232  1  0.37628006  0.00043024  0.04873391  1
  S2-  S233  1  0.38189727  0.02360555  0.54300014  1
  S2-  S234  1  0.37011913  0.24539732  0.04413823  1
  S2-  S235  1  0.37818588  0.27556346  0.54373126  1
  S2-  S236  1  0.37342561  0.49259585  0.04232840  1
  S2-  S237  1  0.37933058  0.52026239  0.54400837  1
  S2-  S238  1  0.37968925  0.74974371  0.05329336  1
  S2-  S239  1  0.38023711  0.77300096  0.55130634  1
  S2-  S240  1  0.62160555  -0.00543412  0.05215317  1
  S2-  S241  1  0.62649430  0.02230701  0.53956461  1
  S2-  S242  1  0.63144457  0.24727213  0.03843494  1
  S2-  S243  1  0.62385505  0.27297294  0.53714059  1
  S2-  S244  1  0.62697481  0.49379396  0.04448154  1
  S2-  S245  1  0.62537759  0.52065573  0.53972415  1
  S2-  S246  1  0.62709671  0.74005389  0.04488822  1
  S2-  S247  1  0.62331745  0.76938314  0.54430636  1
  S2-  S248  1  0.87421486  -0.00711430  0.03616495  1
  S2-  S249  1  0.87507185  0.02539250  0.54893609  1
  S2-  S250  1  0.87656865  0.24609593  0.03868400  1
  S2-  S251  1  0.88230525  0.27179556  0.55135082  1
  S2-  S252  1  0.87815250  0.49492139  0.03371476  1
  S2-  S253  1  0.87591786  0.51431033  0.55492567  1
  S2-  S254  1  0.87564166  0.73935008  0.03073526  1
  S2-  S255  1  0.87866235  0.77180750  0.54634195  1
