# generated using pymatgen
data_La12Ce14Pr13Nd13Sm12(BiS2)64
_symmetry_space_group_name_H-M   'P 1'
_cell_length_a   16.13364580
_cell_length_b   16.14074709
_cell_length_c   27.24534769
_cell_angle_alpha   90.14129555
_cell_angle_beta   90.08238633
_cell_angle_gamma   89.91573578
_symmetry_Int_Tables_number   1
_chemical_formula_structural   La12Ce14Pr13Nd13Sm12(BiS2)64
_chemical_formula_sum   'La12 Ce14 Pr13 Nd13 Sm12 Bi64 S128'
_cell_volume   7094.89982997
_cell_formula_units_Z   1
loop_
 _symmetry_equiv_pos_site_id
 _symmetry_equiv_pos_as_xyz
  1  'x, y, z'
loop_
 _atom_type_symbol
 _atom_type_oxidation_number
  La3+  3.0
  Ce3+  3.0
  Pr3+  3.0
  Nd3+  3.0
  Sm3+  3.0
  Bi2+  2.0
  S2-  -2.0
loop_
 _atom_site_type_symbol
 _atom_site_label
 _atom_site_symmetry_multiplicity
 _atom_site_fract_x
 _atom_site_fract_y
 _atom_site_fract_z
 _atom_site_occupancy
  La3+  La0  1  0.23740086  0.62688266  0.57421489  1
  La3+  La1  1  0.13022437  0.75507562  0.40929656  1
  La3+  La2  1  0.88333722  0.00680458  0.88787242  1
  La3+  La3  1  0.51211521  0.87291483  0.07179808  1
  La3+  La4  1  0.63171624  -0.02119862  0.92508988  1
  La3+  La5  1  0.12139140  0.49546934  0.42397534  1
  La3+  La6  1  0.25727363  0.62810047  0.09110917  1
  La3+  La7  1  0.03484046  0.12616859  0.61051541  1
  La3+  La8  1  0.24127838  0.88325128  0.56250041  1
  La3+  La9  1  0.26578311  0.36046509  0.09976921  1
  La3+  La10  1  0.85487279  0.51031497  0.38684939  1
  La3+  La11  1  0.38061797  0.26068422  0.41573912  1
  Ce3+  Ce12  1  0.50323627  0.13031015  0.56745372  1
  Ce3+  Ce13  1  0.88494921  0.74945632  0.94296921  1
  Ce3+  Ce14  1  0.49533627  0.38115982  0.56742546  1
  Ce3+  Ce15  1  0.62032760  0.74781559  0.45011467  1
  Ce3+  Ce16  1  0.13243825  0.73920089  0.94799735  1
  Ce3+  Ce17  1  0.37968257  0.74075101  0.94992621  1
  Ce3+  Ce18  1  0.13286284  0.24519890  0.94464461  1
  Ce3+  Ce19  1  0.00054950  0.62776446  0.54060796  1
  Ce3+  Ce20  1  0.36815607  0.74920434  0.44309533  1
  Ce3+  Ce21  1  -0.00451738  0.37258177  0.55228845  1
  Ce3+  Ce22  1  0.76012022  0.11634520  0.05058597  1
  Ce3+  Ce23  1  0.37871065  -0.01267835  0.93005640  1
  Ce3+  Ce24  1  0.61969400  0.50380337  0.43984183  1
  Ce3+  Ce25  1  0.63569252  0.24038317  0.93586616  1
  Pr3+  Pr26  1  0.86939699  0.25170538  0.43200824  1
  Pr3+  Pr27  1  0.75799961  0.86903702  0.06486581  1
  Pr3+  Pr28  1  0.75814196  0.61692443  0.06475864  1
  Pr3+  Pr29  1  0.50985016  0.11968824  0.04705902  1
  Pr3+  Pr30  1  0.50793921  0.61530491  0.07213755  1
  Pr3+  Pr31  1  0.00887883  0.36228081  0.07117734  1
  Pr3+  Pr32  1  0.38127445  0.24407545  0.93650926  1
  Pr3+  Pr33  1  0.61989612  0.00067558  0.44091904  1
  Pr3+  Pr34  1  0.26300756  0.11762095  0.06156425  1
  Pr3+  Pr35  1  0.88738913  0.25207779  0.93327276  1
  Pr3+  Pr36  1  0.63008057  0.73567354  0.93857128  1
  Pr3+  Pr37  1  0.86962915  0.00235439  0.43182184  1
  Pr3+  Pr38  1  0.24938704  0.37463389  0.56374628  1
  Nd3+  Nd39  1  0.50774701  0.36961549  0.06085388  1
  Nd3+  Nd40  1  0.37745575  0.49383851  0.94571864  1
  Nd3+  Nd41  1  0.74715141  0.87528007  0.56153901  1
  Nd3+  Nd42  1  0.00919354  0.11928099  0.06049293  1
  Nd3+  Nd43  1  0.11852367  0.25141543  0.43581841  1
  Nd3+  Nd44  1  0.63216467  0.49589149  0.93508540  1
  Nd3+  Nd45  1  0.12220322  0.00575770  0.43118080  1
  Nd3+  Nd46  1  0.00488661  0.60925253  0.07246352  1
  Nd3+  Nd47  1  -0.00428290  0.88071524  0.54988381  1
  Nd3+  Nd48  1  0.75137304  0.13051993  0.57043040  1
  Nd3+  Nd49  1  0.87175127  0.75655404  0.42459270  1
  Nd3+  Nd50  1  0.13332121  -0.00862571  0.93605923  1
  Nd3+  Nd51  1  0.00904384  0.86702756  0.06664356  1
  Sm3+  Sm52  1  0.25343676  0.13018302  0.54334437  1
  Sm3+  Sm53  1  0.26410483  0.87236804  0.06493797  1
  Sm3+  Sm54  1  0.49726613  0.87512963  0.56095450  1
  Sm3+  Sm55  1  0.37555940  0.00383330  0.44526015  1
  Sm3+  Sm56  1  0.88573074  0.49374767  0.93913835  1
  Sm3+  Sm57  1  0.75880292  0.36797351  0.05619849  1
  Sm3+  Sm58  1  0.49148320  0.62309687  0.57353668  1
  Sm3+  Sm59  1  0.75003017  0.38090241  0.55397564  1
  Sm3+  Sm60  1  0.62147803  0.25376241  0.44461832  1
  Sm3+  Sm61  1  0.13624484  0.49437977  0.95831595  1
  Sm3+  Sm62  1  0.36848484  0.50283748  0.44317010  1
  Sm3+  Sm63  1  0.75130761  0.62572255  0.55619117  1
  Bi2+  Bi64  1  -0.00009299  0.12725524  0.34431489  1
  Bi2+  Bi65  1  0.02403744  0.14353648  0.80155200  1
  Bi2+  Bi66  1  -0.00307353  0.30201380  0.28646102  1
  Bi2+  Bi67  1  -0.02415106  0.38634218  0.77103953  1
  Bi2+  Bi68  1  -0.08741582  0.68956139  0.26384803  1
  Bi2+  Bi69  1  -0.00674384  0.64075060  0.80693332  1
  Bi2+  Bi70  1  -0.00048986  0.93211228  0.29145555  1
  Bi2+  Bi71  1  0.02785257  0.83792012  0.79189682  1
  Bi2+  Bi72  1  0.19183425  0.12001313  0.30088355  1
  Bi2+  Bi73  1  0.28256559  0.13092908  0.79496050  1
  Bi2+  Bi74  1  0.25238940  0.39391613  0.29633759  1
  Bi2+  Bi75  1  0.23334793  0.39007249  0.81178788  1
  Bi2+  Bi76  1  0.28787481  0.63749013  0.28216032  1
  Bi2+  Bi77  1  0.26608170  0.62724146  0.81938314  1
  Bi2+  Bi78  1  0.25918597  0.93921796  0.27749838  1
  Bi2+  Bi79  1  0.31733260  0.87982565  0.78610487  1
  Bi2+  Bi80  1  0.50264388  0.09270224  0.30292673  1
  Bi2+  Bi81  1  0.50285203  0.13905667  0.79440773  1
  Bi2+  Bi82  1  0.54895531  0.36381028  0.28212913  1
  Bi2+  Bi83  1  0.54626785  0.40575878  0.78320398  1
  Bi2+  Bi84  1  0.48331423  0.63809155  0.30376905  1
  Bi2+  Bi85  1  0.53511628  0.60718467  0.77080768  1
  Bi2+  Bi86  1  0.51361228  0.83211071  0.27390988  1
  Bi2+  Bi87  1  0.49224305  0.94734866  0.81389153  1
  Bi2+  Bi88  1  0.80870001  0.10647021  0.31186239  1
  Bi2+  Bi89  1  0.75005762  0.12665176  0.77663917  1
  Bi2+  Bi90  1  0.72779257  0.27930075  0.28958721  1
  Bi2+  Bi91  1  0.73318281  0.43799009  0.81356529  1
  Bi2+  Bi92  1  0.67699428  0.61091640  0.27980278  1
  Bi2+  Bi93  1  0.80015230  0.61994666  0.80582576  1
  Bi2+  Bi94  1  0.72144526  0.87096160  0.29379438  1
  Bi2+  Bi95  1  0.74203241  0.84935167  0.79208535  1
  Bi2+  Bi96  1  0.11378651  0.02449721  0.20918818  1
  Bi2+  Bi97  1  0.16591099  -0.01387208  0.70224327  1
  Bi2+  Bi98  1  0.12728931  0.23071781  0.21120289  1
  Bi2+  Bi99  1  0.13904282  0.35121435  0.71276052  1
  Bi2+  Bi100  1  0.07578731  0.51291117  0.22432652  1
  Bi2+  Bi101  1  0.11313833  0.54645798  0.71799793  1
  Bi2+  Bi102  1  0.10763023  0.75813481  0.21468181  1
  Bi2+  Bi103  1  0.12952239  0.74208147  0.71122315  1
  Bi2+  Bi104  1  0.39408589  0.03363033  0.21592110  1
  Bi2+  Bi105  1  0.38722021  0.02816733  0.71081376  1
  Bi2+  Bi106  1  0.39302846  0.23605887  0.21778154  1
  Bi2+  Bi107  1  0.37111524  0.22865910  0.71093063  1
  Bi2+  Bi108  1  0.43247322  0.49173503  0.22546468  1
  Bi2+  Bi109  1  0.37346342  0.49514383  0.69608242  1
  Bi2+  Bi110  1  0.37346651  0.77975069  0.20225307  1
  Bi2+  Bi111  1  0.41812365  0.74676403  0.72803904  1
  Bi2+  Bi112  1  0.69141559  0.01120767  0.21308024  1
  Bi2+  Bi113  1  0.57818266  -0.02458413  0.70515406  1
  Bi2+  Bi114  1  0.59621590  0.21392700  0.21168773  1
  Bi2+  Bi115  1  0.56749136  0.25205120  0.70700872  1
  Bi2+  Bi116  1  0.61612687  0.49423942  0.18787481  1
  Bi2+  Bi117  1  0.67055701  0.46243998  0.70280453  1
  Bi2+  Bi118  1  0.56306362  0.69452656  0.19400821  1
  Bi2+  Bi119  1  0.67792002  0.71304114  0.72293641  1
  Bi2+  Bi120  1  0.89546651  0.02445737  0.21181007  1
  Bi2+  Bi121  1  0.87372590  -0.04543718  0.68484472  1
  Bi2+  Bi122  1  0.86960372  0.22203134  0.21155189  1
  Bi2+  Bi123  1  0.87316626  0.26677675  0.70510922  1
  Bi2+  Bi124  1  0.83191347  0.49424177  0.20499383  1
  Bi2+  Bi125  1  0.91085779  0.54463967  0.71230590  1
  Bi2+  Bi126  1  0.80552822  0.82751415  0.19371961  1
  Bi2+  Bi127  1  0.89812052  0.74530540  0.71636451  1
  S2-  S128  1  0.00023474  0.22726527  0.14017124  1
  S2-  S129  1  0.07235497  0.12522931  0.71384354  1
  S2-  S130  1  -0.03493525  0.45640616  0.15268899  1
  S2-  S131  1  0.01518851  0.30373037  0.64323606  1
  S2-  S132  1  0.00590758  0.64690214  0.17061340  1
  S2-  S133  1  0.08060764  0.64972603  0.62814107  1
  S2-  S134  1  -0.02523012  0.84961262  0.16525997  1
  S2-  S135  1  0.03313186  0.94755095  0.64073077  1
  S2-  S136  1  0.26980510  0.20107946  0.15018497  1
  S2-  S137  1  0.21319764  0.09991433  0.63619853  1
  S2-  S138  1  0.19157980  0.39555437  0.19296357  1
  S2-  S139  1  0.22419756  0.48698797  0.64375439  1
  S2-  S140  1  0.19415033  0.60751615  0.19020182  1
  S2-  S141  1  0.36779437  0.64076007  0.64919743  1
  S2-  S142  1  0.22285465  0.79070730  0.14915206  1
  S2-  S143  1  0.23889030  0.83659205  0.65962542  1
  S2-  S144  1  0.49620379  0.12208182  0.14779130  1
  S2-  S145  1  0.61886180  0.12527759  0.64427820  1
  S2-  S146  1  0.42313312  0.36246991  0.14974426  1
  S2-  S147  1  0.37390013  0.34723307  0.63917905  1
  S2-  S148  1  0.40049050  0.61638579  0.15325421  1
  S2-  S149  1  0.51973122  0.49757618  0.64310073  1
  S2-  S150  1  0.38536913  0.91419727  0.13987508  1
  S2-  S151  1  0.49379436  0.84764783  0.65901696  1
  S2-  S152  1  0.75141025  0.13749335  0.14797850  1
  S2-  S153  1  0.86584235  0.11998483  0.64640498  1
  S2-  S154  1  0.74183979  0.38303068  0.15387516  1
  S2-  S155  1  0.75806431  0.33674497  0.65071292  1
  S2-  S156  1  0.78931379  0.65389878  0.16257349  1
  S2-  S157  1  0.73419317  0.60449411  0.65351987  1
  S2-  S158  1  0.64453449  0.89468111  0.14356520  1
  S2-  S159  1  0.71864900  0.90322695  0.65960810  1
  S2-  S160  1  0.13711259  -0.09382306  0.34935750  1
  S2-  S161  1  0.04604490  -0.00930193  0.84923667  1
  S2-  S162  1  0.12011171  0.35296721  0.35354000  1
  S2-  S163  1  0.11731746  0.26603216  0.84778972  1
  S2-  S164  1  0.18099666  0.54434548  0.33089372  1
  S2-  S165  1  0.14599882  0.51109292  0.85921406  1
  S2-  S166  1  0.04180545  0.73234226  0.31548857  1
  S2-  S167  1  0.14972169  0.75420521  0.85008230  1
  S2-  S168  1  0.38988022  -0.01177518  0.34776754  1
  S2-  S169  1  0.25932917  -0.00924699  0.85793060  1
  S2-  S170  1  0.31522660  0.23209463  0.31702986  1
  S2-  S171  1  0.35466107  0.26793693  0.83781704  1
  S2-  S172  1  0.37585405  0.41754089  0.35736416  1
  S2-  S173  1  0.35859930  0.49733346  0.84463392  1
  S2-  S174  1  0.28754735  0.74665501  0.35644289  1
  S2-  S175  1  0.38568446  0.72236151  0.85188574  1
  S2-  S176  1  0.63721000  0.01536751  0.34114543  1
  S2-  S177  1  0.72330083  0.00582631  0.83927292  1
  S2-  S178  1  0.53334684  0.24390283  0.35930462  1
  S2-  S179  1  0.64020399  0.21965874  0.83818743  1
  S2-  S180  1  0.68583280  0.49318402  0.34870283  1
  S2-  S181  1  0.61172530  0.60981687  0.86097889  1
  S2-  S182  1  0.60591749  0.77390349  0.35397608  1
  S2-  S183  1  0.61347916  0.83510700  0.85441124  1
  S2-  S184  1  0.86158378  -0.11257687  0.35245216  1
  S2-  S185  1  0.88792407  0.02276944  0.76996105  1
  S2-  S186  1  0.86212309  0.34693696  0.34595313  1
  S2-  S187  1  0.86600156  0.17302196  0.84502633  1
  S2-  S188  1  0.93592712  0.52485043  0.29232553  1
  S2-  S189  1  0.89067725  0.38997065  0.86061588  1
  S2-  S190  1  0.81814574  0.67113793  0.34245779  1
  S2-  S191  1  0.87889858  0.83589806  0.85649238  1
  S2-  S192  1  -0.00513975  0.12703838  0.45272543  1
  S2-  S193  1  0.00748058  0.11798094  0.95499017  1
  S2-  S194  1  -0.00951977  0.37740476  0.44917236  1
  S2-  S195  1  0.01235864  0.37421725  0.96335227  1
  S2-  S196  1  -0.00826444  0.62454468  0.43449154  1
  S2-  S197  1  0.00641149  0.61472255  0.96152246  1
  S2-  S198  1  -0.00082075  0.87800319  0.44626251  1
  S2-  S199  1  0.01271844  0.86815199  0.95994448  1
  S2-  S200  1  0.25227476  0.12933096  0.43981954  1
  S2-  S201  1  0.25709267  0.12062972  0.95516594  1
  S2-  S202  1  0.24995080  0.37386557  0.45615333  1
  S2-  S203  1  0.25649024  0.36931465  0.95597517  1
  S2-  S204  1  0.24558027  0.62322491  0.45655023  1
  S2-  S205  1  0.25722567  0.61751340  0.96912462  1
  S2-  S206  1  0.25277157  0.88413515  0.45456237  1
  S2-  S207  1  0.25568288  0.86511071  0.96064624  1
  S2-  S208  1  0.49867825  0.12626788  0.45948736  1
  S2-  S209  1  0.50676482  0.11597157  0.94100252  1
  S2-  S210  1  0.50054859  0.38116203  0.45942895  1
  S2-  S211  1  0.50867129  0.37026110  0.95057381  1
  S2-  S212  1  0.49341087  0.62530765  0.45942874  1
  S2-  S213  1  0.50211146  0.61348642  0.96530223  1
  S2-  S214  1  0.49465055  0.87549634  0.45585596  1
  S2-  S215  1  0.50230711  0.86336579  0.96054085  1
  S2-  S216  1  0.74232569  0.12793157  0.45476893  1
  S2-  S217  1  0.76030731  0.11523352  0.94758880  1
  S2-  S218  1  0.74330317  0.37889887  0.45082774  1
  S2-  S219  1  0.75420171  0.37074095  0.95312126  1
  S2-  S220  1  0.74827131  0.62587674  0.45296385  1
  S2-  S221  1  0.76409795  0.61516185  0.95650343  1
  S2-  S222  1  0.74309805  0.87334917  0.45521267  1
  S2-  S223  1  0.75451080  0.86118467  0.95937479  1
  S2-  S224  1  0.13528407  -0.00654679  0.05216191  1
  S2-  S225  1  0.12203445  0.00961185  0.53548729  1
  S2-  S226  1  0.14052140  0.24523374  0.04942890  1
  S2-  S227  1  0.12650948  0.24835696  0.54172805  1
  S2-  S228  1  0.13875598  0.49071876  0.06355875  1
  S2-  S229  1  0.11779512  0.49647376  0.53482658  1
  S2-  S230  1  0.12655561  0.73798916  0.05232137  1
  S2-  S231  1  0.12155061  0.75935095  0.52987601  1
  S2-  S232  1  0.38399012  -0.00326324  0.03536946  1
  S2-  S233  1  0.37712028  0.00326156  0.55119067  1
  S2-  S234  1  0.38471985  0.24614353  0.04251801  1
  S2-  S235  1  0.37745974  0.24710845  0.53609211  1
  S2-  S236  1  0.37850047  0.48977538  0.05207939  1
  S2-  S237  1  0.37074053  0.50484254  0.54457008  1
  S2-  S238  1  0.38496214  0.74538862  0.05381148  1
  S2-  S239  1  0.37205311  0.75446092  0.54813588  1
  S2-  S240  1  0.63375714  -0.00389307  0.03646336  1
  S2-  S241  1  0.62106281  -0.00256600  0.54678012  1
  S2-  S242  1  0.63353840  0.24704611  0.04395987  1
  S2-  S243  1  0.62418475  0.25792701  0.54705673  1
  S2-  S244  1  0.63378571  0.49188168  0.04379778  1
  S2-  S245  1  0.62629529  0.50597640  0.54365242  1
  S2-  S246  1  0.63235519  0.73891110  0.04813281  1
  S2-  S247  1  0.61973453  0.74647897  0.55660559  1
  S2-  S248  1  0.88593076  -0.00596900  0.05897601  1
  S2-  S249  1  0.86443506  -0.00249737  0.53928892  1
  S2-  S250  1  0.87970440  0.24518847  0.04108610  1
  S2-  S251  1  0.86540548  0.25536816  0.53925511  1
  S2-  S252  1  0.87974716  0.49066522  0.04328746  1
  S2-  S253  1  0.87437556  0.50376885  0.55374344  1
  S2-  S254  1  0.88539062  0.74148383  0.05013108  1
  S2-  S255  1  0.87318191  0.75192113  0.54259862  1
