# generated using pymatgen
data_La12Ce14Pr13Nd13Sm12(BiS2)64
_symmetry_space_group_name_H-M   'P 1'
_cell_length_a   16.03694603
_cell_length_b   16.08781277
_cell_length_c   27.66862467
_cell_angle_alpha   89.84011672
_cell_angle_beta   89.29186233
_cell_angle_gamma   89.86444572
_symmetry_Int_Tables_number   1
_chemical_formula_structural   La12Ce14Pr13Nd13Sm12(BiS2)64
_chemical_formula_sum   'La12 Ce14 Pr13 Nd13 Sm12 Bi64 S128'
_cell_volume   7137.89575420
_cell_formula_units_Z   1
loop_
 _symmetry_equiv_pos_site_id
 _symmetry_equiv_pos_as_xyz
  1  'x, y, z'
loop_
 _atom_type_symbol
 _atom_type_oxidation_number
  La3+  3.0
  Ce3+  3.0
  Pr3+  3.0
  Nd3+  3.0
  Sm3+  3.0
  Bi2+  2.0
  S2-  -2.0
loop_
 _atom_site_type_symbol
 _atom_site_label
 _atom_site_symmetry_multiplicity
 _atom_site_fract_x
 _atom_site_fract_y
 _atom_site_fract_z
 _atom_site_occupancy
  La3+  La0  1  0.12400136  0.25851632  0.88373782  1
  La3+  La1  1  0.50870391  0.64101196  0.61223108  1
  La3+  La2  1  0.88893864  0.25618105  0.43293275  1
  La3+  La3  1  0.10473699  -0.00537381  0.93183828  1
  La3+  La4  1  0.88703787  0.00584065  0.42114682  1
  La3+  La5  1  0.72173274  0.61280075  0.09123488  1
  La3+  La6  1  0.85096102  0.49744857  0.94142698  1
  La3+  La7  1  0.13799029  0.01401843  0.42397391  1
  La3+  La8  1  0.22865025  0.11763847  0.06062314  1
  La3+  La9  1  0.89543039  0.50459368  0.42110621  1
  La3+  La10  1  0.64156253  0.73983392  0.89309755  1
  La3+  La11  1  0.63628091  0.00284635  0.42453087  1
  Ce3+  Ce12  1  0.48216010  0.86819683  0.06821247  1
  Ce3+  Ce13  1  0.60943547  -0.01341711  0.94372964  1
  Ce3+  Ce14  1  0.85690265  0.24207657  0.93678406  1
  Ce3+  Ce15  1  0.00712050  0.62753565  0.56040812  1
  Ce3+  Ce16  1  0.10497435  0.75088848  0.94325422  1
  Ce3+  Ce17  1  -0.02414144  0.36854544  0.05828860  1
  Ce3+  Ce18  1  0.23187819  0.36755092  0.06247224  1
  Ce3+  Ce19  1  0.51316353  0.12741675  0.55868817  1
  Ce3+  Ce20  1  0.25943800  0.63246059  0.56216793  1
  Ce3+  Ce21  1  0.60589018  0.49785868  0.94791498  1
  Ce3+  Ce22  1  0.76174347  0.38306572  0.55160992  1
  Ce3+  Ce23  1  0.38190629  0.50555917  0.44072889  1
  Ce3+  Ce24  1  0.63605379  0.50983789  0.44101793  1
  Ce3+  Ce25  1  -0.02058099  0.11972478  0.05804300  1
  Pr3+  Pr26  1  0.75919365  0.87499178  0.55631708  1
  Pr3+  Pr27  1  0.36610363  0.74991861  0.93178634  1
  Pr3+  Pr28  1  0.23267808  0.86765616  0.06905735  1
  Pr3+  Pr29  1  0.01016819  0.37359814  0.56363592  1
  Pr3+  Pr30  1  0.14010074  0.24956328  0.45033357  1
  Pr3+  Pr31  1  0.89170885  0.74878099  0.42685534  1
  Pr3+  Pr32  1  0.35673408  0.49170606  0.94253904  1
  Pr3+  Pr33  1  0.26975892  0.11885093  0.57685867  1
  Pr3+  Pr34  1  0.22944490  0.62126118  0.05253566  1
  Pr3+  Pr35  1  0.47457574  0.36345114  0.06716263  1
  Pr3+  Pr36  1  0.63865974  0.74800918  0.43997089  1
  Pr3+  Pr37  1  0.13770157  0.75523054  0.43112738  1
  Pr3+  Pr38  1  0.63602525  0.25778087  0.43705491  1
  Nd3+  Nd39  1  0.26187241  0.37993711  0.56587964  1
  Nd3+  Nd40  1  0.38784130  0.25411941  0.44778616  1
  Nd3+  Nd41  1  0.75802104  0.12765101  0.55727600  1
  Nd3+  Nd42  1  0.76402176  0.62654216  0.56551646  1
  Nd3+  Nd43  1  0.72722683  0.86858755  0.07687692  1
  Nd3+  Nd44  1  0.38237855  0.75375701  0.43174798  1
  Nd3+  Nd45  1  0.51176054  0.38873145  0.56240816  1
  Nd3+  Nd46  1  0.00291521  0.11669919  0.57020834  1
  Nd3+  Nd47  1  0.85629349  0.74430449  0.96097657  1
  Nd3+  Nd48  1  -0.01952655  0.87789391  0.08175848  1
  Nd3+  Nd49  1  0.72359676  0.36453019  0.07505849  1
  Nd3+  Nd50  1  0.72669951  0.12286515  0.06568941  1
  Nd3+  Nd51  1  0.47933208  0.62036902  0.06446274  1
  Sm3+  Sm52  1  0.10602141  0.49049766  0.94405164  1
  Sm3+  Sm53  1  0.26012762  0.88160016  0.55318152  1
  Sm3+  Sm54  1  -0.02132730  0.61657793  0.06416682  1
  Sm3+  Sm55  1  0.50895656  0.87373651  0.54781186  1
  Sm3+  Sm56  1  0.01055149  0.88141909  0.55239657  1
  Sm3+  Sm57  1  0.48152233  0.11925194  0.04616318  1
  Sm3+  Sm58  1  0.38787358  0.00668353  0.42933982  1
  Sm3+  Sm59  1  0.85416636  -0.00970928  0.95076580  1
  Sm3+  Sm60  1  0.61277620  0.24589159  0.93514658  1
  Sm3+  Sm61  1  0.14092383  0.50330285  0.43979191  1
  Sm3+  Sm62  1  0.35809142  -0.00679913  0.94230489  1
  Sm3+  Sm63  1  0.35737616  0.24241649  0.93611926  1
  Bi2+  Bi64  1  0.01035888  0.13375859  0.29319460  1
  Bi2+  Bi65  1  -0.00813149  0.12431042  0.79201440  1
  Bi2+  Bi66  1  0.01234405  0.37622193  0.29393306  1
  Bi2+  Bi67  1  -0.01277151  0.39603444  0.79757866  1
  Bi2+  Bi68  1  0.06002717  0.63099691  0.28511093  1
  Bi2+  Bi69  1  0.04404368  0.69553928  0.82114985  1
  Bi2+  Bi70  1  0.03279380  0.87329183  0.27528094  1
  Bi2+  Bi71  1  0.01323981  0.87868107  0.77414367  1
  Bi2+  Bi72  1  0.26618663  0.13828326  0.29684658  1
  Bi2+  Bi73  1  0.30324233  0.07474506  0.81196674  1
  Bi2+  Bi74  1  0.25950309  0.35455560  0.29998095  1
  Bi2+  Bi75  1  0.35885053  0.37201606  0.77908524  1
  Bi2+  Bi76  1  0.25720046  0.60962023  0.29265794  1
  Bi2+  Bi77  1  0.23950861  0.69527257  0.79624244  1
  Bi2+  Bi78  1  0.25298637  0.87241591  0.28324752  1
  Bi2+  Bi79  1  0.19708157  0.85332796  0.72898240  1
  Bi2+  Bi80  1  0.48423509  0.08902944  0.27111803  1
  Bi2+  Bi81  1  0.50538790  0.13395711  0.79664950  1
  Bi2+  Bi82  1  0.45529184  0.38642347  0.27862827  1
  Bi2+  Bi83  1  0.54120630  0.32910961  0.81804228  1
  Bi2+  Bi84  1  0.47666822  0.57816822  0.30107017  1
  Bi2+  Bi85  1  0.50505141  0.58739166  0.80626137  1
  Bi2+  Bi86  1  0.46223197  0.78605322  0.29330304  1
  Bi2+  Bi87  1  0.49687555  0.93207837  0.79692185  1
  Bi2+  Bi88  1  0.73061917  0.13100437  0.29975430  1
  Bi2+  Bi89  1  0.71650086  0.11526650  0.79038228  1
  Bi2+  Bi90  1  0.75139952  0.32999958  0.27857320  1
  Bi2+  Bi91  1  0.72677182  0.36177208  0.78366470  1
  Bi2+  Bi92  1  0.72905581  0.63162402  0.29449465  1
  Bi2+  Bi93  1  0.78529137  0.62047909  0.79775429  1
  Bi2+  Bi94  1  0.73227977  0.88004597  0.27125420  1
  Bi2+  Bi95  1  0.80029415  0.90087276  0.80653082  1
  Bi2+  Bi96  1  0.13442460  -0.00599342  0.20461701  1
  Bi2+  Bi97  1  0.13115682  0.06715123  0.68989695  1
  Bi2+  Bi98  1  0.12368940  0.25788868  0.22645655  1
  Bi2+  Bi99  1  0.13507474  0.31510099  0.69034921  1
  Bi2+  Bi100  1  0.14231996  0.45568915  0.22055918  1
  Bi2+  Bi101  1  0.10402884  0.58104327  0.73420330  1
  Bi2+  Bi102  1  0.17781519  0.73440322  0.21315326  1
  Bi2+  Bi103  1  0.11242809  0.72667132  0.65836471  1
  Bi2+  Bi104  1  0.40707157  -0.06409377  0.22241141  1
  Bi2+  Bi105  1  0.38522468  0.01655124  0.71538008  1
  Bi2+  Bi106  1  0.36734593  0.19918466  0.19869271  1
  Bi2+  Bi107  1  0.49024744  0.29960206  0.70645633  1
  Bi2+  Bi108  1  0.34136685  0.48183253  0.20186795  1
  Bi2+  Bi109  1  0.29786848  0.54339521  0.72736870  1
  Bi2+  Bi110  1  0.42719420  0.67307134  0.20000159  1
  Bi2+  Bi111  1  0.37896801  0.77894231  0.71378581  1
  Bi2+  Bi112  1  0.68479011  0.02545894  0.19893294  1
  Bi2+  Bi113  1  0.61016019  0.02203385  0.71285389  1
  Bi2+  Bi114  1  0.61481427  0.21549192  0.20298942  1
  Bi2+  Bi115  1  0.63647555  0.19690001  0.66452639  1
  Bi2+  Bi116  1  0.60814895  0.46425212  0.21730718  1
  Bi2+  Bi117  1  0.64043322  0.47661239  0.70723995  1
  Bi2+  Bi118  1  0.60520930  0.76835131  0.21273367  1
  Bi2+  Bi119  1  0.63832414  0.78204573  0.69959449  1
  Bi2+  Bi120  1  0.87618533  0.06425526  0.21681697  1
  Bi2+  Bi121  1  0.87557845  -0.02427084  0.70098421  1
  Bi2+  Bi122  1  0.89084368  0.26279414  0.20772191  1
  Bi2+  Bi123  1  0.80840477  0.22934283  0.71586552  1
  Bi2+  Bi124  1  0.88370439  0.52679392  0.20291681  1
  Bi2+  Bi125  1  0.88025249  0.49853650  0.70374227  1
  Bi2+  Bi126  1  0.89914963  0.76956219  0.21967959  1
  Bi2+  Bi127  1  0.94088629  0.71851992  0.72219253  1
  S2-  S128  1  -0.00365602  0.04590719  0.14567887  1
  S2-  S129  1  0.03227742  0.19567145  0.65867355  1
  S2-  S130  1  -0.04101199  0.39564868  0.15425691  1
  S2-  S131  1  0.00869197  0.43426931  0.65798497  1
  S2-  S132  1  -0.01211273  0.63400267  0.16105002  1
  S2-  S133  1  -0.10820094  0.62633386  0.63604514  1
  S2-  S134  1  0.11515866  0.85787856  0.14493083  1
  S2-  S135  1  0.01238078  0.97168141  0.63712754  1
  S2-  S136  1  0.25175217  0.08451157  0.15784821  1
  S2-  S137  1  0.23973146  0.19185369  0.67024762  1
  S2-  S138  1  0.33833522  0.34436801  0.13855770  1
  S2-  S139  1  0.26304698  0.42879972  0.66076802  1
  S2-  S140  1  0.24919249  0.61735601  0.15098231  1
  S2-  S141  1  0.33782215  0.65261737  0.64677460  1
  S2-  S142  1  0.35941304  0.85861497  0.14140250  1
  S2-  S143  1  0.24986717  0.96901634  0.63807946  1
  S2-  S144  1  0.49000334  0.13504654  0.14244093  1
  S2-  S145  1  0.42487229  0.10548062  0.63899643  1
  S2-  S146  1  0.57642789  0.35438373  0.14833711  1
  S2-  S147  1  0.50891526  0.46973566  0.65068349  1
  S2-  S148  1  0.56214869  0.59957603  0.15232706  1
  S2-  S149  1  0.50359408  0.66692499  0.72069067  1
  S2-  S150  1  0.59593096  0.88937510  0.14712150  1
  S2-  S151  1  0.49649244  0.82557217  0.64077596  1
  S2-  S152  1  0.75306479  0.23240699  0.14204466  1
  S2-  S153  1  0.84497401  0.10897152  0.64158149  1
  S2-  S154  1  0.74710819  0.47066569  0.15413047  1
  S2-  S155  1  0.76953564  0.40899422  0.64706730  1
  S2-  S156  1  0.77240148  0.66549876  0.18875647  1
  S2-  S157  1  0.67200433  0.63726487  0.65209129  1
  S2-  S158  1  0.84996309  0.87062059  0.15254272  1
  S2-  S159  1  0.78035383  0.86193424  0.65533500  1
  S2-  S160  1  0.01816645  -0.01330159  0.34926032  1
  S2-  S161  1  0.12354856  0.08763966  0.84514923  1
  S2-  S162  1  0.13664317  0.17178943  0.36130435  1
  S2-  S163  1  0.10336135  0.25830289  0.77701405  1
  S2-  S164  1  0.04597381  0.50868752  0.35709466  1
  S2-  S165  1  0.11836821  0.43139564  0.85397020  1
  S2-  S166  1  0.02469508  0.75401347  0.35280851  1
  S2-  S167  1  0.09423499  0.85586685  0.86625883  1
  S2-  S168  1  0.27371167  0.00409069  0.35358511  1
  S2-  S169  1  0.34576168  -0.07608855  0.85296439  1
  S2-  S170  1  0.37659346  0.25123343  0.34949155  1
  S2-  S171  1  0.29318488  0.24845165  0.84649736  1
  S2-  S172  1  0.26826137  0.49206647  0.36640681  1
  S2-  S173  1  0.36456859  0.50669349  0.84363324  1
  S2-  S174  1  0.26466279  0.74866869  0.35740595  1
  S2-  S175  1  0.47759398  0.72455661  0.85429361  1
  S2-  S176  1  0.50967431  0.01575773  0.35402044  1
  S2-  S177  1  0.64028666  -0.08814538  0.85781062  1
  S2-  S178  1  0.63086995  0.26364430  0.33765630  1
  S2-  S179  1  0.73430311  0.23966136  0.86307809  1
  S2-  S180  1  0.63550019  0.51846585  0.34340601  1
  S2-  S181  1  0.65431029  0.56081128  0.85997239  1
  S2-  S182  1  0.66930168  0.76536261  0.34154312  1
  S2-  S183  1  0.66896526  0.73259709  0.78653214  1
  S2-  S184  1  0.75667859  -0.02289253  0.35017226  1
  S2-  S185  1  0.89011596  0.00583073  0.85387531  1
  S2-  S186  1  0.87936520  0.15047786  0.35375362  1
  S2-  S187  1  0.95081646  0.24903856  0.85294617  1
  S2-  S188  1  0.87465138  0.37075661  0.35141834  1
  S2-  S189  1  0.89706434  0.50459271  0.84423209  1
  S2-  S190  1  0.85306184  0.62995830  0.35104739  1
  S2-  S191  1  0.82070395  0.74951108  0.86388693  1
  S2-  S192  1  0.00809518  0.12975708  0.46153348  1
  S2-  S193  1  -0.02275916  0.11499441  0.95652972  1
  S2-  S194  1  0.01848330  0.37684979  0.45741273  1
  S2-  S195  1  -0.01819958  0.37166500  0.95547343  1
  S2-  S196  1  0.01731071  0.62844527  0.45759344  1
  S2-  S197  1  -0.01589743  0.61810745  0.95879550  1
  S2-  S198  1  0.01156738  0.87959937  0.45229970  1
  S2-  S199  1  -0.02365664  0.87066744  0.97005222  1
  S2-  S200  1  0.27016397  0.12920006  0.46383124  1
  S2-  S201  1  0.23548832  0.11990896  0.95356957  1
  S2-  S202  1  0.26173605  0.37567784  0.46274256  1
  S2-  S203  1  0.23036631  0.36446833  0.95678637  1
  S2-  S204  1  0.25972833  0.62967100  0.45942153  1
  S2-  S205  1  0.23028407  0.61990929  0.94687966  1
  S2-  S206  1  0.26223148  0.88365018  0.45252172  1
  S2-  S207  1  0.23596617  0.86848746  0.96154311  1
  S2-  S208  1  0.51216734  0.13126073  0.45440860  1
  S2-  S209  1  0.48435030  0.11909125  0.94281309  1
  S2-  S210  1  0.51031496  0.38345298  0.45365929  1
  S2-  S211  1  0.48267467  0.36475752  0.95460633  1
  S2-  S212  1  0.50603650  0.63001843  0.44018407  1
  S2-  S213  1  0.47953690  0.61661212  0.96029753  1
  S2-  S214  1  0.51035759  0.87366911  0.44533698  1
  S2-  S215  1  0.48245684  0.87207734  0.96071049  1
  S2-  S216  1  0.75528181  0.13002787  0.45367314  1
  S2-  S217  1  0.72998964  0.11422708  0.96014648  1
  S2-  S218  1  0.75881497  0.38362133  0.44925101  1
  S2-  S219  1  0.72832465  0.37082694  0.96007630  1
  S2-  S220  1  0.76438700  0.62670036  0.45877722  1
  S2-  S221  1  0.72858831  0.62389423  0.96644217  1
  S2-  S222  1  0.76345946  0.87201480  0.45153369  1
  S2-  S223  1  0.73202748  0.86635081  0.96864602  1
  S2-  S224  1  0.10575499  -0.00618889  0.04179229  1
  S2-  S225  1  0.13593204  0.00359631  0.53547124  1
  S2-  S226  1  0.10462224  0.24604813  0.06487779  1
  S2-  S227  1  0.14023670  0.25027588  0.55355593  1
  S2-  S228  1  0.10520011  0.49313064  0.04991333  1
  S2-  S229  1  0.13579978  0.50388445  0.54739788  1
  S2-  S230  1  0.09991281  0.74105997  0.04722445  1
  S2-  S231  1  0.13558513  0.75882399  0.53984254  1
  S2-  S232  1  0.35933882  -0.00378868  0.04463546  1
  S2-  S233  1  0.39055920  -0.00271355  0.53522210  1
  S2-  S234  1  0.35608184  0.23937239  0.03807103  1
  S2-  S235  1  0.38993152  0.25919594  0.55253350  1
  S2-  S236  1  0.35528496  0.49457856  0.04701082  1
  S2-  S237  1  0.38423968  0.50756160  0.54545469  1
  S2-  S238  1  0.35667122  0.74143002  0.03988244  1
  S2-  S239  1  0.38234269  0.75650103  0.53693250  1
  S2-  S240  1  0.60616555  -0.00151267  0.04634485  1
  S2-  S241  1  0.63319607  -0.00024464  0.54191539  1
  S2-  S242  1  0.60337930  0.24268918  0.03816877  1
  S2-  S243  1  0.63450727  0.25944283  0.54296923  1
  S2-  S244  1  0.60138518  0.48969705  0.04930905  1
  S2-  S245  1  0.63534887  0.50902998  0.54462636  1
  S2-  S246  1  0.60592132  0.74138652  0.05976676  1
  S2-  S247  1  0.63140293  0.74816678  0.54445190  1
  S2-  S248  1  0.84984150  -0.00188823  0.05298257  1
  S2-  S249  1  0.88050195  -0.00048133  0.53447898  1
  S2-  S250  1  0.85594420  0.24426126  0.04184987  1
  S2-  S251  1  0.88302966  0.25303181  0.54420734  1
  S2-  S252  1  0.85337837  0.49633945  0.04832871  1
  S2-  S253  1  0.89009711  0.49978645  0.53643572  1
  S2-  S254  1  0.85388471  0.73705117  0.06212221  1
  S2-  S255  1  0.88984079  0.75655841  0.53805398  1
