# generated using pymatgen
data_La12Ce14Pr13Nd13Sm12(BiS2)64
_symmetry_space_group_name_H-M   'P 1'
_cell_length_a   16.14227328
_cell_length_b   16.15642858
_cell_length_c   27.34778537
_cell_angle_alpha   90.05280309
_cell_angle_beta   90.15156958
_cell_angle_gamma   89.93055117
_symmetry_Int_Tables_number   1
_chemical_formula_structural   La12Ce14Pr13Nd13Sm12(BiS2)64
_chemical_formula_sum   'La12 Ce14 Pr13 Nd13 Sm12 Bi64 S128'
_cell_volume   7132.30984384
_cell_formula_units_Z   1
loop_
 _symmetry_equiv_pos_site_id
 _symmetry_equiv_pos_as_xyz
  1  'x, y, z'
loop_
 _atom_type_symbol
 _atom_type_oxidation_number
  La3+  3.0
  Ce3+  3.0
  Pr3+  3.0
  Nd3+  3.0
  Sm3+  3.0
  Bi2+  2.0
  S2-  -2.0
loop_
 _atom_site_type_symbol
 _atom_site_label
 _atom_site_symmetry_multiplicity
 _atom_site_fract_x
 _atom_site_fract_y
 _atom_site_fract_z
 _atom_site_occupancy
  La3+  La0  1  0.86174287  -0.02416384  0.38968093  1
  La3+  La1  1  0.63453233  0.26848118  0.92789773  1
  La3+  La2  1  0.37430962  0.75849384  0.90680992  1
  La3+  La3  1  0.23641399  0.86295225  0.58169207  1
  La3+  La4  1  0.01283998  0.14209786  0.08316782  1
  La3+  La5  1  0.74614700  0.87155509  0.56647120  1
  La3+  La6  1  0.64129478  0.76157863  0.89210939  1
  La3+  La7  1  0.13466379  0.26786297  0.92932683  1
  La3+  La8  1  0.75473548  0.64065159  0.07027993  1
  La3+  La9  1  0.12014075  0.24426663  0.42965558  1
  La3+  La10  1  0.12555247  -0.00850280  0.41057592  1
  La3+  La11  1  0.61395204  0.50261162  0.41556144  1
  Ce3+  Ce12  1  0.61830603  -0.00635266  0.43526700  1
  Ce3+  Ce13  1  0.88186047  0.01437496  0.95047092  1
  Ce3+  Ce14  1  0.12941187  0.51227595  0.93763617  1
  Ce3+  Ce15  1  0.50831892  0.14080312  0.05188208  1
  Ce3+  Ce16  1  0.13286745  0.76657023  0.94093866  1
  Ce3+  Ce17  1  0.24309419  0.36746445  0.56132172  1
  Ce3+  Ce18  1  0.75424157  0.89085830  0.06527760  1
  Ce3+  Ce19  1  -0.00316658  0.61776505  0.55165082  1
  Ce3+  Ce20  1  0.36871205  0.74151839  0.45064439  1
  Ce3+  Ce21  1  0.49455380  0.11647954  0.56301486  1
  Ce3+  Ce22  1  0.50915092  0.88604114  0.04761916  1
  Ce3+  Ce23  1  0.86930565  0.24405601  0.43328966  1
  Ce3+  Ce24  1  0.25680321  0.13924778  0.06342050  1
  Ce3+  Ce25  1  0.37155928  0.49499124  0.44500079  1
  Pr3+  Pr26  1  0.00880505  0.89037332  0.06797561  1
  Pr3+  Pr27  1  0.01890394  0.38906029  0.07750041  1
  Pr3+  Pr28  1  0.62185950  0.74846142  0.44150561  1
  Pr3+  Pr29  1  0.50006368  0.61044343  0.57527092  1
  Pr3+  Pr30  1  0.87817634  0.76484398  0.94481692  1
  Pr3+  Pr31  1  0.38114841  0.01227027  0.93852630  1
  Pr3+  Pr32  1  0.26052857  0.63988707  0.05749246  1
  Pr3+  Pr33  1  0.12947630  0.01945561  0.93909356  1
  Pr3+  Pr34  1  0.23400305  0.11494200  0.57004628  1
  Pr3+  Pr35  1  0.88196631  0.51413328  0.95012477  1
  Pr3+  Pr36  1  0.61861089  0.24293257  0.44273291  1
  Pr3+  Pr37  1  0.49368617  0.86829637  0.56269176  1
  Pr3+  Pr38  1  0.63170097  0.01360086  0.93674134  1
  Nd3+  Nd39  1  0.74605090  0.36792260  0.55351257  1
  Nd3+  Nd40  1  0.49739008  0.36872738  0.56309551  1
  Nd3+  Nd41  1  0.26090313  0.88714146  0.06073388  1
  Nd3+  Nd42  1  -0.00408389  0.11623521  0.54450790  1
  Nd3+  Nd43  1  0.74574647  0.61608323  0.55683057  1
  Nd3+  Nd44  1  0.24008409  0.61887045  0.56351795  1
  Nd3+  Nd45  1  0.00989870  0.63914369  0.05999552  1
  Nd3+  Nd46  1  0.00267178  0.36660057  0.56535698  1
  Nd3+  Nd47  1  0.36481575  -0.00789205  0.44777899  1
  Nd3+  Nd48  1  0.38679398  0.51834020  0.93433931  1
  Nd3+  Nd49  1  0.12159501  0.74422047  0.43377772  1
  Nd3+  Nd50  1  0.88815238  0.26386066  0.94655397  1
  Nd3+  Nd51  1  0.74827641  0.11614060  0.54677625  1
  Sm3+  Sm52  1  0.75645072  0.14092694  0.05628767  1
  Sm3+  Sm53  1  0.36882785  0.24299091  0.45015580  1
  Sm3+  Sm54  1  0.25935008  0.39127384  0.05455469  1
  Sm3+  Sm55  1  0.63406398  0.51590361  0.93622669  1
  Sm3+  Sm56  1  -0.00169783  0.87139790  0.55124801  1
  Sm3+  Sm57  1  0.50974764  0.38939320  0.05584746  1
  Sm3+  Sm58  1  0.87104989  0.49314551  0.44389962  1
  Sm3+  Sm59  1  0.12170220  0.49240459  0.43287361  1
  Sm3+  Sm60  1  0.37871103  0.26658429  0.94069873  1
  Sm3+  Sm61  1  0.87215637  0.74600111  0.44276211  1
  Sm3+  Sm62  1  0.75717386  0.38787338  0.06113792  1
  Sm3+  Sm63  1  0.50909226  0.64112265  0.04723770  1
  Bi2+  Bi64  1  -0.00941485  0.12541375  0.28390372  1
  Bi2+  Bi65  1  -0.04957168  0.10799540  0.77829890  1
  Bi2+  Bi66  1  0.02396793  0.36347640  0.28347693  1
  Bi2+  Bi67  1  -0.04346349  0.36265778  0.80952532  1
  Bi2+  Bi68  1  0.10827514  0.61190047  0.31591665  1
  Bi2+  Bi69  1  0.05538699  0.62542780  0.79882207  1
  Bi2+  Bi70  1  -0.00515976  0.83036056  0.28364742  1
  Bi2+  Bi71  1  -0.00870469  0.81931736  0.78686252  1
  Bi2+  Bi72  1  0.26482527  0.12120032  0.29227687  1
  Bi2+  Bi73  1  0.19410033  0.12420357  0.80682763  1
  Bi2+  Bi74  1  0.28181958  0.44652948  0.32042060  1
  Bi2+  Bi75  1  0.22812660  0.38153153  0.78815048  1
  Bi2+  Bi76  1  0.30230929  0.63443176  0.29891002  1
  Bi2+  Bi77  1  0.25253255  0.57633096  0.78329332  1
  Bi2+  Bi78  1  0.26498033  0.86123617  0.29022823  1
  Bi2+  Bi79  1  0.25698398  0.89663343  0.80083460  1
  Bi2+  Bi80  1  0.51450904  0.05093368  0.31778738  1
  Bi2+  Bi81  1  0.58441617  0.16045352  0.81597791  1
  Bi2+  Bi82  1  0.51211669  0.37265957  0.29847396  1
  Bi2+  Bi83  1  0.43791120  0.32320749  0.81676407  1
  Bi2+  Bi84  1  0.47850614  0.64050107  0.24312697  1
  Bi2+  Bi85  1  0.51068715  0.50193815  0.80375355  1
  Bi2+  Bi86  1  0.47996204  0.86118178  0.28923532  1
  Bi2+  Bi87  1  0.53603764  0.91927935  0.77615831  1
  Bi2+  Bi88  1  0.67075991  0.14433517  0.27493476  1
  Bi2+  Bi89  1  0.75417685  0.08464986  0.77326122  1
  Bi2+  Bi90  1  0.80378814  0.37907330  0.28846457  1
  Bi2+  Bi91  1  0.71298738  0.32838525  0.78308688  1
  Bi2+  Bi92  1  0.74364939  0.61694201  0.29231025  1
  Bi2+  Bi93  1  0.78299213  0.60685467  0.78878812  1
  Bi2+  Bi94  1  0.67010657  0.80216451  0.29522975  1
  Bi2+  Bi95  1  0.78838990  0.88472787  0.79096441  1
  Bi2+  Bi96  1  0.12566967  -0.01293681  0.19885301  1
  Bi2+  Bi97  1  0.14937659  -0.00059480  0.69752475  1
  Bi2+  Bi98  1  0.13577143  0.27034004  0.20927039  1
  Bi2+  Bi99  1  0.08918670  0.23911748  0.69385799  1
  Bi2+  Bi100  1  0.12064799  0.50218605  0.21216921  1
  Bi2+  Bi101  1  0.10762215  0.49242604  0.71515879  1
  Bi2+  Bi102  1  0.13328677  0.70275760  0.20602605  1
  Bi2+  Bi103  1  0.11914473  0.74914376  0.70988979  1
  Bi2+  Bi104  1  0.40647970  0.06836836  0.22067467  1
  Bi2+  Bi105  1  0.43565137  0.08194139  0.75238876  1
  Bi2+  Bi106  1  0.34486508  0.28428156  0.24765777  1
  Bi2+  Bi107  1  0.35901732  0.26521645  0.71232292  1
  Bi2+  Bi108  1  0.37086541  0.47692852  0.22001577  1
  Bi2+  Bi109  1  0.36710744  0.46250788  0.71601468  1
  Bi2+  Bi110  1  0.37642219  0.79739137  0.19668927  1
  Bi2+  Bi111  1  0.37572107  0.77982834  0.70743320  1
  Bi2+  Bi112  1  0.58751300  -0.00557896  0.21140794  1
  Bi2+  Bi113  1  0.64696980  -0.00884049  0.68373969  1
  Bi2+  Bi114  1  0.56760362  0.27077088  0.21021769  1
  Bi2+  Bi115  1  0.55687820  0.26529285  0.71956441  1
  Bi2+  Bi116  1  0.62513762  0.50221746  0.19099279  1
  Bi2+  Bi117  1  0.63909503  0.47241767  0.70628349  1
  Bi2+  Bi118  1  0.64214400  0.75449561  0.18622568  1
  Bi2+  Bi119  1  0.62427312  0.73837060  0.69193742  1
  Bi2+  Bi120  1  0.83382788  -0.00708798  0.20826383  1
  Bi2+  Bi121  1  0.91212187  -0.04422151  0.71601342  1
  Bi2+  Bi122  1  0.83111743  0.25816164  0.20246326  1
  Bi2+  Bi123  1  0.82274186  0.23546742  0.70537055  1
  Bi2+  Bi124  1  0.92556723  0.46551506  0.20584599  1
  Bi2+  Bi125  1  0.90879493  0.48913535  0.73028884  1
  Bi2+  Bi126  1  0.93247939  0.64083234  0.26127848  1
  Bi2+  Bi127  1  0.91573156  0.68428713  0.71199601  1
  S2-  S128  1  -0.02979687  0.06128902  0.17641361  1
  S2-  S129  1  0.05010817  0.11041044  0.63992788  1
  S2-  S130  1  -0.01328236  0.27314749  0.15177065  1
  S2-  S131  1  -0.05060600  0.30163454  0.65394094  1
  S2-  S132  1  -0.00841952  0.64869737  0.15806608  1
  S2-  S133  1  0.04750533  0.61873400  0.64361654  1
  S2-  S134  1  0.03568224  0.86471674  0.16843000  1
  S2-  S135  1  0.08247807  0.87359865  0.63839907  1
  S2-  S136  1  0.16750903  0.13784616  0.14694361  1
  S2-  S137  1  0.24197523  0.15890351  0.66893198  1
  S2-  S138  1  0.17201770  0.39526639  0.13870892  1
  S2-  S139  1  0.13898480  0.37563739  0.63829669  1
  S2-  S140  1  0.27412825  0.66837077  0.15611952  1
  S2-  S141  1  0.24974251  0.71410300  0.64800759  1
  S2-  S142  1  0.26114143  0.91958647  0.15856229  1
  S2-  S143  1  0.28836428  0.92892002  0.67483496  1
  S2-  S144  1  0.51624585  0.14395586  0.14932388  1
  S2-  S145  1  0.50379762  0.08831453  0.65865282  1
  S2-  S146  1  0.49093414  0.40128664  0.15269264  1
  S2-  S147  1  0.50607055  0.46882469  0.64370058  1
  S2-  S148  1  0.52957341  0.62663956  0.14512240  1
  S2-  S149  1  0.47088254  0.66606615  0.67238326  1
  S2-  S150  1  0.51987731  0.87181153  0.14628414  1
  S2-  S151  1  0.51114381  0.86456628  0.66270244  1
  S2-  S152  1  0.76380323  0.12450005  0.15420309  1
  S2-  S153  1  0.74664616  0.10654090  0.64558902  1
  S2-  S154  1  0.72152914  0.36730687  0.15650587  1
  S2-  S155  1  0.72673853  0.36028558  0.65166720  1
  S2-  S156  1  0.74348459  0.60568412  0.16937470  1
  S2-  S157  1  0.71143513  0.60286303  0.65369350  1
  S2-  S158  1  0.77752840  0.84258287  0.15932559  1
  S2-  S159  1  0.75404685  0.85125010  0.66592327  1
  S2-  S160  1  0.00770653  -0.01740478  0.33013161  1
  S2-  S161  1  0.12510434  -0.02041451  0.84028346  1
  S2-  S162  1  0.12737307  0.14259482  0.34697521  1
  S2-  S163  1  0.06127383  0.17795696  0.85128988  1
  S2-  S164  1  0.13470001  0.37588320  0.35976765  1
  S2-  S165  1  0.10358058  0.40578930  0.86164937  1
  S2-  S166  1  0.13508108  0.83483011  0.34843374  1
  S2-  S167  1  0.21453772  0.77007927  0.85495062  1
  S2-  S168  1  0.28323980  -0.01194830  0.35885972  1
  S2-  S169  1  0.34286304  0.03576966  0.84091328  1
  S2-  S170  1  0.35539653  0.23868938  0.35253356  1
  S2-  S171  1  0.27791598  0.25056081  0.86031380  1
  S2-  S172  1  0.45969277  0.49541848  0.36125977  1
  S2-  S173  1  0.39045698  0.60570213  0.84785699  1
  S2-  S174  1  0.37496474  0.76188551  0.35391908  1
  S2-  S175  1  0.40773032  0.81875042  0.81185616  1
  S2-  S176  1  0.68980447  -0.06064113  0.35388115  1
  S2-  S177  1  0.64876462  -0.07248026  0.85078760  1
  S2-  S178  1  0.62376001  0.25946158  0.34355282  1
  S2-  S179  1  0.63268325  0.39809033  0.86025798  1
  S2-  S180  1  0.66912399  0.46942878  0.31816560  1
  S2-  S181  1  0.64390668  0.60063574  0.84960552  1
  S2-  S182  1  0.61793849  0.65957695  0.35572764  1
  S2-  S183  1  0.60373494  0.76395562  0.78502341  1
  S2-  S184  1  0.83160867  0.06089272  0.29719347  1
  S2-  S185  1  0.87327045  0.01000357  0.85332983  1
  S2-  S186  1  0.91083905  0.25446413  0.33886921  1
  S2-  S187  1  0.83848783  0.27348324  0.85115711  1
  S2-  S188  1  0.87554389  0.49943706  0.34635219  1
  S2-  S189  1  0.87492772  0.50328811  0.84954416  1
  S2-  S190  1  0.87875324  0.80706564  0.34922778  1
  S2-  S191  1  0.80611473  0.74900301  0.85364845  1
  S2-  S192  1  -0.01399370  0.11157560  0.44107366  1
  S2-  S193  1  0.00473631  0.13772441  0.96761411  1
  S2-  S194  1  -0.00678631  0.37200358  0.45610770  1
  S2-  S195  1  0.00570753  0.38944035  0.96781116  1
  S2-  S196  1  -0.00490938  0.61854314  0.44575001  1
  S2-  S197  1  0.00688698  0.64083041  0.95308735  1
  S2-  S198  1  -0.00539853  0.86993759  0.44961666  1
  S2-  S199  1  0.00698477  0.88911623  0.95750256  1
  S2-  S200  1  0.24707413  0.12118961  0.46133409  1
  S2-  S201  1  0.25882046  0.13748401  0.95970407  1
  S2-  S202  1  0.24986777  0.36969361  0.45890596  1
  S2-  S203  1  0.26268256  0.39678876  0.95255472  1
  S2-  S204  1  0.24274059  0.61669370  0.45444858  1
  S2-  S205  1  0.25554969  0.63638355  0.95186403  1
  S2-  S206  1  0.24572035  0.86396529  0.46301446  1
  S2-  S207  1  0.25692906  0.89078023  0.95418243  1
  S2-  S208  1  0.49123465  0.11852687  0.45663893  1
  S2-  S209  1  0.50365876  0.14298035  0.94632941  1
  S2-  S210  1  0.49395108  0.36545032  0.45828101  1
  S2-  S211  1  0.50311098  0.38986087  0.95383879  1
  S2-  S212  1  0.49611786  0.62099934  0.46379977  1
  S2-  S213  1  0.51218525  0.64543884  0.94612342  1
  S2-  S214  1  0.49345378  0.86990281  0.45505602  1
  S2-  S215  1  0.50462969  0.88271707  0.94135075  1
  S2-  S216  1  0.74672112  0.11535566  0.44015258  1
  S2-  S217  1  0.75657295  0.14027858  0.95128637  1
  S2-  S218  1  0.74440262  0.37275329  0.44667003  1
  S2-  S219  1  0.76017519  0.38894125  0.95869455  1
  S2-  S220  1  0.75124215  0.62023025  0.45141918  1
  S2-  S221  1  0.75631047  0.63795408  0.96118481  1
  S2-  S222  1  0.75088932  0.86790991  0.45915084  1
  S2-  S223  1  0.75551015  0.88924921  0.95868780  1
  S2-  S224  1  0.13435941  0.01083283  0.04704154  1
  S2-  S225  1  0.11904258  -0.00767924  0.53634824  1
  S2-  S226  1  0.13873501  0.26622239  0.04110054  1
  S2-  S227  1  0.12046145  0.24226665  0.53813282  1
  S2-  S228  1  0.13482105  0.51731907  0.04376941  1
  S2-  S229  1  0.12135558  0.49464101  0.53707543  1
  S2-  S230  1  0.13317948  0.76479496  0.04870967  1
  S2-  S231  1  0.11770366  0.74199584  0.53861521  1
  S2-  S232  1  0.38372937  0.01393824  0.04727746  1
  S2-  S233  1  0.36617418  -0.00687308  0.55399015  1
  S2-  S234  1  0.38199382  0.26771886  0.04719331  1
  S2-  S235  1  0.37003326  0.24352518  0.55631481  1
  S2-  S236  1  0.38580738  0.51390522  0.04415049  1
  S2-  S237  1  0.36562331  0.49392677  0.55096130  1
  S2-  S238  1  0.38462509  0.76281468  0.04097024  1
  S2-  S239  1  0.37300513  0.73933031  0.55336169  1
  S2-  S240  1  0.63250165  0.01666996  0.04429619  1
  S2-  S241  1  0.61962030  -0.00585086  0.54248158  1
  S2-  S242  1  0.63328660  0.26600643  0.04146997  1
  S2-  S243  1  0.62054204  0.24227004  0.54964162  1
  S2-  S244  1  0.63183973  0.51166420  0.04343949  1
  S2-  S245  1  0.62397335  0.49186679  0.53743614  1
  S2-  S246  1  0.63218113  0.76322248  0.04836362  1
  S2-  S247  1  0.62078862  0.74221139  0.54899265  1
  S2-  S248  1  0.88119084  0.01576572  0.05542338  1
  S2-  S249  1  0.87446827  -0.00738366  0.55424526  1
  S2-  S250  1  0.87751198  0.26406228  0.05099071  1
  S2-  S251  1  0.87054355  0.24302393  0.53936586  1
  S2-  S252  1  0.88357354  0.51149748  0.05727056  1
  S2-  S253  1  0.87239479  0.49115567  0.55007602  1
  S2-  S254  1  0.88456569  0.76431599  0.05169410  1
  S2-  S255  1  0.87342289  0.74381182  0.54869392  1
