# generated using pymatgen
data_La12Ce14Pr13Nd13Sm12(BiS2)64
_symmetry_space_group_name_H-M   'P 1'
_cell_length_a   16.20556510
_cell_length_b   16.19194531
_cell_length_c   27.10148526
_cell_angle_alpha   89.92314338
_cell_angle_beta   89.95100634
_cell_angle_gamma   90.05852936
_symmetry_Int_Tables_number   1
_chemical_formula_structural   La12Ce14Pr13Nd13Sm12(BiS2)64
_chemical_formula_sum   'La12 Ce14 Pr13 Nd13 Sm12 Bi64 S128'
_cell_volume   7111.40682076
_cell_formula_units_Z   1
loop_
 _symmetry_equiv_pos_site_id
 _symmetry_equiv_pos_as_xyz
  1  'x, y, z'
loop_
 _atom_type_symbol
 _atom_type_oxidation_number
  La3+  3.0
  Ce3+  3.0
  Pr3+  3.0
  Nd3+  3.0
  Sm3+  3.0
  Bi2+  2.0
  S2-  -2.0
loop_
 _atom_site_type_symbol
 _atom_site_label
 _atom_site_symmetry_multiplicity
 _atom_site_fract_x
 _atom_site_fract_y
 _atom_site_fract_z
 _atom_site_occupancy
  La3+  La0  1  0.25364056  0.87028691  0.56577421  1
  La3+  La1  1  0.63818833  0.73969613  0.91888562  1
  La3+  La2  1  0.00420698  0.61217853  0.07932558  1
  La3+  La3  1  0.49565227  0.86968952  0.10342574  1
  La3+  La4  1  0.74449118  0.86046906  0.07058943  1
  La3+  La5  1  0.37905701  0.75143404  0.43029332  1
  La3+  La6  1  0.63325072  0.00573956  0.91658326  1
  La3+  La7  1  0.25658544  0.37412520  0.56608631  1
  La3+  La8  1  0.11415518  0.24686386  0.92256276  1
  La3+  La9  1  0.88317116  0.74629520  0.40924727  1
  La3+  La10  1  0.50587258  0.87290856  0.60875305  1
  La3+  La11  1  0.36569007  -0.00120405  0.91937369  1
  Ce3+  Ce12  1  0.75343274  0.37246544  0.55642501  1
  Ce3+  Ce13  1  0.87534313  0.24744965  0.43704611  1
  Ce3+  Ce14  1  0.87658638  0.74453752  0.95075021  1
  Ce3+  Ce15  1  0.74843143  0.37522930  0.06087370  1
  Ce3+  Ce16  1  0.50317020  0.11553955  0.55902983  1
  Ce3+  Ce17  1  0.62711216  0.24771003  0.44713403  1
  Ce3+  Ce18  1  0.37507513  0.49621183  0.93868445  1
  Ce3+  Ce19  1  0.87274619  0.24469991  0.94481897  1
  Ce3+  Ce20  1  0.74614009  0.61608429  0.06646826  1
  Ce3+  Ce21  1  0.50263206  0.63006454  0.55694315  1
  Ce3+  Ce22  1  0.63084567  0.75300310  0.44035895  1
  Ce3+  Ce23  1  0.12252860  0.75044391  0.44081846  1
  Ce3+  Ce24  1  0.37836943  0.24747689  0.44436310  1
  Ce3+  Ce25  1  0.25561429  0.87404954  0.05786817  1
  Pr3+  Pr26  1  0.00017577  0.87243326  0.07135446  1
  Pr3+  Pr27  1  0.87485799  -0.00816747  0.94300454  1
  Pr3+  Pr28  1  0.25184821  0.12106734  0.56731422  1
  Pr3+  Pr29  1  0.75255910  0.62463102  0.56144857  1
  Pr3+  Pr30  1  0.75922193  0.87295016  0.56162092  1
  Pr3+  Pr31  1  0.75291935  0.12088605  0.56199146  1
  Pr3+  Pr32  1  0.49690049  0.11498684  0.05528341  1
  Pr3+  Pr33  1  0.12914820  0.24890742  0.44175246  1
  Pr3+  Pr34  1  -0.00024387  0.12180578  0.05888215  1
  Pr3+  Pr35  1  -0.00040891  0.87111401  0.56686315  1
  Pr3+  Pr36  1  0.37640933  0.00118467  0.43752223  1
  Pr3+  Pr37  1  0.00190898  0.62197253  0.56355621  1
  Pr3+  Pr38  1  0.87265600  0.49668170  0.93707753  1
  Nd3+  Nd39  1  0.25546157  0.62388563  0.05232716  1
  Nd3+  Nd40  1  0.25390394  0.62349820  0.55230048  1
  Nd3+  Nd41  1  0.37817821  0.75037118  0.93125986  1
  Nd3+  Nd42  1  0.00475065  0.36930640  0.06095220  1
  Nd3+  Nd43  1  0.62335554  0.49354252  0.93618842  1
  Nd3+  Nd44  1  0.74471396  0.11314233  0.06761249  1
  Nd3+  Nd45  1  0.37915760  0.49952637  0.43865136  1
  Nd3+  Nd46  1  0.87709241  0.50022526  0.43881833  1
  Nd3+  Nd47  1  0.49989575  0.62614511  0.05417222  1
  Nd3+  Nd48  1  0.12430944  0.50002249  0.93442781  1
  Nd3+  Nd49  1  0.88068009  0.00533379  0.43001919  1
  Nd3+  Nd50  1  0.12358370  0.74584117  0.95035255  1
  Nd3+  Nd51  1  0.50471665  0.37380570  0.55844734  1
  Sm3+  Sm52  1  0.62389658  0.24431669  0.94862850  1
  Sm3+  Sm53  1  0.00219853  0.37324068  0.55309162  1
  Sm3+  Sm54  1  0.25061510  0.36981210  0.04967993  1
  Sm3+  Sm55  1  0.62916350  -0.00411604  0.43784059  1
  Sm3+  Sm56  1  0.25026025  0.12021508  0.05027124  1
  Sm3+  Sm57  1  0.37297469  0.24625075  0.93945679  1
  Sm3+  Sm58  1  0.62788948  0.49982232  0.44404676  1
  Sm3+  Sm59  1  0.49762696  0.36978216  0.05275020  1
  Sm3+  Sm60  1  0.12487106  -0.00227110  0.44939602  1
  Sm3+  Sm61  1  0.12265046  -0.00752860  0.94058370  1
  Sm3+  Sm62  1  0.00245947  0.12460723  0.55992742  1
  Sm3+  Sm63  1  0.12720107  0.49906640  0.44157988  1
  Bi2+  Bi64  1  0.02551296  0.13931759  0.28981068  1
  Bi2+  Bi65  1  -0.00848683  0.12222416  0.78748539  1
  Bi2+  Bi66  1  0.00522325  0.38459408  0.29196300  1
  Bi2+  Bi67  1  -0.04591877  0.34448121  0.76784148  1
  Bi2+  Bi68  1  0.00319682  0.62859061  0.28781038  1
  Bi2+  Bi69  1  0.03500928  0.64391286  0.79398176  1
  Bi2+  Bi70  1  0.01827541  0.89219147  0.28975727  1
  Bi2+  Bi71  1  -0.00806942  0.93710383  0.81634195  1
  Bi2+  Bi72  1  0.23813820  0.17795373  0.28186481  1
  Bi2+  Bi73  1  0.25213831  0.13117006  0.79394024  1
  Bi2+  Bi74  1  0.29075532  0.37212643  0.27400643  1
  Bi2+  Bi75  1  0.25796569  0.40588828  0.79353382  1
  Bi2+  Bi76  1  0.21924682  0.61499896  0.28594144  1
  Bi2+  Bi77  1  0.21861973  0.60901656  0.75833032  1
  Bi2+  Bi78  1  0.23566075  0.92375022  0.29295360  1
  Bi2+  Bi79  1  0.19892083  0.85911528  0.78805296  1
  Bi2+  Bi80  1  0.49748704  0.18702673  0.28473450  1
  Bi2+  Bi81  1  0.52081870  0.13085923  0.78721863  1
  Bi2+  Bi82  1  0.50185133  0.38232266  0.29560356  1
  Bi2+  Bi83  1  0.55945033  0.37930047  0.80571892  1
  Bi2+  Bi84  1  0.47813370  0.60989263  0.29705217  1
  Bi2+  Bi85  1  0.49067868  0.55755124  0.76864351  1
  Bi2+  Bi86  1  0.50438914  0.87136550  0.30499789  1
  Bi2+  Bi87  1  0.47410191  0.86033896  0.81068751  1
  Bi2+  Bi88  1  0.76560634  0.16961802  0.28895073  1
  Bi2+  Bi89  1  0.77679518  0.16196440  0.80122404  1
  Bi2+  Bi90  1  0.80017138  0.36444951  0.30329371  1
  Bi2+  Bi91  1  0.75870929  0.36898943  0.79370628  1
  Bi2+  Bi92  1  0.73509544  0.55097627  0.28303152  1
  Bi2+  Bi93  1  0.77992731  0.61709620  0.79390233  1
  Bi2+  Bi94  1  0.73405017  0.88054025  0.29700300  1
  Bi2+  Bi95  1  0.74559355  0.87560793  0.80202418  1
  Bi2+  Bi96  1  0.14538607  0.03809862  0.21172087  1
  Bi2+  Bi97  1  0.11629786  0.00074581  0.71846183  1
  Bi2+  Bi98  1  0.10057317  0.27959393  0.20222676  1
  Bi2+  Bi99  1  0.10037279  0.25463869  0.70785689  1
  Bi2+  Bi100  1  0.15152112  0.47790383  0.20847487  1
  Bi2+  Bi101  1  0.10159329  0.49515720  0.69211439  1
  Bi2+  Bi102  1  0.16143010  0.77711689  0.23309589  1
  Bi2+  Bi103  1  0.11355495  0.81899980  0.68332270  1
  Bi2+  Bi104  1  0.36042980  0.00035002  0.21116776  1
  Bi2+  Bi105  1  0.35986819  0.01590416  0.70857375  1
  Bi2+  Bi106  1  0.37201441  0.23953874  0.20220964  1
  Bi2+  Bi107  1  0.41068322  0.28239928  0.74674754  1
  Bi2+  Bi108  1  0.41264733  0.48465337  0.20830297  1
  Bi2+  Bi109  1  0.35900091  0.47779097  0.69768592  1
  Bi2+  Bi110  1  0.33773371  0.70812277  0.20150295  1
  Bi2+  Bi111  1  0.35929736  0.72199019  0.71185361  1
  Bi2+  Bi112  1  0.62083447  0.02434714  0.21037676  1
  Bi2+  Bi113  1  0.64078225  -0.00243984  0.71005078  1
  Bi2+  Bi114  1  0.64182778  0.29114381  0.22977879  1
  Bi2+  Bi115  1  0.62393804  0.25236788  0.71651076  1
  Bi2+  Bi116  1  0.60841210  0.47565291  0.19310277  1
  Bi2+  Bi117  1  0.62368456  0.46384148  0.70671777  1
  Bi2+  Bi118  1  0.61230666  0.66617449  0.21904382  1
  Bi2+  Bi119  1  0.62978627  0.73154209  0.71037453  1
  Bi2+  Bi120  1  0.86716824  0.01743194  0.20142279  1
  Bi2+  Bi121  1  0.90003356  -0.01524606  0.71187457  1
  Bi2+  Bi122  1  0.90578734  0.28151042  0.21085259  1
  Bi2+  Bi123  1  0.81792066  0.24675827  0.70109601  1
  Bi2+  Bi124  1  0.87877157  0.48286445  0.21257196  1
  Bi2+  Bi125  1  0.86380684  0.50298795  0.71758706  1
  Bi2+  Bi126  1  0.86226996  0.75092578  0.20653351  1
  Bi2+  Bi127  1  0.94235094  0.79224624  0.73626704  1
  S2-  S128  1  0.00298482  0.09254360  0.15767448  1
  S2-  S129  1  0.03775021  0.13340595  0.65663001  1
  S2-  S130  1  0.01277226  0.46946049  0.14215543  1
  S2-  S131  1  0.00690509  0.36865317  0.65137125  1
  S2-  S132  1  -0.01009594  0.66850765  0.17827983  1
  S2-  S133  1  -0.01739997  0.59406329  0.66392545  1
  S2-  S134  1  -0.04747542  0.88181486  0.16897320  1
  S2-  S135  1  -0.11752391  0.86240993  0.64160618  1
  S2-  S136  1  0.26978397  0.10916378  0.14830840  1
  S2-  S137  1  0.28019355  0.13429830  0.66772055  1
  S2-  S138  1  0.21915596  0.35000167  0.14551246  1
  S2-  S139  1  0.22142172  0.37037543  0.66508112  1
  S2-  S140  1  0.23725557  0.60434971  0.15047011  1
  S2-  S141  1  0.26173396  0.62541845  0.65219111  1
  S2-  S142  1  0.33482087  0.87264534  0.14601046  1
  S2-  S143  1  0.34023687  0.86622683  0.65368691  1
  S2-  S144  1  0.48990505  0.04219171  0.14726954  1
  S2-  S145  1  0.50414351  0.04687323  0.64939354  1
  S2-  S146  1  0.46839983  0.34868044  0.14851915  1
  S2-  S147  1  0.45496790  0.35943930  0.65266022  1
  S2-  S148  1  0.48889876  0.70213507  0.14496934  1
  S2-  S149  1  0.49389584  0.69921333  0.64727651  1
  S2-  S150  1  0.55028098  0.87984267  0.20671008  1
  S2-  S151  1  0.51503203  0.87529051  0.71775942  1
  S2-  S152  1  0.74488567  0.13220879  0.16721025  1
  S2-  S153  1  0.76942741  0.07335565  0.65860222  1
  S2-  S154  1  0.75771172  0.48531076  0.13735047  1
  S2-  S155  1  0.76245518  0.41699523  0.65038103  1
  S2-  S156  1  0.72886640  0.71935701  0.14550405  1
  S2-  S157  1  0.73785636  0.64797520  0.66298001  1
  S2-  S158  1  0.74363984  0.93074010  0.16611385  1
  S2-  S159  1  0.66952904  0.86696340  0.64953274  1
  S2-  S160  1  0.09929909  0.01042639  0.35216001  1
  S2-  S161  1  0.20869218  -0.00390505  0.85519872  1
  S2-  S162  1  0.10191221  0.26340770  0.34249087  1
  S2-  S163  1  0.17194529  0.25967638  0.82645247  1
  S2-  S164  1  0.10623585  0.51823616  0.34401857  1
  S2-  S165  1  0.13203737  0.49255560  0.83437062  1
  S2-  S166  1  0.03664235  0.75703195  0.35521582  1
  S2-  S167  1  0.09639460  0.75882299  0.85183391  1
  S2-  S168  1  0.38037734  -0.02502684  0.33717458  1
  S2-  S169  1  0.39599876  0.01547952  0.81590791  1
  S2-  S170  1  0.35917780  0.19337718  0.35326615  1
  S2-  S171  1  0.37978987  0.21893211  0.84261127  1
  S2-  S172  1  0.34842091  0.52760173  0.34224883  1
  S2-  S173  1  0.37721091  0.50573205  0.84141112  1
  S2-  S174  1  0.39222276  0.74778210  0.32891585  1
  S2-  S175  1  0.33392116  0.76526310  0.83379191  1
  S2-  S176  1  0.61939845  -0.00631618  0.33802069  1
  S2-  S177  1  0.60400135  -0.02080273  0.81482611  1
  S2-  S178  1  0.63254846  0.22340374  0.35082050  1
  S2-  S179  1  0.63644964  0.17187652  0.86008979  1
  S2-  S180  1  0.60462232  0.50176650  0.34594682  1
  S2-  S181  1  0.65906945  0.57955103  0.85399882  1
  S2-  S182  1  0.62310287  0.76700798  0.34204295  1
  S2-  S183  1  0.60954298  0.76687230  0.81691447  1
  S2-  S184  1  0.88274189  -0.06548691  0.33744355  1
  S2-  S185  1  0.78844169  0.01062516  0.85573724  1
  S2-  S186  1  0.88747134  0.14464424  0.35779996  1
  S2-  S187  1  0.95956349  0.25042567  0.85919862  1
  S2-  S188  1  0.88935991  0.58159996  0.35135631  1
  S2-  S189  1  0.90947673  0.54271204  0.84207523  1
  S2-  S190  1  0.82384885  0.75247069  0.31020439  1
  S2-  S191  1  0.80764787  0.75377724  0.86076196  1
  S2-  S192  1  0.00659008  0.12542243  0.45689767  1
  S2-  S193  1  0.00003087  0.11510462  0.95227402  1
  S2-  S194  1  0.00165873  0.37533809  0.44839364  1
  S2-  S195  1  0.00064459  0.37607852  0.95427985  1
  S2-  S196  1  0.00516799  0.62045614  0.45658657  1
  S2-  S197  1  0.00180282  0.61988905  0.96095253  1
  S2-  S198  1  0.00058529  0.87690078  0.45794713  1
  S2-  S199  1  0.00131655  0.87085632  0.96224766  1
  S2-  S200  1  0.24820101  0.12130661  0.45839417  1
  S2-  S201  1  0.24453882  0.12731050  0.94746978  1
  S2-  S202  1  0.25346819  0.37665745  0.45319746  1
  S2-  S203  1  0.24853588  0.37052711  0.94481954  1
  S2-  S204  1  0.25003668  0.62389121  0.44673461  1
  S2-  S205  1  0.25074717  0.62392412  0.94487765  1
  S2-  S206  1  0.24898332  0.87459259  0.45302732  1
  S2-  S207  1  0.24769055  0.86882765  0.95242338  1
  S2-  S208  1  0.50493058  0.12060706  0.45242398  1
  S2-  S209  1  0.49644666  0.12193576  0.94882337  1
  S2-  S210  1  0.50303449  0.37516718  0.45138993  1
  S2-  S211  1  0.49928470  0.36697712  0.94794778  1
  S2-  S212  1  0.50432832  0.62380368  0.44979323  1
  S2-  S213  1  0.49971916  0.62183144  0.94601030  1
  S2-  S214  1  0.50323054  0.87675148  0.44484121  1
  S2-  S215  1  0.50211971  0.87577570  0.92858893  1
  S2-  S216  1  0.74969326  0.12231222  0.45446001  1
  S2-  S217  1  0.75088179  0.12333182  0.96252712  1
  S2-  S218  1  0.75085125  0.37568480  0.44959969  1
  S2-  S219  1  0.74666053  0.36883771  0.95181954  1
  S2-  S220  1  0.75147340  0.62332861  0.45117822  1
  S2-  S221  1  0.75294597  0.61800214  0.96099425  1
  S2-  S222  1  0.75803599  0.87579677  0.44914083  1
  S2-  S223  1  0.74855794  0.87128329  0.95962249  1
  S2-  S224  1  0.12641699  -0.00344899  0.04695166  1
  S2-  S225  1  0.12483737  -0.00241838  0.55495420  1
  S2-  S226  1  0.12671640  0.24514071  0.03828613  1
  S2-  S227  1  0.12747116  0.24938327  0.54906379  1
  S2-  S228  1  0.13324926  0.49574385  0.04080562  1
  S2-  S229  1  0.12814573  0.49655636  0.54720258  1
  S2-  S230  1  0.12761929  0.74669038  0.05773945  1
  S2-  S231  1  0.12711298  0.74571082  0.54745590  1
  S2-  S232  1  0.37194381  -0.00259725  0.03337488  1
  S2-  S233  1  0.37547505  -0.00308670  0.54579388  1
  S2-  S234  1  0.37283624  0.24522702  0.04376334  1
  S2-  S235  1  0.37911222  0.24536380  0.55044787  1
  S2-  S236  1  0.37551009  0.49457222  0.04634064  1
  S2-  S237  1  0.38026754  0.50026139  0.54607887  1
  S2-  S238  1  0.37813558  0.75143005  0.03861241  1
  S2-  S239  1  0.37563298  0.74803574  0.53958842  1
  S2-  S240  1  0.62042272  -0.00961982  0.04919630  1
  S2-  S241  1  0.62894685  -0.00458180  0.54414390  1
  S2-  S242  1  0.62267156  0.24592589  0.05398522  1
  S2-  S243  1  0.62669293  0.24700468  0.55513398  1
  S2-  S244  1  0.61671644  0.49394098  0.04211361  1
  S2-  S245  1  0.62619496  0.49985662  0.54899616  1
  S2-  S246  1  0.61782247  0.74728148  0.03791447  1
  S2-  S247  1  0.62825276  0.75033644  0.54527115  1
  S2-  S248  1  0.87361892  -0.00474880  0.05106899  1
  S2-  S249  1  0.88194806  0.00345535  0.54135346  1
  S2-  S250  1  0.87343397  0.24750925  0.05326229  1
  S2-  S251  1  0.87999297  0.24806219  0.54649011  1
  S2-  S252  1  0.87898513  0.49288583  0.04277654  1
  S2-  S253  1  0.87850247  0.49696478  0.54586338  1
  S2-  S254  1  0.88140534  0.74149477  0.05534367  1
  S2-  S255  1  0.87905445  0.74253369  0.54098400  1
