# generated using pymatgen
data_La12Ce14Pr13Nd13Sm12(BiS2)64
_symmetry_space_group_name_H-M   'P 1'
_cell_length_a   16.05148374
_cell_length_b   16.13581307
_cell_length_c   27.36747286
_cell_angle_alpha   90.02873343
_cell_angle_beta   89.52421777
_cell_angle_gamma   90.01651224
_symmetry_Int_Tables_number   1
_chemical_formula_structural   La12Ce14Pr13Nd13Sm12(BiS2)64
_chemical_formula_sum   'La12 Ce14 Pr13 Nd13 Sm12 Bi64 S128'
_cell_volume   7088.03229063
_cell_formula_units_Z   1
loop_
 _symmetry_equiv_pos_site_id
 _symmetry_equiv_pos_as_xyz
  1  'x, y, z'
loop_
 _atom_type_symbol
 _atom_type_oxidation_number
  La3+  3.0
  Ce3+  3.0
  Pr3+  3.0
  Nd3+  3.0
  Sm3+  3.0
  Bi2+  2.0
  S2-  -2.0
loop_
 _atom_site_type_symbol
 _atom_site_label
 _atom_site_symmetry_multiplicity
 _atom_site_fract_x
 _atom_site_fract_y
 _atom_site_fract_z
 _atom_site_occupancy
  La3+  La0  1  0.32591989  0.49380621  0.87877108  1
  La3+  La1  1  0.36031842  0.00378850  0.92551370  1
  La3+  La2  1  0.61805882  0.27424529  0.40549872  1
  La3+  La3  1  0.23837969  0.39569961  0.58688103  1
  La3+  La4  1  0.88268253  0.52564097  0.40436046  1
  La3+  La5  1  0.61174525  0.52679666  0.42700732  1
  La3+  La6  1  0.24315790  0.64422719  0.56526773  1
  La3+  La7  1  0.74473122  0.14855736  0.57577394  1
  La3+  La8  1  0.40961752  0.74329838  0.38310923  1
  La3+  La9  1  0.62470280  0.01402838  0.43329557  1
  La3+  La10  1  0.00413304  0.89312629  0.57569060  1
  La3+  La11  1  0.25108231  0.14801731  0.57533835  1
  Ce3+  Ce12  1  0.12426408  0.01385024  0.44080457  1
  Ce3+  Ce13  1  0.36840543  0.26505443  0.43822249  1
  Ce3+  Ce14  1  0.87684552  0.76925329  0.44083228  1
  Ce3+  Ce15  1  0.24379872  0.12558558  0.06208504  1
  Ce3+  Ce16  1  0.49539078  0.64035286  0.56421884  1
  Ce3+  Ce17  1  0.61459306  0.00117533  0.95066943  1
  Ce3+  Ce18  1  0.11064679  0.74823766  0.94514508  1
  Ce3+  Ce19  1  0.49126074  0.89302893  0.56087889  1
  Ce3+  Ce20  1  0.49920747  0.38826609  0.55420544  1
  Ce3+  Ce21  1  -0.00755275  0.39027848  0.55666011  1
  Ce3+  Ce22  1  0.48204632  0.12532374  0.06840564  1
  Ce3+  Ce23  1  0.12514691  0.51402125  0.44038831  1
  Ce3+  Ce24  1  0.75020493  0.89682445  0.57617855  1
  Ce3+  Ce25  1  0.73078915  0.87393144  0.07068739  1
  Pr3+  Pr26  1  0.74681598  0.39173564  0.53705519  1
  Pr3+  Pr27  1  -0.01234743  0.87616432  0.06806962  1
  Pr3+  Pr28  1  -0.01829731  0.62563543  0.06956281  1
  Pr3+  Pr29  1  0.73199723  0.11575936  0.09005643  1
  Pr3+  Pr30  1  0.72951033  0.62710354  0.06932908  1
  Pr3+  Pr31  1  0.88256892  0.26143138  0.42333581  1
  Pr3+  Pr32  1  -0.00440715  0.64252272  0.55427707  1
  Pr3+  Pr33  1  -0.01509957  0.12628992  0.06655323  1
  Pr3+  Pr34  1  0.36051694  0.74744413  0.93076219  1
  Pr3+  Pr35  1  0.11095290  0.00214287  0.93635025  1
  Pr3+  Pr36  1  0.48198768  0.62488710  0.05552553  1
  Pr3+  Pr37  1  0.60511796  0.49782580  0.93548462  1
  Pr3+  Pr38  1  -0.00644739  0.14084674  0.56824344  1
  Nd3+  Nd39  1  0.85794917  0.00133911  0.93767477  1
  Nd3+  Nd40  1  0.48334819  0.37536196  0.06562626  1
  Nd3+  Nd41  1  0.47728804  0.87611683  0.06315021  1
  Nd3+  Nd42  1  0.73054867  0.38174106  0.08477094  1
  Nd3+  Nd43  1  0.74707580  0.63940234  0.55642051  1
  Nd3+  Nd44  1  0.13772047  0.76987603  0.43031970  1
  Nd3+  Nd45  1  -0.01733456  0.37594900  0.06119555  1
  Nd3+  Nd46  1  0.23418761  0.87697329  0.06368723  1
  Nd3+  Nd47  1  0.36786935  0.51209632  0.44421255  1
  Nd3+  Nd48  1  0.85613192  0.24712678  0.94700494  1
  Nd3+  Nd49  1  0.85609905  0.50625121  0.93667039  1
  Nd3+  Nd50  1  0.36739746  0.24876385  0.93109188  1
  Nd3+  Nd51  1  0.37017267  0.01015543  0.43302458  1
  Sm3+  Sm52  1  0.11020753  0.49927648  0.95134222  1
  Sm3+  Sm53  1  0.61312370  0.75207353  0.94339672  1
  Sm3+  Sm54  1  0.11498331  0.25417752  0.94984217  1
  Sm3+  Sm55  1  0.49740067  0.14247445  0.54842983  1
  Sm3+  Sm56  1  0.86097430  0.75255199  0.93776980  1
  Sm3+  Sm57  1  0.62463227  0.76841677  0.45517966  1
  Sm3+  Sm58  1  0.23808001  0.62377753  0.05846555  1
  Sm3+  Sm59  1  0.24352490  0.37661413  0.06080661  1
  Sm3+  Sm60  1  0.25293212  0.89518987  0.56496066  1
  Sm3+  Sm61  1  0.61623211  0.25063234  0.95635325  1
  Sm3+  Sm62  1  0.87419477  0.01814988  0.44551078  1
  Sm3+  Sm63  1  0.12553370  0.26637816  0.44553960  1
  Bi2+  Bi64  1  0.05768716  0.10694150  0.31051483  1
  Bi2+  Bi65  1  -0.02618934  0.00268868  0.81905380  1
  Bi2+  Bi66  1  0.08683180  0.37308569  0.29349839  1
  Bi2+  Bi67  1  -0.05377984  0.40270231  0.79234497  1
  Bi2+  Bi68  1  0.04058516  0.64411034  0.28401103  1
  Bi2+  Bi69  1  -0.06673537  0.67007391  0.76694934  1
  Bi2+  Bi70  1  0.00904057  0.83802426  0.29053414  1
  Bi2+  Bi71  1  0.02948858  0.83772693  0.76773746  1
  Bi2+  Bi72  1  0.24613576  0.12810117  0.34347310  1
  Bi2+  Bi73  1  0.25909192  0.15376362  0.80671020  1
  Bi2+  Bi74  1  0.24707871  0.39225539  0.35910188  1
  Bi2+  Bi75  1  0.21409579  0.34238707  0.77348971  1
  Bi2+  Bi76  1  0.22722183  0.60755496  0.25515404  1
  Bi2+  Bi77  1  0.19007511  0.62365568  0.79343625  1
  Bi2+  Bi78  1  0.23980138  0.85740431  0.29184766  1
  Bi2+  Bi79  1  0.25423934  0.86678211  0.79807368  1
  Bi2+  Bi80  1  0.42577677  0.11460451  0.29712962  1
  Bi2+  Bi81  1  0.52973365  0.14991442  0.75306652  1
  Bi2+  Bi82  1  0.40021496  0.38730745  0.28996911  1
  Bi2+  Bi83  1  0.57445533  0.40091374  0.76853700  1
  Bi2+  Bi84  1  0.57164208  0.59632546  0.29951149  1
  Bi2+  Bi85  1  0.51295993  0.64159005  0.80500674  1
  Bi2+  Bi86  1  0.53918005  0.88188757  0.29748255  1
  Bi2+  Bi87  1  0.44916484  0.89668152  0.79777745  1
  Bi2+  Bi88  1  0.78267488  0.09593015  0.29725859  1
  Bi2+  Bi89  1  0.74012562  0.12669624  0.80470428  1
  Bi2+  Bi90  1  0.73614176  0.35631958  0.28377669  1
  Bi2+  Bi91  1  0.75981221  0.34205609  0.80409286  1
  Bi2+  Bi92  1  0.80643234  0.64878658  0.26706939  1
  Bi2+  Bi93  1  0.74993169  0.61081961  0.79874018  1
  Bi2+  Bi94  1  0.81636780  0.85283157  0.25726559  1
  Bi2+  Bi95  1  0.76024295  0.90411502  0.78931485  1
  Bi2+  Bi96  1  0.19436809  0.02941737  0.24045951  1
  Bi2+  Bi97  1  0.13720674  -0.02441929  0.71570324  1
  Bi2+  Bi98  1  0.19003935  0.23229991  0.23481266  1
  Bi2+  Bi99  1  0.06860132  0.15206668  0.76941560  1
  Bi2+  Bi100  1  0.18862249  0.43694719  0.20396555  1
  Bi2+  Bi101  1  0.04096749  0.52116900  0.71727526  1
  Bi2+  Bi102  1  0.05249995  0.74573382  0.18804590  1
  Bi2+  Bi103  1  0.18017309  0.71087647  0.69404975  1
  Bi2+  Bi104  1  0.38407880  -0.00690512  0.21323499  1
  Bi2+  Bi105  1  0.38827815  0.02164907  0.71003972  1
  Bi2+  Bi106  1  0.38407228  0.24099310  0.21359101  1
  Bi2+  Bi107  1  0.40291074  0.27321386  0.70534883  1
  Bi2+  Bi108  1  0.37185384  0.50775864  0.20320345  1
  Bi2+  Bi109  1  0.39254522  0.53268439  0.69716055  1
  Bi2+  Bi110  1  0.42515213  0.73950415  0.18360127  1
  Bi2+  Bi111  1  0.36251563  0.77848381  0.71516199  1
  Bi2+  Bi112  1  0.61348620  -0.01751743  0.21177904  1
  Bi2+  Bi113  1  0.60859680  -0.02636099  0.72228625  1
  Bi2+  Bi114  1  0.63972671  0.23746115  0.20952623  1
  Bi2+  Bi115  1  0.67384642  0.25803098  0.71013054  1
  Bi2+  Bi116  1  0.62066517  0.50412096  0.20895730  1
  Bi2+  Bi117  1  0.66095104  0.53221440  0.70659659  1
  Bi2+  Bi118  1  0.67011973  0.74366602  0.20651781  1
  Bi2+  Bi119  1  0.57582984  0.78128282  0.72549166  1
  Bi2+  Bi120  1  0.96399478  -0.05728647  0.19576602  1
  Bi2+  Bi121  1  0.87305837  0.02553141  0.69735846  1
  Bi2+  Bi122  1  0.92234147  0.22711441  0.21448168  1
  Bi2+  Bi123  1  0.97015417  0.27955335  0.70485072  1
  Bi2+  Bi124  1  0.90106225  0.46650492  0.20437504  1
  Bi2+  Bi125  1  0.84271048  0.45131862  0.69440356  1
  Bi2+  Bi126  1  0.85633853  0.75392069  0.15672981  1
  Bi2+  Bi127  1  0.77884844  0.76750456  0.70931017  1
  S2-  S128  1  0.00622491  0.10753812  0.16568243  1
  S2-  S129  1  0.01453679  0.02871084  0.64798687  1
  S2-  S130  1  0.00151233  0.34974464  0.15869628  1
  S2-  S131  1  0.06756955  0.39315326  0.64534021  1
  S2-  S132  1  0.00337481  0.57040155  0.16478100  1
  S2-  S133  1  0.03029568  0.65417326  0.65318383  1
  S2-  S134  1  0.11371085  0.88828707  0.14126960  1
  S2-  S135  1  -0.12591876  0.87173060  0.64804549  1
  S2-  S136  1  0.35167083  0.11842338  0.13885690  1
  S2-  S137  1  0.24839811  0.06517068  0.66430358  1
  S2-  S138  1  0.35407236  0.36856715  0.13883317  1
  S2-  S139  1  0.25902130  0.27639810  0.66029768  1
  S2-  S140  1  0.27599370  0.65397972  0.15380525  1
  S2-  S141  1  0.25450583  0.53826582  0.64881396  1
  S2-  S142  1  0.35179775  0.87752132  0.13865009  1
  S2-  S143  1  0.14581613  0.85601081  0.64103520  1
  S2-  S144  1  0.58131317  0.11974157  0.15234080  1
  S2-  S145  1  0.48032257  0.14212514  0.64736314  1
  S2-  S146  1  0.58309079  0.37533142  0.15172723  1
  S2-  S147  1  0.47847710  0.39718309  0.65170979  1
  S2-  S148  1  0.55339966  0.62843883  0.14782374  1
  S2-  S149  1  0.49154010  0.66524039  0.66143060  1
  S2-  S150  1  0.57087862  0.85215063  0.15014307  1
  S2-  S151  1  0.38210463  0.89726435  0.64030565  1
  S2-  S152  1  0.78749133  0.14018582  0.19307263  1
  S2-  S153  1  0.87272254  0.17531682  0.64507069  1
  S2-  S154  1  0.79242180  0.33223017  0.17792458  1
  S2-  S155  1  0.73554192  0.35599263  0.63622647  1
  S2-  S156  1  0.76012599  0.52521540  0.14961217  1
  S2-  S157  1  0.78289512  0.61670375  0.65271865  1
  S2-  S158  1  0.74709856  0.96757604  0.15033785  1
  S2-  S159  1  0.71695847  1.02062548  0.64705396  1
  S2-  S160  1  0.12171444  -0.09607147  0.36203935  1
  S2-  S161  1  0.21999965  0.00324462  0.85486530  1
  S2-  S162  1  0.03420011  0.25458288  0.36177615  1
  S2-  S163  1  0.11973653  0.24828207  0.85123319  1
  S2-  S164  1  0.04213688  0.51850592  0.35217480  1
  S2-  S165  1  0.14577214  0.50293074  0.85564238  1
  S2-  S166  1  0.24060220  0.72318535  0.34723271  1
  S2-  S167  1  0.12164236  0.76404405  0.84804893  1
  S2-  S168  1  0.38230993  -0.08946265  0.34952193  1
  S2-  S169  1  0.39905396  0.12752900  0.85660654  1
  S2-  S170  1  0.45868817  0.26606756  0.35287515  1
  S2-  S171  1  0.32869729  0.32614677  0.84220279  1
  S2-  S172  1  0.44308974  0.56918554  0.35949775  1
  S2-  S173  1  0.29994852  0.48601314  0.77121919  1
  S2-  S174  1  0.43206544  0.73838314  0.27494249  1
  S2-  S175  1  0.35403444  0.66104513  0.84300757  1
  S2-  S176  1  0.65653222  -0.02117932  0.33490022  1
  S2-  S177  1  0.66702143  -0.00297840  0.85770914  1
  S2-  S178  1  0.64698872  0.20322447  0.31238360  1
  S2-  S179  1  0.64624716  0.24097358  0.85893142  1
  S2-  S180  1  0.61758376  0.43514238  0.34029160  1
  S2-  S181  1  0.50246778  0.48995694  0.84917509  1
  S2-  S182  1  0.59357348  0.74446595  0.35941662  1
  S2-  S183  1  0.64199439  0.73044640  0.84687669  1
  S2-  S184  1  0.90819637  0.02933735  0.34791108  1
  S2-  S185  1  0.86900636  -0.12551227  0.86543348  1
  S2-  S186  1  0.84655482  0.24436639  0.32188226  1
  S2-  S187  1  0.86804586  0.13567540  0.86751391  1
  S2-  S188  1  0.84079752  0.47705662  0.30637538  1
  S2-  S189  1  0.73292305  0.48358137  0.86540414  1
  S2-  S190  1  0.86468080  0.68566533  0.35550403  1
  S2-  S191  1  0.88577165  0.63629281  0.86411489  1
  S2-  S192  1  0.00009831  0.13686122  0.46079089  1
  S2-  S193  1  -0.00731220  0.13014072  0.96099233  1
  S2-  S194  1  -0.00312270  0.39365864  0.45235735  1
  S2-  S195  1  -0.01578876  0.37466539  0.95383914  1
  S2-  S196  1  0.00447176  0.64743525  0.44936826  1
  S2-  S197  1  -0.01032785  0.62316552  0.96292256  1
  S2-  S198  1  -0.00519720  0.89360669  0.46090749  1
  S2-  S199  1  -0.00956606  0.87559607  0.96153821  1
  S2-  S200  1  0.24765565  0.14193046  0.46139348  1
  S2-  S201  1  0.23495040  0.13095897  0.95711203  1
  S2-  S202  1  0.24542283  0.38824312  0.47099126  1
  S2-  S203  1  0.23715337  0.37814545  0.95665011  1
  S2-  S204  1  0.24943664  0.63630868  0.45724462  1
  S2-  S205  1  0.23528125  0.62094422  0.95392796  1
  S2-  S206  1  0.24959952  0.89508397  0.46110070  1
  S2-  S207  1  0.23591001  0.87306427  0.95558269  1
  S2-  S208  1  0.49772144  0.13792729  0.44495460  1
  S2-  S209  1  0.49298904  0.12590142  0.96272906  1
  S2-  S210  1  0.49733740  0.39141797  0.45053270  1
  S2-  S211  1  0.49007965  0.36711485  0.95810759  1
  S2-  S212  1  0.49451341  0.65036755  0.46217860  1
  S2-  S213  1  0.48981791  0.63163950  0.95130393  1
  S2-  S214  1  0.49839986  0.88673624  0.45517930  1
  S2-  S215  1  0.48605856  0.87486759  0.95002319  1
  S2-  S216  1  0.74803774  0.14268282  0.44265951  1
  S2-  S217  1  0.73673914  0.12377185  0.97173005  1
  S2-  S218  1  0.75384852  0.39562085  0.43299211  1
  S2-  S219  1  0.73892985  0.37247978  0.96776014  1
  S2-  S220  1  0.74581702  0.64051582  0.45135137  1
  S2-  S221  1  0.73531949  0.63135065  0.96198553  1
  S2-  S222  1  0.75047072  0.89063615  0.45532917  1
  S2-  S223  1  0.73624122  0.87354244  0.96337800  1
  S2-  S224  1  0.11435891  0.00712723  0.04320932  1
  S2-  S225  1  0.12946047  0.01981989  0.54586250  1
  S2-  S226  1  0.11608307  0.25356376  0.05481795  1
  S2-  S227  1  0.11903856  0.26433618  0.54949494  1
  S2-  S228  1  0.11518826  0.49773718  0.05507842  1
  S2-  S229  1  0.11749138  0.51611194  0.54498593  1
  S2-  S230  1  0.11237414  0.74507997  0.04901727  1
  S2-  S231  1  0.12241164  0.76626027  0.53709286  1
  S2-  S232  1  0.35880891  -0.00011216  0.03480849  1
  S2-  S233  1  0.37375620  0.02148689  0.54024929  1
  S2-  S234  1  0.36095898  0.25078817  0.03828132  1
  S2-  S235  1  0.37457980  0.26683968  0.54536863  1
  S2-  S236  1  0.35889957  0.50292362  0.04743301  1
  S2-  S237  1  0.37450882  0.51449710  0.54815117  1
  S2-  S238  1  0.35637426  0.74871113  0.03759993  1
  S2-  S239  1  0.37151792  0.76351189  0.55297718  1
  S2-  S240  1  0.60566088  -0.00293466  0.05248929  1
  S2-  S241  1  0.61923573  0.01763213  0.54147642  1
  S2-  S242  1  0.61439970  0.24915110  0.05740207  1
  S2-  S243  1  0.62204596  0.26266237  0.53575792  1
  S2-  S244  1  0.60918694  0.50038644  0.04384966  1
  S2-  S245  1  0.62071396  0.51771959  0.54088538  1
  S2-  S246  1  0.60729627  0.75224216  0.04553983  1
  S2-  S247  1  0.62370092  0.76936261  0.55942767  1
  S2-  S248  1  0.86403196  0.00019021  0.04850214  1
  S2-  S249  1  0.86660879  0.01909615  0.54666043  1
  S2-  S250  1  0.85849431  0.25018549  0.05501960  1
  S2-  S251  1  0.87058708  0.26571744  0.53296140  1
  S2-  S252  1  0.86097791  0.49991875  0.04539916  1
  S2-  S253  1  0.87156110  0.51728465  0.53917184  1
  S2-  S254  1  0.86045344  0.75113198  0.04297943  1
  S2-  S255  1  0.86934677  0.76602426  0.54477846  1
