# generated using pymatgen
data_La12Ce14Pr13Nd13Sm12(BiS2)64
_symmetry_space_group_name_H-M   'P 1'
_cell_length_a   16.09540401
_cell_length_b   16.15526939
_cell_length_c   27.39666670
_cell_angle_alpha   89.90552470
_cell_angle_beta   90.00407684
_cell_angle_gamma   89.96051437
_symmetry_Int_Tables_number   1
_chemical_formula_structural   La12Ce14Pr13Nd13Sm12(BiS2)64
_chemical_formula_sum   'La12 Ce14 Pr13 Nd13 Sm12 Bi64 S128'
_cell_volume   7123.82296478
_cell_formula_units_Z   1
loop_
 _symmetry_equiv_pos_site_id
 _symmetry_equiv_pos_as_xyz
  1  'x, y, z'
loop_
 _atom_type_symbol
 _atom_type_oxidation_number
  La3+  3.0
  Ce3+  3.0
  Pr3+  3.0
  Nd3+  3.0
  Sm3+  3.0
  Bi2+  2.0
  S2-  -2.0
loop_
 _atom_site_type_symbol
 _atom_site_label
 _atom_site_symmetry_multiplicity
 _atom_site_fract_x
 _atom_site_fract_y
 _atom_site_fract_z
 _atom_site_occupancy
  La3+  La0  1  0.49395734  0.37766911  0.07179939  1
  La3+  La1  1  0.24259271  0.13115212  0.60746750  1
  La3+  La2  1  0.74785830  0.38263119  0.07011280  1
  La3+  La3  1  0.49274001  0.87502375  0.58074820  1
  La3+  La4  1  0.00657005  0.63721538  0.09500725  1
  La3+  La5  1  0.88136875  0.77052394  0.93201440  1
  La3+  La6  1  0.01552460  0.13851238  0.09207640  1
  La3+  La7  1  0.75610303  0.86995206  0.09116375  1
  La3+  La8  1  0.12035481  0.50426799  0.43923211  1
  La3+  La9  1  0.26491788  0.14076685  0.06180143  1
  La3+  La10  1  0.37870053  0.76036319  0.92952712  1
  La3+  La11  1  0.88355588  0.27474327  0.37775322  1
  Ce3+  Ce12  1  0.87251895  0.50851860  0.43783188  1
  Ce3+  Ce13  1  -0.00304416  0.12826998  0.56153392  1
  Ce3+  Ce14  1  0.24646490  0.62822746  0.55795335  1
  Ce3+  Ce15  1  0.63029520  0.76311473  0.94540228  1
  Ce3+  Ce16  1  0.61651049  0.00230226  0.43659575  1
  Ce3+  Ce17  1  0.62090181  0.75817126  0.44511463  1
  Ce3+  Ce18  1  0.75310886  0.13095576  0.06678065  1
  Ce3+  Ce19  1  0.62855856  0.50944305  0.94663574  1
  Ce3+  Ce20  1  0.01209457  0.88323109  0.06915348  1
  Ce3+  Ce21  1  0.37787188  0.00553533  0.44698008  1
  Ce3+  Ce22  1  0.25164577  0.87950606  0.55929306  1
  Ce3+  Ce23  1  0.24814547  0.37253183  0.55883193  1
  Ce3+  Ce24  1  0.12050942  0.00770467  0.44935213  1
  Ce3+  Ce25  1  0.75559115  0.63675645  0.05447748  1
  Pr3+  Pr26  1  0.75166005  0.37781896  0.55483032  1
  Pr3+  Pr27  1  0.86791896  0.00890826  0.42233102  1
  Pr3+  Pr28  1  0.87536869  0.25904692  0.93665646  1
  Pr3+  Pr29  1  0.13246102  0.25779656  0.93267477  1
  Pr3+  Pr30  1  0.49962244  0.37654064  0.55869825  1
  Pr3+  Pr31  1  0.37615260  0.75632237  0.43735038  1
  Pr3+  Pr32  1  -0.00057880  0.38130749  0.05972084  1
  Pr3+  Pr33  1  0.37647112  0.25205277  0.43434614  1
  Pr3+  Pr34  1  0.62745222  0.25276995  0.42911088  1
  Pr3+  Pr35  1  0.88069254  0.51345574  0.94209310  1
  Pr3+  Pr36  1  0.63351125  0.00548923  0.94479536  1
  Pr3+  Pr37  1  0.87351113  0.75976890  0.43168422  1
  Pr3+  Pr38  1  -0.00408803  0.63364637  0.57010626  1
  Nd3+  Nd39  1  0.12211674  0.25032798  0.44055328  1
  Nd3+  Nd40  1  0.50315379  0.13046173  0.56807776  1
  Nd3+  Nd41  1  0.74755808  0.12746792  0.55753659  1
  Nd3+  Nd42  1  0.12266035  0.75847987  0.44272999  1
  Nd3+  Nd43  1  0.50117390  0.88283091  0.06508882  1
  Nd3+  Nd44  1  0.49817212  0.62839180  0.56473949  1
  Nd3+  Nd45  1  0.25026721  0.88702013  0.06229507  1
  Nd3+  Nd46  1  0.13166752  0.01126344  0.93854325  1
  Nd3+  Nd47  1  0.37343214  0.50506907  0.44695317  1
  Nd3+  Nd48  1  0.50437904  0.13258170  0.05366546  1
  Nd3+  Nd49  1  0.62449922  0.50495295  0.44208486  1
  Nd3+  Nd50  1  -0.00487057  0.88231976  0.56223154  1
  Nd3+  Nd51  1  0.38760062  0.26268444  0.91746234  1
  Sm3+  Sm52  1  0.12602226  0.51268016  0.94596052  1
  Sm3+  Sm53  1  0.12933060  0.75924044  0.94602395  1
  Sm3+  Sm54  1  -0.00298251  0.37474865  0.55228443  1
  Sm3+  Sm55  1  0.75119666  0.63205833  0.55628515  1
  Sm3+  Sm56  1  0.38612564  0.01032813  0.92704047  1
  Sm3+  Sm57  1  0.63048061  0.26226137  0.93706872  1
  Sm3+  Sm58  1  0.74908397  0.88074864  0.55833155  1
  Sm3+  Sm59  1  0.38057218  0.51121668  0.93352639  1
  Sm3+  Sm60  1  0.49774522  0.63543515  0.05625535  1
  Sm3+  Sm61  1  0.25306754  0.63519273  0.06241278  1
  Sm3+  Sm62  1  0.25395294  0.38547133  0.05156839  1
  Sm3+  Sm63  1  0.88235515  0.00758334  0.95736175  1
  Bi2+  Bi64  1  0.00837182  0.14260997  0.27445496  1
  Bi2+  Bi65  1  -0.05376354  0.05785454  0.76267354  1
  Bi2+  Bi66  1  0.06032299  0.38292307  0.27996245  1
  Bi2+  Bi67  1  -0.08316069  0.33692833  0.78324108  1
  Bi2+  Bi68  1  0.04460694  0.61935591  0.27815917  1
  Bi2+  Bi69  1  -0.00904919  0.60942786  0.81127052  1
  Bi2+  Bi70  1  0.02385038  0.85969690  0.29718986  1
  Bi2+  Bi71  1  -0.04614552  0.85263926  0.80374180  1
  Bi2+  Bi72  1  0.29230140  0.14898338  0.31464412  1
  Bi2+  Bi73  1  0.21781612  0.11514110  0.79080631  1
  Bi2+  Bi74  1  0.25822140  0.33686585  0.29239176  1
  Bi2+  Bi75  1  0.24946765  0.31893156  0.79611140  1
  Bi2+  Bi76  1  0.32274029  0.61758136  0.26851800  1
  Bi2+  Bi77  1  0.24672678  0.61877310  0.79113930  1
  Bi2+  Bi78  1  0.30027172  0.88309488  0.27487541  1
  Bi2+  Bi79  1  0.24619661  0.88915737  0.78486493  1
  Bi2+  Bi80  1  0.48396085  0.10554644  0.28929116  1
  Bi2+  Bi81  1  0.49154459  0.13690146  0.78889541  1
  Bi2+  Bi82  1  0.45234137  0.35863150  0.28773294  1
  Bi2+  Bi83  1  0.50016448  0.39632395  0.79225410  1
  Bi2+  Bi84  1  0.51153040  0.58659970  0.30748602  1
  Bi2+  Bi85  1  0.50692149  0.64860879  0.78861304  1
  Bi2+  Bi86  1  0.48378135  0.82968911  0.31381399  1
  Bi2+  Bi87  1  0.51281129  0.88182290  0.79758021  1
  Bi2+  Bi88  1  0.73930612  0.11693244  0.27979905  1
  Bi2+  Bi89  1  0.77390104  0.13565522  0.79936440  1
  Bi2+  Bi90  1  0.64485461  0.35632690  0.27069885  1
  Bi2+  Bi91  1  0.74196230  0.42147042  0.78779843  1
  Bi2+  Bi92  1  0.86588052  0.63097563  0.32585457  1
  Bi2+  Bi93  1  0.68151481  0.59640802  0.74412271  1
  Bi2+  Bi94  1  0.74775789  0.88091010  0.28768733  1
  Bi2+  Bi95  1  0.77535173  0.91270612  0.73753380  1
  Bi2+  Bi96  1  0.16425172  0.02576737  0.26390436  1
  Bi2+  Bi97  1  0.02815834  -0.08618740  0.69719387  1
  Bi2+  Bi98  1  0.16079730  0.30083768  0.19495584  1
  Bi2+  Bi99  1  0.10188424  0.27225698  0.70834380  1
  Bi2+  Bi100  1  0.23987878  0.48780488  0.19783830  1
  Bi2+  Bi101  1  0.14842447  0.46656010  0.74548522  1
  Bi2+  Bi102  1  0.18926301  0.78075590  0.20130599  1
  Bi2+  Bi103  1  0.12727864  0.76004552  0.74660806  1
  Bi2+  Bi104  1  0.37718842  -0.06620338  0.16893770  1
  Bi2+  Bi105  1  0.39085925  -0.00659410  0.71007665  1
  Bi2+  Bi106  1  0.32484792  0.11702550  0.20076097  1
  Bi2+  Bi107  1  0.37940879  0.26446060  0.71615961  1
  Bi2+  Bi108  1  0.45568690  0.48666642  0.20326539  1
  Bi2+  Bi109  1  0.32141118  0.52190898  0.69947213  1
  Bi2+  Bi110  1  0.37502641  0.73043375  0.17301587  1
  Bi2+  Bi111  1  0.37156290  0.73681306  0.70884042  1
  Bi2+  Bi112  1  0.55003716  -0.02967106  0.22303555  1
  Bi2+  Bi113  1  0.64297548  0.05661134  0.72453208  1
  Bi2+  Bi114  1  0.56709305  0.23506901  0.19635815  1
  Bi2+  Bi115  1  0.64648690  0.27538362  0.70784244  1
  Bi2+  Bi116  1  0.69365819  0.62174477  0.26658509  1
  Bi2+  Bi117  1  0.51920963  0.51368438  0.69697420  1
  Bi2+  Bi118  1  0.56118593  0.75125813  0.21888759  1
  Bi2+  Bi119  1  0.62166805  0.79191898  0.71407100  1
  Bi2+  Bi120  1  0.96446856  -0.06539951  0.20289477  1
  Bi2+  Bi121  1  0.87018930  0.01970281  0.65304323  1
  Bi2+  Bi122  1  0.84548419  0.25325897  0.18350646  1
  Bi2+  Bi123  1  0.85915066  0.20609614  0.70468009  1
  Bi2+  Bi124  1  0.84364719  0.48909747  0.24319852  1
  Bi2+  Bi125  1  0.88585382  0.46102848  0.69521156  1
  Bi2+  Bi126  1  0.86547857  0.71156130  0.21489592  1
  Bi2+  Bi127  1  0.87568618  0.70054720  0.69791738  1
  S2-  S128  1  -0.06079175  0.09686195  0.18041302  1
  S2-  S129  1  0.07541200  0.14678732  0.64885857  1
  S2-  S130  1  0.00584201  0.29294286  0.14552220  1
  S2-  S131  1  0.00564309  0.36708960  0.64999387  1
  S2-  S132  1  -0.03256617  0.56366733  0.18681236  1
  S2-  S133  1  -0.01104082  0.58006686  0.66910017  1
  S2-  S134  1  -0.02556669  0.78404629  0.14834214  1
  S2-  S135  1  -0.01402631  0.77197930  0.63921060  1
  S2-  S136  1  0.17159113  0.14396460  0.14703272  1
  S2-  S137  1  0.23583513  0.03931646  0.70030365  1
  S2-  S138  1  0.34772578  0.39877981  0.13510213  1
  S2-  S139  1  0.24881489  0.29659801  0.64713158  1
  S2-  S140  1  0.16624914  0.62898450  0.14829701  1
  S2-  S141  1  0.24038469  0.65948605  0.65289625  1
  S2-  S142  1  0.14157079  0.90770421  0.14160517  1
  S2-  S143  1  0.33797409  0.87083257  0.64388642  1
  S2-  S144  1  0.42678961  0.20017867  0.13238083  1
  S2-  S145  1  0.40452776  0.13430169  0.65201790  1
  S2-  S146  1  0.61623773  0.36903293  0.14586127  1
  S2-  S147  1  0.50496871  0.33874806  0.65657979  1
  S2-  S148  1  0.52269192  0.61763341  0.15321402  1
  S2-  S149  1  0.49980145  0.72578099  0.64629774  1
  S2-  S150  1  0.60447086  0.87605652  0.14703442  1
  S2-  S151  1  0.54981871  0.93912732  0.66956830  1
  S2-  S152  1  0.70548981  0.14413390  0.16245876  1
  S2-  S153  1  0.63795420  0.15026779  0.63656489  1
  S2-  S154  1  0.83795335  0.41280115  0.15404769  1
  S2-  S155  1  0.74436367  0.36958324  0.65563229  1
  S2-  S156  1  0.75828271  0.70666573  0.14246321  1
  S2-  S157  1  0.76600293  0.59422379  0.65126515  1
  S2-  S158  1  0.80221403  0.91792322  0.19061569  1
  S2-  S159  1  0.76083275  0.81179361  0.64961469  1
  S2-  S160  1  0.08218194  -0.00543008  0.35461181  1
  S2-  S161  1  0.13968999  -0.01059162  0.83854076  1
  S2-  S162  1  0.05692918  0.24934064  0.34870929  1
  S2-  S163  1  0.10821286  0.23416991  0.83330983  1
  S2-  S164  1  0.11744199  0.50469054  0.33843014  1
  S2-  S165  1  0.13060159  0.51247650  0.84793096  1
  S2-  S166  1  0.09618725  0.73167893  0.34583516  1
  S2-  S167  1  0.09154546  0.75331082  0.84968587  1
  S2-  S168  1  0.47772135  -0.01052411  0.36687337  1
  S2-  S169  1  0.36675725  -0.11554963  0.85575217  1
  S2-  S170  1  0.49575805  0.24162455  0.35927424  1
  S2-  S171  1  0.36025723  0.12373708  0.85119957  1
  S2-  S172  1  0.36680517  0.51344079  0.34934335  1
  S2-  S173  1  0.37488153  0.40579129  0.85401242  1
  S2-  S174  1  0.32625172  0.75066924  0.34128915  1
  S2-  S175  1  0.37493827  0.63250243  0.85783822  1
  S2-  S176  1  0.70161130  0.01182973  0.34895930  1
  S2-  S177  1  0.56395149  0.00716855  0.85155354  1
  S2-  S178  1  0.71848961  0.24789177  0.33961828  1
  S2-  S179  1  0.53233617  0.26098749  0.85321539  1
  S2-  S180  1  0.63467314  0.47706192  0.34459080  1
  S2-  S181  1  0.62321085  0.48323324  0.85042140  1
  S2-  S182  1  0.64135723  0.78812443  0.35028751  1
  S2-  S183  1  0.60302929  0.76415586  0.84822692  1
  S2-  S184  1  0.88300870  0.10850300  0.33749308  1
  S2-  S185  1  0.85988885  -0.07658165  0.87256695  1
  S2-  S186  1  0.90690868  0.28400076  0.26950224  1
  S2-  S187  1  0.75278195  0.26259798  0.86406775  1
  S2-  S188  1  0.87603001  0.44750109  0.34724757  1
  S2-  S189  1  0.89150435  0.48676950  0.84214637  1
  S2-  S190  1  0.87189329  0.87188386  0.35173148  1
  S2-  S191  1  0.86948499  0.70723367  0.83447595  1
  S2-  S192  1  -0.00363207  0.13020852  0.45546095  1
  S2-  S193  1  -0.00052893  0.13164590  0.93933565  1
  S2-  S194  1  -0.00439126  0.37626169  0.44900836  1
  S2-  S195  1  0.00453777  0.38321058  0.95087457  1
  S2-  S196  1  -0.00163929  0.63286212  0.45743598  1
  S2-  S197  1  0.00611463  0.63698850  0.95206485  1
  S2-  S198  1  -0.00160465  0.88069074  0.45763283  1
  S2-  S199  1  0.01201751  0.88686365  0.96107822  1
  S2-  S200  1  0.24897718  0.12792496  0.44463912  1
  S2-  S201  1  0.25634463  0.13329987  0.95224316  1
  S2-  S202  1  0.24882754  0.37757358  0.45067224  1
  S2-  S203  1  0.24950897  0.39026896  0.94967776  1
  S2-  S204  1  0.24711134  0.63063111  0.45146045  1
  S2-  S205  1  0.24936878  0.63365453  0.95784257  1
  S2-  S206  1  0.24902438  0.88121889  0.45176171  1
  S2-  S207  1  0.25083016  0.88508965  0.95625830  1
  S2-  S208  1  0.49945427  0.12925451  0.46237762  1
  S2-  S209  1  0.50817944  0.13235806  0.95162192  1
  S2-  S210  1  0.49837641  0.38333288  0.45277510  1
  S2-  S211  1  0.50697533  0.38775374  0.95888662  1
  S2-  S212  1  0.49872448  0.62890342  0.45717887  1
  S2-  S213  1  0.50654284  0.63591642  0.95357204  1
  S2-  S214  1  0.49628696  0.87629477  0.46802701  1
  S2-  S215  1  0.50397876  0.88506389  0.95931909  1
  S2-  S216  1  0.74410698  0.12607224  0.45401343  1
  S2-  S217  1  0.75667183  0.12824626  0.96002368  1
  S2-  S218  1  0.75146183  0.38091855  0.44909147  1
  S2-  S219  1  0.75545661  0.38831628  0.96187733  1
  S2-  S220  1  0.74638732  0.63239667  0.45139695  1
  S2-  S221  1  0.75412830  0.63707954  0.94865857  1
  S2-  S222  1  0.74584215  0.88036511  0.45567522  1
  S2-  S223  1  0.75210876  0.88283893  0.97357324  1
  S2-  S224  1  0.12813272  0.01925418  0.04225838  1
  S2-  S225  1  0.12634665  0.00302518  0.55545670  1
  S2-  S226  1  0.13028774  0.26134570  0.03924713  1
  S2-  S227  1  0.12339073  0.25238695  0.54387697  1
  S2-  S228  1  0.12642021  0.50701972  0.04999842  1
  S2-  S229  1  0.12103674  0.50090470  0.54853356  1
  S2-  S230  1  0.13062725  0.75574200  0.04783943  1
  S2-  S231  1  0.12460028  0.75665076  0.54719187  1
  S2-  S232  1  0.37929922  0.00797682  0.03875069  1
  S2-  S233  1  0.36785460  0.01120113  0.55048692  1
  S2-  S234  1  0.37689135  0.26475965  0.02541283  1
  S2-  S235  1  0.37408196  0.25351629  0.54176416  1
  S2-  S236  1  0.37510552  0.51515373  0.03848976  1
  S2-  S237  1  0.37270611  0.50281093  0.55260310  1
  S2-  S238  1  0.37358707  0.76008873  0.04101655  1
  S2-  S239  1  0.37115069  0.74862372  0.54324946  1
  S2-  S240  1  0.62767238  0.00828747  0.05174804  1
  S2-  S241  1  0.62408122  -0.00130109  0.54644654  1
  S2-  S242  1  0.62835842  0.25375668  0.04125222  1
  S2-  S243  1  0.62501368  0.25823864  0.53654721  1
  S2-  S244  1  0.62418467  0.51348635  0.05092117  1
  S2-  S245  1  0.62528952  0.50692886  0.54870851  1
  S2-  S246  1  0.62215366  0.75491437  0.04797155  1
  S2-  S247  1  0.62725444  0.75297620  0.54941791  1
  S2-  S248  1  0.88280001  0.00819152  0.06033140  1
  S2-  S249  1  0.87144547  0.00252983  0.53597982  1
  S2-  S250  1  0.87934514  0.25125102  0.04404699  1
  S2-  S251  1  0.87405444  0.25198126  0.55434465  1
  S2-  S252  1  0.88394247  0.51613968  0.04842479  1
  S2-  S253  1  0.87641082  0.50522528  0.54485723  1
  S2-  S254  1  0.88437911  0.75482866  0.04256480  1
  S2-  S255  1  0.86988128  0.75499482  0.53839330  1
