# generated using pymatgen
data_La12Ce14Pr13Nd13Sm12(BiS2)64
_symmetry_space_group_name_H-M   'P 1'
_cell_length_a   16.10533399
_cell_length_b   16.07908782
_cell_length_c   27.39361165
_cell_angle_alpha   89.99827176
_cell_angle_beta   89.73745697
_cell_angle_gamma   89.89903594
_symmetry_Int_Tables_number   1
_chemical_formula_structural   La12Ce14Pr13Nd13Sm12(BiS2)64
_chemical_formula_sum   'La12 Ce14 Pr13 Nd13 Sm12 Bi64 S128'
_cell_volume   7093.73896678
_cell_formula_units_Z   1
loop_
 _symmetry_equiv_pos_site_id
 _symmetry_equiv_pos_as_xyz
  1  'x, y, z'
loop_
 _atom_type_symbol
 _atom_type_oxidation_number
  La3+  3.0
  Ce3+  3.0
  Pr3+  3.0
  Nd3+  3.0
  Sm3+  3.0
  Bi2+  2.0
  S2-  -2.0
loop_
 _atom_site_type_symbol
 _atom_site_label
 _atom_site_symmetry_multiplicity
 _atom_site_fract_x
 _atom_site_fract_y
 _atom_site_fract_z
 _atom_site_occupancy
  La3+  La0  1  0.59623866  0.24813738  0.39324707  1
  La3+  La1  1  0.49265224  0.37560522  0.59852240  1
  La3+  La2  1  0.11246901  0.25703189  0.91501457  1
  La3+  La3  1  0.36644695  0.00654985  0.92501338  1
  La3+  La4  1  -0.02808088  0.12750666  0.59558591  1
  La3+  La5  1  0.37984869  0.50767231  0.91193012  1
  La3+  La6  1  0.00156428  0.36891806  0.07016736  1
  La3+  La7  1  0.48319890  0.62425952  0.07619034  1
  La3+  La8  1  0.61557462  -0.00086438  0.42753926  1
  La3+  La9  1  -0.00538956  0.62191725  0.07731410  1
  La3+  La10  1  0.35747611  -0.00189935  0.40243874  1
  La3+  La11  1  0.11030821  0.50699736  0.92171446  1
  Ce3+  Ce12  1  0.86089235  0.25504790  0.44582859  1
  Ce3+  Ce13  1  0.11546371  0.00354666  0.93705844  1
  Ce3+  Ce14  1  -0.00880505  0.12513283  0.06000414  1
  Ce3+  Ce15  1  0.86988950  0.50150302  0.94546614  1
  Ce3+  Ce16  1  0.48344844  0.12415364  0.07043605  1
  Ce3+  Ce17  1  0.61513491  0.25252859  0.94046982  1
  Ce3+  Ce18  1  0.60559834  0.75552346  0.43795046  1
  Ce3+  Ce19  1  0.36695360  0.74983375  0.93984492  1
  Ce3+  Ce20  1  0.24156612  0.88016955  0.05119841  1
  Ce3+  Ce21  1  0.24255249  0.13068796  0.05079579  1
  Ce3+  Ce22  1  0.48655327  0.88195342  0.05848227  1
  Ce3+  Ce23  1  0.73013105  0.13276408  0.55574629  1
  Ce3+  Ce24  1  0.35269096  0.25597617  0.43526176  1
  Ce3+  Ce25  1  0.11606146  0.74679323  0.94437714  1
  Pr3+  Pr26  1  0.48923104  0.37379769  0.06508885  1
  Pr3+  Pr27  1  0.61469743  0.75079416  0.95015846  1
  Pr3+  Pr28  1  0.74084765  0.62667025  0.06135007  1
  Pr3+  Pr29  1  0.86535953  0.50613163  0.42458476  1
  Pr3+  Pr30  1  0.37617570  0.25156393  0.92353346  1
  Pr3+  Pr31  1  0.86115425  0.75339273  0.43290806  1
  Pr3+  Pr32  1  -0.02447815  0.88072421  0.57275247  1
  Pr3+  Pr33  1  0.23264854  0.38546026  0.57444986  1
  Pr3+  Pr34  1  0.11071082  0.25250191  0.44996657  1
  Pr3+  Pr35  1  0.10844775  0.00424117  0.44430434  1
  Pr3+  Pr36  1  0.23898361  0.62396165  0.06351352  1
  Pr3+  Pr37  1  0.85885559  0.00600668  0.43854347  1
  Pr3+  Pr38  1  0.86825286  -0.00505272  0.92768870  1
  Nd3+  Nd39  1  0.72716667  0.87780134  0.56708308  1
  Nd3+  Nd40  1  0.11048029  0.75859734  0.45085258  1
  Nd3+  Nd41  1  0.48056427  0.13101480  0.54849896  1
  Nd3+  Nd42  1  -0.01618850  0.38679171  0.57328722  1
  Nd3+  Nd43  1  0.86872227  0.75255576  0.94587420  1
  Nd3+  Nd44  1  0.35713216  0.50349226  0.43850626  1
  Nd3+  Nd45  1  0.59812432  0.50000783  0.42571297  1
  Nd3+  Nd46  1  0.48469192  0.62317984  0.56315532  1
  Nd3+  Nd47  1  0.72927378  0.38130488  0.54681088  1
  Nd3+  Nd48  1  0.11092900  0.50341867  0.43776123  1
  Nd3+  Nd49  1  0.23620647  0.13257906  0.56600298  1
  Nd3+  Nd50  1  0.48273992  0.88524278  0.56174401  1
  Nd3+  Nd51  1  0.61667804  0.00283026  0.94232263  1
  Sm3+  Sm52  1  -0.00865848  0.88492754  0.06452873  1
  Sm3+  Sm53  1  0.86909950  0.24944363  0.93624735  1
  Sm3+  Sm54  1  -0.01896795  0.62977096  0.55989853  1
  Sm3+  Sm55  1  0.23277061  0.88384604  0.56406490  1
  Sm3+  Sm56  1  0.24050344  0.37645491  0.03915361  1
  Sm3+  Sm57  1  0.74156865  0.37424472  0.05511747  1
  Sm3+  Sm58  1  0.74042980  0.87911699  0.06197172  1
  Sm3+  Sm59  1  0.35910497  0.75924805  0.45013693  1
  Sm3+  Sm60  1  0.23441630  0.62956417  0.56558245  1
  Sm3+  Sm61  1  0.61803201  0.50292885  0.94628907  1
  Sm3+  Sm62  1  0.74077950  0.12591049  0.05615663  1
  Sm3+  Sm63  1  0.72998134  0.62557290  0.54576125  1
  Bi2+  Bi64  1  0.00563377  0.11740062  0.30196650  1
  Bi2+  Bi65  1  -0.00460080  0.11471276  0.79296993  1
  Bi2+  Bi66  1  0.06564002  0.38506229  0.27199755  1
  Bi2+  Bi67  1  -0.00046516  0.38574035  0.78669565  1
  Bi2+  Bi68  1  0.02817820  0.58971404  0.30031809  1
  Bi2+  Bi69  1  -0.06689758  0.65654486  0.81831904  1
  Bi2+  Bi70  1  -0.00562213  0.92564612  0.33823056  1
  Bi2+  Bi71  1  -0.00082097  0.84558507  0.79229049  1
  Bi2+  Bi72  1  0.19507184  0.16078330  0.28013104  1
  Bi2+  Bi73  1  0.25828077  0.04556807  0.79316813  1
  Bi2+  Bi74  1  0.25401444  0.39890168  0.30631605  1
  Bi2+  Bi75  1  0.26637228  0.29939237  0.79404386  1
  Bi2+  Bi76  1  0.31458001  0.59128669  0.27943168  1
  Bi2+  Bi77  1  0.19859974  0.63978372  0.77164858  1
  Bi2+  Bi78  1  0.20731553  0.87863769  0.29423607  1
  Bi2+  Bi79  1  0.25316710  0.82643266  0.78879538  1
  Bi2+  Bi80  1  0.48474368  0.16273557  0.26864186  1
  Bi2+  Bi81  1  0.59333399  0.10326835  0.76814827  1
  Bi2+  Bi82  1  0.49357295  0.40938690  0.29193747  1
  Bi2+  Bi83  1  0.51943236  0.36846095  0.78954128  1
  Bi2+  Bi84  1  0.57814628  0.68999338  0.30704556  1
  Bi2+  Bi85  1  0.49383042  0.62936326  0.79329179  1
  Bi2+  Bi86  1  0.52010578  0.92605513  0.28685129  1
  Bi2+  Bi87  1  0.49655490  0.83208349  0.77717837  1
  Bi2+  Bi88  1  0.78862841  0.11883705  0.28959327  1
  Bi2+  Bi89  1  0.74955902  0.19448978  0.80671466  1
  Bi2+  Bi90  1  0.81030913  0.41305448  0.25751665  1
  Bi2+  Bi91  1  0.73798478  0.38842323  0.79197502  1
  Bi2+  Bi92  1  0.74163895  0.58236106  0.30260429  1
  Bi2+  Bi93  1  0.75128686  0.58334727  0.81134518  1
  Bi2+  Bi94  1  0.82760355  0.84108284  0.30910288  1
  Bi2+  Bi95  1  0.72077046  0.85854238  0.80296857  1
  Bi2+  Bi96  1  0.11193574  -0.06950507  0.19565662  1
  Bi2+  Bi97  1  0.13339342  -0.09812953  0.71008772  1
  Bi2+  Bi98  1  0.16147831  0.21239305  0.17639749  1
  Bi2+  Bi99  1  0.14788039  0.24861921  0.71221902  1
  Bi2+  Bi100  1  0.14829585  0.50441823  0.19540667  1
  Bi2+  Bi101  1  0.09063075  0.51078405  0.71137508  1
  Bi2+  Bi102  1  0.11433707  0.73958471  0.23485167  1
  Bi2+  Bi103  1  0.07526754  0.71561648  0.69062194  1
  Bi2+  Bi104  1  0.35229816  -0.00583234  0.19488922  1
  Bi2+  Bi105  1  0.43880335  -0.06171210  0.69363280  1
  Bi2+  Bi106  1  0.32207061  0.29025060  0.22395121  1
  Bi2+  Bi107  1  0.38532422  0.19775310  0.70161697  1
  Bi2+  Bi108  1  0.41240378  0.50175583  0.19464001  1
  Bi2+  Bi109  1  0.34970828  0.48366813  0.71240626  1
  Bi2+  Bi110  1  0.40456076  0.76244826  0.27018388  1
  Bi2+  Bi111  1  0.36794495  0.71530432  0.71760885  1
  Bi2+  Bi112  1  0.64130688  0.01151129  0.19181908  1
  Bi2+  Bi113  1  0.67625112  -0.03633883  0.70856461  1
  Bi2+  Bi114  1  0.66523870  0.26015110  0.19258434  1
  Bi2+  Bi115  1  0.70247387  0.23135526  0.69666011  1
  Bi2+  Bi116  1  0.66206356  0.50466834  0.19442841  1
  Bi2+  Bi117  1  0.63296938  0.51093561  0.70214524  1
  Bi2+  Bi118  1  0.70569769  0.76254002  0.23125300  1
  Bi2+  Bi119  1  0.67004761  0.71047569  0.73099705  1
  Bi2+  Bi120  1  0.91808729  -0.02553764  0.23159167  1
  Bi2+  Bi121  1  0.86530856  -0.01337547  0.70947161  1
  Bi2+  Bi122  1  0.93054742  0.26114951  0.23363191  1
  Bi2+  Bi123  1  0.87332740  0.32851346  0.70724918  1
  Bi2+  Bi124  1  0.90349789  0.57490524  0.21367516  1
  Bi2+  Bi125  1  0.85660648  0.52678993  0.71696976  1
  Bi2+  Bi126  1  0.92703872  0.77703222  0.21048980  1
  Bi2+  Bi127  1  0.88426451  0.74614323  0.71757680  1
  S2-  S128  1  -0.00505142  0.23382581  0.13848137  1
  S2-  S129  1  -0.00292813  0.18890624  0.69443647  1
  S2-  S130  1  -0.00543431  0.48605647  0.14609882  1
  S2-  S131  1  0.10587611  0.37228746  0.64790613  1
  S2-  S132  1  0.12928714  0.64547366  0.14547571  1
  S2-  S133  1  -0.04038471  0.52619041  0.63733082  1
  S2-  S134  1  -0.01608862  1.00639608  0.13563098  1
  S2-  S135  1  0.00665546  0.98580341  0.65386871  1
  S2-  S136  1  0.33784934  0.11885372  0.13330263  1
  S2-  S137  1  0.23032460  0.12433849  0.66724095  1
  S2-  S138  1  0.18583416  0.36892467  0.13302193  1
  S2-  S139  1  0.33934133  0.35041443  0.65434606  1
  S2-  S140  1  0.34737339  0.62621866  0.14484921  1
  S2-  S141  1  0.23890134  0.53737088  0.64813800  1
  S2-  S142  1  0.26277135  0.87672841  0.14875211  1
  S2-  S143  1  0.29052464  0.89232644  0.65689209  1
  S2-  S144  1  0.54001902  0.15157796  0.16453606  1
  S2-  S145  1  0.47782004  0.09227669  0.64830985  1
  S2-  S146  1  0.54209172  0.37747760  0.16204353  1
  S2-  S147  1  0.51323873  0.29619499  0.69764918  1
  S2-  S148  1  0.54779484  0.61145633  0.17163075  1
  S2-  S149  1  0.48343201  0.53111412  0.64889658  1
  S2-  S150  1  0.49574988  0.92625011  0.15335554  1
  S2-  S151  1  0.59312535  0.87267315  0.63903952  1
  S2-  S152  1  0.75454604  0.12377928  0.15463303  1
  S2-  S153  1  0.80421058  0.11630652  0.64512555  1
  S2-  S154  1  0.77503415  0.37629253  0.15172214  1
  S2-  S155  1  0.67135978  0.38985218  0.64101672  1
  S2-  S156  1  0.76085932  0.63876941  0.15970059  1
  S2-  S157  1  0.71105737  0.63061079  0.64349993  1
  S2-  S158  1  0.73604067  0.89121600  0.15964320  1
  S2-  S159  1  0.84200313  0.85876523  0.64194978  1
  S2-  S160  1  0.19911416  0.00861217  0.35682118  1
  S2-  S161  1  0.07237576  -0.02096858  0.84304352  1
  S2-  S162  1  0.21451301  0.25370258  0.36652707  1
  S2-  S163  1  0.15573911  0.16771722  0.82459126  1
  S2-  S164  1  0.23305938  0.53673310  0.36622565  1
  S2-  S165  1  0.14046489  0.39259040  0.84285140  1
  S2-  S166  1  0.09728716  0.77788354  0.35295835  1
  S2-  S167  1  0.10985146  0.65686724  0.86072405  1
  S2-  S168  1  0.38143115  0.03403143  0.29645244  1
  S2-  S169  1  0.37163949  -0.08031138  0.83503555  1
  S2-  S170  1  0.43895920  0.25978877  0.34481146  1
  S2-  S171  1  0.36117476  0.12764284  0.84627643  1
  S2-  S172  1  0.46147538  0.52704566  0.35402511  1
  S2-  S173  1  0.35499342  0.43314659  0.81559959  1
  S2-  S174  1  0.35351036  0.82878586  0.35949646  1
  S2-  S175  1  0.36989903  0.65901594  0.85745341  1
  S2-  S176  1  0.55895669  0.07049205  0.34185625  1
  S2-  S177  1  0.61974864  -0.00702336  0.84351026  1
  S2-  S178  1  0.65870782  0.22351606  0.29162430  1
  S2-  S179  1  0.52215391  0.25881925  0.85841740  1
  S2-  S180  1  0.62841782  0.40356793  0.34291380  1
  S2-  S181  1  0.54259764  0.50298840  0.85851088  1
  S2-  S182  1  0.60506050  0.85127375  0.35781469  1
  S2-  S183  1  0.60009341  0.74949036  0.85082136  1
  S2-  S184  1  0.76315554  -0.00001377  0.35458419  1
  S2-  S185  1  0.85698200  0.06456086  0.83327441  1
  S2-  S186  1  0.88251201  0.22873994  0.35002024  1
  S2-  S187  1  0.96356067  0.25300836  0.85306724  1
  S2-  S188  1  1.00095375  0.45695299  0.36206089  1
  S2-  S189  1  0.95609694  0.49943436  0.86131074  1
  S2-  S190  1  0.88059265  0.64100857  0.35355287  1
  S2-  S191  1  0.85954267  0.85038080  0.86232232  1
  S2-  S192  1  -0.01637180  0.12892657  0.45643254  1
  S2-  S193  1  -0.01227030  0.12275951  0.95179580  1
  S2-  S194  1  -0.01449832  0.37640469  0.46728748  1
  S2-  S195  1  -0.01119838  0.37339123  0.95893340  1
  S2-  S196  1  -0.01047160  0.63141851  0.45766617  1
  S2-  S197  1  -0.01229345  0.62986113  0.96747749  1
  S2-  S198  1  -0.01897426  0.87822550  0.46468718  1
  S2-  S199  1  -0.00524933  0.87572100  0.96012794  1
  S2-  S200  1  0.23791453  0.12282569  0.46124162  1
  S2-  S201  1  0.23818676  0.13082574  0.94689206  1
  S2-  S202  1  0.23116677  0.38236448  0.46628044  1
  S2-  S203  1  0.25298330  0.38088332  0.93894291  1
  S2-  S204  1  0.23622970  0.63889363  0.46410768  1
  S2-  S205  1  0.24500290  0.62416768  0.95663045  1
  S2-  S206  1  0.23623148  0.88134044  0.46164335  1
  S2-  S207  1  0.23935517  0.87459628  0.94465594  1
  S2-  S208  1  0.47388138  0.12511725  0.44576156  1
  S2-  S209  1  0.49447750  0.12595349  0.95854895  1
  S2-  S210  1  0.48121928  0.37376148  0.44685761  1
  S2-  S211  1  0.49366272  0.38096809  0.95847974  1
  S2-  S212  1  0.47961687  0.63522231  0.45704426  1
  S2-  S213  1  0.49383030  0.62478535  0.96491068  1
  S2-  S214  1  0.47886450  0.88499780  0.45762699  1
  S2-  S215  1  0.49152509  0.87801191  0.95151925  1
  S2-  S216  1  0.72630149  0.14096961  0.44966103  1
  S2-  S217  1  0.74269452  0.12666985  0.95038762  1
  S2-  S218  1  0.73823759  0.38109193  0.44318617  1
  S2-  S219  1  0.74232352  0.37650342  0.94894710  1
  S2-  S220  1  0.72794648  0.62745564  0.44326828  1
  S2-  S221  1  0.74289195  0.62726952  0.95491221  1
  S2-  S222  1  0.73732457  0.87302273  0.46088309  1
  S2-  S223  1  0.73837837  0.87661095  0.95885066  1
  S2-  S224  1  0.11970162  0.00389807  0.04198545  1
  S2-  S225  1  0.10985007  0.00540479  0.55140320  1
  S2-  S226  1  0.11929848  0.24819988  0.02840074  1
  S2-  S227  1  0.10067111  0.24564139  0.55520996  1
  S2-  S228  1  0.11779810  0.50022054  0.03466354  1
  S2-  S229  1  0.10867049  0.51282358  0.54394742  1
  S2-  S230  1  0.11274099  0.76030332  0.04813595  1
  S2-  S231  1  0.10868378  0.75549172  0.55622217  1
  S2-  S232  1  0.36473842  0.00168837  0.03370002  1
  S2-  S233  1  0.35601236  0.00355629  0.55028849  1
  S2-  S234  1  0.36691625  0.25427116  0.03591668  1
  S2-  S235  1  0.35939675  0.25684447  0.54587385  1
  S2-  S236  1  0.36455198  0.49467670  0.04490274  1
  S2-  S237  1  0.35914574  0.50634353  0.54458679  1
  S2-  S238  1  0.36573607  0.75562331  0.04482589  1
  S2-  S239  1  0.35961796  0.75427701  0.55528397  1
  S2-  S240  1  0.61671746  0.00324259  0.04798992  1
  S2-  S241  1  0.60906761  0.00729092  0.53941607  1
  S2-  S242  1  0.61750516  0.24965579  0.04660855  1
  S2-  S243  1  0.60365796  0.25530194  0.55152577  1
  S2-  S244  1  0.61731575  0.49936923  0.05011723  1
  S2-  S245  1  0.60465574  0.50339822  0.53452396  1
  S2-  S246  1  0.61484653  0.75491946  0.05728011  1
  S2-  S247  1  0.60500659  0.74964049  0.54195457  1
  S2-  S248  1  0.86050369  0.00022351  0.03824310  1
  S2-  S249  1  0.85472238  0.00597498  0.54431916  1
  S2-  S250  1  0.86143192  0.24983198  0.04053015  1
  S2-  S251  1  0.85904664  0.25913079  0.55269522  1
  S2-  S252  1  0.86318609  0.49878419  0.04914250  1
  S2-  S253  1  0.85453763  0.50677603  0.53459671  1
  S2-  S254  1  0.86810202  0.75734518  0.05359238  1
  S2-  S255  1  0.85547865  0.74612717  0.54076157  1
