# generated using pymatgen
data_La12Ce14Pr13Nd13Sm12(BiS2)64
_symmetry_space_group_name_H-M   'P 1'
_cell_length_a   16.13242864
_cell_length_b   16.11185379
_cell_length_c   27.19612609
_cell_angle_alpha   89.92594572
_cell_angle_beta   89.87744520
_cell_angle_gamma   90.09609396
_symmetry_Int_Tables_number   1
_chemical_formula_structural   La12Ce14Pr13Nd13Sm12(BiS2)64
_chemical_formula_sum   'La12 Ce14 Pr13 Nd13 Sm12 Bi64 S128'
_cell_volume   7068.87564754
_cell_formula_units_Z   1
loop_
 _symmetry_equiv_pos_site_id
 _symmetry_equiv_pos_as_xyz
  1  'x, y, z'
loop_
 _atom_type_symbol
 _atom_type_oxidation_number
  La3+  3.0
  Ce3+  3.0
  Pr3+  3.0
  Nd3+  3.0
  Sm3+  3.0
  Bi2+  2.0
  S2-  -2.0
loop_
 _atom_site_type_symbol
 _atom_site_label
 _atom_site_symmetry_multiplicity
 _atom_site_fract_x
 _atom_site_fract_y
 _atom_site_fract_z
 _atom_site_occupancy
  La3+  La0  1  0.38686434  0.52056813  0.90236084  1
  La3+  La1  1  -0.00952460  0.39796954  0.09613718  1
  La3+  La2  1  0.87115758  0.01720421  0.91733686  1
  La3+  La3  1  0.39269563  0.25625821  0.39653629  1
  La3+  La4  1  0.51524338  0.37292685  0.56867568  1
  La3+  La5  1  0.38915945  -0.00275053  0.42364761  1
  La3+  La6  1  0.87353579  0.51599239  0.93873668  1
  La3+  La7  1  0.61200379  0.76964229  0.92307275  1
  La3+  La8  1  0.88247302  0.50757260  0.41688069  1
  La3+  La9  1  0.49575675  0.39815647  0.07990067  1
  La3+  La10  1  0.49748061  0.64745858  0.06698381  1
  La3+  La11  1  0.24444808  0.64109982  0.05455293  1
  Ce3+  Ce12  1  0.39076092  0.74566658  0.44001958  1
  Ce3+  Ce13  1  0.36887627  0.76901620  0.93736632  1
  Ce3+  Ce14  1  0.61838205  0.27010766  0.95039806  1
  Ce3+  Ce15  1  0.14094283  0.50224783  0.43419883  1
  Ce3+  Ce16  1  0.01266286  0.12516014  0.55164938  1
  Ce3+  Ce17  1  0.36584954  0.01923289  0.94928197  1
  Ce3+  Ce18  1  0.75021933  0.14019437  0.06637310  1
  Ce3+  Ce19  1  0.24645619  0.39563892  0.06511944  1
  Ce3+  Ce20  1  0.88453259  0.25010273  0.43927629  1
  Ce3+  Ce21  1  0.63657319  0.25239139  0.43313939  1
  Ce3+  Ce22  1  0.76206221  0.62947500  0.56262554  1
  Ce3+  Ce23  1  0.75831341  0.37543952  0.55928726  1
  Ce3+  Ce24  1  0.50883251  0.12647512  0.54875147  1
  Ce3+  Ce25  1  0.26194247  0.13362935  0.54978804  1
  Pr3+  Pr26  1  0.12439408  0.02286612  0.93431282  1
  Pr3+  Pr27  1  0.37095146  0.27029782  0.95249021  1
  Pr3+  Pr28  1  0.23762382  0.14093724  0.08394105  1
  Pr3+  Pr29  1  -0.00745170  0.89100562  0.06242838  1
  Pr3+  Pr30  1  0.88570703  -0.00409699  0.43130391  1
  Pr3+  Pr31  1  0.13779425  0.74779387  0.43953523  1
  Pr3+  Pr32  1  0.01119814  0.62681657  0.56153597  1
  Pr3+  Pr33  1  0.26358126  0.36991173  0.57115206  1
  Pr3+  Pr34  1  0.26398294  0.87704737  0.56532901  1
  Pr3+  Pr35  1  0.87953222  0.76679688  0.92482060  1
  Pr3+  Pr36  1  0.88539481  0.75667534  0.44048580  1
  Pr3+  Pr37  1  0.01134400  0.88752551  0.58149985  1
  Pr3+  Pr38  1  0.13743721  0.25855709  0.42243945  1
  Nd3+  Nd39  1  0.01050568  0.37656914  0.55210344  1
  Nd3+  Nd40  1  0.12201568  0.76774847  0.93488414  1
  Nd3+  Nd41  1  0.38871252  0.50233395  0.43870754  1
  Nd3+  Nd42  1  0.12330427  0.26991779  0.95378525  1
  Nd3+  Nd43  1  0.62256639  0.01750548  0.93382101  1
  Nd3+  Nd44  1  -0.00818704  0.13949846  0.06691015  1
  Nd3+  Nd45  1  0.50195974  0.62885834  0.57453790  1
  Nd3+  Nd46  1  0.13854745  0.00382351  0.43405856  1
  Nd3+  Nd47  1  0.12052061  0.51372319  0.93809280  1
  Nd3+  Nd48  1  -0.00734814  0.64470218  0.06773965  1
  Nd3+  Nd49  1  0.75936376  0.88574515  0.58149597  1
  Nd3+  Nd50  1  0.87141042  0.26652991  0.94626816  1
  Nd3+  Nd51  1  0.63277489  0.50276888  0.44334897  1
  Sm3+  Sm52  1  0.74656226  0.89280199  0.04872025  1
  Sm3+  Sm53  1  0.49660140  0.89189776  0.06540686  1
  Sm3+  Sm54  1  0.63585897  0.75256262  0.45249892  1
  Sm3+  Sm55  1  0.25865928  0.61761547  0.56815216  1
  Sm3+  Sm56  1  0.50833924  0.87976710  0.56956090  1
  Sm3+  Sm57  1  0.61999199  0.51697275  0.94711852  1
  Sm3+  Sm58  1  0.74861070  0.39507900  0.06464151  1
  Sm3+  Sm59  1  0.74844804  0.64749757  0.05127348  1
  Sm3+  Sm60  1  0.63537222  -0.00165118  0.43839823  1
  Sm3+  Sm61  1  0.49708446  0.14136184  0.06155174  1
  Sm3+  Sm62  1  0.24381453  0.89308516  0.06051879  1
  Sm3+  Sm63  1  0.76156444  0.12203373  0.55458508  1
  Bi2+  Bi64  1  -0.04155556  0.02894836  0.30137408  1
  Bi2+  Bi65  1  -0.03267009  0.14519215  0.77761871  1
  Bi2+  Bi66  1  0.01104834  0.33234758  0.29768325  1
  Bi2+  Bi67  1  0.02866155  0.37928988  0.81402359  1
  Bi2+  Bi68  1  0.00213802  0.60293586  0.29456468  1
  Bi2+  Bi69  1  -0.01772975  0.62912593  0.77780972  1
  Bi2+  Bi70  1  0.02506842  0.83765582  0.29846958  1
  Bi2+  Bi71  1  0.04552125  0.88245676  0.80597173  1
  Bi2+  Bi72  1  0.23545773  0.10113178  0.28791226  1
  Bi2+  Bi73  1  0.21127675  0.13251127  0.78549181  1
  Bi2+  Bi74  1  0.26860222  0.42346196  0.28656639  1
  Bi2+  Bi75  1  0.25253642  0.36538843  0.79954260  1
  Bi2+  Bi76  1  0.26040283  0.66771911  0.29345071  1
  Bi2+  Bi77  1  0.24621724  0.70076157  0.73136168  1
  Bi2+  Bi78  1  0.30073737  0.86509574  0.27967548  1
  Bi2+  Bi79  1  0.23457542  0.82487895  0.81977167  1
  Bi2+  Bi80  1  0.50854279  0.06755526  0.27797727  1
  Bi2+  Bi81  1  0.47781481  0.11683384  0.77945845  1
  Bi2+  Bi82  1  0.53759006  0.38989024  0.28368598  1
  Bi2+  Bi83  1  0.50986646  0.36972547  0.80342581  1
  Bi2+  Bi84  1  0.53225824  0.60299808  0.30597147  1
  Bi2+  Bi85  1  0.52266337  0.65223971  0.78884481  1
  Bi2+  Bi86  1  0.48781428  0.81991025  0.30836252  1
  Bi2+  Bi87  1  0.39785729  0.94756396  0.82307590  1
  Bi2+  Bi88  1  0.71121476  0.17294183  0.31213411  1
  Bi2+  Bi89  1  0.74971928  0.12441482  0.73433778  1
  Bi2+  Bi90  1  0.68832553  0.37479388  0.20894489  1
  Bi2+  Bi91  1  0.76515808  0.33689473  0.79509059  1
  Bi2+  Bi92  1  0.75345742  0.69188498  0.28397360  1
  Bi2+  Bi93  1  0.77814832  0.60984035  0.76670530  1
  Bi2+  Bi94  1  0.76351524  0.98205412  0.31113211  1
  Bi2+  Bi95  1  0.70441514  0.90880329  0.80353498  1
  Bi2+  Bi96  1  0.06327251  -0.03178150  0.20721190  1
  Bi2+  Bi97  1  0.16819349  -0.03569848  0.73241707  1
  Bi2+  Bi98  1  0.15570631  0.24003671  0.20763992  1
  Bi2+  Bi99  1  0.10366333  0.22614213  0.70692410  1
  Bi2+  Bi100  1  0.13587689  0.53617633  0.22457226  1
  Bi2+  Bi101  1  0.11344896  0.47678437  0.71082192  1
  Bi2+  Bi102  1  0.13343518  0.77842752  0.20799913  1
  Bi2+  Bi103  1  0.06531341  0.74626156  0.69912684  1
  Bi2+  Bi104  1  0.44734063  -0.07146216  0.20541341  1
  Bi2+  Bi105  1  0.33746069  0.04488490  0.69551109  1
  Bi2+  Bi106  1  0.39318699  0.23657148  0.20448724  1
  Bi2+  Bi107  1  0.36355524  0.23818385  0.71015185  1
  Bi2+  Bi108  1  0.36278881  0.50553598  0.20201851  1
  Bi2+  Bi109  1  0.38351929  0.51596047  0.69778968  1
  Bi2+  Bi110  1  0.39866137  0.72175485  0.21737639  1
  Bi2+  Bi111  1  0.40598035  0.81859957  0.73635219  1
  Bi2+  Bi112  1  0.65075919  -0.01500847  0.21129973  1
  Bi2+  Bi113  1  0.53584679  -0.02822323  0.70986146  1
  Bi2+  Bi114  1  0.68592645  0.17965501  0.19600937  1
  Bi2+  Bi115  1  0.59436745  0.23629245  0.71030606  1
  Bi2+  Bi116  1  0.64264892  0.57620800  0.21045649  1
  Bi2+  Bi117  1  0.64964930  0.45314649  0.72600603  1
  Bi2+  Bi118  1  0.63712113  0.78863487  0.21214396  1
  Bi2+  Bi119  1  0.63332883  0.72043066  0.70425263  1
  Bi2+  Bi120  1  0.86814490  -0.03507276  0.19200315  1
  Bi2+  Bi121  1  0.90272251  -0.00029489  0.70723625  1
  Bi2+  Bi122  1  0.86983668  0.17630041  0.24058538  1
  Bi2+  Bi123  1  0.87713358  0.25709725  0.69733804  1
  Bi2+  Bi124  1  0.87245553  0.52081496  0.21335362  1
  Bi2+  Bi125  1  0.84378480  0.44620758  0.70932659  1
  Bi2+  Bi126  1  0.89094853  0.77371076  0.21968348  1
  Bi2+  Bi127  1  0.87087699  0.78579142  0.74795500  1
  S2-  S128  1  0.09074142  0.11874534  0.14967111  1
  S2-  S129  1  0.01397913  0.04595603  0.63884642  1
  S2-  S130  1  0.02863160  0.33194688  0.19272412  1
  S2-  S131  1  0.04229713  0.35388639  0.65042084  1
  S2-  S132  1  0.00076601  0.54591026  0.15287709  1
  S2-  S133  1  0.01689071  0.58645438  0.66056446  1
  S2-  S134  1  -0.00539178  0.77005538  0.13832425  1
  S2-  S135  1  -0.11685778  0.85331422  0.65245345  1
  S2-  S136  1  0.28151846  0.11185613  0.18322350  1
  S2-  S137  1  0.23744208  0.22642640  0.63597033  1
  S2-  S138  1  0.27337894  0.35594425  0.16093671  1
  S2-  S139  1  0.23236763  0.49144839  0.64569831  1
  S2-  S140  1  0.23805829  0.59943240  0.15302219  1
  S2-  S141  1  0.35205598  0.66221273  0.64819440  1
  S2-  S142  1  0.24566161  0.86420383  0.15699290  1
  S2-  S143  1  0.15133774  0.86843644  0.64547012  1
  S2-  S144  1  0.49053865  0.13279318  0.15971297  1
  S2-  S145  1  0.53401532  0.11682981  0.64598037  1
  S2-  S146  1  0.51401532  0.34044694  0.17741271  1
  S2-  S147  1  0.40854775  0.36991445  0.65105771  1
  S2-  S148  1  0.49529434  0.54149448  0.14904436  1
  S2-  S149  1  0.54205774  0.58005988  0.67009635  1
  S2-  S150  1  0.50935278  0.77646485  0.13965651  1
  S2-  S151  1  0.38589039  0.89480542  0.64168436  1
  S2-  S152  1  0.86614429  0.12825538  0.14037656  1
  S2-  S153  1  0.76712610  0.04120330  0.64201333  1
  S2-  S154  1  0.83420067  0.39142092  0.15095724  1
  S2-  S155  1  0.65314814  0.35842979  0.63935569  1
  S2-  S156  1  0.77350950  0.61711850  0.14774781  1
  S2-  S157  1  0.76590061  0.64888484  0.66046145  1
  S2-  S158  1  0.76166061  0.84676833  0.14382029  1
  S2-  S159  1  0.62423216  0.87151676  0.64877504  1
  S2-  S160  1  0.20933465  -0.03427682  0.34507649  1
  S2-  S161  1  0.01200295  0.03461088  0.85464320  1
  S2-  S162  1  0.10610005  0.18576313  0.32865611  1
  S2-  S163  1  0.14323795  0.25587188  0.85462289  1
  S2-  S164  1  0.13463247  0.39768193  0.35361677  1
  S2-  S165  1  0.15571905  0.49122267  0.84009377  1
  S2-  S166  1  0.13764001  0.62766939  0.36281028  1
  S2-  S167  1  0.01838993  0.72808494  0.85735546  1
  S2-  S168  1  0.38302767  0.10161537  0.34130520  1
  S2-  S169  1  0.26544835  0.04777153  0.86976855  1
  S2-  S170  1  0.30539468  0.26482379  0.29981035  1
  S2-  S171  1  0.38341487  0.29619174  0.85270850  1
  S2-  S172  1  0.40769185  0.41775024  0.34992097  1
  S2-  S173  1  0.36013068  0.48696872  0.79903800  1
  S2-  S174  1  0.38855244  0.63122986  0.36414150  1
  S2-  S175  1  0.40688693  0.68390910  0.85481913  1
  S2-  S176  1  0.53704754  -0.03343503  0.35853502  1
  S2-  S177  1  0.56848133  -0.08849888  0.85790444  1
  S2-  S178  1  0.55462624  0.25703279  0.34486540  1
  S2-  S179  1  0.62438662  0.27798833  0.85221846  1
  S2-  S180  1  0.64613147  0.49016880  0.34306441  1
  S2-  S181  1  0.55407525  0.51671921  0.85611403  1
  S2-  S182  1  0.62739164  0.73745214  0.35355295  1
  S2-  S183  1  0.66164414  0.73395343  0.82538732  1
  S2-  S184  1  0.87638991  -0.13001763  0.35985520  1
  S2-  S185  1  0.73333550  0.04768064  0.85138669  1
  S2-  S186  1  0.87004026  0.25000211  0.34116348  1
  S2-  S187  1  0.89642844  0.26654338  0.84689929  1
  S2-  S188  1  0.90259332  0.45753299  0.31554611  1
  S2-  S189  1  0.93649517  0.49900077  0.84539153  1
  S2-  S190  1  0.87649108  0.65160477  0.35680273  1
  S2-  S191  1  0.85649384  0.87351102  0.84381115  1
  S2-  S192  1  0.00959792  0.12465069  0.44546119  1
  S2-  S193  1  -0.00277448  0.14621505  0.95978762  1
  S2-  S194  1  0.00213099  0.38045535  0.44729691  1
  S2-  S195  1  -0.00337474  0.39000091  0.95776331  1
  S2-  S196  1  0.00672377  0.62578610  0.45680834  1
  S2-  S197  1  -0.00090822  0.63876302  0.96064591  1
  S2-  S198  1  0.01953503  0.87728765  0.45547002  1
  S2-  S199  1  -0.00050006  0.89307066  0.95433148  1
  S2-  S200  1  0.26250901  0.13263194  0.44347197  1
  S2-  S201  1  0.24602244  0.14760355  0.97472161  1
  S2-  S202  1  0.26792603  0.37527348  0.45216452  1
  S2-  S203  1  0.25061971  0.39789539  0.95703388  1
  S2-  S204  1  0.26438821  0.62603755  0.46419000  1
  S2-  S205  1  0.24745589  0.63834304  0.94543246  1
  S2-  S206  1  0.26421493  0.87117650  0.45360871  1
  S2-  S207  1  0.24439333  0.89131802  0.95613364  1
  S2-  S208  1  0.51415235  0.12713208  0.44547370  1
  S2-  S209  1  0.49545087  0.14023561  0.95481155  1
  S2-  S210  1  0.51455718  0.37484624  0.45713752  1
  S2-  S211  1  0.49548194  0.39730325  0.96409350  1
  S2-  S212  1  0.51488043  0.62735103  0.46548093  1
  S2-  S213  1  0.49691332  0.63985237  0.95919037  1
  S2-  S214  1  0.51176744  0.87211782  0.46346927  1
  S2-  S215  1  0.48969390  0.89424134  0.96357419  1
  S2-  S216  1  0.76038000  0.12174479  0.44958765  1
  S2-  S217  1  0.74438331  0.14521047  0.95960072  1
  S2-  S218  1  0.76192676  0.37920338  0.45020527  1
  S2-  S219  1  0.74482699  0.39328713  0.95685785  1
  S2-  S220  1  0.75770377  0.62715008  0.45694460  1
  S2-  S221  1  0.74533289  0.64222974  0.94372969  1
  S2-  S222  1  0.75426714  0.87737939  0.46272753  1
  S2-  S223  1  0.74341966  0.88864717  0.94705378  1
  S2-  S224  1  0.12050796  0.01272896  0.04518495  1
  S2-  S225  1  0.14158696  0.00450190  0.53957766  1
  S2-  S226  1  0.11551314  0.27355405  0.05966356  1
  S2-  S227  1  0.13142476  0.25271253  0.53131075  1
  S2-  S228  1  0.11753006  0.51430312  0.04665655  1
  S2-  S229  1  0.13379509  0.49888373  0.54043593  1
  S2-  S230  1  0.12298224  0.76927563  0.04147558  1
  S2-  S231  1  0.13902902  0.74642238  0.54685514  1
  S2-  S232  1  0.37173225  0.01570856  0.05738258  1
  S2-  S233  1  0.38399348  0.00564945  0.53580075  1
  S2-  S234  1  0.37322765  0.26421553  0.05871975  1
  S2-  S235  1  0.38933194  0.25065112  0.54263007  1
  S2-  S236  1  0.37001128  0.51669649  0.05009107  1
  S2-  S237  1  0.38732807  0.50104341  0.54680873  1
  S2-  S238  1  0.36708975  0.77137470  0.04537026  1
  S2-  S239  1  0.38802903  0.75320185  0.54386106  1
  S2-  S240  1  0.62046032  0.01568346  0.04999680  1
  S2-  S241  1  0.63371539  0.00112894  0.54205883  1
  S2-  S242  1  0.62284859  0.26808417  0.05716599  1
  S2-  S243  1  0.64085550  0.24475481  0.53886856  1
  S2-  S244  1  0.62873549  0.51869939  0.05059930  1
  S2-  S245  1  0.63639113  0.50737174  0.54992449  1
  S2-  S246  1  0.62541607  0.76952962  0.03626317  1
  S2-  S247  1  0.63311996  0.74985451  0.55488824  1
  S2-  S248  1  0.87005295  0.01295543  0.03556708  1
  S2-  S249  1  0.88655290  0.00036028  0.53816612  1
  S2-  S250  1  0.87229858  0.27236379  0.05034502  1
  S2-  S251  1  0.88392710  0.24878454  0.54700065  1
  S2-  S252  1  0.86913819  0.51865865  0.04520671  1
  S2-  S253  1  0.88372738  0.50016889  0.54862041  1
  S2-  S254  1  0.86827433  0.76824115  0.03354798  1
  S2-  S255  1  0.88826033  0.75416037  0.54814306  1
