# generated using pymatgen
data_La12Ce14Pr13Nd13Sm12(BiS2)64
_symmetry_space_group_name_H-M   'P 1'
_cell_length_a   16.10511839
_cell_length_b   16.13075319
_cell_length_c   27.27843704
_cell_angle_alpha   89.95366822
_cell_angle_beta   89.70619880
_cell_angle_gamma   89.94240291
_symmetry_Int_Tables_number   1
_chemical_formula_structural   La12Ce14Pr13Nd13Sm12(BiS2)64
_chemical_formula_sum   'La12 Ce14 Pr13 Nd13 Sm12 Bi64 S128'
_cell_volume   7086.50310323
_cell_formula_units_Z   1
loop_
 _symmetry_equiv_pos_site_id
 _symmetry_equiv_pos_as_xyz
  1  'x, y, z'
loop_
 _atom_type_symbol
 _atom_type_oxidation_number
  La3+  3.0
  Ce3+  3.0
  Pr3+  3.0
  Nd3+  3.0
  Sm3+  3.0
  Bi2+  2.0
  S2-  -2.0
loop_
 _atom_site_type_symbol
 _atom_site_label
 _atom_site_symmetry_multiplicity
 _atom_site_fract_x
 _atom_site_fract_y
 _atom_site_fract_z
 _atom_site_occupancy
  La3+  La0  1  0.50809683  0.64182864  0.08219302  1
  La3+  La1  1  0.63433136  0.50180064  0.41185645  1
  La3+  La2  1  0.00211921  0.13361321  0.08328655  1
  La3+  La3  1  0.88399607  0.01812297  0.92593703  1
  La3+  La4  1  0.74639347  0.61477447  0.57244951  1
  La3+  La5  1  -0.00880639  0.62102903  0.57627929  1
  La3+  La6  1  0.62629328  0.23810530  0.42181355  1
  La3+  La7  1  0.25501743  0.13645797  0.06677664  1
  La3+  La8  1  0.00142317  0.35961576  0.58507074  1
  La3+  La9  1  0.62383334  0.27192002  0.89321382  1
  La3+  La10  1  0.24858738  0.63654669  0.07390173  1
  La3+  La11  1  0.12881623  0.52082132  0.92898766  1
  Ce3+  Ce12  1  0.87351746  0.24812720  0.44320662  1
  Ce3+  Ce13  1  0.75537225  0.13915830  0.04448934  1
  Ce3+  Ce14  1  0.12158618  0.25050517  0.43777540  1
  Ce3+  Ce15  1  0.38508019  0.51415862  0.94818296  1
  Ce3+  Ce16  1  0.50105473  0.12284101  0.55836474  1
  Ce3+  Ce17  1  0.87554817  -0.00457815  0.44038713  1
  Ce3+  Ce18  1  0.37375342  -0.00396056  0.44263148  1
  Ce3+  Ce19  1  0.37555546  0.49870970  0.43644928  1
  Ce3+  Ce20  1  0.50591742  0.37151007  0.54611081  1
  Ce3+  Ce21  1  0.50007832  0.86985280  0.55485795  1
  Ce3+  Ce22  1  0.25257991  0.38842975  0.05340918  1
  Ce3+  Ce23  1  0.12915706  0.26294338  0.94485446  1
  Ce3+  Ce24  1  0.75580685  0.63802653  0.06603211  1
  Ce3+  Ce25  1  0.88261134  0.76070608  0.94376084  1
  Pr3+  Pr26  1  0.24963009  0.12330259  0.55566632  1
  Pr3+  Pr27  1  0.74345565  0.12110220  0.57021832  1
  Pr3+  Pr28  1  0.24347779  0.61886215  0.56783953  1
  Pr3+  Pr29  1  0.38509626  0.26367233  0.94358897  1
  Pr3+  Pr30  1  0.51297382  0.88860649  0.07593248  1
  Pr3+  Pr31  1  0.62937406  0.01033312  0.91908665  1
  Pr3+  Pr32  1  0.50909422  0.39036160  0.07547188  1
  Pr3+  Pr33  1  0.88199771  0.26968038  0.93323045  1
  Pr3+  Pr34  1  0.74462895  0.87601538  0.56956488  1
  Pr3+  Pr35  1  0.11990032  0.50097950  0.43808526  1
  Pr3+  Pr36  1  0.12934764  0.01545260  0.93167778  1
  Pr3+  Pr37  1  0.51133923  0.13781428  0.05747586  1
  Pr3+  Pr38  1  0.00373651  0.38462440  0.07028865  1
  Nd3+  Nd39  1  0.38319126  0.76313376  0.94822551  1
  Nd3+  Nd40  1  0.74021819  0.36775237  0.56983967  1
  Nd3+  Nd41  1  0.87741366  0.49185907  0.44225412  1
  Nd3+  Nd42  1  0.50270147  0.61840673  0.55809039  1
  Nd3+  Nd43  1  0.00301444  0.63116745  0.07561027  1
  Nd3+  Nd44  1  0.62939857  0.52060223  0.93707225  1
  Nd3+  Nd45  1  0.24920421  0.37343078  0.55967589  1
  Nd3+  Nd46  1  0.24792976  0.87125720  0.55780809  1
  Nd3+  Nd47  1  0.88004581  0.51769030  0.94187893  1
  Nd3+  Nd48  1  0.25391921  0.88970910  0.06100648  1
  Nd3+  Nd49  1  0.62892645  0.74770938  0.43475766  1
  Nd3+  Nd50  1  0.62903497  0.76292845  0.94060459  1
  Nd3+  Nd51  1  0.75656749  0.89201235  0.06115544  1
  Sm3+  Sm52  1  0.00472262  0.89028995  0.05810286  1
  Sm3+  Sm53  1  0.12508241  -0.00292720  0.44337034  1
  Sm3+  Sm54  1  0.13647362  0.76177893  0.94368044  1
  Sm3+  Sm55  1  0.12400802  0.74224292  0.44627024  1
  Sm3+  Sm56  1  0.37520176  0.24757553  0.44111062  1
  Sm3+  Sm57  1  0.38543465  0.01221516  0.94642462  1
  Sm3+  Sm58  1  0.62687315  -0.00644219  0.43531459  1
  Sm3+  Sm59  1  -0.00218315  0.12227472  0.55441252  1
  Sm3+  Sm60  1  0.37450649  0.74534927  0.44868277  1
  Sm3+  Sm61  1  0.75359766  0.38565038  0.05742832  1
  Sm3+  Sm62  1  0.87436853  0.74553468  0.44497991  1
  Sm3+  Sm63  1  -0.00232597  0.87266374  0.55463708  1
  Bi2+  Bi64  1  0.01460552  0.10403054  0.29729988  1
  Bi2+  Bi65  1  0.01351531  0.07087114  0.76674497  1
  Bi2+  Bi66  1  0.00023979  0.34206077  0.29511580  1
  Bi2+  Bi67  1  -0.00885109  0.34166060  0.80117329  1
  Bi2+  Bi68  1  -0.00405625  0.59248123  0.29154528  1
  Bi2+  Bi69  1  -0.00768631  0.59189664  0.80632205  1
  Bi2+  Bi70  1  -0.06279910  0.86620951  0.29086289  1
  Bi2+  Bi71  1  0.07519047  0.82647392  0.75961138  1
  Bi2+  Bi72  1  0.25078164  0.02776992  0.27382014  1
  Bi2+  Bi73  1  0.19636250  0.10519982  0.81451445  1
  Bi2+  Bi74  1  0.27810412  0.34001641  0.23679149  1
  Bi2+  Bi75  1  0.28838734  0.35949322  0.78178465  1
  Bi2+  Bi76  1  0.23674988  0.58053667  0.29748018  1
  Bi2+  Bi77  1  0.26186419  0.62795128  0.80449248  1
  Bi2+  Bi78  1  0.20862489  0.77570713  0.30173255  1
  Bi2+  Bi79  1  0.22720666  0.90941872  0.81207738  1
  Bi2+  Bi80  1  0.47507461  0.12019411  0.29560945  1
  Bi2+  Bi81  1  0.39068565  0.10930169  0.80416054  1
  Bi2+  Bi82  1  0.49957949  0.34375737  0.28515997  1
  Bi2+  Bi83  1  0.49128671  0.37731124  0.77887590  1
  Bi2+  Bi84  1  0.49275435  0.67964081  0.28889120  1
  Bi2+  Bi85  1  0.45958327  0.57939321  0.75759943  1
  Bi2+  Bi86  1  0.48176292  0.87324165  0.29456512  1
  Bi2+  Bi87  1  0.48499513  0.81089328  0.82382423  1
  Bi2+  Bi88  1  0.73820927  0.04312744  0.27845497  1
  Bi2+  Bi89  1  0.77057992  0.11309661  0.79478380  1
  Bi2+  Bi90  1  0.76009172  0.38703288  0.29399037  1
  Bi2+  Bi91  1  0.74304540  0.44384391  0.78274874  1
  Bi2+  Bi92  1  0.77548027  0.71813648  0.27956458  1
  Bi2+  Bi93  1  0.72682875  0.68810200  0.79004918  1
  Bi2+  Bi94  1  0.67047747  0.86979108  0.32376248  1
  Bi2+  Bi95  1  0.65641488  0.88631374  0.78889809  1
  Bi2+  Bi96  1  0.08785772  -0.04828203  0.22301110  1
  Bi2+  Bi97  1  0.16564867  -0.00925237  0.70880308  1
  Bi2+  Bi98  1  0.10871816  0.24898986  0.21298505  1
  Bi2+  Bi99  1  0.17296225  0.24970996  0.71677195  1
  Bi2+  Bi100  1  0.11292368  0.50927364  0.20794495  1
  Bi2+  Bi101  1  0.16442714  0.49704186  0.71524656  1
  Bi2+  Bi102  1  0.05724152  0.75255167  0.22507708  1
  Bi2+  Bi103  1  0.22856526  0.72976869  0.71209357  1
  Bi2+  Bi104  1  0.36124032  -0.03120720  0.18196555  1
  Bi2+  Bi105  1  0.38915217  -0.05253150  0.73633603  1
  Bi2+  Bi106  1  0.31459255  0.15964987  0.19651028  1
  Bi2+  Bi107  1  0.36938727  0.22883120  0.70582327  1
  Bi2+  Bi108  1  0.37810538  0.51520984  0.23041932  1
  Bi2+  Bi109  1  0.37561406  0.42956648  0.68592482  1
  Bi2+  Bi110  1  0.33633348  0.77714686  0.21290692  1
  Bi2+  Bi111  1  0.45267121  0.76102253  0.71529098  1
  Bi2+  Bi112  1  0.55922662  -0.00034000  0.21685646  1
  Bi2+  Bi113  1  0.55657316  0.04387706  0.74532021  1
  Bi2+  Bi114  1  0.66152947  0.23587439  0.18979317  1
  Bi2+  Bi115  1  0.62786289  0.25425055  0.70350035  1
  Bi2+  Bi116  1  0.63179451  0.48233717  0.19818616  1
  Bi2+  Bi117  1  0.62313791  0.50757781  0.70266163  1
  Bi2+  Bi118  1  0.62540130  0.77220700  0.20989196  1
  Bi2+  Bi119  1  0.67373268  0.78241687  0.69444588  1
  Bi2+  Bi120  1  0.84308433  -0.06085062  0.19779176  1
  Bi2+  Bi121  1  0.87909782  -0.02475204  0.70510076  1
  Bi2+  Bi122  1  0.88126917  0.14965184  0.22110874  1
  Bi2+  Bi123  1  0.89775799  0.23079026  0.71118660  1
  Bi2+  Bi124  1  0.85960298  0.57540742  0.21242301  1
  Bi2+  Bi125  1  0.89422633  0.53926764  0.70959281  1
  Bi2+  Bi126  1  0.87645262  0.75184765  0.16477911  1
  Bi2+  Bi127  1  0.89104473  0.78555694  0.72594089  1
  S2-  S128  1  -0.01982741  0.26776952  0.15005733  1
  S2-  S129  1  0.00685425  0.18417440  0.64517820  1
  S2-  S130  1  -0.02158626  0.49897949  0.14819716  1
  S2-  S131  1  -0.05251563  0.38029622  0.68575533  1
  S2-  S132  1  0.12345782  0.64880618  0.14900482  1
  S2-  S133  1  0.07036740  0.59334647  0.66690582  1
  S2-  S134  1  -0.01327623  0.98328878  0.14134688  1
  S2-  S135  1  -0.00404416  0.86775395  0.65230984  1
  S2-  S136  1  0.15088488  0.12736782  0.14786270  1
  S2-  S137  1  0.25159813  0.12525509  0.65627062  1
  S2-  S138  1  0.21963385  0.40608951  0.14867375  1
  S2-  S139  1  0.15425510  0.36947602  0.64475280  1
  S2-  S140  1  0.32770215  0.63140377  0.16550906  1
  S2-  S141  1  0.29713663  0.58369700  0.66097919  1
  S2-  S142  1  0.21427647  0.87889022  0.15764496  1
  S2-  S143  1  0.26122234  0.86773307  0.65599467  1
  S2-  S144  1  0.53629074  0.13394137  0.15740047  1
  S2-  S145  1  0.56600553  0.12295056  0.64918391  1
  S2-  S146  1  0.53641099  0.33470671  0.17738361  1
  S2-  S147  1  0.58304440  0.36859467  0.63316563  1
  S2-  S148  1  0.49168601  0.51340697  0.15123052  1
  S2-  S149  1  0.60478869  0.63466659  0.63854479  1
  S2-  S150  1  0.48499786  0.77260465  0.15370390  1
  S2-  S151  1  0.54497323  0.87079813  0.64791368  1
  S2-  S152  1  0.77943881  0.12831923  0.14213614  1
  S2-  S153  1  0.75886822  0.24338226  0.64663359  1
  S2-  S154  1  0.75066423  0.37486497  0.15825382  1
  S2-  S155  1  0.76450403  0.48175794  0.64833200  1
  S2-  S156  1  0.66109247  0.63202360  0.14855128  1
  S2-  S157  1  0.86362240  0.66321395  0.64873789  1
  S2-  S158  1  0.65191478  0.90544642  0.14227875  1
  S2-  S159  1  0.75395743  0.99401926  0.64452612  1
  S2-  S160  1  0.12271323  0.00016414  0.34604886  1
  S2-  S161  1  0.01228529  -0.00406655  0.85465328  1
  S2-  S162  1  0.11943411  0.24477688  0.33923612  1
  S2-  S163  1  0.11140489  0.25441565  0.84810980  1
  S2-  S164  1  0.00034001  0.46645648  0.36399867  1
  S2-  S165  1  0.09608404  0.46477026  0.83145785  1
  S2-  S166  1  0.12672707  0.63938031  0.36825738  1
  S2-  S167  1  0.11193938  0.66655104  0.86273351  1
  S2-  S168  1  0.37973578  -0.00763296  0.34482863  1
  S2-  S169  1  0.47130583  -0.02525483  0.86460445  1
  S2-  S170  1  0.39103052  0.23616840  0.34342124  1
  S2-  S171  1  0.45899380  0.26414243  0.85198429  1
  S2-  S172  1  0.36749472  0.48450218  0.33904452  1
  S2-  S173  1  0.38315386  0.54147437  0.85116290  1
  S2-  S174  1  0.35656799  0.72805766  0.35194968  1
  S2-  S175  1  0.31691743  0.77041023  0.85477258  1
  S2-  S176  1  0.62001150  0.08935452  0.35391623  1
  S2-  S177  1  0.62240044  0.12007779  0.83683072  1
  S2-  S178  1  0.63847864  0.28077038  0.32155213  1
  S2-  S179  1  0.71363491  0.28336430  0.79610476  1
  S2-  S180  1  0.60024253  0.46680033  0.30301049  1
  S2-  S181  1  0.61436367  0.43501070  0.84946626  1
  S2-  S182  1  0.61180008  0.65252397  0.35243253  1
  S2-  S183  1  0.62200126  0.65198685  0.86185746  1
  S2-  S184  1  0.87971628  0.01593241  0.34312077  1
  S2-  S185  1  0.77561745  -0.02336714  0.84865839  1
  S2-  S186  1  0.86355492  0.27148656  0.34441502  1
  S2-  S187  1  0.90079259  0.20531279  0.83913392  1
  S2-  S188  1  0.78515191  0.50271562  0.35680662  1
  S2-  S189  1  0.87975870  0.45293341  0.84824808  1
  S2-  S190  1  0.90641104  0.72211374  0.34869733  1
  S2-  S191  1  0.87480902  0.69614746  0.85325059  1
  S2-  S192  1  0.00161586  0.12047739  0.44990287  1
  S2-  S193  1  0.00697827  0.14131198  0.95707611  1
  S2-  S194  1  0.00028934  0.36516347  0.46679137  1
  S2-  S195  1  0.00640022  0.39148329  0.95685417  1
  S2-  S196  1  -0.00440376  0.62540336  0.46625643  1
  S2-  S197  1  0.00403957  0.63887306  0.96690538  1
  S2-  S198  1  0.00356448  0.86916529  0.44945481  1
  S2-  S199  1  0.01012170  0.88110946  0.95415655  1
  S2-  S200  1  0.24893627  0.12296189  0.44802971  1
  S2-  S201  1  0.26009861  0.13636915  0.95604723  1
  S2-  S202  1  0.25010472  0.37284247  0.45089609  1
  S2-  S203  1  0.25671139  0.38940251  0.94629409  1
  S2-  S204  1  0.25268731  0.62222290  0.46167521  1
  S2-  S205  1  0.25759954  0.63896724  0.96306731  1
  S2-  S206  1  0.24674491  0.86871163  0.45139225  1
  S2-  S207  1  0.25604931  0.89143695  0.95537617  1
  S2-  S208  1  0.49529720  0.12000529  0.45313689  1
  S2-  S209  1  0.50792707  0.13747832  0.95254071  1
  S2-  S210  1  0.50142098  0.37128055  0.44013615  1
  S2-  S211  1  0.50826636  0.38912914  0.96045981  1
  S2-  S212  1  0.49725997  0.62262953  0.45328884  1
  S2-  S213  1  0.50380381  0.64019484  0.96713615  1
  S2-  S214  1  0.49881603  0.87033468  0.44813430  1
  S2-  S215  1  0.50687881  0.88407155  0.96742666  1
  S2-  S216  1  0.75156129  0.11662404  0.45489931  1
  S2-  S217  1  0.74992053  0.14718523  0.94062292  1
  S2-  S218  1  0.74696072  0.36762976  0.45386253  1
  S2-  S219  1  0.75218071  0.38925225  0.95110151  1
  S2-  S220  1  0.75335095  0.62634206  0.45877283  1
  S2-  S221  1  0.75666994  0.64026906  0.96023540  1
  S2-  S222  1  0.75184699  0.87242284  0.45623538  1
  S2-  S223  1  0.75664123  0.88271752  0.95450323  1
  S2-  S224  1  0.12887671  0.01059907  0.04017235  1
  S2-  S225  1  0.12276291  -0.00297482  0.54843876  1
  S2-  S226  1  0.13007238  0.26185106  0.04872535  1
  S2-  S227  1  0.12639798  0.24419261  0.54276700  1
  S2-  S228  1  0.12713134  0.50995517  0.04175571  1
  S2-  S229  1  0.12235906  0.49600912  0.54607970  1
  S2-  S230  1  0.12678330  0.76767490  0.04678001  1
  S2-  S231  1  0.12193877  0.74760858  0.55141677  1
  S2-  S232  1  0.38395415  0.01201392  0.05053741  1
  S2-  S233  1  0.37414219  -0.00423905  0.55028764  1
  S2-  S234  1  0.38267066  0.26396807  0.05215028  1
  S2-  S235  1  0.37552498  0.24929568  0.54652784  1
  S2-  S236  1  0.37679931  0.51114354  0.05160209  1
  S2-  S237  1  0.37631897  0.49545232  0.54397460  1
  S2-  S238  1  0.37564354  0.76508989  0.05242551  1
  S2-  S239  1  0.37359264  0.74391414  0.55379819  1
  S2-  S240  1  0.63349384  0.01393164  0.03470986  1
  S2-  S241  1  0.62151903  -0.00329282  0.53907083  1
  S2-  S242  1  0.63199116  0.26486977  0.05161813  1
  S2-  S243  1  0.62293634  0.24174620  0.53277723  1
  S2-  S244  1  0.63387384  0.51110265  0.04502277  1
  S2-  S245  1  0.62402489  0.49717132  0.53218851  1
  S2-  S246  1  0.63526450  0.76336572  0.04564748  1
  S2-  S247  1  0.62561340  0.75024746  0.53972838  1
  S2-  S248  1  0.87996044  0.01176556  0.03569376  1
  S2-  S249  1  0.87779021  -0.00225806  0.54518057  1
  S2-  S250  1  0.87832649  0.26418483  0.04086095  1
  S2-  S251  1  0.87332386  0.24350426  0.54684095  1
  S2-  S252  1  0.87461895  0.51039322  0.04685643  1
  S2-  S253  1  0.87773179  0.48745612  0.54951499  1
  S2-  S254  1  0.88207605  0.76450613  0.04819195  1
  S2-  S255  1  0.87145147  0.75647657  0.54700945  1
