# generated using pymatgen
data_La12Ce14Pr13Nd13Sm12(BiS2)64
_symmetry_space_group_name_H-M   'P 1'
_cell_length_a   16.19229166
_cell_length_b   16.18760361
_cell_length_c   27.19579325
_cell_angle_alpha   89.95911945
_cell_angle_beta   89.96385202
_cell_angle_gamma   89.95208972
_symmetry_Int_Tables_number   1
_chemical_formula_structural   La12Ce14Pr13Nd13Sm12(BiS2)64
_chemical_formula_sum   'La12 Ce14 Pr13 Nd13 Sm12 Bi64 S128'
_cell_volume   7128.40328163
_cell_formula_units_Z   1
loop_
 _symmetry_equiv_pos_site_id
 _symmetry_equiv_pos_as_xyz
  1  'x, y, z'
loop_
 _atom_type_symbol
 _atom_type_oxidation_number
  La3+  3.0
  Ce3+  3.0
  Pr3+  3.0
  Nd3+  3.0
  Sm3+  3.0
  Bi2+  2.0
  S2-  -2.0
loop_
 _atom_site_type_symbol
 _atom_site_label
 _atom_site_symmetry_multiplicity
 _atom_site_fract_x
 _atom_site_fract_y
 _atom_site_fract_z
 _atom_site_occupancy
  La3+  La0  1  0.38768582  -0.00242046  0.44573253  1
  La3+  La1  1  0.49916829  0.36148301  0.07254587  1
  La3+  La2  1  0.50637443  0.38196096  0.58099582  1
  La3+  La3  1  0.74181238  0.61589989  0.08111688  1
  La3+  La4  1  0.00223308  0.86281018  0.60516431  1
  La3+  La5  1  0.88413237  -0.00161315  0.44258345  1
  La3+  La6  1  0.75896234  0.38157219  0.56565812  1
  La3+  La7  1  0.62281485  0.76292767  0.39367391  1
  La3+  La8  1  0.87743606  0.72963303  0.90571035  1
  La3+  La9  1  0.25202167  0.37866173  0.57546883  1
  La3+  La10  1  0.00167444  0.36019877  0.07104333  1
  La3+  La11  1  0.00842424  0.61171580  0.09328233  1
  Ce3+  Ce12  1  0.24811527  0.61728827  0.05634664  1
  Ce3+  Ce13  1  0.11874278  0.74130685  0.94051672  1
  Ce3+  Ce14  1  0.62470328  0.49350945  0.94523663  1
  Ce3+  Ce15  1  0.00574382  0.37717080  0.56658729  1
  Ce3+  Ce16  1  0.38731211  0.75062296  0.44775093  1
  Ce3+  Ce17  1  0.12191493  -0.00602647  0.93870952  1
  Ce3+  Ce18  1  0.25655837  0.12619363  0.56204397  1
  Ce3+  Ce19  1  0.88197264  0.50265203  0.43406738  1
  Ce3+  Ce20  1  0.12074817  0.49342770  0.94060959  1
  Ce3+  Ce21  1  0.75743682  0.12764941  0.55457984  1
  Ce3+  Ce22  1  0.88606680  -0.01171030  0.91081738  1
  Ce3+  Ce23  1  0.38444638  0.49994100  0.44754258  1
  Ce3+  Ce24  1  0.13216455  0.49948714  0.43859530  1
  Ce3+  Ce25  1  0.62258417  0.24314870  0.93823391  1
  Pr3+  Pr26  1  0.13318031  0.75295754  0.43416853  1
  Pr3+  Pr27  1  0.75183876  0.87486350  0.56289030  1
  Pr3+  Pr28  1  0.62780834  -0.00928406  0.93896162  1
  Pr3+  Pr29  1  0.87376366  0.49556612  0.95163919  1
  Pr3+  Pr30  1  0.50843513  0.12903594  0.55831046  1
  Pr3+  Pr31  1  0.62390685  0.25707686  0.42787282  1
  Pr3+  Pr32  1  0.25239430  0.63112962  0.55596441  1
  Pr3+  Pr33  1  0.00614626  0.12460192  0.56963244  1
  Pr3+  Pr34  1  -0.00206856  0.86317762  0.06185350  1
  Pr3+  Pr35  1  0.13370698  0.00163255  0.44902189  1
  Pr3+  Pr36  1  0.75369947  0.86165604  0.05533515  1
  Pr3+  Pr37  1  0.62378005  0.74314727  0.93327172  1
  Pr3+  Pr38  1  0.88774827  0.75697570  0.42008739  1
  Nd3+  Nd39  1  0.50166134  0.11634162  0.06474443  1
  Nd3+  Nd40  1  -0.00010028  0.11724860  0.05657388  1
  Nd3+  Nd41  1  0.63080017  0.50481815  0.43339155  1
  Nd3+  Nd42  1  0.50815180  0.87637680  0.57408917  1
  Nd3+  Nd43  1  0.24835295  0.11958374  0.04998649  1
  Nd3+  Nd44  1  0.75833093  0.63354789  0.54625391  1
  Nd3+  Nd45  1  0.37592803  0.74214169  0.93492354  1
  Nd3+  Nd46  1  0.37350676  -0.00401842  0.94674030  1
  Nd3+  Nd47  1  0.88150780  0.25334458  0.44071547  1
  Nd3+  Nd48  1  0.24897911  0.36221325  0.05276428  1
  Nd3+  Nd49  1  0.13037470  0.25202871  0.44026541  1
  Nd3+  Nd50  1  0.38126816  0.24408968  0.92718703  1
  Nd3+  Nd51  1  0.11499879  0.25380453  0.91476860  1
  Sm3+  Sm52  1  0.00442772  0.63250335  0.55232310  1
  Sm3+  Sm53  1  0.63443560  -0.00139868  0.44207851  1
  Sm3+  Sm54  1  0.50815855  0.62623070  0.56161036  1
  Sm3+  Sm55  1  0.38066982  0.25590726  0.44328563  1
  Sm3+  Sm56  1  0.74943732  0.36522440  0.05644706  1
  Sm3+  Sm57  1  0.24982757  0.86590309  0.05290692  1
  Sm3+  Sm58  1  0.75017344  0.11334976  0.05073715  1
  Sm3+  Sm59  1  0.37467456  0.49053321  0.94591474  1
  Sm3+  Sm60  1  0.49765557  0.61662711  0.06019673  1
  Sm3+  Sm61  1  0.25340068  0.87591510  0.56399055  1
  Sm3+  Sm62  1  0.87503429  0.24015641  0.94014812  1
  Sm3+  Sm63  1  0.49935978  0.86621786  0.05783280  1
  Bi2+  Bi64  1  0.00715358  0.13366081  0.28872146  1
  Bi2+  Bi65  1  -0.01348730  0.11684137  0.79123349  1
  Bi2+  Bi66  1  0.05629854  0.33800604  0.29176408  1
  Bi2+  Bi67  1  -0.01058329  0.38007827  0.78813827  1
  Bi2+  Bi68  1  -0.01148261  0.61282054  0.29890654  1
  Bi2+  Bi69  1  -0.01116798  0.61480788  0.78304690  1
  Bi2+  Bi70  1  -0.00252343  0.89777312  0.29813430  1
  Bi2+  Bi71  1  0.00518142  0.86285357  0.78218828  1
  Bi2+  Bi72  1  0.27608505  0.12422628  0.28934028  1
  Bi2+  Bi73  1  0.27869467  0.11092883  0.79069008  1
  Bi2+  Bi74  1  0.27638697  0.37571994  0.28292062  1
  Bi2+  Bi75  1  0.27272282  0.41163606  0.79237120  1
  Bi2+  Bi76  1  0.26345683  0.64912703  0.28348713  1
  Bi2+  Bi77  1  0.23430800  0.60989155  0.80110116  1
  Bi2+  Bi78  1  0.24970475  0.84461371  0.28843190  1
  Bi2+  Bi79  1  0.25734146  0.80026457  0.78736990  1
  Bi2+  Bi80  1  0.54501881  0.13034882  0.29215200  1
  Bi2+  Bi81  1  0.47636613  0.11705523  0.79668318  1
  Bi2+  Bi82  1  0.49510389  0.37091864  0.29596983  1
  Bi2+  Bi83  1  0.52605215  0.39031278  0.79327925  1
  Bi2+  Bi84  1  0.47088950  0.62282970  0.28995365  1
  Bi2+  Bi85  1  0.48366445  0.63833427  0.78326025  1
  Bi2+  Bi86  1  0.44669625  0.89625106  0.29238607  1
  Bi2+  Bi87  1  0.49177862  0.89169723  0.79396847  1
  Bi2+  Bi88  1  0.73638238  0.16203109  0.30465099  1
  Bi2+  Bi89  1  0.70999993  0.15335200  0.78038198  1
  Bi2+  Bi90  1  0.73659991  0.35273372  0.27766625  1
  Bi2+  Bi91  1  0.74640240  0.34690883  0.78109742  1
  Bi2+  Bi92  1  0.74521979  0.61234907  0.28615106  1
  Bi2+  Bi93  1  0.74574005  0.58759651  0.79353595  1
  Bi2+  Bi94  1  0.72064737  0.95473092  0.28105211  1
  Bi2+  Bi95  1  0.73046097  0.84765684  0.77784288  1
  Bi2+  Bi96  1  0.14673264  0.00040155  0.24685498  1
  Bi2+  Bi97  1  0.21516275  -0.03910927  0.72633467  1
  Bi2+  Bi98  1  0.13755107  0.25196189  0.19650043  1
  Bi2+  Bi99  1  0.12220510  0.25177730  0.71479188  1
  Bi2+  Bi100  1  0.15182469  0.49455424  0.21309122  1
  Bi2+  Bi101  1  0.11760443  0.49081126  0.72820245  1
  Bi2+  Bi102  1  0.12140324  0.76514934  0.19982717  1
  Bi2+  Bi103  1  0.13810627  0.71392464  0.70867555  1
  Bi2+  Bi104  1  0.41567031  0.03982276  0.21527057  1
  Bi2+  Bi105  1  0.39704708  -0.06165241  0.68795328  1
  Bi2+  Bi106  1  0.35196489  0.23602688  0.20956805  1
  Bi2+  Bi107  1  0.36507101  0.22610130  0.70790832  1
  Bi2+  Bi108  1  0.36358894  0.51820085  0.21641938  1
  Bi2+  Bi109  1  0.35899045  0.54637771  0.71161380  1
  Bi2+  Bi110  1  0.36077370  0.75793415  0.20401609  1
  Bi2+  Bi111  1  0.39731307  0.74458164  0.69614352  1
  Bi2+  Bi112  1  0.60816636  0.03266551  0.19545440  1
  Bi2+  Bi113  1  0.57769242  0.01904945  0.71458795  1
  Bi2+  Bi114  1  0.62421826  0.23706017  0.20648690  1
  Bi2+  Bi115  1  0.59640358  0.27308476  0.71466703  1
  Bi2+  Bi116  1  0.63320290  0.49639812  0.20269380  1
  Bi2+  Bi117  1  0.62563735  0.56541364  0.70690958  1
  Bi2+  Bi118  1  0.61889407  0.76977749  0.20062104  1
  Bi2+  Bi119  1  0.59753265  0.76085316  0.70937471  1
  Bi2+  Bi120  1  0.88804661  0.01316172  0.22905099  1
  Bi2+  Bi121  1  0.82841746  -0.02179082  0.71278930  1
  Bi2+  Bi122  1  0.86632669  0.20264694  0.20771413  1
  Bi2+  Bi123  1  0.84744503  0.23759025  0.70206885  1
  Bi2+  Bi124  1  0.89982273  0.39364472  0.22059875  1
  Bi2+  Bi125  1  0.86867058  0.48285929  0.71948613  1
  Bi2+  Bi126  1  0.86622642  0.77125726  0.20485334  1
  Bi2+  Bi127  1  0.86051541  0.70722597  0.70837631  1
  S2-  S128  1  0.00438977  0.21982304  0.13781661  1
  S2-  S129  1  0.00048436  0.18097266  0.66687687  1
  S2-  S130  1  0.00820743  0.46200581  0.15435869  1
  S2-  S131  1  -0.11522110  0.38109176  0.64013931  1
  S2-  S132  1  -0.01471713  0.66126278  0.19487708  1
  S2-  S133  1  -0.00087938  0.69772659  0.64417514  1
  S2-  S134  1  -0.00064971  0.86637526  0.16367236  1
  S2-  S135  1  -0.01408423  0.96316974  0.69501458  1
  S2-  S136  1  0.23686082  0.14166710  0.14825645  1
  S2-  S137  1  0.22833135  0.14712503  0.65810481  1
  S2-  S138  1  0.23385218  0.38215556  0.15146319  1
  S2-  S139  1  0.12010556  0.37427315  0.64647343  1
  S2-  S140  1  0.17199245  0.62181394  0.14446928  1
  S2-  S141  1  0.22368865  0.59026573  0.65245243  1
  S2-  S142  1  0.24454483  0.85707492  0.15047124  1
  S2-  S143  1  0.16580226  0.85735799  0.64821416  1
  S2-  S144  1  0.48639034  0.22816203  0.14044538  1
  S2-  S145  1  0.50139670  0.14836862  0.65798151  1
  S2-  S146  1  0.49429642  0.44185174  0.16548804  1
  S2-  S147  1  0.37014312  0.35562546  0.65180817  1
  S2-  S148  1  0.58950310  0.62804184  0.14265405  1
  S2-  S149  1  0.50072883  0.53176639  0.64421970  1
  S2-  S150  1  0.48698265  0.84529365  0.15500366  1
  S2-  S151  1  0.62915040  0.89909994  0.64566795  1
  S2-  S152  1  0.73342704  0.12891187  0.14826508  1
  S2-  S153  1  0.76752950  0.11470167  0.65239518  1
  S2-  S154  1  0.75038709  0.39637743  0.15300298  1
  S2-  S155  1  0.64722728  0.37046891  0.64283491  1
  S2-  S156  1  0.78525635  0.62942242  0.18219096  1
  S2-  S157  1  0.77020294  0.60723657  0.64636411  1
  S2-  S158  1  0.74006934  0.85965520  0.15642896  1
  S2-  S159  1  0.84002421  0.84665675  0.64940762  1
  S2-  S160  1  0.10048932  0.01787749  0.35047429  1
  S2-  S161  1  0.03977658  -0.01482616  0.85167231  1
  S2-  S162  1  0.19992967  0.26965008  0.34790949  1
  S2-  S163  1  0.12633359  0.17385571  0.82372551  1
  S2-  S164  1  0.10061508  0.51782116  0.34208865  1
  S2-  S165  1  0.11661733  0.40202071  0.85721068  1
  S2-  S166  1  0.04442467  0.75562220  0.34725902  1
  S2-  S167  1  0.03521667  0.73737643  0.85388864  1
  S2-  S168  1  0.36022666  0.01225475  0.34722553  1
  S2-  S169  1  0.37809613  -0.00560901  0.84784874  1
  S2-  S170  1  0.47274329  0.24942379  0.35913469  1
  S2-  S171  1  0.30941285  0.26754747  0.83520358  1
  S2-  S172  1  0.40768222  0.48656014  0.35046633  1
  S2-  S173  1  0.40640439  0.47830382  0.84916220  1
  S2-  S174  1  0.45411612  0.75784729  0.35728103  1
  S2-  S175  1  0.49225698  0.74583642  0.86024736  1
  S2-  S176  1  0.59742782  -0.06672364  0.35453205  1
  S2-  S177  1  0.62811041  -0.05158109  0.84134060  1
  S2-  S178  1  0.62962206  0.38660633  0.35712289  1
  S2-  S179  1  0.52038204  0.24808472  0.85860676  1
  S2-  S180  1  0.61136437  0.60204574  0.34848448  1
  S2-  S181  1  0.63945916  0.47288218  0.84762974  1
  S2-  S182  1  0.67194984  0.77285872  0.29053963  1
  S2-  S183  1  0.72306284  0.72267091  0.85028544  1
  S2-  S184  1  0.85883305  -0.05614850  0.34810034  1
  S2-  S185  1  0.83457739  0.07587309  0.83065319  1
  S2-  S186  1  0.93604735  0.25928692  0.34566529  1
  S2-  S187  1  0.94761247  0.25588841  0.85179457  1
  S2-  S188  1  0.86394592  0.50878253  0.33584002  1
  S2-  S189  1  0.88060964  0.56336544  0.85846339  1
  S2-  S190  1  0.85465748  0.72086644  0.32055295  1
  S2-  S191  1  0.87145947  0.86615526  0.83734597  1
  S2-  S192  1  0.00732628  0.12793680  0.45832992  1
  S2-  S193  1  -0.00222974  0.11802228  0.95188071  1
  S2-  S194  1  0.00717171  0.37620108  0.45559930  1
  S2-  S195  1  -0.00573387  0.36687201  0.96081415  1
  S2-  S196  1  0.00757201  0.62692624  0.44859824  1
  S2-  S197  1  0.00004099  0.61795715  0.96236744  1
  S2-  S198  1  0.01078568  0.87829138  0.45052001  1
  S2-  S199  1  -0.00233003  0.86625790  0.95613880  1
  S2-  S200  1  0.26022564  0.12876557  0.45442042  1
  S2-  S201  1  0.24736348  0.12069190  0.94350526  1
  S2-  S202  1  0.25682969  0.37639515  0.46023310  1
  S2-  S203  1  0.25287524  0.36825143  0.94895063  1
  S2-  S204  1  0.25814628  0.62703817  0.44773108  1
  S2-  S205  1  0.25161900  0.61728026  0.94905026  1
  S2-  S206  1  0.25856646  0.87469037  0.45642350  1
  S2-  S207  1  0.24952528  0.86679036  0.94699089  1
  S2-  S208  1  0.50981780  0.12333717  0.45280473  1
  S2-  S209  1  0.50143411  0.11463454  0.95818309  1
  S2-  S210  1  0.50356605  0.37651460  0.46565916  1
  S2-  S211  1  0.49928680  0.36997374  0.96077651  1
  S2-  S212  1  0.50710294  0.62695398  0.45837508  1
  S2-  S213  1  0.49681736  0.61395147  0.95669653  1
  S2-  S214  1  0.51151359  0.87369006  0.46549342  1
  S2-  S215  1  0.49673463  0.87216629  0.95497959  1
  S2-  S216  1  0.75548213  0.12664680  0.44730443  1
  S2-  S217  1  0.75112936  0.11774242  0.94667220  1
  S2-  S218  1  0.75984811  0.37690415  0.45401390  1
  S2-  S219  1  0.75175266  0.36466792  0.95057696  1
  S2-  S220  1  0.75836361  0.63321575  0.44123852  1
  S2-  S221  1  0.74725507  0.61803338  0.96455421  1
  S2-  S222  1  0.75104356  0.87065271  0.45139518  1
  S2-  S223  1  0.75612623  0.86777312  0.94977209  1
  S2-  S224  1  0.12562893  -0.00864871  0.04731551  1
  S2-  S225  1  0.12989229  -0.00079459  0.55524077  1
  S2-  S226  1  0.12631572  0.24071690  0.03291630  1
  S2-  S227  1  0.13065172  0.24783240  0.54645615  1
  S2-  S228  1  0.12705620  0.48976723  0.04474932  1
  S2-  S229  1  0.12671919  0.50739821  0.54411102  1
  S2-  S230  1  0.12580262  0.74398705  0.04574534  1
  S2-  S231  1  0.12866117  0.75544422  0.54122795  1
  S2-  S232  1  0.37425421  -0.00816782  0.05335005  1
  S2-  S233  1  0.38067966  -0.00081072  0.55353343  1
  S2-  S234  1  0.37367606  0.23942892  0.03699259  1
  S2-  S235  1  0.38008695  0.24962174  0.54634809  1
  S2-  S236  1  0.37338270  0.49250884  0.05131053  1
  S2-  S237  1  0.37529083  0.50556093  0.55017307  1
  S2-  S238  1  0.37544289  0.74258379  0.04279150  1
  S2-  S239  1  0.38113632  0.75396011  0.55424289  1
  S2-  S240  1  0.62419042  -0.01003602  0.04695784  1
  S2-  S241  1  0.63108145  0.00485337  0.54489624  1
  S2-  S242  1  0.62904552  0.23953301  0.04372275  1
  S2-  S243  1  0.63369217  0.24925830  0.53989075  1
  S2-  S244  1  0.62269041  0.48775135  0.04918383  1
  S2-  S245  1  0.63441003  0.50883115  0.54037176  1
  S2-  S246  1  0.61951993  0.74484992  0.04162737  1
  S2-  S247  1  0.62746373  0.74772700  0.55544327  1
  S2-  S248  1  0.87508173  -0.00577105  0.05429689  1
  S2-  S249  1  0.88364852  -0.00159110  0.55108511  1
  S2-  S250  1  0.86828917  0.23917890  0.04411910  1
  S2-  S251  1  0.88304121  0.24762315  0.54550613  1
  S2-  S252  1  0.87184603  0.49089539  0.05681130  1
  S2-  S253  1  0.88533633  0.50911100  0.54040769  1
  S2-  S254  1  0.87768181  0.73445582  0.06471002  1
  S2-  S255  1  0.88444440  0.75460228  0.53538685  1
