# generated using pymatgen
data_La12Ce14Pr13Nd13Sm12(BiS2)64
_symmetry_space_group_name_H-M   'P 1'
_cell_length_a   16.16515939
_cell_length_b   16.13521733
_cell_length_c   27.32046595
_cell_angle_alpha   90.55436181
_cell_angle_beta   90.00806286
_cell_angle_gamma   90.01952799
_symmetry_Int_Tables_number   1
_chemical_formula_structural   La12Ce14Pr13Nd13Sm12(BiS2)64
_chemical_formula_sum   'La12 Ce14 Pr13 Nd13 Sm12 Bi64 S128'
_cell_volume   7125.61829739
_cell_formula_units_Z   1
loop_
 _symmetry_equiv_pos_site_id
 _symmetry_equiv_pos_as_xyz
  1  'x, y, z'
loop_
 _atom_type_symbol
 _atom_type_oxidation_number
  La3+  3.0
  Ce3+  3.0
  Pr3+  3.0
  Nd3+  3.0
  Sm3+  3.0
  Bi2+  2.0
  S2-  -2.0
loop_
 _atom_site_type_symbol
 _atom_site_label
 _atom_site_symmetry_multiplicity
 _atom_site_fract_x
 _atom_site_fract_y
 _atom_site_fract_z
 _atom_site_occupancy
  La3+  La0  1  0.48900822  0.88854482  0.07361309  1
  La3+  La1  1  0.14124466  0.48883255  0.40618837  1
  La3+  La2  1  0.13920462  -0.01258421  0.44344158  1
  La3+  La3  1  0.01529875  0.61694447  0.57144757  1
  La3+  La4  1  0.26362642  0.61261623  0.55930221  1
  La3+  La5  1  0.10377279  0.26326498  0.92709863  1
  La3+  La6  1  0.85621720  0.74534805  0.92026739  1
  La3+  La7  1  0.00591300  0.88324694  0.61496750  1
  La3+  La8  1  0.27040023  0.11615058  0.56989585  1
  La3+  La9  1  0.24167872  0.38933886  0.06724351  1
  La3+  La10  1  -0.01554926  0.64822393  0.07828070  1
  La3+  La11  1  0.51620777  0.37650678  0.58161327  1
  Ce3+  Ce12  1  0.86357029  0.00511070  0.93540675  1
  Ce3+  Ce13  1  0.36437967  0.50952595  0.94739728  1
  Ce3+  Ce14  1  0.63607399  0.24094458  0.44316958  1
  Ce3+  Ce15  1  0.86443839  0.51236333  0.95231839  1
  Ce3+  Ce16  1  0.36328927  0.00939992  0.94355394  1
  Ce3+  Ce17  1  0.89295089  0.48553996  0.44558558  1
  Ce3+  Ce18  1  0.36292023  0.26034345  0.93405387  1
  Ce3+  Ce19  1  0.64014799  0.48490476  0.43289594  1
  Ce3+  Ce20  1  0.51927984  0.86167652  0.55450626  1
  Ce3+  Ce21  1  0.48543643  0.13715240  0.06977285  1
  Ce3+  Ce22  1  0.76131226  0.36463062  0.56052461  1
  Ce3+  Ce23  1  0.61387546  0.75703005  0.94642713  1
  Ce3+  Ce24  1  0.49308078  0.63861712  0.07551612  1
  Ce3+  Ce25  1  0.38741713  0.73677403  0.43724112  1
  Pr3+  Pr26  1  0.02483847  0.36968629  0.57266300  1
  Pr3+  Pr27  1  0.88911409  -0.01601455  0.44201921  1
  Pr3+  Pr28  1  0.76329744  0.61589448  0.55795725  1
  Pr3+  Pr29  1  0.61049893  0.00778205  0.93819585  1
  Pr3+  Pr30  1  0.76020248  0.86199820  0.56474995  1
  Pr3+  Pr31  1  0.74060498  0.88996434  0.06185219  1
  Pr3+  Pr32  1  0.26101440  0.86207954  0.56322556  1
  Pr3+  Pr33  1  -0.01002120  0.88134381  0.04817054  1
  Pr3+  Pr34  1  0.12629604  0.74240384  0.92404258  1
  Pr3+  Pr35  1  0.39035657  0.47854802  0.42418796  1
  Pr3+  Pr36  1  -0.01042701  0.38430601  0.06874520  1
  Pr3+  Pr37  1  0.51471365  0.11385380  0.56310147  1
  Pr3+  Pr38  1  0.73767492  0.64221645  0.07994065  1
  Nd3+  Nd39  1  0.38959918  -0.01500839  0.44178367  1
  Nd3+  Nd40  1  0.63916715  -0.01330818  0.43370830  1
  Nd3+  Nd41  1  0.64309018  0.72986614  0.42150899  1
  Nd3+  Nd42  1  0.76566914  0.11466023  0.55405466  1
  Nd3+  Nd43  1  0.01757836  0.11668853  0.56417255  1
  Nd3+  Nd44  1  0.73843310  0.38367890  0.06039061  1
  Nd3+  Nd45  1  0.61480427  0.50861018  0.94485687  1
  Nd3+  Nd46  1  0.13824540  0.23902946  0.43650466  1
  Nd3+  Nd47  1  0.11600589  0.00421116  0.93313604  1
  Nd3+  Nd48  1  0.89160384  0.24120591  0.44733691  1
  Nd3+  Nd49  1  0.51457666  0.61344753  0.54955657  1
  Nd3+  Nd50  1  0.23648419  0.88477284  0.06141557  1
  Nd3+  Nd51  1  0.89325254  0.73602484  0.43955051  1
  Sm3+  Sm52  1  0.23590429  0.13591804  0.05126402  1
  Sm3+  Sm53  1  0.86355275  0.25778602  0.94805504  1
  Sm3+  Sm54  1  0.23312449  0.64278491  0.08009698  1
  Sm3+  Sm55  1  0.38968795  0.23960191  0.44457177  1
  Sm3+  Sm56  1  0.11387435  0.51337596  0.95536309  1
  Sm3+  Sm57  1  -0.00706969  0.13444466  0.05162459  1
  Sm3+  Sm58  1  0.26304668  0.36656568  0.55286828  1
  Sm3+  Sm59  1  0.73909078  0.13131107  0.06074359  1
  Sm3+  Sm60  1  0.61400350  0.25687755  0.94560777  1
  Sm3+  Sm61  1  0.48860046  0.37775974  0.06199791  1
  Sm3+  Sm62  1  0.13557990  0.73692779  0.44163041  1
  Sm3+  Sm63  1  0.36579556  0.75672876  0.94849368  1
  Bi2+  Bi64  1  0.01683530  0.14447346  0.29035747  1
  Bi2+  Bi65  1  0.01462275  0.18595762  0.78808174  1
  Bi2+  Bi66  1  -0.01630142  0.36960676  0.30353150  1
  Bi2+  Bi67  1  -0.01353941  0.39572611  0.78610897  1
  Bi2+  Bi68  1  -0.02732987  0.64070358  0.30207299  1
  Bi2+  Bi69  1  -0.00562315  0.64541892  0.80860296  1
  Bi2+  Bi70  1  0.00327873  0.87532818  0.30046485  1
  Bi2+  Bi71  1  -0.00290115  0.91707017  0.81618825  1
  Bi2+  Bi72  1  0.20615469  0.18266680  0.31234070  1
  Bi2+  Bi73  1  0.27153593  0.12822526  0.81059894  1
  Bi2+  Bi74  1  0.29460461  0.36848329  0.28660127  1
  Bi2+  Bi75  1  0.23433053  0.39085090  0.74199602  1
  Bi2+  Bi76  1  0.30328317  0.62356665  0.26048634  1
  Bi2+  Bi77  1  0.26418478  0.59748409  0.79862824  1
  Bi2+  Bi78  1  0.25074144  0.93354034  0.28793192  1
  Bi2+  Bi79  1  0.30435012  0.86263675  0.79137449  1
  Bi2+  Bi80  1  0.56712427  0.12905490  0.26838254  1
  Bi2+  Bi81  1  0.54912104  0.13846329  0.77856539  1
  Bi2+  Bi82  1  0.54136238  0.41286134  0.31559860  1
  Bi2+  Bi83  1  0.42064003  0.38698542  0.76685217  1
  Bi2+  Bi84  1  0.48097530  0.56155945  0.25434015  1
  Bi2+  Bi85  1  0.46519898  0.67957046  0.78335378  1
  Bi2+  Bi86  1  0.48955952  0.89128180  0.30884270  1
  Bi2+  Bi87  1  0.56210448  0.83920681  0.82311122  1
  Bi2+  Bi88  1  0.77275280  0.07926005  0.23598528  1
  Bi2+  Bi89  1  0.76183901  0.21655611  0.79748992  1
  Bi2+  Bi90  1  0.72358384  0.35073022  0.30511537  1
  Bi2+  Bi91  1  0.68187489  0.39870510  0.79387203  1
  Bi2+  Bi92  1  0.74742429  0.54269147  0.28159087  1
  Bi2+  Bi93  1  0.72276123  0.61258234  0.79843920  1
  Bi2+  Bi94  1  0.75453642  0.87261476  0.30439204  1
  Bi2+  Bi95  1  0.69979413  0.93374613  0.76063164  1
  Bi2+  Bi96  1  0.16378582  -0.01389334  0.18943643  1
  Bi2+  Bi97  1  0.13471676  0.02050415  0.71232962  1
  Bi2+  Bi98  1  0.12917828  0.20840021  0.20622156  1
  Bi2+  Bi99  1  0.06318209  0.28543190  0.69581220  1
  Bi2+  Bi100  1  0.13639828  0.48701544  0.20698940  1
  Bi2+  Bi101  1  0.09537727  0.52476769  0.72279205  1
  Bi2+  Bi102  1  0.10157902  0.77311021  0.20930814  1
  Bi2+  Bi103  1  0.13420976  0.75719780  0.71630122  1
  Bi2+  Bi104  1  0.36559571  0.01637749  0.20765043  1
  Bi2+  Bi105  1  0.41925593  -0.01964038  0.73669821  1
  Bi2+  Bi106  1  0.38420891  0.19162156  0.26303615  1
  Bi2+  Bi107  1  0.33459212  0.21271467  0.70749278  1
  Bi2+  Bi108  1  0.38285272  0.40818162  0.18626059  1
  Bi2+  Bi109  1  0.36121710  0.59912329  0.69539185  1
  Bi2+  Bi110  1  0.34954783  0.80030181  0.22219131  1
  Bi2+  Bi111  1  0.39407113  0.79695899  0.69216396  1
  Bi2+  Bi112  1  0.64042224  -0.05474929  0.19748791  1
  Bi2+  Bi113  1  0.58612654  0.02694756  0.68249850  1
  Bi2+  Bi114  1  0.65681772  0.20787542  0.17764539  1
  Bi2+  Bi115  1  0.65177755  0.23331615  0.70060810  1
  Bi2+  Bi116  1  0.57525161  0.38882901  0.19925086  1
  Bi2+  Bi117  1  0.64683786  0.52802207  0.69679263  1
  Bi2+  Bi118  1  0.59526677  0.72974240  0.21746247  1
  Bi2+  Bi119  1  0.59945497  0.76627258  0.71718395  1
  Bi2+  Bi120  1  0.96936267  0.00412044  0.21338162  1
  Bi2+  Bi121  1  0.84118619  0.06963222  0.73692573  1
  Bi2+  Bi122  1  0.82825060  0.26754183  0.21967459  1
  Bi2+  Bi123  1  0.86840072  0.27778256  0.70099137  1
  Bi2+  Bi124  1  0.87493402  0.47164310  0.20886861  1
  Bi2+  Bi125  1  0.83215158  0.46877337  0.73046402  1
  Bi2+  Bi126  1  0.85561560  0.76057462  0.21173223  1
  Bi2+  Bi127  1  0.86193349  0.75133259  0.71495390  1
  S2-  S128  1  0.00153901  0.13417081  0.14875652  1
  S2-  S129  1  0.00134198  0.04998429  0.65449724  1
  S2-  S130  1  0.00797386  0.39227685  0.16858419  1
  S2-  S131  1  0.00258642  0.49369323  0.64538837  1
  S2-  S132  1  0.09120028  0.62960647  0.16054846  1
  S2-  S133  1  0.00031341  0.71871588  0.65652980  1
  S2-  S134  1  -0.02252993  0.81223702  0.14050915  1
  S2-  S135  1  0.02059813  0.88570910  0.72352381  1
  S2-  S136  1  0.25401819  0.12228046  0.14848992  1
  S2-  S137  1  0.19121231  0.14020991  0.66008572  1
  S2-  S138  1  0.21725482  0.34611533  0.16359148  1
  S2-  S139  1  0.19507073  0.37152717  0.64289843  1
  S2-  S140  1  0.27982390  0.55486300  0.16266627  1
  S2-  S141  1  0.20294581  0.62801161  0.65450181  1
  S2-  S142  1  0.23132691  0.78440665  0.14305452  1
  S2-  S143  1  0.18286263  0.88132154  0.65325376  1
  S2-  S144  1  0.50374474  0.01602106  0.14621042  1
  S2-  S145  1  0.40315446  0.11298784  0.64188175  1
  S2-  S146  1  0.46263089  0.26614695  0.13795069  1
  S2-  S147  1  0.43815154  0.33413920  0.67454529  1
  S2-  S148  1  0.60903764  0.61647336  0.14946081  1
  S2-  S149  1  0.50686817  0.53841025  0.63910184  1
  S2-  S150  1  0.47522185  0.77061767  0.15096151  1
  S2-  S151  1  0.62119159  0.86058145  0.63282184  1
  S2-  S152  1  0.75635642  0.01761036  0.13554835  1
  S2-  S153  1  0.74460116  0.09503683  0.65197495  1
  S2-  S154  1  0.73139898  0.42376186  0.15658578  1
  S2-  S155  1  0.66438594  0.37569001  0.64237368  1
  S2-  S156  1  0.86172275  0.62801817  0.15436868  1
  S2-  S157  1  0.76304279  0.64783024  0.65737120  1
  S2-  S158  1  0.73285411  0.79892846  0.15108128  1
  S2-  S159  1  0.84112079  0.87148258  0.65494516  1
  S2-  S160  1  0.11073789  -0.02226161  0.34438794  1
  S2-  S161  1  0.14503676  0.00729537  0.83440609  1
  S2-  S162  1  0.12611812  0.33572884  0.35313925  1
  S2-  S163  1  0.16325894  0.24413246  0.83275948  1
  S2-  S164  1  0.08380276  0.52441082  0.30562118  1
  S2-  S165  1  0.12414178  0.57701635  0.86506238  1
  S2-  S166  1  0.09164953  0.73585540  0.34392284  1
  S2-  S167  1  0.09302304  0.77287060  0.82375155  1
  S2-  S168  1  0.38310499  0.01132622  0.34468577  1
  S2-  S169  1  0.38105505  -0.00319823  0.84652484  1
  S2-  S170  1  0.40573002  0.32923460  0.36128879  1
  S2-  S171  1  0.38148893  0.25351183  0.83640149  1
  S2-  S172  1  0.28589421  0.51535387  0.34402170  1
  S2-  S173  1  0.36159300  0.49223821  0.84925732  1
  S2-  S174  1  0.38591959  0.77467952  0.34267402  1
  S2-  S175  1  0.28642161  0.74517445  0.86160198  1
  S2-  S176  1  0.63072959  -0.01008163  0.33469697  1
  S2-  S177  1  0.62955229  0.02094806  0.83806181  1
  S2-  S178  1  0.62859736  0.22173561  0.34613852  1
  S2-  S179  1  0.60854574  0.26211133  0.84821120  1
  S2-  S180  1  0.65097963  0.58695478  0.35463178  1
  S2-  S181  1  0.60257991  0.52738512  0.84577993  1
  S2-  S182  1  0.61355348  0.77893018  0.32451524  1
  S2-  S183  1  0.69918321  0.74442791  0.86193604  1
  S2-  S184  1  0.87490551  -0.02678676  0.34231958  1
  S2-  S185  1  0.87150849  0.02809997  0.83957661  1
  S2-  S186  1  0.90615422  0.24068089  0.34828282  1
  S2-  S187  1  0.94960560  0.28003895  0.86420185  1
  S2-  S188  1  0.88624754  0.50211461  0.34788655  1
  S2-  S189  1  0.85923123  0.58090459  0.86419941  1
  S2-  S190  1  0.84009785  0.74190310  0.34252190  1
  S2-  S191  1  0.88839242  0.78633458  0.81988333  1
  S2-  S192  1  0.01302373  0.11427090  0.45522866  1
  S2-  S193  1  -0.01116566  0.12972738  0.94809072  1
  S2-  S194  1  0.01699152  0.36419995  0.45999722  1
  S2-  S195  1  -0.01126168  0.38994530  0.96245827  1
  S2-  S196  1  0.01771131  0.61065217  0.45291712  1
  S2-  S197  1  -0.00992072  0.63507754  0.96369981  1
  S2-  S198  1  0.01464257  0.86109603  0.44985189  1
  S2-  S199  1  -0.00889282  0.87706383  0.94167501  1
  S2-  S200  1  0.26808314  0.11524068  0.45682082  1
  S2-  S201  1  0.23487447  0.13507891  0.94741385  1
  S2-  S202  1  0.26186633  0.36204583  0.45111492  1
  S2-  S203  1  0.23456160  0.38589843  0.95455629  1
  S2-  S204  1  0.26092171  0.61479711  0.45020404  1
  S2-  S205  1  0.24435569  0.62998038  0.97025897  1
  S2-  S206  1  0.26250032  0.86031645  0.45385037  1
  S2-  S207  1  0.24032827  0.88265456  0.95511384  1
  S2-  S208  1  0.51115528  0.11325828  0.45387735  1
  S2-  S209  1  0.48835842  0.13652046  0.95492724  1
  S2-  S210  1  0.51607402  0.36323043  0.46267777  1
  S2-  S211  1  0.49090575  0.38113811  0.95624887  1
  S2-  S212  1  0.50823129  0.61030563  0.44437176  1
  S2-  S213  1  0.48906435  0.63400195  0.95819889  1
  S2-  S214  1  0.51659203  0.86067819  0.44831325  1
  S2-  S215  1  0.48583897  0.88325537  0.95981551  1
  S2-  S216  1  0.76491730  0.11462180  0.44785642  1
  S2-  S217  1  0.74034479  0.13479189  0.95438978  1
  S2-  S218  1  0.76459538  0.36243183  0.45330916  1
  S2-  S219  1  0.74056905  0.38059378  0.95292349  1
  S2-  S220  1  0.76923499  0.61110593  0.45254502  1
  S2-  S221  1  0.73461737  0.62985615  0.96796365  1
  S2-  S222  1  0.76046639  0.86038422  0.45189405  1
  S2-  S223  1  0.73827842  0.88681762  0.95292480  1
  S2-  S224  1  0.11407045  0.00971063  0.04039848  1
  S2-  S225  1  0.13957843  -0.00820655  0.54958144  1
  S2-  S226  1  0.11393532  0.26024880  0.04224431  1
  S2-  S227  1  0.14080089  0.23909397  0.54246363  1
  S2-  S228  1  0.11344421  0.51212522  0.05750111  1
  S2-  S229  1  0.14120828  0.49034770  0.54042096  1
  S2-  S230  1  0.11687108  0.75993426  0.03778182  1
  S2-  S231  1  0.13818188  0.74036169  0.54484995  1
  S2-  S232  1  0.35873669  0.01120599  0.04825856  1
  S2-  S233  1  0.39153178  -0.01818827  0.54729102  1
  S2-  S234  1  0.35693470  0.25866244  0.03925242  1
  S2-  S235  1  0.39154112  0.24753670  0.54702296  1
  S2-  S236  1  0.37238086  0.50953100  0.05257772  1
  S2-  S237  1  0.38610308  0.48683856  0.53863039  1
  S2-  S238  1  0.36253997  0.75841311  0.04937116  1
  S2-  S239  1  0.39054521  0.73901521  0.54527436  1
  S2-  S240  1  0.61257090  0.01545906  0.04245095  1
  S2-  S241  1  0.64016883  -0.00712655  0.53856336  1
  S2-  S242  1  0.61715842  0.25679417  0.04779170  1
  S2-  S243  1  0.63796002  0.23720582  0.54820359  1
  S2-  S244  1  0.61005834  0.50130611  0.04925453  1
  S2-  S245  1  0.64085262  0.49183935  0.53819485  1
  S2-  S246  1  0.61262782  0.76449751  0.04869884  1
  S2-  S247  1  0.63774102  0.73410025  0.53203066  1
  S2-  S248  1  0.87140607  0.01258900  0.04003110  1
  S2-  S249  1  0.89005976  -0.00983711  0.54800746  1
  S2-  S250  1  0.86451387  0.25576815  0.05282211  1
  S2-  S251  1  0.89150660  0.24200899  0.55373731  1
  S2-  S252  1  0.86391660  0.50770004  0.05483688  1
  S2-  S253  1  0.88527378  0.48721410  0.54938942  1
  S2-  S254  1  0.85893106  0.76249540  0.03754663  1
  S2-  S255  1  0.88762531  0.74047330  0.54481780  1
