# generated using pymatgen
data_La12Ce14Pr13Nd13Sm12(BiS2)64
_symmetry_space_group_name_H-M   'P 1'
_cell_length_a   16.18641441
_cell_length_b   16.14472805
_cell_length_c   27.14958373
_cell_angle_alpha   90.16412843
_cell_angle_beta   90.34297959
_cell_angle_gamma   89.96295424
_symmetry_Int_Tables_number   1
_chemical_formula_structural   La12Ce14Pr13Nd13Sm12(BiS2)64
_chemical_formula_sum   'La12 Ce14 Pr13 Nd13 Sm12 Bi64 S128'
_cell_volume   7094.71436143
_cell_formula_units_Z   1
loop_
 _symmetry_equiv_pos_site_id
 _symmetry_equiv_pos_as_xyz
  1  'x, y, z'
loop_
 _atom_type_symbol
 _atom_type_oxidation_number
  La3+  3.0
  Ce3+  3.0
  Pr3+  3.0
  Nd3+  3.0
  Sm3+  3.0
  Bi2+  2.0
  S2-  -2.0
loop_
 _atom_site_type_symbol
 _atom_site_label
 _atom_site_symmetry_multiplicity
 _atom_site_fract_x
 _atom_site_fract_y
 _atom_site_fract_z
 _atom_site_occupancy
  La3+  La0  1  0.62834129  0.50015371  0.41798731  1
  La3+  La1  1  0.61700502  0.75684935  0.93680339  1
  La3+  La2  1  0.11394084  0.24241249  0.92364483  1
  La3+  La3  1  0.48825105  0.86892305  0.08419261  1
  La3+  La4  1  0.89742550  0.74582522  0.41913161  1
  La3+  La5  1  0.74535298  0.88293758  0.08345191  1
  La3+  La6  1  0.01154686  0.63875575  0.57857020  1
  La3+  La7  1  0.13815221  0.01240588  0.42225484  1
  La3+  La8  1  0.36978160  0.26963144  0.88443348  1
  La3+  La9  1  0.74620174  0.13483763  0.07574411  1
  La3+  La10  1  0.52237026  0.39342242  0.58177198  1
  La3+  La11  1  0.00669458  0.38420242  0.06987434  1
  Ce3+  Ce12  1  0.88417117  0.25605437  0.43742958  1
  Ce3+  Ce13  1  0.74662613  0.37216529  0.05704911  1
  Ce3+  Ce14  1  0.86984601  0.49897080  0.94244112  1
  Ce3+  Ce15  1  0.25933759  0.13207938  0.56036863  1
  Ce3+  Ce16  1  0.00571414  0.88213939  0.55696615  1
  Ce3+  Ce17  1  0.88735768  0.51100807  0.44428048  1
  Ce3+  Ce18  1  0.51501157  0.63500736  0.55664111  1
  Ce3+  Ce19  1  0.75846179  0.38496154  0.55531738  1
  Ce3+  Ce20  1  0.87142376  0.24710293  0.93920640  1
  Ce3+  Ce21  1  0.26062039  0.88400232  0.55736676  1
  Ce3+  Ce22  1  0.24086545  0.12974541  0.06102834  1
  Ce3+  Ce23  1  0.13546646  0.50496708  0.43638980  1
  Ce3+  Ce24  1  0.63343258  0.25718538  0.44079091  1
  Ce3+  Ce25  1  0.24252996  0.37533772  0.04795070  1
  Pr3+  Pr26  1  0.61619492  0.49863884  0.93919582  1
  Pr3+  Pr27  1  0.49252465  0.37690507  0.06736558  1
  Pr3+  Pr28  1  0.24404089  0.87459066  0.05781403  1
  Pr3+  Pr29  1  0.88929056  -0.00010169  0.41704093  1
  Pr3+  Pr30  1  0.74406346  0.62864942  0.06668043  1
  Pr3+  Pr31  1  0.24336639  0.62736755  0.05870071  1
  Pr3+  Pr32  1  0.86532962  0.00237760  0.94817169  1
  Pr3+  Pr33  1  0.51239350  0.87850018  0.56004070  1
  Pr3+  Pr34  1  0.38281315  0.50635808  0.44354013  1
  Pr3+  Pr35  1  0.62698098  0.75707882  0.41939442  1
  Pr3+  Pr36  1  0.61496413  0.24747597  0.93614357  1
  Pr3+  Pr37  1  0.01090457  0.13142372  0.55570538  1
  Pr3+  Pr38  1  0.51837155  0.13054067  0.56746098  1
  Nd3+  Nd39  1  0.86347444  0.75060900  0.93690660  1
  Nd3+  Nd40  1  0.25919246  0.38095733  0.56748422  1
  Nd3+  Nd41  1  0.11126578  0.75015879  0.92687304  1
  Nd3+  Nd42  1  0.38039892  0.75685244  0.43459594  1
  Nd3+  Nd43  1  -0.00637347  0.87744111  0.06374270  1
  Nd3+  Nd44  1  0.13442866  0.25917920  0.43227585  1
  Nd3+  Nd45  1  0.00151936  0.13686079  0.08091923  1
  Nd3+  Nd46  1  0.76262795  0.12829665  0.55084035  1
  Nd3+  Nd47  1  0.01043970  0.38364968  0.55920298  1
  Nd3+  Nd48  1  0.38719573  0.00955833  0.44393133  1
  Nd3+  Nd49  1  0.48847204  0.12704186  0.05865018  1
  Nd3+  Nd50  1  0.38929177  0.25841030  0.45114254  1
  Nd3+  Nd51  1  0.25959946  0.63426932  0.56797816  1
  Sm3+  Sm52  1  -0.00533346  0.62734429  0.05799671  1
  Sm3+  Sm53  1  0.36636378  0.00490772  0.93851489  1
  Sm3+  Sm54  1  0.36911951  0.50180364  0.94082191  1
  Sm3+  Sm55  1  0.11644404  0.00077377  0.94824877  1
  Sm3+  Sm56  1  0.13738081  0.75589130  0.44312632  1
  Sm3+  Sm57  1  0.75989875  0.63616184  0.54926181  1
  Sm3+  Sm58  1  0.61661874  -0.00140040  0.95515997  1
  Sm3+  Sm59  1  0.11973925  0.50346486  0.92453094  1
  Sm3+  Sm60  1  0.76250041  0.87976879  0.54573671  1
  Sm3+  Sm61  1  0.37186496  0.75331156  0.93793506  1
  Sm3+  Sm62  1  0.63455569  0.00615869  0.43513879  1
  Sm3+  Sm63  1  0.49708875  0.62025638  0.06589260  1
  Bi2+  Bi64  1  -0.01940255  0.12384401  0.30162612  1
  Bi2+  Bi65  1  -0.03758978  0.09194722  0.79728688  1
  Bi2+  Bi66  1  0.01127607  0.38205303  0.28397015  1
  Bi2+  Bi67  1  -0.04685318  0.33855748  0.77370446  1
  Bi2+  Bi68  1  0.04865007  0.57765010  0.30045971  1
  Bi2+  Bi69  1  0.00690304  0.61402498  0.80079940  1
  Bi2+  Bi70  1  0.02684102  0.84241872  0.28200714  1
  Bi2+  Bi71  1  0.07566056  0.86589577  0.80541289  1
  Bi2+  Bi72  1  0.21060602  0.05936037  0.27602630  1
  Bi2+  Bi73  1  0.21637016  0.10590489  0.78907806  1
  Bi2+  Bi74  1  0.25840276  0.39296967  0.28448648  1
  Bi2+  Bi75  1  0.23227378  0.39736662  0.78013089  1
  Bi2+  Bi76  1  0.24906755  0.58024696  0.32993068  1
  Bi2+  Bi77  1  0.28417200  0.70195763  0.80009997  1
  Bi2+  Bi78  1  0.24303261  0.77651981  0.32119400  1
  Bi2+  Bi79  1  0.27051499  0.90164288  0.80216495  1
  Bi2+  Bi80  1  0.46427957  0.12491848  0.31319629  1
  Bi2+  Bi81  1  0.59395104  0.11447054  0.79238452  1
  Bi2+  Bi82  1  0.49088891  0.36774638  0.29733823  1
  Bi2+  Bi83  1  0.49505934  0.39706660  0.78072450  1
  Bi2+  Bi84  1  0.42589699  0.62365288  0.28933240  1
  Bi2+  Bi85  1  0.50065754  0.64373048  0.78001088  1
  Bi2+  Bi86  1  0.39985843  0.87146961  0.29220685  1
  Bi2+  Bi87  1  0.52327802  0.85837920  0.78660212  1
  Bi2+  Bi88  1  0.63934645  0.20786964  0.28457116  1
  Bi2+  Bi89  1  0.77509207  0.14381620  0.82967032  1
  Bi2+  Bi90  1  0.75307043  0.35536699  0.23903874  1
  Bi2+  Bi91  1  0.74977120  0.32456260  0.78443163  1
  Bi2+  Bi92  1  0.79354256  0.64850572  0.28487753  1
  Bi2+  Bi93  1  0.72119973  0.61454929  0.79609871  1
  Bi2+  Bi94  1  0.73492651  0.91192987  0.30609554  1
  Bi2+  Bi95  1  0.73685439  0.88262843  0.79606768  1
  Bi2+  Bi96  1  0.18169969  -0.07107205  0.19494073  1
  Bi2+  Bi97  1  0.11039947  -0.01149853  0.71871964  1
  Bi2+  Bi98  1  0.11707801  0.26351127  0.20807468  1
  Bi2+  Bi99  1  0.10430036  0.24346382  0.68867689  1
  Bi2+  Bi100  1  0.16268789  0.51441672  0.20610707  1
  Bi2+  Bi101  1  0.07123681  0.52396392  0.70893281  1
  Bi2+  Bi102  1  0.14306480  0.73964886  0.20769499  1
  Bi2+  Bi103  1  0.16758357  0.77473922  0.71557307  1
  Bi2+  Bi104  1  0.35074492  0.04006567  0.19630590  1
  Bi2+  Bi105  1  0.42078307  0.01933862  0.76837302  1
  Bi2+  Bi106  1  0.32197448  0.22686102  0.22631260  1
  Bi2+  Bi107  1  0.35310976  0.24063014  0.68477904  1
  Bi2+  Bi108  1  0.38097066  0.45440355  0.20307517  1
  Bi2+  Bi109  1  0.34560701  0.56619664  0.72535247  1
  Bi2+  Bi110  1  0.35158191  0.74046719  0.20942353  1
  Bi2+  Bi111  1  0.38417026  0.74228740  0.68539364  1
  Bi2+  Bi112  1  0.60932804  0.03625999  0.22871929  1
  Bi2+  Bi113  1  0.69160187  -0.01346303  0.70687763  1
  Bi2+  Bi114  1  0.50520170  0.28552775  0.19460813  1
  Bi2+  Bi115  1  0.60616199  0.23712776  0.69946862  1
  Bi2+  Bi116  1  0.63029656  0.50525364  0.22212402  1
  Bi2+  Bi117  1  0.65644171  0.53487350  0.69516978  1
  Bi2+  Bi118  1  0.61289033  0.75697087  0.21373813  1
  Bi2+  Bi119  1  0.58086591  0.76190573  0.68908364  1
  Bi2+  Bi120  1  0.85663928  -0.04745317  0.21227537  1
  Bi2+  Bi121  1  0.92852299  -0.08376844  0.71561046  1
  Bi2+  Bi122  1  0.86192921  0.20385366  0.20536492  1
  Bi2+  Bi123  1  0.84876138  0.18870564  0.71949045  1
  Bi2+  Bi124  1  0.89221117  0.48970626  0.21835601  1
  Bi2+  Bi125  1  0.83595356  0.48281637  0.73682271  1
  Bi2+  Bi126  1  0.95595662  0.67483277  0.19777489  1
  Bi2+  Bi127  1  0.86115935  0.73869692  0.70177198  1
  S2-  S128  1  -0.04701459  0.06637559  0.17616267  1
  S2-  S129  1  -0.01240747  0.14436006  0.65577171  1
  S2-  S130  1  -0.02614048  0.27593779  0.14849859  1
  S2-  S131  1  0.00978532  0.37809607  0.65917666  1
  S2-  S132  1  0.00852057  0.53036295  0.13989480  1
  S2-  S133  1  -0.07174345  0.59500150  0.66773388  1
  S2-  S134  1  -0.05337855  0.84005888  0.15699968  1
  S2-  S135  1  -0.00745813  0.79403303  0.64153059  1
  S2-  S136  1  0.14908797  0.14332258  0.14382471  1
  S2-  S137  1  0.22166830  0.12532375  0.65654055  1
  S2-  S138  1  0.16749453  0.38198080  0.13618497  1
  S2-  S139  1  0.23200583  0.36730730  0.66735832  1
  S2-  S140  1  0.28456310  0.59622255  0.15582347  1
  S2-  S141  1  0.14995891  0.62406695  0.64711893  1
  S2-  S142  1  0.33903075  0.88761877  0.14321030  1
  S2-  S143  1  0.27626769  0.86883838  0.65524410  1
  S2-  S144  1  0.50639384  0.12134352  0.15889585  1
  S2-  S145  1  0.48300828  0.13188270  0.66623579  1
  S2-  S146  1  0.50771265  0.49900405  0.14257937  1
  S2-  S147  1  0.47440814  0.35341333  0.67870077  1
  S2-  S148  1  0.49135481  0.71967042  0.14631333  1
  S2-  S149  1  0.52136257  0.54940560  0.64107644  1
  S2-  S150  1  0.55489250  0.90443928  0.18170836  1
  S2-  S151  1  0.55495371  0.92087933  0.65475754  1
  S2-  S152  1  0.73731113  0.03452259  0.15910527  1
  S2-  S153  1  0.71834935  0.13357189  0.64748442  1
  S2-  S154  1  0.73903041  0.27891787  0.14080674  1
  S2-  S155  1  0.67958580  0.38502477  0.64192650  1
  S2-  S156  1  0.70798957  0.61103705  0.16710752  1
  S2-  S157  1  0.72870512  0.68384748  0.64379252  1
  S2-  S158  1  0.74577427  0.81860144  0.17823534  1
  S2-  S159  1  0.79936830  0.91246811  0.64152472  1
  S2-  S160  1  0.02414465  -0.02493377  0.34651530  1
  S2-  S161  1  0.10423333  0.07493609  0.85967439  1
  S2-  S162  1  0.13813060  0.15093096  0.35166556  1
  S2-  S163  1  0.21000509  0.25677640  0.83816747  1
  S2-  S164  1  0.13566519  0.38272165  0.36036687  1
  S2-  S165  1  0.09841337  0.44020235  0.82745795  1
  S2-  S166  1  0.05097367  0.73746426  0.35781488  1
  S2-  S167  1  0.14413401  0.63218371  0.85356968  1
  S2-  S168  1  0.33693452  0.01222308  0.34790902  1
  S2-  S169  1  0.36852940  0.09612636  0.85287953  1
  S2-  S170  1  0.38396132  0.25435197  0.35126468  1
  S2-  S171  1  0.37461903  0.28130885  0.77596818  1
  S2-  S172  1  0.47458413  0.50450249  0.35787792  1
  S2-  S173  1  0.36875369  0.44686929  0.84677385  1
  S2-  S174  1  0.48002518  0.75571009  0.35280446  1
  S2-  S175  1  0.48947548  0.74828134  0.86373971  1
  S2-  S176  1  0.58738320  -0.00353470  0.33993993  1
  S2-  S177  1  0.61573617  -0.04297459  0.85843702  1
  S2-  S178  1  0.63262403  0.34158465  0.35654153  1
  S2-  S179  1  0.53788924  0.26871742  0.84615149  1
  S2-  S180  1  0.68350216  0.54811777  0.32005171  1
  S2-  S181  1  0.59986420  0.51120883  0.83808189  1
  S2-  S182  1  0.67163987  0.75865861  0.31859041  1
  S2-  S183  1  0.74027438  0.75363968  0.86225890  1
  S2-  S184  1  0.83667655  0.05962752  0.32333610  1
  S2-  S185  1  0.86289023  -0.02685960  0.84757303  1
  S2-  S186  1  0.91538482  0.26876473  0.34050442  1
  S2-  S187  1  0.97040868  0.24812745  0.85738026  1
  S2-  S188  1  0.89845334  0.58848867  0.35655437  1
  S2-  S189  1  0.86421949  0.53963661  0.84637639  1
  S2-  S190  1  0.86822398  0.82488816  0.32734997  1
  S2-  S191  1  0.97267800  0.75386864  0.85742727  1
  S2-  S192  1  0.00636265  0.13205639  0.44924322  1
  S2-  S193  1  -0.00890365  0.12187035  0.96546582  1
  S2-  S194  1  0.00550038  0.38278497  0.45404228  1
  S2-  S195  1  -0.00274868  0.38246164  0.95325087  1
  S2-  S196  1  0.01776111  0.62704939  0.46438759  1
  S2-  S197  1  -0.00679470  0.62386200  0.95529306  1
  S2-  S198  1  0.01414016  0.87980631  0.45283597  1
  S2-  S199  1  -0.00679472  0.87814039  0.95773355  1
  S2-  S200  1  0.26273875  0.13544197  0.45565569  1
  S2-  S201  1  0.24197164  0.12178435  0.95655898  1
  S2-  S202  1  0.26267302  0.37959553  0.45974515  1
  S2-  S203  1  0.24312940  0.37970804  0.94362161  1
  S2-  S204  1  0.25911123  0.63296679  0.46063153  1
  S2-  S205  1  0.25114419  0.62937341  0.95229824  1
  S2-  S206  1  0.25948760  0.88455046  0.45061476  1
  S2-  S207  1  0.24223103  0.87362689  0.94911853  1
  S2-  S208  1  0.51314899  0.13050375  0.45741131  1
  S2-  S209  1  0.49413339  0.12146592  0.95374911  1
  S2-  S210  1  0.51013573  0.38207991  0.46536220  1
  S2-  S211  1  0.48821179  0.37526418  0.95696081  1
  S2-  S212  1  0.50767429  0.63329974  0.45322735  1
  S2-  S213  1  0.49244982  0.62212925  0.95987928  1
  S2-  S214  1  0.50887868  0.88497507  0.45210647  1
  S2-  S215  1  0.48698128  0.88147434  0.96328296  1
  S2-  S216  1  0.75795865  0.12983310  0.44339810  1
  S2-  S217  1  0.73859464  0.12553773  0.96376300  1
  S2-  S218  1  0.76370557  0.38498596  0.44974290  1
  S2-  S219  1  0.74291269  0.37248622  0.94808514  1
  S2-  S220  1  0.75490364  0.63420286  0.44465858  1
  S2-  S221  1  0.74195433  0.62150733  0.95878112  1
  S2-  S222  1  0.75790572  0.88138117  0.44055124  1
  S2-  S223  1  0.74307488  0.87879047  0.96927305  1
  S2-  S224  1  0.11791521  -0.00082976  0.05180277  1
  S2-  S225  1  0.13468424  0.00636540  0.54266486  1
  S2-  S226  1  0.11942711  0.25251395  0.03573478  1
  S2-  S227  1  0.13404751  0.25819039  0.54321068  1
  S2-  S228  1  0.12225371  0.50799189  0.03233337  1
  S2-  S229  1  0.13696931  0.50347208  0.54603730  1
  S2-  S230  1  0.11665677  0.75127337  0.04469516  1
  S2-  S231  1  0.13779268  0.76159039  0.54656217  1
  S2-  S232  1  0.36520583  0.00417577  0.04350903  1
  S2-  S233  1  0.38873275  0.00801055  0.55161436  1
  S2-  S234  1  0.36601529  0.25335487  0.06086578  1
  S2-  S235  1  0.38922549  0.25775947  0.55740850  1
  S2-  S236  1  0.36679108  0.50117760  0.04468483  1
  S2-  S237  1  0.37998529  0.50742936  0.55185261  1
  S2-  S238  1  0.36959615  0.74738909  0.04142993  1
  S2-  S239  1  0.38428606  0.75611915  0.54296951  1
  S2-  S240  1  0.61290563  0.00164736  0.05781201  1
  S2-  S241  1  0.63866911  0.00361870  0.54034160  1
  S2-  S242  1  0.61243848  0.25177912  0.04418228  1
  S2-  S243  1  0.63804665  0.25553841  0.54479244  1
  S2-  S244  1  0.62497132  0.49768840  0.04552352  1
  S2-  S245  1  0.64054612  0.51317385  0.53464364  1
  S2-  S246  1  0.61961075  0.75129157  0.04931407  1
  S2-  S247  1  0.63730135  0.76013835  0.53290423  1
  S2-  S248  1  0.87280844  0.00555318  0.05556951  1
  S2-  S249  1  0.88507294  0.00594811  0.53322881  1
  S2-  S250  1  0.87408599  0.25475543  0.04268351  1
  S2-  S251  1  0.88340419  0.25773656  0.54651287  1
  S2-  S252  1  0.86753992  0.50121860  0.04927913  1
  S2-  S253  1  0.88284692  0.50924119  0.55039740  1
  S2-  S254  1  0.86951132  0.74968085  0.04699276  1
  S2-  S255  1  0.88269754  0.75655064  0.53412305  1
