# generated using pymatgen
data_La12Ce14Pr13Nd13Sm12(BiS2)64
_symmetry_space_group_name_H-M   'P 1'
_cell_length_a   16.16018389
_cell_length_b   16.14779166
_cell_length_c   27.24316684
_cell_angle_alpha   90.32378878
_cell_angle_beta   90.03173976
_cell_angle_gamma   89.93994900
_symmetry_Int_Tables_number   1
_chemical_formula_structural   La12Ce14Pr13Nd13Sm12(BiS2)64
_chemical_formula_sum   'La12 Ce14 Pr13 Nd13 Sm12 Bi64 S128'
_cell_volume   7109.02084365
_cell_formula_units_Z   1
loop_
 _symmetry_equiv_pos_site_id
 _symmetry_equiv_pos_as_xyz
  1  'x, y, z'
loop_
 _atom_type_symbol
 _atom_type_oxidation_number
  La3+  3.0
  Ce3+  3.0
  Pr3+  3.0
  Nd3+  3.0
  Sm3+  3.0
  Bi2+  2.0
  S2-  -2.0
loop_
 _atom_site_type_symbol
 _atom_site_label
 _atom_site_symmetry_multiplicity
 _atom_site_fract_x
 _atom_site_fract_y
 _atom_site_fract_z
 _atom_site_occupancy
  La3+  La0  1  0.23365518  0.60535943  0.59743809  1
  La3+  La1  1  0.86660800  0.48596554  0.93914021  1
  La3+  La2  1  0.36023334  0.00328922  0.89011443  1
  La3+  La3  1  0.61632531  0.49483235  0.93275146  1
  La3+  La4  1  0.86456882  0.00073481  0.93699043  1
  La3+  La5  1  0.62480898  0.74954978  0.89346102  1
  La3+  La6  1  0.24176014  0.87761545  0.05747305  1
  La3+  La7  1  0.73483247  0.38581299  0.08985209  1
  La3+  La8  1  0.49580498  0.36718564  0.56540061  1
  La3+  La9  1  0.73731421  0.87455527  0.06512816  1
  La3+  La10  1  0.12078625  -0.01539997  0.41421827  1
  La3+  La11  1  -0.00003915  0.38086962  0.09416144  1
  Ce3+  Ce12  1  0.86449936  0.74328672  0.94150771  1
  Ce3+  Ce13  1  0.36577042  0.24818002  0.93701261  1
  Ce3+  Ce14  1  0.49808255  0.61773691  0.56436582  1
  Ce3+  Ce15  1  0.00203242  0.86425050  0.55666069  1
  Ce3+  Ce16  1  0.24576992  0.36601703  0.55435964  1
  Ce3+  Ce17  1  0.86937666  0.48922637  0.43420501  1
  Ce3+  Ce18  1  0.12213822  0.23896098  0.43421005  1
  Ce3+  Ce19  1  0.24514658  0.11077901  0.55210347  1
  Ce3+  Ce20  1  0.61719778  0.48922728  0.43615997  1
  Ce3+  Ce21  1  0.86753430  0.23995880  0.43115145  1
  Ce3+  Ce22  1  0.36671223  0.49844881  0.93246525  1
  Ce3+  Ce23  1  0.12084766  0.74787373  0.93829158  1
  Ce3+  Ce24  1  0.62103967  0.23855209  0.44106860  1
  Ce3+  Ce25  1  0.73520706  0.12635064  0.06996136  1
  Pr3+  Pr26  1  -0.02021373  0.11419263  0.09322980  1
  Pr3+  Pr27  1  -0.00193568  0.11207879  0.55215765  1
  Pr3+  Pr28  1  0.49041570  0.62696675  0.04825687  1
  Pr3+  Pr29  1  0.50819173  0.86782982  0.57407046  1
  Pr3+  Pr30  1  0.49282310  0.12389909  0.05513575  1
  Pr3+  Pr31  1  0.11229494  -0.00019121  0.93331836  1
  Pr3+  Pr32  1  -0.00947763  0.87406067  0.05806602  1
  Pr3+  Pr33  1  0.86737680  -0.01654827  0.42855078  1
  Pr3+  Pr34  1  0.48826445  0.37716143  0.06577317  1
  Pr3+  Pr35  1  0.11325597  0.24612019  0.95275532  1
  Pr3+  Pr36  1  -0.00300049  0.36596906  0.55385768  1
  Pr3+  Pr37  1  0.49829965  0.11163369  0.55680580  1
  Pr3+  Pr38  1  0.36042228  0.74402161  0.90414520  1
  Nd3+  Nd39  1  0.86568714  0.25176196  0.96512790  1
  Nd3+  Nd40  1  0.24177060  0.86960472  0.57771630  1
  Nd3+  Nd41  1  0.74715468  0.11105212  0.55852572  1
  Nd3+  Nd42  1  0.37177304  -0.01665145  0.44590080  1
  Nd3+  Nd43  1  0.11734937  0.49424167  0.94366562  1
  Nd3+  Nd44  1  0.75559677  0.86237070  0.56587183  1
  Nd3+  Nd45  1  0.48965510  0.87255047  0.04271569  1
  Nd3+  Nd46  1  0.62261617  -0.02032298  0.42668694  1
  Nd3+  Nd47  1  0.74720244  0.36091194  0.56031500  1
  Nd3+  Nd48  1  0.24377568  0.37272780  0.06574059  1
  Nd3+  Nd49  1  0.12631511  0.73886534  0.43840597  1
  Nd3+  Nd50  1  0.24407967  0.62437425  0.05824093  1
  Nd3+  Nd51  1  0.61797227  0.24855692  0.94068442  1
  Sm3+  Sm52  1  0.37257759  0.49148049  0.44660933  1
  Sm3+  Sm53  1  0.23924294  0.12234905  0.05544905  1
  Sm3+  Sm54  1  0.37363891  0.23763014  0.44319452  1
  Sm3+  Sm55  1  0.12365243  0.48833637  0.43542498  1
  Sm3+  Sm56  1  0.36759392  0.73800937  0.45676803  1
  Sm3+  Sm57  1  0.74008134  0.62270558  0.05737555  1
  Sm3+  Sm58  1  0.74884596  0.61134108  0.55507627  1
  Sm3+  Sm59  1  0.61981626  0.74148901  0.44704921  1
  Sm3+  Sm60  1  0.00064805  0.61475011  0.54929018  1
  Sm3+  Sm61  1  -0.00736019  0.62088156  0.05767444  1
  Sm3+  Sm62  1  0.87161272  0.73904058  0.44342189  1
  Sm3+  Sm63  1  0.61500882  -0.00321240  0.93373737  1
  Bi2+  Bi64  1  0.04082641  0.12741823  0.29977476  1
  Bi2+  Bi65  1  0.01066857  0.13819760  0.78748358  1
  Bi2+  Bi66  1  -0.00153967  0.36760046  0.30518146  1
  Bi2+  Bi67  1  0.00238644  0.40172992  0.82325512  1
  Bi2+  Bi68  1  0.03798245  0.63792021  0.28834096  1
  Bi2+  Bi69  1  -0.02362543  0.63986675  0.77599393  1
  Bi2+  Bi70  1  -0.01305854  0.85284240  0.28932045  1
  Bi2+  Bi71  1  -0.02659084  0.83795563  0.78450334  1
  Bi2+  Bi72  1  0.32230484  0.12663377  0.22581832  1
  Bi2+  Bi73  1  0.23981876  0.12083211  0.77712302  1
  Bi2+  Bi74  1  0.28515625  0.46647257  0.28210133  1
  Bi2+  Bi75  1  0.28661686  0.37127769  0.79489298  1
  Bi2+  Bi76  1  0.24392687  0.66611462  0.29289963  1
  Bi2+  Bi77  1  0.23762160  0.60825208  0.78710146  1
  Bi2+  Bi78  1  0.26501302  0.86706033  0.30019532  1
  Bi2+  Bi79  1  0.22975590  0.86323273  0.77796615  1
  Bi2+  Bi80  1  0.47318625  0.10910309  0.29584222  1
  Bi2+  Bi81  1  0.52789140  0.18754964  0.78568350  1
  Bi2+  Bi82  1  0.47021319  0.34500578  0.29275607  1
  Bi2+  Bi83  1  0.47277661  0.38702694  0.82511777  1
  Bi2+  Bi84  1  0.46084418  0.63876086  0.29821422  1
  Bi2+  Bi85  1  0.52306683  0.56586218  0.78329089  1
  Bi2+  Bi86  1  0.50957124  0.90104580  0.28289130  1
  Bi2+  Bi87  1  0.54792098  0.89876841  0.77257288  1
  Bi2+  Bi88  1  0.66719073  0.11075780  0.28163945  1
  Bi2+  Bi89  1  0.70668003  0.12073728  0.82207613  1
  Bi2+  Bi90  1  0.72572118  0.38601024  0.29525002  1
  Bi2+  Bi91  1  0.75218751  0.41188329  0.79758714  1
  Bi2+  Bi92  1  0.74276517  0.62714549  0.24074867  1
  Bi2+  Bi93  1  0.77898987  0.65450995  0.77983667  1
  Bi2+  Bi94  1  0.73510740  0.85852849  0.29819846  1
  Bi2+  Bi95  1  0.83803002  0.97822598  0.80341044  1
  Bi2+  Bi96  1  0.11876158  0.00694479  0.21002684  1
  Bi2+  Bi97  1  0.09288580  0.02132391  0.70249814  1
  Bi2+  Bi98  1  0.21916293  0.29413712  0.23948645  1
  Bi2+  Bi99  1  0.13115124  0.27938146  0.74610367  1
  Bi2+  Bi100  1  0.12261916  0.51438408  0.21000398  1
  Bi2+  Bi101  1  0.10289447  0.47143721  0.70314560  1
  Bi2+  Bi102  1  0.09820306  0.76312393  0.20410208  1
  Bi2+  Bi103  1  0.08462381  0.74675827  0.70599671  1
  Bi2+  Bi104  1  0.36558218  -0.11046159  0.20373413  1
  Bi2+  Bi105  1  0.37868532  0.00376760  0.69586529  1
  Bi2+  Bi106  1  0.37997800  0.28974394  0.17011058  1
  Bi2+  Bi107  1  0.37166921  0.24136685  0.71880077  1
  Bi2+  Bi108  1  0.36498450  0.48800065  0.17496737  1
  Bi2+  Bi109  1  0.41488000  0.43008924  0.71293862  1
  Bi2+  Bi110  1  0.35984764  0.69091526  0.19819311  1
  Bi2+  Bi111  1  0.40796767  0.73828931  0.71613236  1
  Bi2+  Bi112  1  0.62190343  -0.02137653  0.19798433  1
  Bi2+  Bi113  1  0.66130283  0.07433966  0.69656006  1
  Bi2+  Bi114  1  0.56206964  0.23858365  0.21169378  1
  Bi2+  Bi115  1  0.66312950  0.28182078  0.72455295  1
  Bi2+  Bi116  1  0.54376101  0.49873112  0.22233622  1
  Bi2+  Bi117  1  0.65374001  0.52735617  0.68251236  1
  Bi2+  Bi118  1  0.58103599  0.72725931  0.22686599  1
  Bi2+  Bi119  1  0.72125638  0.79463849  0.70785750  1
  Bi2+  Bi120  1  0.86741453  -0.02482730  0.21618383  1
  Bi2+  Bi121  1  0.86942772  0.02893754  0.69460929  1
  Bi2+  Bi122  1  0.86743903  0.22021730  0.22657523  1
  Bi2+  Bi123  1  0.84455393  0.24197716  0.77731174  1
  Bi2+  Bi124  1  0.86597872  0.48352378  0.20926685  1
  Bi2+  Bi125  1  0.90188145  0.44386899  0.72425508  1
  Bi2+  Bi126  1  0.90708476  0.72136848  0.21281901  1
  Bi2+  Bi127  1  0.89767921  0.83840026  0.67429676  1
  S2-  S128  1  0.02318615  0.14857392  0.19313598  1
  S2-  S129  1  -0.00641716  0.12628519  0.65294890  1
  S2-  S130  1  -0.03343891  0.34787978  0.19880545  1
  S2-  S131  1  0.00115332  0.36079860  0.65421615  1
  S2-  S132  1  -0.00925102  0.53982103  0.14477976  1
  S2-  S133  1  0.06613278  0.61179247  0.64062027  1
  S2-  S134  1  -0.01217711  0.95640460  0.14714072  1
  S2-  S135  1  0.09754018  0.88113261  0.63776083  1
  S2-  S136  1  0.21226990  0.09554566  0.15147000  1
  S2-  S137  1  0.23601261  0.06990383  0.64646959  1
  S2-  S138  1  0.15712060  0.37338776  0.15344628  1
  S2-  S139  1  0.23087380  0.43953096  0.64210276  1
  S2-  S140  1  0.19799616  0.63925976  0.15455741  1
  S2-  S141  1  0.29029936  0.63444108  0.69358413  1
  S2-  S142  1  0.20250204  0.87770196  0.15646247  1
  S2-  S143  1  0.29088248  0.85503258  0.67816675  1
  S2-  S144  1  0.60033178  0.12194928  0.13682457  1
  S2-  S145  1  0.49850813  0.11003477  0.65717460  1
  S2-  S146  1  0.58454695  0.38475847  0.15043102  1
  S2-  S147  1  0.55701338  0.38022595  0.65925352  1
  S2-  S148  1  0.50966065  0.62751104  0.14966624  1
  S2-  S149  1  0.51573645  0.63709095  0.66164030  1
  S2-  S150  1  0.51125665  0.88898240  0.14330663  1
  S2-  S151  1  0.47878689  0.87899573  0.67357114  1
  S2-  S152  1  0.82604826  0.10122949  0.15438401  1
  S2-  S153  1  0.74868817  0.19476666  0.64657994  1
  S2-  S154  1  0.76806188  0.33721541  0.19291154  1
  S2-  S155  1  0.77401195  0.43131522  0.64952596  1
  S2-  S156  1  0.74205681  0.54684784  0.14585452  1
  S2-  S157  1  0.75846882  0.64260510  0.65242940  1
  S2-  S158  1  0.75648568  0.87422988  0.16612727  1
  S2-  S159  1  0.66252743  0.91454766  0.64314176  1
  S2-  S160  1  0.17425754  0.04368868  0.31805536  1
  S2-  S161  1  0.20104268  -0.00837107  0.84331340  1
  S2-  S162  1  0.13193622  0.26632799  0.33653042  1
  S2-  S163  1  0.09310453  0.25919223  0.85253575  1
  S2-  S164  1  0.09368446  0.48705991  0.33847317  1
  S2-  S165  1  0.12691522  0.50748189  0.84400905  1
  S2-  S166  1  0.13164807  0.83527152  0.35562056  1
  S2-  S167  1  0.19604022  0.74107604  0.85000332  1
  S2-  S168  1  0.38653688  -0.02601152  0.34763380  1
  S2-  S169  1  0.45983027  0.02755596  0.80113750  1
  S2-  S170  1  0.37904192  0.23733258  0.34493816  1
  S2-  S171  1  0.33320970  0.17408066  0.85111637  1
  S2-  S172  1  0.41676014  0.48707232  0.35187236  1
  S2-  S173  1  0.36127096  0.59145917  0.84784673  1
  S2-  S174  1  0.36516058  0.74762922  0.35756295  1
  S2-  S175  1  0.36629520  0.85847122  0.82768364  1
  S2-  S176  1  0.74471066  -0.00051297  0.35289578  1
  S2-  S177  1  0.63865848  -0.08942734  0.84872206  1
  S2-  S178  1  0.66463210  0.25191078  0.34656006  1
  S2-  S179  1  0.63744031  0.36054600  0.86396801  1
  S2-  S180  1  0.64549064  0.50217306  0.34002020  1
  S2-  S181  1  0.64647446  0.58807054  0.84526217  1
  S2-  S182  1  0.60716669  0.83580417  0.36508667  1
  S2-  S183  1  0.51738542  0.73274950  0.80657118  1
  S2-  S184  1  0.97526740  -0.00679165  0.34902795  1
  S2-  S185  1  0.98180851  0.02735433  0.86219812  1
  S2-  S186  1  0.89534427  0.22675434  0.33293965  1
  S2-  S187  1  0.86674440  0.33243853  0.87493122  1
  S2-  S188  1  0.86463959  0.46563034  0.33641144  1
  S2-  S189  1  0.88432644  0.56026805  0.84642024  1
  S2-  S190  1  0.85400352  0.79074123  0.35094321  1
  S2-  S191  1  0.79275166  0.76335984  0.85337300  1
  S2-  S192  1  -0.00441837  0.11759445  0.44636956  1
  S2-  S193  1  -0.01323095  0.12744317  0.96953469  1
  S2-  S194  1  -0.00285967  0.36588466  0.44667327  1
  S2-  S195  1  -0.00378889  0.37291472  0.97428918  1
  S2-  S196  1  -0.00199866  0.61473173  0.44460587  1
  S2-  S197  1  -0.00478343  0.62150896  0.95353647  1
  S2-  S198  1  -0.00461427  0.85914676  0.45323687  1
  S2-  S199  1  -0.00986651  0.86829493  0.95132288  1
  S2-  S200  1  0.25033671  0.11362869  0.44540591  1
  S2-  S201  1  0.24018799  0.11986474  0.95358657  1
  S2-  S202  1  0.25087742  0.36594469  0.44712596  1
  S2-  S203  1  0.24205786  0.37136205  0.95537550  1
  S2-  S204  1  0.24749656  0.61075800  0.44620256  1
  S2-  S205  1  0.24186869  0.62170031  0.95348080  1
  S2-  S206  1  0.24871985  0.86261866  0.46234576  1
  S2-  S207  1  0.24417236  0.87469392  0.94959948  1
  S2-  S208  1  0.49746805  0.11097509  0.44894363  1
  S2-  S209  1  0.49265021  0.12157949  0.94611953  1
  S2-  S210  1  0.49419332  0.36368674  0.45649140  1
  S2-  S211  1  0.48740608  0.37149660  0.95840796  1
  S2-  S212  1  0.49601266  0.61785197  0.45671394  1
  S2-  S213  1  0.49354605  0.63123551  0.94283392  1
  S2-  S214  1  0.49265924  0.85891789  0.46602123  1
  S2-  S215  1  0.48801074  0.87481593  0.93818419  1
  S2-  S216  1  0.74592855  0.11559273  0.45288577  1
  S2-  S217  1  0.73962826  0.12522482  0.96071064  1
  S2-  S218  1  0.74496122  0.36680316  0.45301587  1
  S2-  S219  1  0.73840123  0.37285242  0.97338102  1
  S2-  S220  1  0.74475365  0.61801449  0.44891608  1
  S2-  S221  1  0.74231279  0.62171481  0.95466762  1
  S2-  S222  1  0.74772687  0.85909854  0.46076171  1
  S2-  S223  1  0.74141555  0.87207461  0.95672340  1
  S2-  S224  1  0.11352663  0.00108338  0.04253248  1
  S2-  S225  1  0.12236798  -0.00951454  0.53284284  1
  S2-  S226  1  0.11613358  0.24445610  0.05929460  1
  S2-  S227  1  0.12299518  0.24024507  0.54311341  1
  S2-  S228  1  0.12179701  0.50024016  0.04844417  1
  S2-  S229  1  0.12245796  0.49061873  0.53820084  1
  S2-  S230  1  0.11470281  0.74689309  0.04525930  1
  S2-  S231  1  0.12899993  0.73407815  0.54350961  1
  S2-  S232  1  0.36722691  0.00197010  0.05300508  1
  S2-  S233  1  0.37323733  -0.01496784  0.55224562  1
  S2-  S234  1  0.36358077  0.24562789  0.04333270  1
  S2-  S235  1  0.37103804  0.23859453  0.54931056  1
  S2-  S236  1  0.36415482  0.49873587  0.04032120  1
  S2-  S237  1  0.36989949  0.49598308  0.55157047  1
  S2-  S238  1  0.36452362  0.75071187  0.04692463  1
  S2-  S239  1  0.36674831  0.73864956  0.56162126  1
  S2-  S240  1  0.61445338  -0.00364423  0.03702189  1
  S2-  S241  1  0.62385841  -0.00932815  0.53488414  1
  S2-  S242  1  0.61378576  0.25476953  0.04531500  1
  S2-  S243  1  0.62061331  0.23944998  0.54736293  1
  S2-  S244  1  0.61366875  0.50297883  0.04265336  1
  S2-  S245  1  0.62333224  0.49188413  0.54404109  1
  S2-  S246  1  0.61770504  0.74744641  0.05082239  1
  S2-  S247  1  0.62773289  0.73884238  0.55063283  1
  S2-  S248  1  0.86244721  -0.00196263  0.04540926  1
  S2-  S249  1  0.87258588  -0.01149907  0.54206392  1
  S2-  S250  1  0.86692774  0.25550185  0.06951762  1
  S2-  S251  1  0.87238332  0.24020464  0.54032170  1
  S2-  S252  1  0.86738446  0.50055515  0.04761411  1
  S2-  S253  1  0.87497701  0.49315070  0.54137368  1
  S2-  S254  1  0.86729297  0.74457013  0.05164415  1
  S2-  S255  1  0.87577801  0.73385995  0.54687223  1
