# generated using pymatgen
data_La12Ce14Pr13Nd13Sm12(BiS2)64
_symmetry_space_group_name_H-M   'P 1'
_cell_length_a   16.06395466
_cell_length_b   16.07192754
_cell_length_c   27.40936409
_cell_angle_alpha   90.09795795
_cell_angle_beta   89.85454429
_cell_angle_gamma   89.91601606
_symmetry_Int_Tables_number   1
_chemical_formula_structural   La12Ce14Pr13Nd13Sm12(BiS2)64
_chemical_formula_sum   'La12 Ce14 Pr13 Nd13 Sm12 Bi64 S128'
_cell_volume   7076.47361453
_cell_formula_units_Z   1
loop_
 _symmetry_equiv_pos_site_id
 _symmetry_equiv_pos_as_xyz
  1  'x, y, z'
loop_
 _atom_type_symbol
 _atom_type_oxidation_number
  La3+  3.0
  Ce3+  3.0
  Pr3+  3.0
  Nd3+  3.0
  Sm3+  3.0
  Bi2+  2.0
  S2-  -2.0
loop_
 _atom_site_type_symbol
 _atom_site_label
 _atom_site_symmetry_multiplicity
 _atom_site_fract_x
 _atom_site_fract_y
 _atom_site_fract_z
 _atom_site_occupancy
  La3+  La0  1  0.50011692  0.09682806  0.56943974  1
  La3+  La1  1  0.37175931  0.47157194  0.41175155  1
  La3+  La2  1  0.27349064  0.14352439  0.07534634  1
  La3+  La3  1  -0.00072578  0.10007030  0.56802004  1
  La3+  La4  1  0.14351373  0.75652791  0.93069283  1
  La3+  La5  1  0.62387789  0.22144618  0.43707754  1
  La3+  La6  1  0.64265052  0.76500865  0.92218954  1
  La3+  La7  1  0.13106656  0.25149122  0.90810652  1
  La3+  La8  1  0.64777693  0.50461672  0.93122391  1
  La3+  La9  1  0.87162121  0.71981538  0.40429005  1
  La3+  La10  1  0.39974039  0.24873708  0.92118189  1
  La3+  La11  1  0.49986689  0.34815840  0.57747711  1
  Ce3+  Ce12  1  0.12839871  0.47816979  0.44443265  1
  Ce3+  Ce13  1  -0.00307429  0.85646578  0.55651585  1
  Ce3+  Ce14  1  0.62426457  0.72458594  0.43987700  1
  Ce3+  Ce15  1  -0.00294128  0.60245351  0.56127389  1
  Ce3+  Ce16  1  0.75212166  0.85639198  0.55102669  1
  Ce3+  Ce17  1  0.37037794  -0.01950485  0.42877606  1
  Ce3+  Ce18  1  0.89074901  0.49946471  0.93971376  1
  Ce3+  Ce19  1  0.76827460  0.63352937  0.06055646  1
  Ce3+  Ce20  1  0.37581863  0.72807211  0.44715512  1
  Ce3+  Ce21  1  0.64501357  0.25362902  0.94307096  1
  Ce3+  Ce22  1  0.77151381  0.87218269  0.07898380  1
  Ce3+  Ce23  1  0.75123333  0.60051757  0.55583931  1
  Ce3+  Ce24  1  0.12474821  0.72760150  0.44931080  1
  Ce3+  Ce25  1  0.24990421  0.85695150  0.56628169  1
  Pr3+  Pr26  1  0.00277797  0.35254490  0.58910525  1
  Pr3+  Pr27  1  0.25193394  0.35048093  0.57972482  1
  Pr3+  Pr28  1  0.87716670  0.22504313  0.44356420  1
  Pr3+  Pr29  1  0.76335623  0.37602937  0.07520054  1
  Pr3+  Pr30  1  0.02467021  0.13349188  0.07637257  1
  Pr3+  Pr31  1  0.02260284  0.88103647  0.08204986  1
  Pr3+  Pr32  1  0.39861863  0.49668540  0.91782777  1
  Pr3+  Pr33  1  0.64727434  0.00365855  0.94559749  1
  Pr3+  Pr34  1  0.24935950  0.10197686  0.56518921  1
  Pr3+  Pr35  1  0.89662521  0.75792429  0.93544855  1
  Pr3+  Pr36  1  0.27025341  0.87656618  0.06833279  1
  Pr3+  Pr37  1  0.12660681  -0.02282736  0.43158767  1
  Pr3+  Pr38  1  0.87974723  -0.01957142  0.42093191  1
  Nd3+  Nd39  1  0.14492416  0.01019234  0.95251775  1
  Nd3+  Nd40  1  0.51981641  0.38404314  0.06111963  1
  Nd3+  Nd41  1  0.50121367  0.59766397  0.55552656  1
  Nd3+  Nd42  1  0.89913227  0.00363677  0.95139082  1
  Nd3+  Nd43  1  0.75055298  0.34655167  0.58617896  1
  Nd3+  Nd44  1  0.02080007  0.37630691  0.06639555  1
  Nd3+  Nd45  1  0.62691304  -0.02394341  0.43154088  1
  Nd3+  Nd46  1  0.62442806  0.46876754  0.43697611  1
  Nd3+  Nd47  1  0.75180485  0.09711650  0.56510225  1
  Nd3+  Nd48  1  0.12885455  0.22914683  0.44377582  1
  Nd3+  Nd49  1  0.76747976  0.12437477  0.06928224  1
  Nd3+  Nd50  1  0.27784795  0.38106810  0.05596897  1
  Nd3+  Nd51  1  0.87610183  0.47700193  0.44077668  1
  Sm3+  Sm52  1  0.38822506  0.00995966  0.94131923  1
  Sm3+  Sm53  1  0.51471020  0.13049443  0.05988034  1
  Sm3+  Sm54  1  0.14744267  0.49725738  0.94433745  1
  Sm3+  Sm55  1  0.51279335  0.87712166  0.05700571  1
  Sm3+  Sm56  1  0.01879736  0.62826737  0.05242698  1
  Sm3+  Sm57  1  0.39098554  0.75301664  0.92960815  1
  Sm3+  Sm58  1  0.27140755  0.62635129  0.05446473  1
  Sm3+  Sm59  1  0.89517117  0.25292268  0.94946874  1
  Sm3+  Sm60  1  0.49963778  0.85496445  0.55509874  1
  Sm3+  Sm61  1  0.25096275  0.60126780  0.56156498  1
  Sm3+  Sm62  1  0.51843354  0.63098054  0.05119360  1
  Sm3+  Sm63  1  0.37620854  0.22607364  0.43995045  1
  Bi2+  Bi64  1  0.00284908  0.12063613  0.29557738  1
  Bi2+  Bi65  1  -0.01840931  0.11797589  0.79958040  1
  Bi2+  Bi66  1  0.05817052  0.37752439  0.28736668  1
  Bi2+  Bi67  1  -0.06092587  0.44590059  0.80817371  1
  Bi2+  Bi68  1  0.00146366  0.57128666  0.28186445  1
  Bi2+  Bi69  1  -0.02005623  0.64283430  0.80905455  1
  Bi2+  Bi70  1  0.02943301  0.84271776  0.28648060  1
  Bi2+  Bi71  1  -0.03845239  0.89892222  0.78284611  1
  Bi2+  Bi72  1  0.26880467  0.08853363  0.29706713  1
  Bi2+  Bi73  1  0.24216912  0.09061799  0.79037450  1
  Bi2+  Bi74  1  0.25838574  0.35889153  0.29053317  1
  Bi2+  Bi75  1  0.24222910  0.41564767  0.79336337  1
  Bi2+  Bi76  1  0.19358594  0.62631360  0.28804276  1
  Bi2+  Bi77  1  0.17555365  0.65092876  0.79554809  1
  Bi2+  Bi78  1  0.28602275  0.82660976  0.28236797  1
  Bi2+  Bi79  1  0.24846189  0.89444160  0.79040702  1
  Bi2+  Bi80  1  0.49231120  0.14541156  0.24167222  1
  Bi2+  Bi81  1  0.50150647  0.05936954  0.78570438  1
  Bi2+  Bi82  1  0.52361572  0.39109728  0.29607069  1
  Bi2+  Bi83  1  0.52268289  0.36782669  0.78787610  1
  Bi2+  Bi84  1  0.53515132  0.65080510  0.31310001  1
  Bi2+  Bi85  1  0.46293779  0.62034204  0.78717575  1
  Bi2+  Bi86  1  0.47021442  0.89374782  0.31240725  1
  Bi2+  Bi87  1  0.49981882  0.83911104  0.76423255  1
  Bi2+  Bi88  1  0.72915221  0.18719558  0.29785492  1
  Bi2+  Bi89  1  0.69809661  0.06929526  0.80001316  1
  Bi2+  Bi90  1  0.80796541  0.37230207  0.25834316  1
  Bi2+  Bi91  1  0.76578071  0.34096741  0.79490206  1
  Bi2+  Bi92  1  0.75264187  0.59642758  0.28055078  1
  Bi2+  Bi93  1  0.77987865  0.66443424  0.77448173  1
  Bi2+  Bi94  1  0.71438196  0.97658919  0.30040504  1
  Bi2+  Bi95  1  0.73249315  0.87436902  0.77541859  1
  Bi2+  Bi96  1  0.12298991  -0.02556093  0.21651346  1
  Bi2+  Bi97  1  0.10802721  -0.01591348  0.71156027  1
  Bi2+  Bi98  1  0.13529859  0.23321382  0.21452746  1
  Bi2+  Bi99  1  0.12127840  0.25732131  0.71175661  1
  Bi2+  Bi100  1  0.16954985  0.48054767  0.21009785  1
  Bi2+  Bi101  1  0.07641537  0.51675971  0.73060004  1
  Bi2+  Bi102  1  0.08656715  0.71756978  0.20578864  1
  Bi2+  Bi103  1  0.13926113  0.78393631  0.70938412  1
  Bi2+  Bi104  1  0.37940901  -0.02572050  0.22263902  1
  Bi2+  Bi105  1  0.37240242  -0.00776973  0.70565154  1
  Bi2+  Bi106  1  0.37263072  0.28600813  0.20416170  1
  Bi2+  Bi107  1  0.37901161  0.24933825  0.71269230  1
  Bi2+  Bi108  1  0.39276842  0.53770752  0.20353865  1
  Bi2+  Bi109  1  0.34813424  0.53344486  0.70642060  1
  Bi2+  Bi110  1  0.43128468  0.75601229  0.21047354  1
  Bi2+  Bi111  1  0.34067052  0.79226467  0.70290725  1
  Bi2+  Bi112  1  0.60609106  0.00190526  0.20287375  1
  Bi2+  Bi113  1  0.62882136  0.01365498  0.69900246  1
  Bi2+  Bi114  1  0.63167193  0.27339472  0.20779658  1
  Bi2+  Bi115  1  0.63271336  0.25714243  0.71852379  1
  Bi2+  Bi116  1  0.76231730  0.51178538  0.18017990  1
  Bi2+  Bi117  1  0.60080699  0.52973887  0.71160554  1
  Bi2+  Bi118  1  0.61601082  0.82148371  0.24526939  1
  Bi2+  Bi119  1  0.63911143  0.74178532  0.70683643  1
  Bi2+  Bi120  1  0.86350381  -0.02188560  0.21910228  1
  Bi2+  Bi121  1  0.86674493  0.02078288  0.70494267  1
  Bi2+  Bi122  1  0.88972335  0.20681239  0.21702630  1
  Bi2+  Bi123  1  0.86431071  0.21887384  0.72217120  1
  Bi2+  Bi124  1  0.95290886  0.45761100  0.18877758  1
  Bi2+  Bi125  1  0.81303633  0.48791008  0.72078511  1
  Bi2+  Bi126  1  0.82131168  0.75618920  0.22438469  1
  Bi2+  Bi127  1  0.93989920  0.74847050  0.70787856  1
  S2-  S128  1  -0.00199213  0.02307394  0.15712532  1
  S2-  S129  1  0.00773093  0.20527255  0.65157518  1
  S2-  S130  1  0.01397089  0.26553402  0.14705230  1
  S2-  S131  1  -0.12666169  0.38024901  0.65595615  1
  S2-  S132  1  -0.00964595  0.62114777  0.14940156  1
  S2-  S133  1  -0.01121581  0.60077324  0.65957124  1
  S2-  S134  1  -0.10072118  0.84657458  0.15534554  1
  S2-  S135  1  -0.00986454  0.96345047  0.63712498  1
  S2-  S136  1  0.19609849  0.09460142  0.16659206  1
  S2-  S137  1  0.25239735  0.20508345  0.65091883  1
  S2-  S138  1  0.24099451  0.29225550  0.14155825  1
  S2-  S139  1  0.13211393  0.39131244  0.65729345  1
  S2-  S140  1  0.26746963  0.60319834  0.15348841  1
  S2-  S141  1  0.24814220  0.63189837  0.65913251  1
  S2-  S142  1  0.15977533  0.85004467  0.14722451  1
  S2-  S143  1  0.23833321  0.97659230  0.63892589  1
  S2-  S144  1  0.42166876  0.14828683  0.14209166  1
  S2-  S145  1  0.49693104  0.20307456  0.65215618  1
  S2-  S146  1  0.40236370  0.41120759  0.13597743  1
  S2-  S147  1  0.37723256  0.37994093  0.65500121  1
  S2-  S148  1  0.50276600  0.62783879  0.15128467  1
  S2-  S149  1  0.48090042  0.60151324  0.65485135  1
  S2-  S150  1  0.40608614  0.87265550  0.13630434  1
  S2-  S151  1  0.50318941  0.95471532  0.63619492  1
  S2-  S152  1  0.77062401  0.23868158  0.14637402  1
  S2-  S153  1  0.74602782  0.20091253  0.64818561  1
  S2-  S154  1  0.62729277  0.40445108  0.14294603  1
  S2-  S155  1  0.61970477  0.38807609  0.65285638  1
  S2-  S156  1  0.73192057  0.73334129  0.13942962  1
  S2-  S157  1  0.72697369  0.61215622  0.65207111  1
  S2-  S158  1  0.75328987  1.00781666  0.14718319  1
  S2-  S159  1  0.75738608  0.95821207  0.63313584  1
  S2-  S160  1  0.24551342  -0.05126465  0.35584853  1
  S2-  S161  1  0.12019579  0.07368506  0.86031613  1
  S2-  S162  1  0.13860783  0.17311257  0.34846520  1
  S2-  S163  1  0.19566297  0.24837938  0.80837585  1
  S2-  S164  1  0.21482378  0.48859340  0.35897398  1
  S2-  S165  1  0.12132030  0.42152786  0.85765068  1
  S2-  S166  1  0.08985631  0.71895398  0.35453547  1
  S2-  S167  1  0.01691148  0.79474418  0.86041807  1
  S2-  S168  1  0.38535820  0.11013133  0.36181123  1
  S2-  S169  1  0.38553021  0.10161526  0.85597260  1
  S2-  S170  1  0.39207658  0.32476927  0.35451808  1
  S2-  S171  1  0.38175129  0.35614498  0.84075683  1
  S2-  S172  1  0.42064996  0.53278219  0.31323918  1
  S2-  S173  1  0.31567095  0.55938876  0.83358751  1
  S2-  S174  1  0.39157346  0.73790256  0.34997344  1
  S2-  S175  1  0.26730606  0.76711925  0.85718620  1
  S2-  S176  1  0.62180756  0.09220186  0.35768344  1
  S2-  S177  1  0.64399294  -0.07614293  0.85737010  1
  S2-  S178  1  0.62948732  0.30998666  0.34867732  1
  S2-  S179  1  0.57073936  0.25136334  0.85677700  1
  S2-  S180  1  0.62849771  0.51248977  0.33939536  1
  S2-  S181  1  0.54204034  0.50891240  0.84856487  1
  S2-  S182  1  0.68965856  0.71860491  0.35056953  1
  S2-  S183  1  0.50500534  0.74858908  0.85149697  1
  S2-  S184  1  1.01576384  -0.02399968  0.35215300  1
  S2-  S185  1  0.88314861  0.01058545  0.85134494  1
  S2-  S186  1  0.86812444  0.13096956  0.35793506  1
  S2-  S187  1  0.96925017  0.24691637  0.86031971  1
  S2-  S188  1  0.87836190  0.56550918  0.35295385  1
  S2-  S189  1  0.78271153  0.48387972  0.86159195  1
  S2-  S190  1  0.87579682  0.82079848  0.32174589  1
  S2-  S191  1  0.77977633  0.75702552  0.85703097  1
  S2-  S192  1  0.00518434  0.10388587  0.45898412  1
  S2-  S193  1  0.01785904  0.13181121  0.96736895  1
  S2-  S194  1  0.00186466  0.35357827  0.44326922  1
  S2-  S195  1  0.01640759  0.37867621  0.96181914  1
  S2-  S196  1  -0.00096710  0.60390763  0.45613769  1
  S2-  S197  1  0.02072801  0.62118553  0.94886517  1
  S2-  S198  1  -0.00731200  0.84404438  0.45194216  1
  S2-  S199  1  0.02373529  0.88383622  0.96838288  1
  S2-  S200  1  0.24905835  0.10362973  0.45946741  1
  S2-  S201  1  0.26612489  0.13572668  0.95708832  1
  S2-  S202  1  0.25200538  0.35286122  0.45901479  1
  S2-  S203  1  0.26902653  0.37566243  0.94950225  1
  S2-  S204  1  0.25334418  0.60397435  0.45787435  1
  S2-  S205  1  0.26762305  0.62412187  0.95148868  1
  S2-  S206  1  0.25043880  0.84801662  0.46014459  1
  S2-  S207  1  0.27018600  0.88472612  0.95845706  1
  S2-  S208  1  0.49926679  0.09843513  0.46186516  1
  S2-  S209  1  0.52097749  0.12438229  0.95687445  1
  S2-  S210  1  0.49814755  0.35315937  0.46005934  1
  S2-  S211  1  0.52339487  0.37908200  0.95494180  1
  S2-  S212  1  0.49770903  0.59703044  0.44993809  1
  S2-  S213  1  0.51733569  0.63207024  0.94913226  1
  S2-  S214  1  0.50125824  0.85333547  0.45170607  1
  S2-  S215  1  0.50797506  0.88437259  0.95417289  1
  S2-  S216  1  0.75245250  0.09744350  0.45873161  1
  S2-  S217  1  0.77115601  0.12915467  0.95876833  1
  S2-  S218  1  0.75453065  0.35214488  0.44813522  1
  S2-  S219  1  0.76932063  0.37268870  0.96448546  1
  S2-  S220  1  0.74969780  0.60145297  0.45271366  1
  S2-  S221  1  0.77109969  0.63156679  0.95617256  1
  S2-  S222  1  0.75329436  0.85063964  0.44588562  1
  S2-  S223  1  0.77315878  0.88196900  0.96497286  1
  S2-  S224  1  0.14998567  0.00768736  0.05458666  1
  S2-  S225  1  0.12423405  -0.02561150  0.53764555  1
  S2-  S226  1  0.14378033  0.25906022  0.04199130  1
  S2-  S227  1  0.12370997  0.23223561  0.54716879  1
  S2-  S228  1  0.14442529  0.50307251  0.04929484  1
  S2-  S229  1  0.12435734  0.48060220  0.54870318  1
  S2-  S230  1  0.14611643  0.74553069  0.04135548  1
  S2-  S231  1  0.12453510  0.72841320  0.55511613  1
  S2-  S232  1  0.39172078  0.00791770  0.04351213  1
  S2-  S233  1  0.37310195  -0.02612564  0.53800976  1
  S2-  S234  1  0.40073985  0.25732779  0.03479230  1
  S2-  S235  1  0.37451316  0.22658934  0.54465430  1
  S2-  S236  1  0.39620467  0.51023751  0.03109957  1
  S2-  S237  1  0.37214984  0.48050423  0.54922539  1
  S2-  S238  1  0.39143554  0.74994405  0.03631024  1
  S2-  S239  1  0.37689349  0.72797502  0.55268076  1
  S2-  S240  1  0.63365464  0.00162455  0.05006972  1
  S2-  S241  1  0.62543197  -0.02539773  0.53561398  1
  S2-  S242  1  0.63909355  0.24928647  0.04741464  1
  S2-  S243  1  0.62876495  0.22605450  0.54551193  1
  S2-  S244  1  0.64455643  0.51186397  0.03981671  1
  S2-  S245  1  0.62881870  0.47580802  0.54375080  1
  S2-  S246  1  0.63455955  0.75827581  0.03515222  1
  S2-  S247  1  0.62308308  0.73019612  0.54685880  1
  S2-  S248  1  0.89548681  0.00481680  0.05355881  1
  S2-  S249  1  0.87606876  -0.02332661  0.53060861  1
  S2-  S250  1  0.89187571  0.25297597  0.04990183  1
  S2-  S251  1  0.87598810  0.23089554  0.54745403  1
  S2-  S252  1  0.89271470  0.50252746  0.04667436  1
  S2-  S253  1  0.87568178  0.47466832  0.54550901  1
  S2-  S254  1  0.89898143  0.75112710  0.04323304  1
  S2-  S255  1  0.87360715  0.72961489  0.55465366  1
