# generated using pymatgen
data_La12Ce14Pr13Nd13Sm12(BiS2)64
_symmetry_space_group_name_H-M   'P 1'
_cell_length_a   16.17139215
_cell_length_b   16.00269886
_cell_length_c   27.10810580
_cell_angle_alpha   89.39878102
_cell_angle_beta   90.17823190
_cell_angle_gamma   89.91612193
_symmetry_Int_Tables_number   1
_chemical_formula_structural   La12Ce14Pr13Nd13Sm12(BiS2)64
_chemical_formula_sum   'La12 Ce14 Pr13 Nd13 Sm12 Bi64 S128'
_cell_volume   7014.76805477
_cell_formula_units_Z   1
loop_
 _symmetry_equiv_pos_site_id
 _symmetry_equiv_pos_as_xyz
  1  'x, y, z'
loop_
 _atom_type_symbol
 _atom_type_oxidation_number
  La3+  3.0
  Ce3+  3.0
  Pr3+  3.0
  Nd3+  3.0
  Sm3+  3.0
  Bi2+  2.0
  S2-  -2.0
loop_
 _atom_site_type_symbol
 _atom_site_label
 _atom_site_symmetry_multiplicity
 _atom_site_fract_x
 _atom_site_fract_y
 _atom_site_fract_z
 _atom_site_occupancy
  La3+  La0  1  0.87539948  0.23447163  0.91927383  1
  La3+  La1  1  0.24587812  0.12189647  0.56717054  1
  La3+  La2  1  0.35945687  -0.00703520  0.91382155  1
  La3+  La3  1  0.50387853  0.60233094  0.08517235  1
  La3+  La4  1  0.75226843  0.12006218  0.58513812  1
  La3+  La5  1  -0.00288704  0.85988757  0.57664493  1
  La3+  La6  1  0.60815374  0.73073164  0.92322898  1
  La3+  La7  1  0.74741751  0.37428827  0.56744761  1
  La3+  La8  1  0.61779256  0.22987810  0.91530147  1
  La3+  La9  1  0.49180535  0.12069850  0.58432415  1
  La3+  La10  1  0.37998156  0.75519412  0.41306341  1
  La3+  La11  1  0.24800407  0.37747991  0.55423113  1
  Ce3+  Ce12  1  0.12004232  -0.00058077  0.45599264  1
  Ce3+  Ce13  1  0.12360209  0.73453348  0.94570388  1
  Ce3+  Ce14  1  0.49897938  0.35676254  0.06172711  1
  Ce3+  Ce15  1  0.37278413  0.25041185  0.44270286  1
  Ce3+  Ce16  1  0.87228151  0.49582838  0.43134672  1
  Ce3+  Ce17  1  0.12397251  -0.01214494  0.94791525  1
  Ce3+  Ce18  1  0.74294102  0.10913988  0.04897705  1
  Ce3+  Ce19  1  -0.00757382  0.86187364  0.06304195  1
  Ce3+  Ce20  1  0.11524886  0.49751594  0.42267338  1
  Ce3+  Ce21  1  -0.00228703  0.62449992  0.54679787  1
  Ce3+  Ce22  1  0.25052349  0.86492046  0.55711031  1
  Ce3+  Ce23  1  0.49617685  0.37606194  0.56421266  1
  Ce3+  Ce24  1  0.87474141  0.48430311  0.93231930  1
  Ce3+  Ce25  1  0.61563690  0.48566186  0.93787805  1
  Pr3+  Pr26  1  0.61650034  -0.01954848  0.92992554  1
  Pr3+  Pr27  1  0.74037514  0.85643551  0.05884608  1
  Pr3+  Pr28  1  0.62751149  0.75996243  0.42449222  1
  Pr3+  Pr29  1  0.11840933  0.75769666  0.42303938  1
  Pr3+  Pr30  1  0.24220397  0.36348417  0.09267393  1
  Pr3+  Pr31  1  -0.00973532  0.10276898  0.06890602  1
  Pr3+  Pr32  1  0.35775684  0.24350975  0.93390870  1
  Pr3+  Pr33  1  0.11644895  0.24014140  0.42159337  1
  Pr3+  Pr34  1  0.36411620  0.50246008  0.41196804  1
  Pr3+  Pr35  1  0.36452367  0.48447473  0.95129057  1
  Pr3+  Pr36  1  0.86800081  0.75368855  0.42959488  1
  Pr3+  Pr37  1  -0.00970379  0.60945716  0.07044110  1
  Pr3+  Pr38  1  0.11768878  0.48227337  0.95620993  1
  Nd3+  Nd39  1  0.37439146  0.00455529  0.43589162  1
  Nd3+  Nd40  1  0.49469680  0.62361531  0.55498535  1
  Nd3+  Nd41  1  0.86910087  0.23818493  0.43468013  1
  Nd3+  Nd42  1  0.61879839  0.49853319  0.43260043  1
  Nd3+  Nd43  1  0.49735411  0.86989794  0.56411310  1
  Nd3+  Nd44  1  0.25004917  0.62390293  0.54099764  1
  Nd3+  Nd45  1  -0.00241621  0.13252609  0.57580283  1
  Nd3+  Nd46  1  -0.00173398  0.37265030  0.55543221  1
  Nd3+  Nd47  1  0.23791139  0.61600668  0.08844511  1
  Nd3+  Nd48  1  0.36229217  0.73115575  0.94648067  1
  Nd3+  Nd49  1  0.49509385  0.11019928  0.05320143  1
  Nd3+  Nd50  1  0.87193137  -0.01766951  0.92785362  1
  Nd3+  Nd51  1  0.87249089  0.73897298  0.93040781  1
  Sm3+  Sm52  1  0.75059675  0.35519368  0.04969513  1
  Sm3+  Sm53  1  0.12064413  0.23510187  0.95926801  1
  Sm3+  Sm54  1  0.74623499  0.60890865  0.05260834  1
  Sm3+  Sm55  1  0.62205856  0.00802961  0.44455025  1
  Sm3+  Sm56  1  0.74466950  0.86880812  0.56542768  1
  Sm3+  Sm57  1  0.24895860  0.86170642  0.07091431  1
  Sm3+  Sm58  1  0.62179113  0.24378221  0.44814015  1
  Sm3+  Sm59  1  0.49279859  0.85707258  0.05399755  1
  Sm3+  Sm60  1  0.25746656  0.10908024  0.07742897  1
  Sm3+  Sm61  1  0.74666695  0.62366861  0.55971429  1
  Sm3+  Sm62  1  -0.01058481  0.34665025  0.08046546  1
  Sm3+  Sm63  1  0.87225649  0.00150437  0.45276140  1
  Bi2+  Bi64  1  -0.02194147  0.11355043  0.30509766  1
  Bi2+  Bi65  1  0.01442916  0.16558233  0.78245167  1
  Bi2+  Bi66  1  -0.06812397  0.37756734  0.27730631  1
  Bi2+  Bi67  1  0.02781893  0.42120590  0.77784314  1
  Bi2+  Bi68  1  -0.02316555  0.65079296  0.29566382  1
  Bi2+  Bi69  1  0.00981778  0.69917701  0.81871566  1
  Bi2+  Bi70  1  -0.04115681  0.84292780  0.31921650  1
  Bi2+  Bi71  1  0.07978136  0.87065074  0.78033738  1
  Bi2+  Bi72  1  0.22026644  0.09445075  0.28868224  1
  Bi2+  Bi73  1  0.23193575  0.11416587  0.79894727  1
  Bi2+  Bi74  1  0.31743187  0.33906299  0.30423383  1
  Bi2+  Bi75  1  0.22994134  0.36605997  0.80081867  1
  Bi2+  Bi76  1  0.24187532  0.60283692  0.27293425  1
  Bi2+  Bi77  1  0.25232286  0.58859952  0.79704811  1
  Bi2+  Bi78  1  0.23171992  0.88817513  0.28808325  1
  Bi2+  Bi79  1  0.26175101  0.79501182  0.77891023  1
  Bi2+  Bi80  1  0.49358756  0.10314866  0.29400965  1
  Bi2+  Bi81  1  0.50456707  0.16797323  0.77996100  1
  Bi2+  Bi82  1  0.57189161  0.30334017  0.26234071  1
  Bi2+  Bi83  1  0.48196528  0.41221861  0.75514440  1
  Bi2+  Bi84  1  0.51295353  0.59755697  0.28833110  1
  Bi2+  Bi85  1  0.44353488  0.56592616  0.82281761  1
  Bi2+  Bi86  1  0.51654777  0.88834271  0.29038339  1
  Bi2+  Bi87  1  0.51048696  0.82236483  0.78242554  1
  Bi2+  Bi88  1  0.73644045  0.17115077  0.29775102  1
  Bi2+  Bi89  1  0.75193144  0.11412506  0.78778392  1
  Bi2+  Bi90  1  0.74159483  0.38501198  0.29893850  1
  Bi2+  Bi91  1  0.78661132  0.40234061  0.79009961  1
  Bi2+  Bi92  1  0.78019772  0.61895010  0.27312268  1
  Bi2+  Bi93  1  0.84206772  0.60147095  0.81182954  1
  Bi2+  Bi94  1  0.76703890  0.88109151  0.29351311  1
  Bi2+  Bi95  1  0.76315210  0.79619025  0.79113598  1
  Bi2+  Bi96  1  0.10554847  -0.01910165  0.21486264  1
  Bi2+  Bi97  1  0.10923883  0.03506929  0.71622655  1
  Bi2+  Bi98  1  0.11486798  0.24307312  0.21765119  1
  Bi2+  Bi99  1  0.14806061  0.22314042  0.69835170  1
  Bi2+  Bi100  1  0.05475259  0.50677457  0.22666519  1
  Bi2+  Bi101  1  0.08686492  0.59022469  0.73214124  1
  Bi2+  Bi102  1  0.04855211  0.77132960  0.20954892  1
  Bi2+  Bi103  1  0.15168414  0.77979456  0.68347439  1
  Bi2+  Bi104  1  0.35942684  0.00303984  0.22244169  1
  Bi2+  Bi105  1  0.38031391  -0.01633035  0.71588127  1
  Bi2+  Bi106  1  0.40519480  0.24003158  0.20380425  1
  Bi2+  Bi107  1  0.37135531  0.25541639  0.70950143  1
  Bi2+  Bi108  1  0.39668088  0.44185960  0.21884647  1
  Bi2+  Bi109  1  0.33366323  0.50345922  0.68484261  1
  Bi2+  Bi110  1  0.37905342  0.78441573  0.21409608  1
  Bi2+  Bi111  1  0.39047397  0.68648805  0.71231757  1
  Bi2+  Bi112  1  0.63814687  0.04849135  0.22447025  1
  Bi2+  Bi113  1  0.63392167  -0.04797231  0.72557560  1
  Bi2+  Bi114  1  0.61199625  0.21486694  0.16254675  1
  Bi2+  Bi115  1  0.66180688  0.39401860  0.70046062  1
  Bi2+  Bi116  1  0.66971617  0.47878758  0.20230206  1
  Bi2+  Bi117  1  0.62945269  0.56352065  0.75453217  1
  Bi2+  Bi118  1  0.61875727  0.76071638  0.19692760  1
  Bi2+  Bi119  1  0.63323666  0.73962504  0.70310605  1
  Bi2+  Bi120  1  0.90310453  -0.02107959  0.23730275  1
  Bi2+  Bi121  1  0.84989840  -0.01076403  0.72804407  1
  Bi2+  Bi122  1  0.84509908  0.23708491  0.20781577  1
  Bi2+  Bi123  1  0.88542554  0.25211618  0.71094269  1
  Bi2+  Bi124  1  0.87150542  0.52456200  0.17985329  1
  Bi2+  Bi125  1  0.89178204  0.50697336  0.70879252  1
  Bi2+  Bi126  1  0.87070679  0.72198597  0.18270577  1
  Bi2+  Bi127  1  0.89039764  0.73083870  0.70943809  1
  S2-  S128  1  -0.01685059  0.20445057  0.15327474  1
  S2-  S129  1  -0.10781316  0.10921690  0.65580855  1
  S2-  S130  1  0.09727617  0.37385555  0.16104921  1
  S2-  S131  1  0.01160298  0.28130732  0.64181525  1
  S2-  S132  1  0.09103747  0.62674559  0.15518514  1
  S2-  S133  1  0.00837258  0.69743240  0.63528240  1
  S2-  S134  1  -0.02599909  0.96937077  0.14070362  1
  S2-  S135  1  -0.06008841  0.88703619  0.67449901  1
  S2-  S136  1  0.24655408  0.22135149  0.15867100  1
  S2-  S137  1  0.34274188  0.11614264  0.65175736  1
  S2-  S138  1  0.27446824  0.49942401  0.16565165  1
  S2-  S139  1  0.23720705  0.36162576  0.65610414  1
  S2-  S140  1  0.25904605  0.75409817  0.15357576  1
  S2-  S141  1  0.25744997  0.65005536  0.64059687  1
  S2-  S142  1  0.23767744  0.98162347  0.14695181  1
  S2-  S143  1  0.27617208  0.89233422  0.65323517  1
  S2-  S144  1  0.42559334  0.09968106  0.14593186  1
  S2-  S145  1  0.49729763  0.26648671  0.64841916  1
  S2-  S146  1  0.52485391  0.44505418  0.14685038  1
  S2-  S147  1  0.47582558  0.50191345  0.63194729  1
  S2-  S148  1  0.46457709  0.65008972  0.18742624  1
  S2-  S149  1  0.49119880  0.73805144  0.63498759  1
  S2-  S150  1  0.51530660  0.86339741  0.15400885  1
  S2-  S151  1  0.50281198  0.97492112  0.65159507  1
  S2-  S152  1  0.75274859  0.10661626  0.14807843  1
  S2-  S153  1  0.74561062  0.26378806  0.65170565  1
  S2-  S154  1  0.83989148  0.36128511  0.13581886  1
  S2-  S155  1  0.75436897  0.50715595  0.63973590  1
  S2-  S156  1  0.66203976  0.61913391  0.13949300  1
  S2-  S157  1  0.76068170  0.74019617  0.63627347  1
  S2-  S158  1  0.74605117  0.84652461  0.16115576  1
  S2-  S159  1  0.73083478  0.97285737  0.64960026  1
  S2-  S160  1  0.10927052  0.03498211  0.36011428  1
  S2-  S161  1  0.20296604  -0.01635020  0.86093965  1
  S2-  S162  1  0.17549551  0.26106932  0.32107351  1
  S2-  S163  1  0.17426132  0.24336037  0.86433364  1
  S2-  S164  1  0.21543718  0.48664426  0.33916764  1
  S2-  S165  1  0.13549682  0.48467020  0.85441524  1
  S2-  S166  1  0.17914337  0.73772118  0.32677489  1
  S2-  S167  1  0.23649312  0.72195894  0.87036031  1
  S2-  S168  1  0.37461659  -0.09519695  0.35230706  1
  S2-  S169  1  0.41204171  -0.05522986  0.81465663  1
  S2-  S170  1  0.38254699  0.18695510  0.35198735  1
  S2-  S171  1  0.37536671  0.14476210  0.84898770  1
  S2-  S172  1  0.45753378  0.44602526  0.33108479  1
  S2-  S173  1  0.34462286  0.38487745  0.86602805  1
  S2-  S174  1  0.36460833  0.63451775  0.33436649  1
  S2-  S175  1  0.45781079  0.72477736  0.86147117  1
  S2-  S176  1  0.63889797  -0.08259687  0.35817708  1
  S2-  S177  1  0.60772571  0.08548728  0.84407247  1
  S2-  S178  1  0.61836997  0.13702926  0.37022440  1
  S2-  S179  1  0.54399036  0.30399271  0.82785027  1
  S2-  S180  1  0.65869946  0.53609898  0.33602243  1
  S2-  S181  1  0.61266999  0.58503308  0.85609854  1
  S2-  S182  1  0.52540031  0.73913196  0.34078328  1
  S2-  S183  1  0.63421266  0.86034173  0.85261026  1
  S2-  S184  1  0.84745916  0.09210320  0.36811460  1
  S2-  S185  1  0.90020818  0.09522139  0.84819347  1
  S2-  S186  1  0.97728601  0.25640306  0.35364608  1
  S2-  S187  1  0.74969784  0.25034328  0.84210229  1
  S2-  S188  1  0.98111413  0.49387358  0.35291435  1
  S2-  S189  1  0.92247782  0.37822722  0.85740880  1
  S2-  S190  1  0.75615955  0.73819707  0.35043228  1
  S2-  S191  1  0.87725577  0.85976295  0.85369346  1
  S2-  S192  1  -0.00293996  0.12318169  0.46707399  1
  S2-  S193  1  -0.00073230  0.10943993  0.95794184  1
  S2-  S194  1  -0.00367370  0.36926148  0.45267174  1
  S2-  S195  1  -0.00334799  0.35541957  0.96913271  1
  S2-  S196  1  -0.00460929  0.63010826  0.44309740  1
  S2-  S197  1  -0.00527419  0.61259216  0.95754831  1
  S2-  S198  1  -0.00546753  0.87599388  0.45904475  1
  S2-  S199  1  0.00052256  0.86064607  0.95578443  1
  S2-  S200  1  0.24603169  0.12444483  0.45656165  1
  S2-  S201  1  0.24607260  0.11179313  0.96769523  1
  S2-  S202  1  0.24077677  0.36909632  0.44526085  1
  S2-  S203  1  0.23935494  0.35987501  0.97758360  1
  S2-  S204  1  0.23961810  0.62794541  0.43791246  1
  S2-  S205  1  0.24082295  0.60645892  0.97536279  1
  S2-  S206  1  0.24496471  0.87697009  0.44970067  1
  S2-  S207  1  0.24578195  0.86185849  0.96493709  1
  S2-  S208  1  0.49351531  0.12474305  0.46817203  1
  S2-  S209  1  0.48923658  0.10964584  0.94957559  1
  S2-  S210  1  0.50111295  0.36942585  0.45187068  1
  S2-  S211  1  0.49560326  0.35976305  0.95502918  1
  S2-  S212  1  0.49848468  0.62262395  0.44557069  1
  S2-  S213  1  0.49179951  0.60376330  0.96742647  1
  S2-  S214  1  0.49979389  0.88069089  0.45624926  1
  S2-  S215  1  0.48278042  0.86649969  0.95092682  1
  S2-  S216  1  0.74697429  0.12320178  0.47341981  1
  S2-  S217  1  0.74589467  0.10520190  0.94485539  1
  S2-  S218  1  0.74645147  0.36916467  0.45057041  1
  S2-  S219  1  0.74511229  0.36455632  0.94637703  1
  S2-  S220  1  0.74935578  0.61864823  0.45331274  1
  S2-  S221  1  0.74966742  0.61220856  0.94928533  1
  S2-  S222  1  0.75099843  0.88106933  0.46016853  1
  S2-  S223  1  0.74501429  0.85686649  0.95310849  1
  S2-  S224  1  0.12106473  -0.01640816  0.05037954  1
  S2-  S225  1  0.11866113  -0.00520501  0.56242054  1
  S2-  S226  1  0.12116940  0.22672646  0.05981526  1
  S2-  S227  1  0.12514518  0.24819167  0.53913625  1
  S2-  S228  1  0.11252810  0.48296957  0.06045856  1
  S2-  S229  1  0.12104263  0.50029336  0.53859284  1
  S2-  S230  1  0.11587145  0.73980965  0.05064250  1
  S2-  S231  1  0.12386083  0.74805091  0.53220487  1
  S2-  S232  1  0.37307923  -0.01833879  0.04545638  1
  S2-  S233  1  0.36916369  -0.00604637  0.54285775  1
  S2-  S234  1  0.37277719  0.23824038  0.04790935  1
  S2-  S235  1  0.36965654  0.24983249  0.54702385  1
  S2-  S236  1  0.37273187  0.48250533  0.05732343  1
  S2-  S237  1  0.37038774  0.49901567  0.52522937  1
  S2-  S238  1  0.37520155  0.73050205  0.05365150  1
  S2-  S239  1  0.37193287  0.74819133  0.52879432  1
  S2-  S240  1  0.61676899  -0.01736207  0.04277078  1
  S2-  S241  1  0.62106981  -0.00353956  0.54871787  1
  S2-  S242  1  0.62307699  0.23573347  0.03286543  1
  S2-  S243  1  0.62191923  0.24686026  0.55005116  1
  S2-  S244  1  0.62968267  0.47992365  0.04178737  1
  S2-  S245  1  0.62251290  0.49938733  0.53874794  1
  S2-  S246  1  0.61701347  0.73360655  0.03772126  1
  S2-  S247  1  0.62506221  0.74651742  0.53544872  1
  S2-  S248  1  0.86412404  -0.01858183  0.03638939  1
  S2-  S249  1  0.87784484  -0.00870500  0.55434042  1
  S2-  S250  1  0.86838258  0.22890416  0.03604764  1
  S2-  S251  1  0.87312829  0.25057466  0.54317806  1
  S2-  S252  1  0.86932092  0.48698722  0.03913120  1
  S2-  S253  1  0.87619354  0.49840977  0.53832420  1
  S2-  S254  1  0.86886505  0.73477914  0.04203402  1
  S2-  S255  1  0.87138867  0.74660896  0.53640108  1
