# generated using pymatgen
data_La12Ce14Pr13Nd13Sm12(BiS2)64
_symmetry_space_group_name_H-M   'P 1'
_cell_length_a   16.19223124
_cell_length_b   16.20330968
_cell_length_c   27.25958328
_cell_angle_alpha   90.08339745
_cell_angle_beta   89.98925427
_cell_angle_gamma   90.05028130
_symmetry_Int_Tables_number   1
_chemical_formula_structural   La12Ce14Pr13Nd13Sm12(BiS2)64
_chemical_formula_sum   'La12 Ce14 Pr13 Nd13 Sm12 Bi64 S128'
_cell_volume   7152.02472589
_cell_formula_units_Z   1
loop_
 _symmetry_equiv_pos_site_id
 _symmetry_equiv_pos_as_xyz
  1  'x, y, z'
loop_
 _atom_type_symbol
 _atom_type_oxidation_number
  La3+  3.0
  Ce3+  3.0
  Pr3+  3.0
  Nd3+  3.0
  Sm3+  3.0
  Bi2+  2.0
  S2-  -2.0
loop_
 _atom_site_type_symbol
 _atom_site_label
 _atom_site_symmetry_multiplicity
 _atom_site_fract_x
 _atom_site_fract_y
 _atom_site_fract_z
 _atom_site_occupancy
  La3+  La0  1  0.25705280  0.88446484  0.06359814  1
  La3+  La1  1  0.26274906  0.63014337  0.07056980  1
  La3+  La2  1  0.63109605  0.25360827  0.94729307  1
  La3+  La3  1  0.14029537  0.26198399  0.92037074  1
  La3+  La4  1  0.25452025  0.13690457  0.07043624  1
  La3+  La5  1  0.50634868  0.11326194  0.10631844  1
  La3+  La6  1  0.13214002  0.47758190  0.43706164  1
  La3+  La7  1  0.63261763  -0.01919292  0.42129681  1
  La3+  La8  1  0.76544912  0.63537948  0.07739111  1
  La3+  La9  1  0.51354550  0.37614881  0.09255950  1
  La3+  La10  1  0.25929556  0.10327623  0.59198938  1
  La3+  La11  1  0.50242708  0.85682884  0.55758614  1
  Ce3+  Ce12  1  0.87909241  -0.01700353  0.43011984  1
  Ce3+  Ce13  1  0.87749638  0.50568583  0.94176832  1
  Ce3+  Ce14  1  0.62693801  0.23276733  0.43537289  1
  Ce3+  Ce15  1  0.88286678  0.00845982  0.94479962  1
  Ce3+  Ce16  1  0.00673599  0.35208828  0.55924271  1
  Ce3+  Ce17  1  0.00605852  0.10414322  0.55854026  1
  Ce3+  Ce18  1  0.62631392  0.48335279  0.44004138  1
  Ce3+  Ce19  1  0.87934066  0.23177017  0.44358610  1
  Ce3+  Ce20  1  0.75566646  0.37865100  0.06673241  1
  Ce3+  Ce21  1  0.25690502  0.38097758  0.06462900  1
  Ce3+  Ce22  1  0.75134978  0.35583501  0.55399060  1
  Ce3+  Ce23  1  0.00267043  0.85728782  0.55591024  1
  Ce3+  Ce24  1  0.75568612  0.12997139  0.06781513  1
  Ce3+  Ce25  1  0.13615811  0.50416108  0.94072944  1
  Pr3+  Pr26  1  0.25398137  0.85861609  0.55935108  1
  Pr3+  Pr27  1  0.00586561  0.87875067  0.05285890  1
  Pr3+  Pr28  1  0.75712633  0.85513928  0.55205287  1
  Pr3+  Pr29  1  0.87253697  0.75243292  0.92594764  1
  Pr3+  Pr30  1  0.38421263  0.25499159  0.94849045  1
  Pr3+  Pr31  1  0.38136112  0.22615190  0.42005548  1
  Pr3+  Pr32  1  0.38240013  0.00165057  0.93649090  1
  Pr3+  Pr33  1  0.89160635  0.72960652  0.42644496  1
  Pr3+  Pr34  1  0.87989813  0.48055283  0.44134722  1
  Pr3+  Pr35  1  0.37902892  0.73444382  0.42324751  1
  Pr3+  Pr36  1  0.25463205  0.60934924  0.55376415  1
  Pr3+  Pr37  1  0.50346005  0.61028277  0.56483318  1
  Pr3+  Pr38  1  0.13412805  0.00802023  0.93447218  1
  Nd3+  Nd39  1  0.63010646  0.72896565  0.43703210  1
  Nd3+  Nd40  1  0.50371594  0.10028726  0.56020009  1
  Nd3+  Nd41  1  0.00974846  0.13411290  0.06232464  1
  Nd3+  Nd42  1  0.13255021  0.75329334  0.94217306  1
  Nd3+  Nd43  1  0.51183506  0.63107035  0.05860424  1
  Nd3+  Nd44  1  0.00559197  0.60636089  0.56272709  1
  Nd3+  Nd45  1  0.50132738  0.35217334  0.55375832  1
  Nd3+  Nd46  1  0.13245311  0.22907342  0.44375985  1
  Nd3+  Nd47  1  0.75202360  0.10517273  0.55408086  1
  Nd3+  Nd48  1  0.13031222  -0.01565766  0.43838363  1
  Nd3+  Nd49  1  0.37762141  -0.01859105  0.42956094  1
  Nd3+  Nd50  1  0.75582922  0.60577057  0.55511794  1
  Nd3+  Nd51  1  0.25727467  0.35242572  0.55793886  1
  Sm3+  Sm52  1  0.63501249  0.75394454  0.94427211  1
  Sm3+  Sm53  1  0.38513581  0.50615278  0.95168608  1
  Sm3+  Sm54  1  0.00458684  0.62929037  0.05433484  1
  Sm3+  Sm55  1  0.12985707  0.73124577  0.44141774  1
  Sm3+  Sm56  1  0.51015561  0.88202635  0.05619237  1
  Sm3+  Sm57  1  0.00778153  0.38004639  0.05250672  1
  Sm3+  Sm58  1  0.38265769  0.75413047  0.94563456  1
  Sm3+  Sm59  1  0.75751308  0.88312424  0.05468348  1
  Sm3+  Sm60  1  0.63285267  0.50508045  0.94924719  1
  Sm3+  Sm61  1  0.88120131  0.25338167  0.94625007  1
  Sm3+  Sm62  1  0.63171065  0.00642840  0.94138408  1
  Sm3+  Sm63  1  0.38017660  0.48242941  0.44464951  1
  Bi2+  Bi64  1  -0.02537192  0.12173948  0.29877005  1
  Bi2+  Bi65  1  -0.03324035  0.12549493  0.78159493  1
  Bi2+  Bi66  1  -0.02691764  0.32491114  0.29295672  1
  Bi2+  Bi67  1  -0.03784037  0.43536390  0.75025227  1
  Bi2+  Bi68  1  -0.01331642  0.61865629  0.29879322  1
  Bi2+  Bi69  1  -0.00448254  0.61861298  0.79004217  1
  Bi2+  Bi70  1  -0.01498030  0.93037366  0.30679769  1
  Bi2+  Bi71  1  0.00084618  0.85709511  0.75343813  1
  Bi2+  Bi72  1  0.23957173  0.13372734  0.30713675  1
  Bi2+  Bi73  1  0.23482043  0.12691563  0.80092641  1
  Bi2+  Bi74  1  0.23358377  0.39602838  0.30609279  1
  Bi2+  Bi75  1  0.26709460  0.39068444  0.80008804  1
  Bi2+  Bi76  1  0.27224211  0.67407865  0.30950182  1
  Bi2+  Bi77  1  0.26591789  0.64043774  0.80193005  1
  Bi2+  Bi78  1  0.24095042  0.86395596  0.28045393  1
  Bi2+  Bi79  1  0.25939213  0.88813449  0.80333496  1
  Bi2+  Bi80  1  0.51686281  0.12829117  0.28632379  1
  Bi2+  Bi81  1  0.51274173  0.15346783  0.76285402  1
  Bi2+  Bi82  1  0.51962363  0.40321773  0.29407842  1
  Bi2+  Bi83  1  0.48317398  0.33926710  0.79909421  1
  Bi2+  Bi84  1  0.46858448  0.65841525  0.29751861  1
  Bi2+  Bi85  1  0.54756175  0.62026470  0.78838176  1
  Bi2+  Bi86  1  0.48784011  0.85298320  0.27631770  1
  Bi2+  Bi87  1  0.47543818  0.82268118  0.76542363  1
  Bi2+  Bi88  1  0.77140018  0.11657758  0.28451019  1
  Bi2+  Bi89  1  0.73841528  0.12818167  0.82074153  1
  Bi2+  Bi90  1  0.79530203  0.40263470  0.26992129  1
  Bi2+  Bi91  1  0.66989706  0.38529369  0.77956747  1
  Bi2+  Bi92  1  0.73289703  0.62252732  0.29932959  1
  Bi2+  Bi93  1  0.78018581  0.62169021  0.80684448  1
  Bi2+  Bi94  1  0.80775959  0.88045101  0.27024066  1
  Bi2+  Bi95  1  0.68417721  0.87228728  0.78261439  1
  Bi2+  Bi96  1  0.08145886  0.00781551  0.21552483  1
  Bi2+  Bi97  1  0.11488274  0.00157875  0.69652214  1
  Bi2+  Bi98  1  0.11179742  0.25129513  0.20988715  1
  Bi2+  Bi99  1  0.11313861  0.26883474  0.69860513  1
  Bi2+  Bi100  1  0.06777705  0.46960542  0.23308124  1
  Bi2+  Bi101  1  0.14326767  0.52100095  0.74236941  1
  Bi2+  Bi102  1  0.12618060  0.72096166  0.23509469  1
  Bi2+  Bi103  1  0.12681353  0.72394011  0.70582450  1
  Bi2+  Bi104  1  0.36343050  -0.01937898  0.21844822  1
  Bi2+  Bi105  1  0.40573745  -0.00048504  0.70369087  1
  Bi2+  Bi106  1  0.36155881  0.25919225  0.21235616  1
  Bi2+  Bi107  1  0.38769356  0.27778753  0.70766452  1
  Bi2+  Bi108  1  0.32154776  0.52204223  0.23114135  1
  Bi2+  Bi109  1  0.39521022  0.55008063  0.72706905  1
  Bi2+  Bi110  1  0.36807031  0.72244660  0.20124969  1
  Bi2+  Bi111  1  0.33717057  0.73127551  0.69854311  1
  Bi2+  Bi112  1  0.63991310  -0.03652366  0.20717390  1
  Bi2+  Bi113  1  0.63441784  0.02115477  0.71135629  1
  Bi2+  Bi114  1  0.72594461  0.25450237  0.20701297  1
  Bi2+  Bi115  1  0.64624199  0.25546708  0.69032283  1
  Bi2+  Bi116  1  0.57837356  0.51825326  0.20923522  1
  Bi2+  Bi117  1  0.57176243  0.52157879  0.68737169  1
  Bi2+  Bi118  1  0.63857204  0.77074554  0.21344860  1
  Bi2+  Bi119  1  0.61278289  0.73056346  0.70333001  1
  Bi2+  Bi120  1  0.88976856  0.04656469  0.19834626  1
  Bi2+  Bi121  1  0.84461717  -0.02105348  0.74869963  1
  Bi2+  Bi122  1  0.91814015  0.24093745  0.18495270  1
  Bi2+  Bi123  1  0.82816741  0.24747275  0.74537588  1
  Bi2+  Bi124  1  0.88430800  0.52254401  0.20237003  1
  Bi2+  Bi125  1  0.78526554  0.50599076  0.71419361  1
  Bi2+  Bi126  1  0.94719409  0.77866999  0.21227529  1
  Bi2+  Bi127  1  0.85942388  0.76560919  0.69278598  1
  S2-  S128  1  0.12083130  0.12502251  0.13999555  1
  S2-  S129  1  0.02129799  0.13256853  0.65564003  1
  S2-  S130  1  -0.00831861  0.41073155  0.14890612  1
  S2-  S131  1  0.01406137  0.37894041  0.65561379  1
  S2-  S132  1  -0.08559125  0.65369972  0.13670321  1
  S2-  S133  1  -0.00875149  0.66067567  0.65629682  1
  S2-  S134  1  0.04011818  0.87833425  0.15116692  1
  S2-  S135  1  0.00199308  0.90855494  0.64864594  1
  S2-  S136  1  0.34464669  0.11176584  0.15691248  1
  S2-  S137  1  0.21890820  0.13481741  0.69583343  1
  S2-  S138  1  0.22695041  0.32465298  0.15508950  1
  S2-  S139  1  0.24717178  0.34414367  0.65763945  1
  S2-  S140  1  0.21815410  0.59477692  0.16539562  1
  S2-  S141  1  0.22765980  0.60906670  0.65215616  1
  S2-  S142  1  0.27911630  0.86589934  0.16187031  1
  S2-  S143  1  0.26138468  0.94677553  0.64693820  1
  S2-  S144  1  0.50982858  0.21687408  0.19056988  1
  S2-  S145  1  0.40829745  0.13707847  0.64263761  1
  S2-  S146  1  0.43238883  0.41177622  0.18125821  1
  S2-  S147  1  0.50916573  0.36211479  0.65294235  1
  S2-  S148  1  0.47980843  0.62761754  0.15593288  1
  S2-  S149  1  0.48202229  0.73675066  0.63455373  1
  S2-  S150  1  0.50324867  0.94799866  0.14746077  1
  S2-  S151  1  0.51974101  0.96807799  0.63617619  1
  S2-  S152  1  0.67190149  0.10349491  0.15182998  1
  S2-  S153  1  0.73494369  0.11461242  0.65322811  1
  S2-  S154  1  0.66217046  0.38867196  0.15092800  1
  S2-  S155  1  0.76273716  0.36527025  0.64995816  1
  S2-  S156  1  0.69436752  0.62580919  0.17144711  1
  S2-  S157  1  0.75869612  0.64702431  0.65172761  1
  S2-  S158  1  0.75012740  0.85354483  0.15071823  1
  S2-  S159  1  0.76175395  0.87315516  0.65203493  1
  S2-  S160  1  0.17906296  -0.00381136  0.34235070  1
  S2-  S161  1  0.14216072  -0.01253042  0.83373549  1
  S2-  S162  1  0.13847246  0.26251852  0.34580579  1
  S2-  S163  1  0.08441490  0.19979966  0.82888837  1
  S2-  S164  1  0.11253436  0.50463572  0.33883413  1
  S2-  S165  1  0.13665348  0.41167554  0.85881111  1
  S2-  S166  1  0.03886594  0.73570871  0.35917118  1
  S2-  S167  1  0.16966928  0.75740748  0.84537075  1
  S2-  S168  1  0.38280227  0.09085844  0.34979298  1
  S2-  S169  1  0.35305393  0.02306187  0.83727464  1
  S2-  S170  1  0.34854156  0.27298317  0.31920821  1
  S2-  S171  1  0.29450655  0.25131241  0.86066087  1
  S2-  S172  1  0.38407583  0.47166570  0.34676969  1
  S2-  S173  1  0.35547700  0.51171681  0.85526384  1
  S2-  S174  1  0.37003104  0.86276395  0.35389125  1
  S2-  S175  1  0.38965019  0.80272513  0.85256287  1
  S2-  S176  1  0.56073010  -0.00919680  0.32754379  1
  S2-  S177  1  0.62317917  -0.00609545  0.84343985  1
  S2-  S178  1  0.58232350  0.25428952  0.34041461  1
  S2-  S179  1  0.61466074  0.24829979  0.84686419  1
  S2-  S180  1  0.62376662  0.49830244  0.34187658  1
  S2-  S181  1  0.65481303  0.51919816  0.85192848  1
  S2-  S182  1  0.61341334  0.73113180  0.33804384  1
  S2-  S183  1  0.72685515  0.75206747  0.86068379  1
  S2-  S184  1  0.77044497  -0.01622876  0.35206539  1
  S2-  S185  1  0.87875436  0.01177402  0.84760364  1
  S2-  S186  1  0.84592281  0.24007335  0.34810406  1
  S2-  S187  1  0.84807296  0.25269978  0.85052107  1
  S2-  S188  1  0.85497179  0.51476256  0.34389526  1
  S2-  S189  1  0.89549486  0.49778816  0.84429586  1
  S2-  S190  1  0.82570573  0.73595695  0.33242331  1
  S2-  S191  1  0.94145375  0.76016015  0.83260225  1
  S2-  S192  1  0.00465102  0.10747371  0.44954067  1
  S2-  S193  1  0.00787709  0.13343739  0.95428412  1
  S2-  S194  1  0.00509169  0.35442506  0.45174431  1
  S2-  S195  1  0.00157635  0.37863843  0.95026329  1
  S2-  S196  1  0.00802428  0.60292126  0.45579416  1
  S2-  S197  1  0.00696312  0.62918402  0.95003567  1
  S2-  S198  1  0.00629642  0.86158879  0.45245228  1
  S2-  S199  1  0.00815745  0.87897852  0.94566328  1
  S2-  S200  1  0.25377911  0.10770061  0.45001769  1
  S2-  S201  1  0.25887785  0.12737405  0.95962602  1
  S2-  S202  1  0.25992979  0.35489067  0.45097125  1
  S2-  S203  1  0.26333797  0.38532887  0.96154534  1
  S2-  S204  1  0.25466667  0.60713630  0.44713002  1
  S2-  S205  1  0.26105444  0.63114300  0.96104973  1
  S2-  S206  1  0.24800906  0.85457896  0.45193562  1
  S2-  S207  1  0.25708914  0.87704257  0.95593291  1
  S2-  S208  1  0.50740404  0.10594860  0.45187860  1
  S2-  S209  1  0.50632410  0.12656581  0.94592885  1
  S2-  S210  1  0.50012556  0.35786586  0.44843972  1
  S2-  S211  1  0.50796794  0.38408679  0.95751980  1
  S2-  S212  1  0.50094040  0.60794366  0.45386133  1
  S2-  S213  1  0.50956966  0.63193372  0.95209088  1
  S2-  S214  1  0.50787020  0.85520909  0.44856792  1
  S2-  S215  1  0.51204900  0.87728632  0.95191110  1
  S2-  S216  1  0.75359489  0.11100325  0.44905290  1
  S2-  S217  1  0.75733101  0.12869318  0.96002350  1
  S2-  S218  1  0.75193502  0.35830922  0.44781990  1
  S2-  S219  1  0.75645763  0.37965626  0.95800794  1
  S2-  S220  1  0.75593841  0.60712346  0.44968611  1
  S2-  S221  1  0.75396356  0.62814076  0.96402917  1
  S2-  S222  1  0.75806008  0.84959224  0.44599865  1
  S2-  S223  1  0.75504391  0.88483634  0.95165650  1
  S2-  S224  1  0.13065022  0.00363396  0.04165705  1
  S2-  S225  1  0.13106816  -0.01507353  0.54451526  1
  S2-  S226  1  0.12983763  0.26108117  0.03890355  1
  S2-  S227  1  0.13483014  0.22663913  0.54977478  1
  S2-  S228  1  0.12923662  0.50690188  0.04846572  1
  S2-  S229  1  0.13123457  0.48057790  0.54645470  1
  S2-  S230  1  0.13116845  0.75064185  0.05010242  1
  S2-  S231  1  0.12764138  0.73279980  0.54586349  1
  S2-  S232  1  0.38638104  0.00439726  0.04463759  1
  S2-  S233  1  0.37478983  -0.01642983  0.53723431  1
  S2-  S234  1  0.38981291  0.25670959  0.05572470  1
  S2-  S235  1  0.37790953  0.23038541  0.53761611  1
  S2-  S236  1  0.38812900  0.50291158  0.05662598  1
  S2-  S237  1  0.37991204  0.48281547  0.55029950  1
  S2-  S238  1  0.38711413  0.75778462  0.05040777  1
  S2-  S239  1  0.37410202  0.73315518  0.53243839  1
  S2-  S240  1  0.63236117  0.00339200  0.04513585  1
  S2-  S241  1  0.63374062  -0.01954124  0.53342462  1
  S2-  S242  1  0.62808823  0.24974652  0.05416000  1
  S2-  S243  1  0.62636412  0.22967570  0.54313431  1
  S2-  S244  1  0.63318033  0.50745990  0.05255391  1
  S2-  S245  1  0.62685654  0.48315407  0.54652110  1
  S2-  S246  1  0.63373775  0.75824210  0.04857813  1
  S2-  S247  1  0.63224254  0.72988070  0.54261144  1
  S2-  S248  1  0.88333560  0.00655290  0.05160174  1
  S2-  S249  1  0.87799032  -0.01588987  0.53930684  1
  S2-  S250  1  0.88235435  0.25620479  0.05047806  1
  S2-  S251  1  0.87839392  0.23050339  0.55045260  1
  S2-  S252  1  0.88173429  0.50254055  0.04661788  1
  S2-  S253  1  0.88162991  0.48165238  0.54885023  1
  S2-  S254  1  0.87995347  0.75974168  0.03513150  1
  S2-  S255  1  0.88205163  0.72876876  0.53913560  1
