# generated using pymatgen
data_La12Ce14Pr13Nd13Sm12(BiS2)64
_symmetry_space_group_name_H-M   'P 1'
_cell_length_a   16.17795680
_cell_length_b   16.15795488
_cell_length_c   27.21526478
_cell_angle_alpha   90.03656394
_cell_angle_beta   90.02584229
_cell_angle_gamma   89.98474088
_symmetry_Int_Tables_number   1
_chemical_formula_structural   La12Ce14Pr13Nd13Sm12(BiS2)64
_chemical_formula_sum   'La12 Ce14 Pr13 Nd13 Sm12 Bi64 S128'
_cell_volume   7114.14116355
_cell_formula_units_Z   1
loop_
 _symmetry_equiv_pos_site_id
 _symmetry_equiv_pos_as_xyz
  1  'x, y, z'
loop_
 _atom_type_symbol
 _atom_type_oxidation_number
  La3+  3.0
  Ce3+  3.0
  Pr3+  3.0
  Nd3+  3.0
  Sm3+  3.0
  Bi2+  2.0
  S2-  -2.0
loop_
 _atom_site_type_symbol
 _atom_site_label
 _atom_site_symmetry_multiplicity
 _atom_site_fract_x
 _atom_site_fract_y
 _atom_site_fract_z
 _atom_site_occupancy
  La3+  La0  1  0.49686831  0.12197196  0.07874351  1
  La3+  La1  1  0.62883299  0.01034072  0.39960577  1
  La3+  La2  1  0.37889282  0.50395427  0.93701658  1
  La3+  La3  1  0.00862112  0.36354110  0.11308339  1
  La3+  La4  1  0.75197169  0.88251995  0.07289705  1
  La3+  La5  1  0.00405830  0.87919638  0.57529506  1
  La3+  La6  1  0.88033453  0.26378124  0.90813864  1
  La3+  La7  1  0.25151793  0.63113411  0.05927177  1
  La3+  La8  1  0.74781778  0.37749574  0.06451652  1
  La3+  La9  1  0.61470820  0.25636214  0.90574669  1
  La3+  La10  1  0.73202725  0.11526334  0.60135141  1
  La3+  La11  1  0.00640044  0.38597410  0.57708554  1
  Ce3+  Ce12  1  0.11983140  0.00322025  0.93859544  1
  Ce3+  Ce13  1  0.62730237  0.75439337  0.43742728  1
  Ce3+  Ce14  1  0.50232755  0.37855707  0.55489753  1
  Ce3+  Ce15  1  -0.00212402  0.62004851  0.06068954  1
  Ce3+  Ce16  1  0.88466459  0.50227048  0.43593417  1
  Ce3+  Ce17  1  0.63003811  0.25071314  0.44293609  1
  Ce3+  Ce18  1  0.50036301  0.88150126  0.55492404  1
  Ce3+  Ce19  1  0.37341848  0.50404723  0.43376220  1
  Ce3+  Ce20  1  0.87362496  0.75720011  0.44119863  1
  Ce3+  Ce21  1  -0.00377708  0.12970758  0.56407373  1
  Ce3+  Ce22  1  0.37716197  0.75787322  0.43243097  1
  Ce3+  Ce23  1  0.49869408  0.62956816  0.54702081  1
  Ce3+  Ce24  1  -0.00306237  0.88211721  0.07006409  1
  Ce3+  Ce25  1  0.87465258  0.75695028  0.94655301  1
  Pr3+  Pr26  1  0.75407180  0.37877556  0.57627524  1
  Pr3+  Pr27  1  0.49737921  0.13148305  0.56222445  1
  Pr3+  Pr28  1  0.12440607  0.75481011  0.94704908  1
  Pr3+  Pr29  1  0.50141804  0.37809986  0.07166041  1
  Pr3+  Pr30  1  0.37973488  0.77085505  0.92933680  1
  Pr3+  Pr31  1  0.12717856  0.25327397  0.93353664  1
  Pr3+  Pr32  1  0.75151209  0.13457534  0.05024994  1
  Pr3+  Pr33  1  0.37760486  0.25287249  0.43833436  1
  Pr3+  Pr34  1  -0.00299934  0.13326394  0.05662133  1
  Pr3+  Pr35  1  0.12145459  0.25429645  0.44260734  1
  Pr3+  Pr36  1  0.87433486  0.50094294  0.93879915  1
  Pr3+  Pr37  1  0.49729023  0.85681373  0.09176395  1
  Pr3+  Pr38  1  0.75012230  0.62761207  0.56567006  1
  Nd3+  Nd39  1  0.12635627  0.76053843  0.43642133  1
  Nd3+  Nd40  1  0.63212842  0.50097288  0.43838367  1
  Nd3+  Nd41  1  0.25687725  0.88020020  0.56469529  1
  Nd3+  Nd42  1  0.37772797  0.00479239  0.43025483  1
  Nd3+  Nd43  1  0.87168300  0.00589999  0.44927964  1
  Nd3+  Nd44  1  0.62676375  0.76063264  0.93748867  1
  Nd3+  Nd45  1  0.25084319  0.38054871  0.56356615  1
  Nd3+  Nd46  1  0.62663743  0.00327808  0.94010769  1
  Nd3+  Nd47  1  0.13306424  0.50486446  0.43132144  1
  Nd3+  Nd48  1  0.87908342  0.00390906  0.93082616  1
  Nd3+  Nd49  1  0.37608446  0.25061907  0.94469422  1
  Nd3+  Nd50  1  0.12349226  0.50159467  0.93587063  1
  Nd3+  Nd51  1  0.00133946  0.63074711  0.55097643  1
  Sm3+  Sm52  1  0.24635016  0.88063734  0.06277082  1
  Sm3+  Sm53  1  0.12327745  0.00456964  0.44468259  1
  Sm3+  Sm54  1  0.38065090  0.00473824  0.95304994  1
  Sm3+  Sm55  1  0.24695019  0.13132249  0.05839523  1
  Sm3+  Sm56  1  0.62517059  0.50119533  0.94273018  1
  Sm3+  Sm57  1  0.74878814  0.62804835  0.05377993  1
  Sm3+  Sm58  1  0.24728572  0.38041955  0.05790703  1
  Sm3+  Sm59  1  0.25116279  0.63088403  0.55358429  1
  Sm3+  Sm60  1  0.49964165  0.63213769  0.04962084  1
  Sm3+  Sm61  1  0.74618142  0.87982027  0.55442516  1
  Sm3+  Sm62  1  0.24970426  0.12999775  0.55386399  1
  Sm3+  Sm63  1  0.87139495  0.25248406  0.45220241  1
  Bi2+  Bi64  1  0.07454096  0.12365318  0.28127407  1
  Bi2+  Bi65  1  0.08732685  0.11616761  0.79108658  1
  Bi2+  Bi66  1  -0.02076554  0.35466242  0.32214758  1
  Bi2+  Bi67  1  0.02312712  0.39693874  0.79297784  1
  Bi2+  Bi68  1  0.03890256  0.63294331  0.27879925  1
  Bi2+  Bi69  1  0.02436973  0.65845764  0.74396362  1
  Bi2+  Bi70  1  0.00107050  0.86541241  0.28552072  1
  Bi2+  Bi71  1  0.00813553  0.86023901  0.79229639  1
  Bi2+  Bi72  1  0.25660497  0.06498008  0.30939460  1
  Bi2+  Bi73  1  0.26226678  0.17858698  0.82792290  1
  Bi2+  Bi74  1  0.27951239  0.40239241  0.26753523  1
  Bi2+  Bi75  1  0.23620151  0.36225031  0.78448202  1
  Bi2+  Bi76  1  0.30934260  0.64179327  0.30669681  1
  Bi2+  Bi77  1  0.31507900  0.60771551  0.76756929  1
  Bi2+  Bi78  1  0.19840731  0.87686483  0.29716258  1
  Bi2+  Bi79  1  0.25177248  0.86944146  0.81031597  1
  Bi2+  Bi80  1  0.48952399  0.14647865  0.28439612  1
  Bi2+  Bi81  1  0.43821772  0.11363903  0.79925153  1
  Bi2+  Bi82  1  0.47979099  0.38213827  0.29545791  1
  Bi2+  Bi83  1  0.48527451  0.40917390  0.79886302  1
  Bi2+  Bi84  1  0.49199906  0.59271946  0.27863291  1
  Bi2+  Bi85  1  0.55731569  0.65452164  0.79623601  1
  Bi2+  Bi86  1  0.45448164  0.89771866  0.26563390  1
  Bi2+  Bi87  1  0.50151496  0.84952357  0.79382969  1
  Bi2+  Bi88  1  0.76441642  0.11963677  0.29605988  1
  Bi2+  Bi89  1  0.71399460  0.09567907  0.79091769  1
  Bi2+  Bi90  1  0.73964261  0.36397372  0.30500313  1
  Bi2+  Bi91  1  0.76101808  0.36691537  0.78493841  1
  Bi2+  Bi92  1  0.77177009  0.65016267  0.25767332  1
  Bi2+  Bi93  1  0.75060719  0.63603057  0.79296956  1
  Bi2+  Bi94  1  0.77186233  0.85727063  0.30328348  1
  Bi2+  Bi95  1  0.75824332  0.84129394  0.79813027  1
  Bi2+  Bi96  1  0.11038418  -0.04570096  0.17833090  1
  Bi2+  Bi97  1  0.17211013  -0.02352879  0.72450914  1
  Bi2+  Bi98  1  0.22764970  0.21879555  0.23472358  1
  Bi2+  Bi99  1  0.16762259  0.23152821  0.70724569  1
  Bi2+  Bi100  1  0.14470530  0.50719319  0.21084216  1
  Bi2+  Bi101  1  0.14528122  0.51298614  0.70945421  1
  Bi2+  Bi102  1  0.12045663  0.76447037  0.20499302  1
  Bi2+  Bi103  1  0.18883643  0.75250408  0.71104907  1
  Bi2+  Bi104  1  0.30215131  -0.02721687  0.21069503  1
  Bi2+  Bi105  1  0.36680565  -0.01722801  0.72557126  1
  Bi2+  Bi106  1  0.41892770  0.25135203  0.19319089  1
  Bi2+  Bi107  1  0.36213121  0.24981772  0.72039143  1
  Bi2+  Bi108  1  0.42025489  0.44708728  0.19063842  1
  Bi2+  Bi109  1  0.44448403  0.50927393  0.70408219  1
  Bi2+  Bi110  1  0.36853436  0.71022334  0.20460051  1
  Bi2+  Bi111  1  0.40082103  0.76832380  0.70338276  1
  Bi2+  Bi112  1  0.64663178  0.00635827  0.19030384  1
  Bi2+  Bi113  1  0.58806433  -0.05282069  0.70555177  1
  Bi2+  Bi114  1  0.63219297  0.28736226  0.22748412  1
  Bi2+  Bi115  1  0.58775914  0.25307703  0.70371639  1
  Bi2+  Bi116  1  0.63286779  0.53309949  0.20589994  1
  Bi2+  Bi117  1  0.63402328  0.50766237  0.72531081  1
  Bi2+  Bi118  1  0.60025057  0.74769335  0.23656015  1
  Bi2+  Bi119  1  0.62182131  0.74729644  0.69828494  1
  Bi2+  Bi120  1  0.93727617  0.00970264  0.21532413  1
  Bi2+  Bi121  1  0.92245816  -0.02022244  0.72097520  1
  Bi2+  Bi122  1  0.87500367  0.21567469  0.20239711  1
  Bi2+  Bi123  1  0.88986892  0.22664653  0.70904179  1
  Bi2+  Bi124  1  0.88033608  0.48580869  0.21541681  1
  Bi2+  Bi125  1  0.88285022  0.52858760  0.70798299  1
  Bi2+  Bi126  1  0.92336058  0.74388047  0.20427227  1
  Bi2+  Bi127  1  0.81518873  0.71800983  0.69508189  1
  S2-  S128  1  0.01172539  0.19536655  0.15105940  1
  S2-  S129  1  -0.00296672  0.11057030  0.66162412  1
  S2-  S130  1  -0.00201366  0.36783535  0.22696306  1
  S2-  S131  1  -0.07533890  0.37811604  0.66672091  1
  S2-  S132  1  0.00001288  0.53608345  0.14651306  1
  S2-  S133  1  0.01664550  0.59679576  0.64786284  1
  S2-  S134  1  -0.11651902  0.88915356  0.14601317  1
  S2-  S135  1  -0.06921181  0.84679627  0.66646929  1
  S2-  S136  1  0.29468383  0.13672699  0.15330476  1
  S2-  S137  1  0.28194658  0.13935032  0.64990608  1
  S2-  S138  1  0.17547993  0.37546699  0.14669599  1
  S2-  S139  1  0.14817552  0.38859888  0.64385542  1
  S2-  S140  1  0.25318193  0.60105287  0.15870188  1
  S2-  S141  1  0.25107963  0.61670253  0.65160073  1
  S2-  S142  1  0.33439233  0.83535030  0.14275303  1
  S2-  S143  1  0.14474132  0.87171763  0.64277611  1
  S2-  S144  1  0.56990304  0.16095078  0.16989231  1
  S2-  S145  1  0.57215375  0.10569191  0.65287434  1
  S2-  S146  1  0.62733694  0.39151439  0.14532462  1
  S2-  S147  1  0.47371178  0.32489084  0.64648110  1
  S2-  S148  1  0.50371388  0.69627932  0.14071734  1
  S2-  S149  1  0.49444294  0.64735920  0.64494395  1
  S2-  S150  1  0.49221545  0.98083236  0.16467425  1
  S2-  S151  1  0.38927269  0.88993832  0.63376167  1
  S2-  S152  1  0.78014735  0.11081664  0.15195075  1
  S2-  S153  1  0.79714063  0.08812796  0.69602783  1
  S2-  S154  1  0.84178287  0.36841510  0.15244559  1
  S2-  S155  1  0.73957208  0.27196938  0.65897359  1
  S2-  S156  1  0.75841378  0.60356376  0.15182815  1
  S2-  S157  1  0.74263041  0.51365464  0.64416087  1
  S2-  S158  1  0.65624829  0.85097908  0.15675139  1
  S2-  S159  1  0.71154499  0.91969526  0.64729659  1
  S2-  S160  1  0.07377860  -0.00609610  0.35071116  1
  S2-  S161  1  0.01885106  -0.00300383  0.85810199  1
  S2-  S162  1  0.11927329  0.26870688  0.34251467  1
  S2-  S163  1  0.03243750  0.25672215  0.84760698  1
  S2-  S164  1  0.02865808  0.50412714  0.35280986  1
  S2-  S165  1  0.09384225  0.52181668  0.83724430  1
  S2-  S166  1  0.15474588  0.71325134  0.34107280  1
  S2-  S167  1  0.12107143  0.77781290  0.84698699  1
  S2-  S168  1  0.47223378  0.00383760  0.34536912  1
  S2-  S169  1  0.38880648  -0.07961595  0.86779635  1
  S2-  S170  1  0.39358521  0.24142142  0.33812821  1
  S2-  S171  1  0.45715326  0.27129375  0.85757443  1
  S2-  S172  1  0.26288043  0.49338287  0.35730657  1
  S2-  S173  1  0.33756432  0.47820421  0.84071709  1
  S2-  S174  1  0.38484868  0.79638621  0.33677900  1
  S2-  S175  1  0.33162330  0.71864274  0.83597707  1
  S2-  S176  1  0.66108770  -0.00948701  0.29306820  1
  S2-  S177  1  0.58467783  0.08988793  0.85612663  1
  S2-  S178  1  0.62609621  0.17462547  0.35347959  1
  S2-  S179  1  0.64577274  0.25391636  0.80030327  1
  S2-  S180  1  0.61451937  0.46726270  0.34095828  1
  S2-  S181  1  0.62478376  0.43430225  0.85298203  1
  S2-  S182  1  0.62854361  0.78746276  0.34117879  1
  S2-  S183  1  0.62794279  0.87525517  0.86286691  1
  S2-  S184  1  0.83378483  0.00124652  0.35139044  1
  S2-  S185  1  0.80546561  -0.01155946  0.83909846  1
  S2-  S186  1  0.85515804  0.23953200  0.35277954  1
  S2-  S187  1  0.83869023  0.21279793  0.81012136  1
  S2-  S188  1  0.82740890  0.48093365  0.34349542  1
  S2-  S189  1  0.87407570  0.42100405  0.84794809  1
  S2-  S190  1  0.85681884  0.72982811  0.34515296  1
  S2-  S191  1  0.89049545  0.77303915  0.84946385  1
  S2-  S192  1  -0.00173560  0.12814188  0.45616172  1
  S2-  S193  1  -0.00231272  0.13383276  0.95071730  1
  S2-  S194  1  -0.00079909  0.37599351  0.46247488  1
  S2-  S195  1  0.00273011  0.38077578  0.94886936  1
  S2-  S196  1  0.00315998  0.63618511  0.44725805  1
  S2-  S197  1  -0.00036408  0.62769137  0.95231330  1
  S2-  S198  1  0.00010971  0.88095939  0.46013827  1
  S2-  S199  1  -0.00036343  0.87791074  0.96243206  1
  S2-  S200  1  0.24832242  0.12786102  0.44843975  1
  S2-  S201  1  0.25141363  0.12374080  0.95474455  1
  S2-  S202  1  0.25083413  0.37504063  0.45743070  1
  S2-  S203  1  0.25115907  0.37813591  0.95131871  1
  S2-  S204  1  0.25245042  0.63524399  0.45055846  1
  S2-  S205  1  0.25074176  0.62961787  0.94977473  1
  S2-  S206  1  0.25049095  0.88425701  0.45164172  1
  S2-  S207  1  0.24638449  0.88297965  0.95916240  1
  S2-  S208  1  0.50119878  0.12826577  0.45408608  1
  S2-  S209  1  0.49697248  0.12859137  0.96518253  1
  S2-  S210  1  0.50194143  0.37936053  0.44885354  1
  S2-  S211  1  0.50177626  0.37959684  0.96238096  1
  S2-  S212  1  0.50174057  0.62697398  0.44014513  1
  S2-  S213  1  0.50378572  0.63226060  0.94445921  1
  S2-  S214  1  0.50450105  0.88167027  0.44875173  1
  S2-  S215  1  0.50460730  0.88236587  0.96865158  1
  S2-  S216  1  0.74971786  0.12732871  0.45588313  1
  S2-  S217  1  0.75156571  0.13658109  0.94300744  1
  S2-  S218  1  0.75201233  0.37777716  0.46140144  1
  S2-  S219  1  0.74570092  0.37559385  0.95278814  1
  S2-  S220  1  0.75205311  0.62774325  0.45482332  1
  S2-  S221  1  0.74691733  0.62887737  0.94771062  1
  S2-  S222  1  0.74556081  0.88249506  0.45016922  1
  S2-  S223  1  0.75478425  0.88105068  0.96189125  1
  S2-  S224  1  0.12568297  0.00661966  0.04620224  1
  S2-  S225  1  0.12770032  0.00796986  0.54876042  1
  S2-  S226  1  0.12856019  0.25514523  0.04204675  1
  S2-  S227  1  0.12589342  0.25125458  0.54926765  1
  S2-  S228  1  0.12853575  0.50430091  0.04252556  1
  S2-  S229  1  0.12915446  0.50914054  0.53859552  1
  S2-  S230  1  0.12205330  0.75477216  0.05455499  1
  S2-  S231  1  0.12845654  0.75282559  0.54310024  1
  S2-  S232  1  0.36727553  0.00252791  0.05440614  1
  S2-  S233  1  0.37338669  0.01003915  0.53671986  1
  S2-  S234  1  0.37184289  0.25603382  0.05082810  1
  S2-  S235  1  0.37106720  0.25496593  0.54405975  1
  S2-  S236  1  0.37725510  0.50463090  0.04627356  1
  S2-  S237  1  0.37317244  0.50406927  0.54341217  1
  S2-  S238  1  0.37406872  0.75354105  0.03625069  1
  S2-  S239  1  0.37428620  0.75286449  0.53862238  1
  S2-  S240  1  0.62683858  0.00575658  0.05047567  1
  S2-  S241  1  0.62221758  0.00291725  0.54434091  1
  S2-  S242  1  0.62001506  0.24982272  0.05099414  1
  S2-  S243  1  0.62657866  0.25306155  0.54864406  1
  S2-  S244  1  0.62116462  0.51059243  0.04521802  1
  S2-  S245  1  0.62220260  0.50447843  0.54487091  1
  S2-  S246  1  0.62824376  0.75107531  0.04235807  1
  S2-  S247  1  0.62572389  0.75334470  0.54493142  1
  S2-  S248  1  0.87727740  0.00737120  0.03969928  1
  S2-  S249  1  0.86915131  0.00464479  0.55618140  1
  S2-  S250  1  0.87833689  0.25797765  0.04514784  1
  S2-  S251  1  0.87546338  0.25235476  0.55601161  1
  S2-  S252  1  0.86897418  0.50599374  0.04368514  1
  S2-  S253  1  0.87792944  0.50553683  0.54463361  1
  S2-  S254  1  0.87470747  0.74786349  0.05127468  1
  S2-  S255  1  0.87281252  0.75500481  0.54823796  1
