# generated using pymatgen
data_La12Ce14Pr13Nd13Sm12(BiS2)64
_symmetry_space_group_name_H-M   'P 1'
_cell_length_a   16.14812015
_cell_length_b   16.16845517
_cell_length_c   27.42268932
_cell_angle_alpha   90.26935225
_cell_angle_beta   89.96399608
_cell_angle_gamma   89.96626770
_symmetry_Int_Tables_number   1
_chemical_formula_structural   La12Ce14Pr13Nd13Sm12(BiS2)64
_chemical_formula_sum   'La12 Ce14 Pr13 Nd13 Sm12 Bi64 S128'
_cell_volume   7159.71246605
_cell_formula_units_Z   1
loop_
 _symmetry_equiv_pos_site_id
 _symmetry_equiv_pos_as_xyz
  1  'x, y, z'
loop_
 _atom_type_symbol
 _atom_type_oxidation_number
  La3+  3.0
  Ce3+  3.0
  Pr3+  3.0
  Nd3+  3.0
  Sm3+  3.0
  Bi2+  2.0
  S2-  -2.0
loop_
 _atom_site_type_symbol
 _atom_site_label
 _atom_site_symmetry_multiplicity
 _atom_site_fract_x
 _atom_site_fract_y
 _atom_site_fract_z
 _atom_site_occupancy
  La3+  La0  1  0.12483312  -0.00111623  0.92173460  1
  La3+  La1  1  0.61592496  -0.00911833  0.41242444  1
  La3+  La2  1  0.60954927  0.49893033  0.43129917  1
  La3+  La3  1  0.00564115  0.10795969  0.06844079  1
  La3+  La4  1  0.10504911  0.23908395  0.40689131  1
  La3+  La5  1  0.38243177  0.74608912  0.93240451  1
  La3+  La6  1  0.51203937  0.86822302  0.06625055  1
  La3+  La7  1  -0.01936517  0.88258359  0.59102527  1
  La3+  La8  1  0.13980146  0.73932343  0.88751361  1
  La3+  La9  1  0.10984941  0.74785803  0.44626767  1
  La3+  La10  1  0.25444641  0.38050859  0.11205252  1
  La3+  La11  1  0.35372022  0.49770093  0.43465853  1
  Ce3+  Ce12  1  0.23782969  0.62542263  0.56494121  1
  Ce3+  Ce13  1  0.73101023  0.37522105  0.55690534  1
  Ce3+  Ce14  1  0.88088837  0.24631156  0.94779045  1
  Ce3+  Ce15  1  0.24010799  0.37174236  0.55759618  1
  Ce3+  Ce16  1  0.86453000  0.24835079  0.44139270  1
  Ce3+  Ce17  1  0.11220426  0.00047757  0.44386192  1
  Ce3+  Ce18  1  0.88101123  -0.00754878  0.93202130  1
  Ce3+  Ce19  1  0.73531381  0.62213647  0.56269114  1
  Ce3+  Ce20  1  0.75437047  0.11816776  0.04896360  1
  Ce3+  Ce21  1  0.63055451  0.49212178  0.94140064  1
  Ce3+  Ce22  1  0.62959011  0.74077774  0.93265196  1
  Ce3+  Ce23  1  0.48918458  0.87567794  0.56339134  1
  Ce3+  Ce24  1  0.01030171  0.36829852  0.06165419  1
  Ce3+  Ce25  1  0.23765695  0.12390685  0.55718284  1
  Pr3+  Pr26  1  0.62790006  -0.00803213  0.93226428  1
  Pr3+  Pr27  1  -0.01296612  0.12709535  0.56635166  1
  Pr3+  Pr28  1  -0.01369494  0.37239784  0.56524253  1
  Pr3+  Pr29  1  0.37076208  0.24324097  0.43084481  1
  Pr3+  Pr30  1  0.25561877  0.11910521  0.06656829  1
  Pr3+  Pr31  1  0.48523608  0.62445932  0.55912486  1
  Pr3+  Pr32  1  0.62460296  0.24488420  0.93476126  1
  Pr3+  Pr33  1  0.37879916  -0.00690619  0.94592519  1
  Pr3+  Pr34  1  0.25479324  0.62079989  0.05909525  1
  Pr3+  Pr35  1  0.12878865  0.24205632  0.93727140  1
  Pr3+  Pr36  1  0.73249482  0.12553271  0.55199052  1
  Pr3+  Pr37  1  0.51758069  0.12099768  0.07269030  1
  Pr3+  Pr38  1  0.86484788  0.74785462  0.44657748  1
  Nd3+  Nd39  1  0.86690709  0.49886300  0.44144432  1
  Nd3+  Nd40  1  0.47838978  0.37125057  0.56659861  1
  Nd3+  Nd41  1  0.50857271  0.37099616  0.06878339  1
  Nd3+  Nd42  1  0.13102816  0.49527290  0.93784237  1
  Nd3+  Nd43  1  0.75491231  0.37060531  0.06652439  1
  Nd3+  Nd44  1  0.61559139  0.74800441  0.44428309  1
  Nd3+  Nd45  1  0.36341903  0.75300898  0.44691391  1
  Nd3+  Nd46  1  0.25269241  0.87215262  0.05997716  1
  Nd3+  Nd47  1  0.36327895  -0.00234269  0.44328847  1
  Nd3+  Nd48  1  0.61496975  0.25559392  0.43129864  1
  Nd3+  Nd49  1  -0.01731515  0.61495915  0.57929873  1
  Nd3+  Nd50  1  0.75847148  0.62062537  0.05600590  1
  Nd3+  Nd51  1  0.37780312  0.49189077  0.94215703  1
  Sm3+  Sm52  1  0.88363855  0.74132499  0.93145705  1
  Sm3+  Sm53  1  0.49033817  0.12203020  0.55192494  1
  Sm3+  Sm54  1  0.00702664  0.62019719  0.05199887  1
  Sm3+  Sm55  1  0.37966486  0.24504138  0.95221256  1
  Sm3+  Sm56  1  0.73941335  0.87546323  0.56033650  1
  Sm3+  Sm57  1  0.23548814  0.87571494  0.56190618  1
  Sm3+  Sm58  1  0.11273876  0.49516210  0.45110565  1
  Sm3+  Sm59  1  0.00572838  0.86767880  0.04990243  1
  Sm3+  Sm60  1  0.88220484  0.49280481  0.94148270  1
  Sm3+  Sm61  1  0.50368085  0.61848440  0.05458556  1
  Sm3+  Sm62  1  0.86559397  -0.00032106  0.44350898  1
  Sm3+  Sm63  1  0.75520992  0.86599332  0.04770408  1
  Bi2+  Bi64  1  -0.02818518  0.09777412  0.29973304  1
  Bi2+  Bi65  1  0.01469055  0.13290887  0.79273461  1
  Bi2+  Bi66  1  -0.01027582  0.47374663  0.26401140  1
  Bi2+  Bi67  1  0.00026226  0.37068989  0.79430144  1
  Bi2+  Bi68  1  -0.09845795  0.62319434  0.31789966  1
  Bi2+  Bi69  1  0.01739397  0.61493001  0.77766263  1
  Bi2+  Bi70  1  0.00903056  0.86322550  0.22887509  1
  Bi2+  Bi71  1  0.01612622  0.86906585  0.78443080  1
  Bi2+  Bi72  1  0.23989835  0.05859844  0.27949174  1
  Bi2+  Bi73  1  0.24971879  0.15232683  0.76082948  1
  Bi2+  Bi74  1  0.25938892  0.41887007  0.31482077  1
  Bi2+  Bi75  1  0.19248141  0.35373406  0.80333022  1
  Bi2+  Bi76  1  0.22774444  0.66269576  0.30015532  1
  Bi2+  Bi77  1  0.27562253  0.57561150  0.78497382  1
  Bi2+  Bi78  1  0.23047760  0.86982113  0.30672715  1
  Bi2+  Bi79  1  0.28839352  0.85326772  0.78356394  1
  Bi2+  Bi80  1  0.47967793  0.11333681  0.27842845  1
  Bi2+  Bi81  1  0.52047866  0.17111543  0.78255561  1
  Bi2+  Bi82  1  0.49320759  0.36168294  0.30317466  1
  Bi2+  Bi83  1  0.49940774  0.38162327  0.81324741  1
  Bi2+  Bi84  1  0.54288637  0.63213235  0.25780519  1
  Bi2+  Bi85  1  0.56512991  0.64551974  0.78402105  1
  Bi2+  Bi86  1  0.48976533  0.87444727  0.30186368  1
  Bi2+  Bi87  1  0.53741308  0.90351321  0.80625287  1
  Bi2+  Bi88  1  0.76149082  0.14746808  0.28614012  1
  Bi2+  Bi89  1  0.82120201  0.17272064  0.76771944  1
  Bi2+  Bi90  1  0.76726943  0.35301923  0.28809283  1
  Bi2+  Bi91  1  0.76175863  0.35696070  0.78663247  1
  Bi2+  Bi92  1  0.69670813  0.61373852  0.32855878  1
  Bi2+  Bi93  1  0.74592423  0.71795477  0.82274079  1
  Bi2+  Bi94  1  0.75279796  0.79316448  0.28826614  1
  Bi2+  Bi95  1  0.76251567  0.90883425  0.79624393  1
  Bi2+  Bi96  1  0.10291056  0.02984830  0.19843537  1
  Bi2+  Bi97  1  0.15034351  -0.00277240  0.69385653  1
  Bi2+  Bi98  1  0.12094364  0.27058072  0.22095919  1
  Bi2+  Bi99  1  0.09361858  0.24445227  0.70550760  1
  Bi2+  Bi100  1  0.11310701  0.59772006  0.21415098  1
  Bi2+  Bi101  1  0.11679998  0.44147822  0.70802656  1
  Bi2+  Bi102  1  0.18041626  0.78151284  0.19058070  1
  Bi2+  Bi103  1  0.16431634  0.73194724  0.68092032  1
  Bi2+  Bi104  1  0.33818539  -0.07594882  0.21419674  1
  Bi2+  Bi105  1  0.40517117  0.02089078  0.74661335  1
  Bi2+  Bi106  1  0.37094745  0.24802038  0.21275983  1
  Bi2+  Bi107  1  0.35521877  0.31723362  0.74147306  1
  Bi2+  Bi108  1  0.39244557  0.52883032  0.20878074  1
  Bi2+  Bi109  1  0.41406756  0.49240215  0.69414723  1
  Bi2+  Bi110  1  0.36147268  0.72338021  0.21949053  1
  Bi2+  Bi111  1  0.42826817  0.71644233  0.71201446  1
  Bi2+  Bi112  1  0.61916762  0.00331415  0.19264402  1
  Bi2+  Bi113  1  0.58631051  0.04332257  0.69962885  1
  Bi2+  Bi114  1  0.65545233  0.25494497  0.21014315  1
  Bi2+  Bi115  1  0.62553954  0.23452515  0.68614921  1
  Bi2+  Bi116  1  0.71587445  0.52686751  0.22506912  1
  Bi2+  Bi117  1  0.66194713  0.47047671  0.71394685  1
  Bi2+  Bi118  1  0.63420713  0.77519138  0.19654545  1
  Bi2+  Bi119  1  0.63461044  0.80446970  0.72096169  1
  Bi2+  Bi120  1  0.84859341  -0.01998863  0.24661199  1
  Bi2+  Bi121  1  0.85112031  0.00624935  0.71115593  1
  Bi2+  Bi122  1  0.86570507  0.24351914  0.20687888  1
  Bi2+  Bi123  1  0.90703627  0.30186645  0.69252875  1
  Bi2+  Bi124  1  0.86607802  0.43114943  0.17972490  1
  Bi2+  Bi125  1  0.81028835  0.54743010  0.76938886  1
  Bi2+  Bi126  1  0.88530486  0.71336672  0.21305710  1
  Bi2+  Bi127  1  0.82259673  0.73803483  0.71484842  1
  S2-  S128  1  0.01104361  0.16919581  0.16339845  1
  S2-  S129  1  -0.01219319  0.03936981  0.65226230  1
  S2-  S130  1  0.08675685  0.37961808  0.14789053  1
  S2-  S131  1  -0.02734873  0.45571176  0.65277873  1
  S2-  S132  1  -0.01703362  0.62377495  0.14937299  1
  S2-  S133  1  0.01965075  0.65091695  0.67457635  1
  S2-  S134  1  -0.00950641  0.95410474  0.13446393  1
  S2-  S135  1  0.04358345  0.85346172  0.68412215  1
  S2-  S136  1  0.24445168  0.21183180  0.15293917  1
  S2-  S137  1  0.24513383  0.11230437  0.65469846  1
  S2-  S138  1  0.25216602  0.37450363  0.22155094  1
  S2-  S139  1  0.33568333  0.36665610  0.63838752  1
  S2-  S140  1  0.25338864  0.54829826  0.14999694  1
  S2-  S141  1  0.28901652  0.61043621  0.65907843  1
  S2-  S142  1  0.24225894  0.98560147  0.13671680  1
  S2-  S143  1  0.25698838  0.87967711  0.65959220  1
  S2-  S144  1  0.46824611  0.11758092  0.17077410  1
  S2-  S145  1  0.48797757  0.16425476  0.64645309  1
  S2-  S146  1  0.41879817  0.37821288  0.15463690  1
  S2-  S147  1  0.54403930  0.38989666  0.65918150  1
  S2-  S148  1  0.50583048  0.60967550  0.15200605  1
  S2-  S149  1  0.52644785  0.61056339  0.65597348  1
  S2-  S150  1  0.50279253  0.88464538  0.16598881  1
  S2-  S151  1  0.49100439  0.84492586  0.65898556  1
  S2-  S152  1  0.67696202  0.12013288  0.13621733  1
  S2-  S153  1  0.73348670  0.10178576  0.65110058  1
  S2-  S154  1  0.63791894  0.36837755  0.14121044  1
  S2-  S155  1  0.75199703  0.35818650  0.65274314  1
  S2-  S156  1  0.74221194  0.65250233  0.15320681  1
  S2-  S157  1  0.77718278  0.60972865  0.65613870  1
  S2-  S158  1  0.72433350  0.89220614  0.14323262  1
  S2-  S159  1  0.82652753  0.87469038  0.64512282  1
  S2-  S160  1  0.11377679  0.07795935  0.35503025  1
  S2-  S161  1  0.16085484  -0.10088420  0.84022512  1
  S2-  S162  1  0.12769333  0.32342633  0.32029839  1
  S2-  S163  1  0.14805320  0.13914426  0.85489718  1
  S2-  S164  1  0.16396198  0.53667756  0.36183245  1
  S2-  S165  1  0.13880349  0.57248454  0.84768197  1
  S2-  S166  1  0.11563119  0.76776745  0.34674028  1
  S2-  S167  1  0.13142491  0.73757000  0.77530229  1
  S2-  S168  1  0.37623616  0.02730317  0.34607599  1
  S2-  S169  1  0.37988642  -0.03919713  0.84695230  1
  S2-  S170  1  0.34588885  0.27458516  0.33315850  1
  S2-  S171  1  0.41828719  0.24008672  0.85677642  1
  S2-  S172  1  0.42631408  0.49862797  0.34381843  1
  S2-  S173  1  0.37686585  0.50082122  0.84119711  1
  S2-  S174  1  0.37932445  0.77776552  0.34972925  1
  S2-  S175  1  0.30231957  0.72263545  0.84230365  1
  S2-  S176  1  0.59585932  0.01157104  0.30933876  1
  S2-  S177  1  0.65160656  0.02488187  0.83497959  1
  S2-  S178  1  0.53715927  0.21138786  0.34610781  1
  S2-  S179  1  0.63978307  0.27434928  0.83677258  1
  S2-  S180  1  0.62967505  0.38626339  0.35464339  1
  S2-  S181  1  0.60419320  0.50352937  0.84597831  1
  S2-  S182  1  0.61497208  0.83460788  0.35875042  1
  S2-  S183  1  0.51543349  0.75116470  0.85902274  1
  S2-  S184  1  0.82594073  0.01081424  0.34807262  1
  S2-  S185  1  0.97608715  -0.00400893  0.85108453  1
  S2-  S186  1  0.94665074  0.22988904  0.35729532  1
  S2-  S187  1  0.91302593  0.24334788  0.85245230  1
  S2-  S188  1  0.88876986  0.44720522  0.34667047  1
  S2-  S189  1  0.92199789  0.50566721  0.84657712  1
  S2-  S190  1  0.88847262  0.78742670  0.35037186  1
  S2-  S191  1  0.97079311  0.74058726  0.84592084  1
  S2-  S192  1  -0.01196937  0.12293857  0.46124145  1
  S2-  S193  1  -0.00076451  0.11973859  0.95840401  1
  S2-  S194  1  -0.00631230  0.37111075  0.45790985  1
  S2-  S195  1  0.00707429  0.37148191  0.95383106  1
  S2-  S196  1  -0.00956943  0.61938888  0.46401578  1
  S2-  S197  1  0.00409817  0.61839178  0.95065849  1
  S2-  S198  1  -0.01356814  0.87818700  0.45868436  1
  S2-  S199  1  0.00312263  0.86483039  0.94872897  1
  S2-  S200  1  0.23901152  0.12571830  0.45161553  1
  S2-  S201  1  0.25955481  0.12084002  0.95830077  1
  S2-  S202  1  0.23214206  0.36494681  0.45120828  1
  S2-  S203  1  0.25515837  0.36641302  0.94565666  1
  S2-  S204  1  0.23852755  0.62791957  0.46098725  1
  S2-  S205  1  0.25515570  0.62025847  0.95326137  1
  S2-  S206  1  0.23707774  0.87574792  0.45703513  1
  S2-  S207  1  0.25477910  0.86642373  0.95470903  1
  S2-  S208  1  0.49472945  0.11535357  0.44965312  1
  S2-  S209  1  0.50492769  0.11854812  0.95694065  1
  S2-  S210  1  0.48427498  0.37393855  0.45611303  1
  S2-  S211  1  0.50392694  0.37024530  0.95934937  1
  S2-  S212  1  0.48681843  0.62749578  0.45135454  1
  S2-  S213  1  0.50432044  0.61472420  0.95201175  1
  S2-  S214  1  0.49010989  0.87638347  0.45789902  1
  S2-  S215  1  0.50688644  0.87042333  0.95887619  1
  S2-  S216  1  0.73470165  0.12270708  0.44595372  1
  S2-  S217  1  0.75467934  0.12089338  0.94328747  1
  S2-  S218  1  0.74283351  0.37524994  0.45310399  1
  S2-  S219  1  0.75643429  0.37059933  0.95478787  1
  S2-  S220  1  0.73943870  0.62198765  0.45674251  1
  S2-  S221  1  0.75924753  0.61625201  0.94960640  1
  S2-  S222  1  0.74157234  0.87685367  0.45686562  1
  S2-  S223  1  0.75637504  0.86592918  0.94386600  1
  S2-  S224  1  0.12792193  -0.00993307  0.03425700  1
  S2-  S225  1  0.11236188  -0.00278302  0.54933338  1
  S2-  S226  1  0.12711916  0.23929555  0.04347755  1
  S2-  S227  1  0.11441077  0.24961924  0.55826407  1
  S2-  S228  1  0.12934409  0.49708861  0.04299576  1
  S2-  S229  1  0.11502787  0.49963987  0.55449760  1
  S2-  S230  1  0.12703810  0.74636583  0.05319536  1
  S2-  S231  1  0.10852356  0.75179625  0.55544165  1
  S2-  S232  1  0.38833708  -0.00425302  0.05084134  1
  S2-  S233  1  0.36362647  -0.00129722  0.55008422  1
  S2-  S234  1  0.38737219  0.24193292  0.05389440  1
  S2-  S235  1  0.36505313  0.24245383  0.53820892  1
  S2-  S236  1  0.38099344  0.49431365  0.04631044  1
  S2-  S237  1  0.36109773  0.50083706  0.54186650  1
  S2-  S238  1  0.38137211  0.74612678  0.04910347  1
  S2-  S239  1  0.36118855  0.75278546  0.55237546  1
  S2-  S240  1  0.63302179  -0.00839030  0.03811142  1
  S2-  S241  1  0.61364074  -0.00375401  0.54542094  1
  S2-  S242  1  0.63336053  0.24649363  0.03952896  1
  S2-  S243  1  0.60703498  0.25092714  0.53911008  1
  S2-  S244  1  0.63209989  0.50018973  0.04668375  1
  S2-  S245  1  0.60817898  0.49890997  0.54197733  1
  S2-  S246  1  0.63116798  0.74043805  0.04087287  1
  S2-  S247  1  0.61550727  0.75108420  0.55010071  1
  S2-  S248  1  0.87399590  -0.01041547  0.03713569  1
  S2-  S249  1  0.86005847  0.00201569  0.54588473  1
  S2-  S250  1  0.87846811  0.24454350  0.05332114  1
  S2-  S251  1  0.86027668  0.24895018  0.54787801  1
  S2-  S252  1  0.88202087  0.49509097  0.04539226  1
  S2-  S253  1  0.86025273  0.49777112  0.54708808  1
  S2-  S254  1  0.88157927  0.74509331  0.04011652  1
  S2-  S255  1  0.86551965  0.74537656  0.55257709  1
