# generated using pymatgen
data_La12Ce14Pr13Nd13Sm12(BiS2)64
_symmetry_space_group_name_H-M   'P 1'
_cell_length_a   16.19090954
_cell_length_b   16.20106920
_cell_length_c   27.09347921
_cell_angle_alpha   90.00100971
_cell_angle_beta   89.99784193
_cell_angle_gamma   89.95463986
_symmetry_Int_Tables_number   1
_chemical_formula_structural   La12Ce14Pr13Nd13Sm12(BiS2)64
_chemical_formula_sum   'La12 Ce14 Pr13 Nd13 Sm12 Bi64 S128'
_cell_volume   7106.88954276
_cell_formula_units_Z   1
loop_
 _symmetry_equiv_pos_site_id
 _symmetry_equiv_pos_as_xyz
  1  'x, y, z'
loop_
 _atom_type_symbol
 _atom_type_oxidation_number
  La3+  3.0
  Ce3+  3.0
  Pr3+  3.0
  Nd3+  3.0
  Sm3+  3.0
  Bi2+  2.0
  S2-  -2.0
loop_
 _atom_site_type_symbol
 _atom_site_label
 _atom_site_symmetry_multiplicity
 _atom_site_fract_x
 _atom_site_fract_y
 _atom_site_fract_z
 _atom_site_occupancy
  La3+  La0  1  0.11540076  0.00519853  0.41221796  1
  La3+  La1  1  0.74961827  0.36989133  0.07132519  1
  La3+  La2  1  0.75330227  0.63000391  0.57433034  1
  La3+  La3  1  0.75651837  0.63201165  0.08245532  1
  La3+  La4  1  0.50002279  0.86588563  0.07281185  1
  La3+  La5  1  0.37328830  0.00967677  0.40435517  1
  La3+  La6  1  0.37423779  0.75756334  0.90364310  1
  La3+  La7  1  0.37850602  0.74746976  0.42889490  1
  La3+  La8  1  0.12174404  0.74805024  0.42509891  1
  La3+  La9  1  0.25135026  0.37580666  0.06491870  1
  La3+  La10  1  0.48683947  0.88481574  0.58909867  1
  La3+  La11  1  0.00053781  0.11729035  0.57332036  1
  Ce3+  Ce12  1  0.87623587  -0.00078136  0.43911782  1
  Ce3+  Ce13  1  0.75347345  0.87165931  0.05398426  1
  Ce3+  Ce14  1  0.25340671  0.87712857  0.54427311  1
  Ce3+  Ce15  1  0.13368135  -0.00359959  0.94825057  1
  Ce3+  Ce16  1  0.13044155  0.49836257  0.93948568  1
  Ce3+  Ce17  1  0.13351576  0.24400063  0.93465474  1
  Ce3+  Ce18  1  0.87594130  0.24951601  0.44356059  1
  Ce3+  Ce19  1  0.25451243  0.62316491  0.05896852  1
  Ce3+  Ce20  1  0.37767962  0.24449992  0.94545757  1
  Ce3+  Ce21  1  0.88067825  -0.00288969  0.94271902  1
  Ce3+  Ce22  1  0.75163547  0.12130855  0.05644959  1
  Ce3+  Ce23  1  0.00585784  0.87379154  0.05816147  1
  Ce3+  Ce24  1  0.37748784  0.50151867  0.93488346  1
  Ce3+  Ce25  1  0.50124752  0.37111975  0.56396240  1
  Pr3+  Pr26  1  0.63665917  0.74207210  0.93186280  1
  Pr3+  Pr27  1  0.49776895  0.13093631  0.56131545  1
  Pr3+  Pr28  1  0.50380420  0.12128972  0.07029341  1
  Pr3+  Pr29  1  0.62786924  0.25073621  0.43753639  1
  Pr3+  Pr30  1  0.24815832  0.37554403  0.56323657  1
  Pr3+  Pr31  1  0.50135089  0.37638078  0.05713584  1
  Pr3+  Pr32  1  0.24332933  0.86186417  0.08445058  1
  Pr3+  Pr33  1  0.00407760  0.87530659  0.56083394  1
  Pr3+  Pr34  1  0.62343926  0.75096014  0.44219136  1
  Pr3+  Pr35  1  0.87332546  0.49943235  0.93776171  1
  Pr3+  Pr36  1  0.37608828  0.49738950  0.44582811  1
  Pr3+  Pr37  1  0.87042143  0.50299137  0.43630174  1
  Pr3+  Pr38  1  0.25189277  0.12237323  0.55315939  1
  Nd3+  Nd39  1  0.00024449  0.62076519  0.06310865  1
  Nd3+  Nd40  1  0.12611618  0.50003998  0.42652364  1
  Nd3+  Nd41  1  0.74942187  0.12349409  0.55411858  1
  Nd3+  Nd42  1  0.37349131  0.25437692  0.42913173  1
  Nd3+  Nd43  1  0.87742426  0.24575655  0.93790769  1
  Nd3+  Nd44  1  0.25070922  0.12985908  0.07563866  1
  Nd3+  Nd45  1  0.62667923  0.24564692  0.93788867  1
  Nd3+  Nd46  1  0.49810261  0.62838727  0.56423765  1
  Nd3+  Nd47  1  0.62020229  -0.00021724  0.43954122  1
  Nd3+  Nd48  1  0.75492210  0.37599490  0.56686783  1
  Nd3+  Nd49  1  0.62916105  0.50006510  0.94703502  1
  Nd3+  Nd50  1  0.00313919  0.12523994  0.05896190  1
  Nd3+  Nd51  1  0.62349883  -0.00679668  0.94219609  1
  Sm3+  Sm52  1  0.88166794  0.74679085  0.93937307  1
  Sm3+  Sm53  1  0.62630015  0.49997461  0.45406061  1
  Sm3+  Sm54  1  0.00295715  0.62526185  0.55747989  1
  Sm3+  Sm55  1  0.37719734  -0.00598189  0.95350935  1
  Sm3+  Sm56  1  0.87228199  0.74831260  0.44837199  1
  Sm3+  Sm57  1  0.12387472  0.24939942  0.44309227  1
  Sm3+  Sm58  1  0.74700905  0.87591157  0.55673973  1
  Sm3+  Sm59  1  0.00108241  0.37290913  0.04639452  1
  Sm3+  Sm60  1  0.50144073  0.62887509  0.05864056  1
  Sm3+  Sm61  1  0.25133766  0.62664289  0.55488855  1
  Sm3+  Sm62  1  0.12989089  0.74711622  0.94001174  1
  Sm3+  Sm63  1  -0.00005242  0.37675887  0.55323549  1
  Bi2+  Bi64  1  -0.02616673  0.13330539  0.28484642  1
  Bi2+  Bi65  1  -0.03304790  0.11529349  0.76184370  1
  Bi2+  Bi66  1  0.05873683  0.39523852  0.27957698  1
  Bi2+  Bi67  1  -0.01063494  0.40339911  0.75756638  1
  Bi2+  Bi68  1  -0.01370934  0.63212551  0.28572518  1
  Bi2+  Bi69  1  0.00559092  0.69040687  0.81327063  1
  Bi2+  Bi70  1  -0.02151997  0.88670885  0.27180562  1
  Bi2+  Bi71  1  -0.04253670  0.87573539  0.80964444  1
  Bi2+  Bi72  1  0.23378393  0.17193651  0.29519406  1
  Bi2+  Bi73  1  0.21540007  0.15142385  0.80033875  1
  Bi2+  Bi74  1  0.23044838  0.36155566  0.32992461  1
  Bi2+  Bi75  1  0.26058228  0.37080767  0.79032743  1
  Bi2+  Bi76  1  0.23130757  0.55710341  0.27930932  1
  Bi2+  Bi77  1  0.23163518  0.62068228  0.79105249  1
  Bi2+  Bi78  1  0.24652113  0.86047336  0.28889808  1
  Bi2+  Bi79  1  0.25415850  0.89833123  0.79210380  1
  Bi2+  Bi80  1  0.54337168  0.13443430  0.29710025  1
  Bi2+  Bi81  1  0.48181342  0.11241243  0.79160257  1
  Bi2+  Bi82  1  0.45097184  0.39155238  0.30018816  1
  Bi2+  Bi83  1  0.45381384  0.40802942  0.78585204  1
  Bi2+  Bi84  1  0.50508806  0.57937308  0.28065829  1
  Bi2+  Bi85  1  0.51598340  0.62046121  0.80054780  1
  Bi2+  Bi86  1  0.51134401  0.84019997  0.29848180  1
  Bi2+  Bi87  1  0.51183800  0.89516781  0.79320080  1
  Bi2+  Bi88  1  0.77855760  0.10469891  0.28943331  1
  Bi2+  Bi89  1  0.77110340  0.11440564  0.78618838  1
  Bi2+  Bi90  1  0.73929443  0.37860127  0.30858318  1
  Bi2+  Bi91  1  0.74124636  0.37359710  0.81235523  1
  Bi2+  Bi92  1  0.74814222  0.62603937  0.30806373  1
  Bi2+  Bi93  1  0.78905241  0.60075094  0.79409874  1
  Bi2+  Bi94  1  0.78194329  0.90568845  0.29116795  1
  Bi2+  Bi95  1  0.78071272  0.87119677  0.75475780  1
  Bi2+  Bi96  1  0.13539909  -0.02029912  0.20536208  1
  Bi2+  Bi97  1  0.09636701  -0.03494616  0.73828055  1
  Bi2+  Bi98  1  0.08763871  0.24550525  0.20537263  1
  Bi2+  Bi99  1  0.13908686  0.27890125  0.71755759  1
  Bi2+  Bi100  1  0.14815137  0.48676926  0.18329940  1
  Bi2+  Bi101  1  0.07657160  0.57265366  0.72864020  1
  Bi2+  Bi102  1  0.11536811  0.67340352  0.20630523  1
  Bi2+  Bi103  1  0.12744866  0.76721333  0.72044109  1
  Bi2+  Bi104  1  0.39562949  0.01315502  0.20602114  1
  Bi2+  Bi105  1  0.35125710  0.01520460  0.70296781  1
  Bi2+  Bi106  1  0.33050858  0.33276639  0.22214942  1
  Bi2+  Bi107  1  0.37000917  0.21696541  0.71432932  1
  Bi2+  Bi108  1  0.34660094  0.50029937  0.16096727  1
  Bi2+  Bi109  1  0.33677057  0.49561532  0.70999107  1
  Bi2+  Bi110  1  0.37775701  0.66894856  0.21197142  1
  Bi2+  Bi111  1  0.38052442  0.74420003  0.69581663  1
  Bi2+  Bi112  1  0.67470499  -0.00021387  0.21047507  1
  Bi2+  Bi113  1  0.62819414  0.07014630  0.71306314  1
  Bi2+  Bi114  1  0.61021983  0.22030805  0.20755579  1
  Bi2+  Bi115  1  0.58022710  0.25684486  0.72933710  1
  Bi2+  Bi116  1  0.60907565  0.46201758  0.21954150  1
  Bi2+  Bi117  1  0.60946515  0.44826920  0.72184042  1
  Bi2+  Bi118  1  0.62137422  0.74662702  0.20628509  1
  Bi2+  Bi119  1  0.63599671  0.73132875  0.71047624  1
  Bi2+  Bi120  1  0.87643181  0.01374471  0.20065790  1
  Bi2+  Bi121  1  0.87718361  -0.00847849  0.68810346  1
  Bi2+  Bi122  1  0.89217069  0.30226789  0.21797478  1
  Bi2+  Bi123  1  0.86414059  0.25207588  0.70509382  1
  Bi2+  Bi124  1  0.90666194  0.49675598  0.21221537  1
  Bi2+  Bi125  1  0.85244695  0.49457417  0.69682348  1
  Bi2+  Bi126  1  0.85756936  0.75381020  0.22369852  1
  Bi2+  Bi127  1  0.92822800  0.76713449  0.70767690  1
  S2-  S128  1  0.01510271  0.10219288  0.15822193  1
  S2-  S129  1  0.00472731  0.19570910  0.66531586  1
  S2-  S130  1  -0.00097502  0.36796944  0.14472581  1
  S2-  S131  1  -0.02714509  0.40317551  0.64924358  1
  S2-  S132  1  -0.09937563  0.62229142  0.14620660  1
  S2-  S133  1  -0.05673928  0.62494015  0.65008481  1
  S2-  S134  1  0.08008929  0.86167214  0.14542037  1
  S2-  S135  1  0.02878460  0.98112112  0.63952828  1
  S2-  S136  1  0.25033717  0.07958947  0.17339093  1
  S2-  S137  1  0.24974615  0.12597357  0.65549076  1
  S2-  S138  1  0.23001260  0.26968781  0.14465075  1
  S2-  S139  1  0.21455950  0.39545316  0.66126137  1
  S2-  S140  1  0.24810364  0.70880586  0.14439267  1
  S2-  S141  1  0.27319964  0.62893785  0.65250827  1
  S2-  S142  1  0.28656587  0.88950036  0.18596456  1
  S2-  S143  1  0.31873922  0.87808620  0.63676549  1
  S2-  S144  1  0.46462206  0.15226842  0.16795510  1
  S2-  S145  1  0.49369442  0.03554065  0.64600461  1
  S2-  S146  1  0.54808817  0.35469252  0.15373626  1
  S2-  S147  1  0.47909374  0.26389779  0.63887530  1
  S2-  S148  1  0.49586266  0.72667474  0.14323460  1
  S2-  S149  1  0.50642840  0.64002777  0.66410030  1
  S2-  S150  1  0.53598313  0.93472050  0.16768461  1
  S2-  S151  1  0.51921563  0.84775127  0.68946184  1
  S2-  S152  1  0.73580348  0.16753964  0.14927387  1
  S2-  S153  1  0.76882401  0.12366466  0.65299325  1
  S2-  S154  1  0.77276904  0.40219724  0.17018381  1
  S2-  S155  1  0.73214227  0.36231663  0.66637191  1
  S2-  S156  1  0.66183026  0.60453801  0.16927569  1
  S2-  S157  1  0.72513649  0.61083674  0.67306488  1
  S2-  S158  1  0.75115664  0.79833691  0.14274111  1
  S2-  S159  1  0.73361133  0.84137299  0.65249396  1
  S2-  S160  1  0.22623472  0.01885061  0.33404142  1
  S2-  S161  1  0.15822532  0.00829978  0.85084216  1
  S2-  S162  1  0.09324241  0.17812913  0.35537980  1
  S2-  S163  1  0.09019936  0.24111916  0.83930055  1
  S2-  S164  1  0.12328399  0.61778462  0.35202338  1
  S2-  S165  1  0.16535726  0.48563537  0.84336810  1
  S2-  S166  1  0.10773989  0.84777092  0.34247791  1
  S2-  S167  1  0.21658934  0.76612443  0.85512107  1
  S2-  S168  1  0.39753318  -0.04861374  0.30505724  1
  S2-  S169  1  0.38264196  -0.07272491  0.86214633  1
  S2-  S170  1  0.39288237  0.16086573  0.34459351  1
  S2-  S171  1  0.36488940  0.17691978  0.85556158  1
  S2-  S172  1  0.38399037  0.53446772  0.34749951  1
  S2-  S173  1  0.37939567  0.59595150  0.85301635  1
  S2-  S174  1  0.36698914  0.75479068  0.32766006  1
  S2-  S175  1  0.41209298  0.75648852  0.79387347  1
  S2-  S176  1  0.58591555  -0.01451242  0.34149817  1
  S2-  S177  1  0.60860448  0.01488986  0.84413472  1
  S2-  S178  1  0.60352402  0.28077078  0.33853101  1
  S2-  S179  1  0.62119569  0.27490642  0.83956446  1
  S2-  S180  1  0.64968593  0.50843285  0.35637671  1
  S2-  S181  1  0.65084971  0.52544090  0.84781485  1
  S2-  S182  1  0.63547371  0.73249591  0.34067195  1
  S2-  S183  1  0.59213350  0.76726957  0.83437309  1
  S2-  S184  1  0.96450221  0.00515290  0.35539828  1
  S2-  S185  1  0.88517232  0.02760923  0.84595641  1
  S2-  S186  1  0.83298012  0.26494636  0.34876797  1
  S2-  S187  1  0.83873888  0.25261173  0.84034417  1
  S2-  S188  1  0.86004741  0.49395901  0.33565291  1
  S2-  S189  1  0.88973661  0.47611149  0.83719866  1
  S2-  S190  1  0.87619554  0.71668784  0.35264838  1
  S2-  S191  1  0.78533729  0.71147117  0.86160192  1
  S2-  S192  1  -0.00443051  0.12716591  0.46242218  1
  S2-  S193  1  0.00423353  0.12287214  0.95146281  1
  S2-  S194  1  0.00189909  0.37783249  0.44661009  1
  S2-  S195  1  0.00213742  0.37173045  0.94250615  1
  S2-  S196  1  -0.00278782  0.62370736  0.45412887  1
  S2-  S197  1  0.00328812  0.62233106  0.95360279  1
  S2-  S198  1  -0.00563014  0.86963979  0.45458773  1
  S2-  S199  1  0.00598859  0.87082698  0.95093245  1
  S2-  S200  1  0.25018386  0.13099391  0.44705449  1
  S2-  S201  1  0.25547044  0.12074365  0.96478214  1
  S2-  S202  1  0.24537775  0.37653423  0.45517629  1
  S2-  S203  1  0.25501692  0.37167091  0.95363424  1
  S2-  S204  1  0.25090580  0.62260825  0.45017554  1
  S2-  S205  1  0.25186005  0.62397103  0.95329146  1
  S2-  S206  1  0.25370151  0.87600007  0.43974624  1
  S2-  S207  1  0.25228154  0.87214534  0.96482747  1
  S2-  S208  1  0.50047833  0.12831612  0.45199750  1
  S2-  S209  1  0.50234888  0.11923073  0.96014936  1
  S2-  S210  1  0.50268860  0.37530408  0.45572013  1
  S2-  S211  1  0.50337892  0.37333632  0.94884522  1
  S2-  S212  1  0.50306761  0.62132838  0.45587368  1
  S2-  S213  1  0.50513213  0.62521633  0.95369507  1
  S2-  S214  1  0.49723232  0.87701113  0.44223062  1
  S2-  S215  1  0.50284887  0.86948473  0.95834092  1
  S2-  S216  1  0.74920224  0.12218335  0.44784431  1
  S2-  S217  1  0.75086940  0.12132911  0.94936049  1
  S2-  S218  1  0.75005049  0.37679088  0.45934121  1
  S2-  S219  1  0.75113813  0.37044757  0.95738281  1
  S2-  S220  1  0.74803828  0.62591407  0.46391740  1
  S2-  S221  1  0.75549113  0.62017665  0.96766193  1
  S2-  S222  1  0.74956500  0.87442598  0.45063653  1
  S2-  S223  1  0.75645896  0.87394350  0.94797528  1
  S2-  S224  1  0.12976888  0.00144220  0.05304944  1
  S2-  S225  1  0.12875555  -0.00142925  0.53377083  1
  S2-  S226  1  0.12360194  0.24977669  0.04128362  1
  S2-  S227  1  0.12273111  0.25138372  0.54886215  1
  S2-  S228  1  0.12373642  0.49824621  0.04521444  1
  S2-  S229  1  0.12400910  0.50320178  0.54231959  1
  S2-  S230  1  0.12280307  0.74241585  0.04309513  1
  S2-  S231  1  0.12657988  0.74779407  0.54340605  1
  S2-  S232  1  0.37423698  -0.00310050  0.05951696  1
  S2-  S233  1  0.37670494  0.00153930  0.53533845  1
  S2-  S234  1  0.38041288  0.24846370  0.05121226  1
  S2-  S235  1  0.37015702  0.25313717  0.53683769  1
  S2-  S236  1  0.38059294  0.50225309  0.03984939  1
  S2-  S237  1  0.37531782  0.50006633  0.55257324  1
  S2-  S238  1  0.37397691  0.74737322  0.04468167  1
  S2-  S239  1  0.37647276  0.74816588  0.53931579  1
  S2-  S240  1  0.62798536  -0.00395737  0.04959191  1
  S2-  S241  1  0.62473251  -0.00236024  0.54677441  1
  S2-  S242  1  0.62516650  0.24693543  0.04483578  1
  S2-  S243  1  0.63070536  0.25205792  0.54660998  1
  S2-  S244  1  0.62627187  0.50219079  0.05339072  1
  S2-  S245  1  0.62511094  0.50004749  0.55960636  1
  S2-  S246  1  0.62825550  0.74812037  0.04081262  1
  S2-  S247  1  0.61881069  0.75557997  0.55057116  1
  S2-  S248  1  0.87909770  -0.00179018  0.04999756  1
  S2-  S249  1  0.87064681  -0.00407968  0.54537797  1
  S2-  S250  1  0.87791557  0.24832198  0.04605020  1
  S2-  S251  1  0.87669757  0.25091736  0.55006921  1
  S2-  S252  1  0.87649722  0.49378638  0.04573403  1
  S2-  S253  1  0.87697160  0.50250942  0.54453343  1
  S2-  S254  1  0.88307298  0.75127187  0.04325102  1
  S2-  S255  1  0.87589198  0.75389310  0.55217325  1
