# generated using pymatgen
data_La12Ce14Pr13Nd13Sm12(BiS2)64
_symmetry_space_group_name_H-M   'P 1'
_cell_length_a   16.10799379
_cell_length_b   16.13878150
_cell_length_c   27.30321093
_cell_angle_alpha   90.12735062
_cell_angle_beta   90.00518781
_cell_angle_gamma   89.99344079
_symmetry_Int_Tables_number   1
_chemical_formula_structural   La12Ce14Pr13Nd13Sm12(BiS2)64
_chemical_formula_sum   'La12 Ce14 Pr13 Nd13 Sm12 Bi64 S128'
_cell_volume   7097.81772650
_cell_formula_units_Z   1
loop_
 _symmetry_equiv_pos_site_id
 _symmetry_equiv_pos_as_xyz
  1  'x, y, z'
loop_
 _atom_type_symbol
 _atom_type_oxidation_number
  La3+  3.0
  Ce3+  3.0
  Pr3+  3.0
  Nd3+  3.0
  Sm3+  3.0
  Bi2+  2.0
  S2-  -2.0
loop_
 _atom_site_type_symbol
 _atom_site_label
 _atom_site_symmetry_multiplicity
 _atom_site_fract_x
 _atom_site_fract_y
 _atom_site_fract_z
 _atom_site_occupancy
  La3+  La0  1  0.24830036  0.36270219  0.09858435  1
  La3+  La1  1  0.12388503  0.48716470  0.92920563  1
  La3+  La2  1  0.25748265  0.61059340  0.57404262  1
  La3+  La3  1  0.88030179  -0.01583235  0.42494967  1
  La3+  La4  1  0.49168817  0.62281372  0.09457920  1
  La3+  La5  1  0.50001143  0.36396949  0.55949594  1
  La3+  La6  1  0.00800292  0.87312095  0.60973956  1
  La3+  La7  1  0.37419163  0.50534163  0.41358417  1
  La3+  La8  1  0.00194471  0.86379518  0.06890025  1
  La3+  La9  1  0.37303608  -0.01107024  0.92981615  1
  La3+  La10  1  0.86066840  0.49152217  0.92111923  1
  La3+  La11  1  0.38410006  0.23549516  0.41548561  1
  Ce3+  Ce12  1  0.01139908  0.61123448  0.58660508  1
  Ce3+  Ce13  1  0.00470086  0.36936276  0.55396055  1
  Ce3+  Ce14  1  0.74691715  0.36857110  0.07013209  1
  Ce3+  Ce15  1  0.37850990  0.74428615  0.44234110  1
  Ce3+  Ce16  1  0.87314361  -0.01261163  0.94473007  1
  Ce3+  Ce17  1  0.86810525  0.74384228  0.91727205  1
  Ce3+  Ce18  1  0.87080085  0.24583798  0.93902876  1
  Ce3+  Ce19  1  0.00028408  0.61133840  0.05328780  1
  Ce3+  Ce20  1  0.11638952  0.73519111  0.92638218  1
  Ce3+  Ce21  1  0.12858339  0.74240186  0.45402203  1
  Ce3+  Ce22  1  0.50462473  0.11989824  0.56304245  1
  Ce3+  Ce23  1  0.00339011  0.11287736  0.55653783  1
  Ce3+  Ce24  1  0.49446266  0.11772311  0.06119074  1
  Ce3+  Ce25  1  0.38441235  -0.00872706  0.43517774  1
  Pr3+  Pr26  1  0.50135215  0.36628142  0.07235754  1
  Pr3+  Pr27  1  0.12254937  0.24282555  0.42964393  1
  Pr3+  Pr28  1  0.75711309  0.62106033  0.56517464  1
  Pr3+  Pr29  1  0.49600664  0.86927139  0.07191295  1
  Pr3+  Pr30  1  0.62509677  -0.01512507  0.94700474  1
  Pr3+  Pr31  1  0.62577683  0.74448188  0.44021555  1
  Pr3+  Pr32  1  0.75370657  0.85649000  0.08266081  1
  Pr3+  Pr33  1  0.25936718  0.86973563  0.56391160  1
  Pr3+  Pr34  1  0.75620395  0.37062214  0.55922425  1
  Pr3+  Pr35  1  0.24264703  0.61511894  0.06233422  1
  Pr3+  Pr36  1  0.12919018  0.49710143  0.43510306  1
  Pr3+  Pr37  1  0.88073091  0.74382817  0.44759758  1
  Pr3+  Pr38  1  0.37236752  0.48382062  0.93877621  1
  Nd3+  Nd39  1  0.87792572  0.24483484  0.43819036  1
  Nd3+  Nd40  1  0.50358723  0.86900408  0.56620682  1
  Nd3+  Nd41  1  0.62218502  0.24109885  0.94339463  1
  Nd3+  Nd42  1  0.75540379  0.87137079  0.56629508  1
  Nd3+  Nd43  1  0.37093856  0.23897164  0.93598790  1
  Nd3+  Nd44  1  0.25331922  0.11844486  0.54651641  1
  Nd3+  Nd45  1  -0.00430654  0.36900278  0.06076948  1
  Nd3+  Nd46  1  0.36521137  0.74058481  0.93251256  1
  Nd3+  Nd47  1  0.25558647  0.36794804  0.54773433  1
  Nd3+  Nd48  1  0.12646726  -0.01270123  0.43309018  1
  Nd3+  Nd49  1  0.62153606  0.74219033  0.94672409  1
  Nd3+  Nd50  1  0.62017419  0.49364912  0.94967816  1
  Nd3+  Nd51  1  0.63438438  -0.00552972  0.43076612  1
  Sm3+  Sm52  1  0.24712167  0.86570065  0.06032231  1
  Sm3+  Sm53  1  0.74863184  0.11482147  0.05580772  1
  Sm3+  Sm54  1  0.75204683  0.61741140  0.06190733  1
  Sm3+  Sm55  1  0.87701699  0.49687632  0.44412409  1
  Sm3+  Sm56  1  0.50017422  0.60835495  0.56723952  1
  Sm3+  Sm57  1  0.11948119  -0.01112540  0.94318248  1
  Sm3+  Sm58  1  0.75620311  0.11566640  0.55228930  1
  Sm3+  Sm59  1  0.62733746  0.24541767  0.44397917  1
  Sm3+  Sm60  1  0.24795017  0.12122155  0.05699557  1
  Sm3+  Sm61  1  -0.00105177  0.11972875  0.05424947  1
  Sm3+  Sm62  1  0.12220527  0.24586666  0.93822439  1
  Sm3+  Sm63  1  0.62687355  0.49441301  0.44048531  1
  Bi2+  Bi64  1  0.05246590  0.12329663  0.29411706  1
  Bi2+  Bi65  1  -0.03572209  0.15731692  0.79226246  1
  Bi2+  Bi66  1  -0.02636280  0.36936686  0.28230801  1
  Bi2+  Bi67  1  -0.00509151  0.35881960  0.78547105  1
  Bi2+  Bi68  1  -0.02457073  0.57483848  0.29380285  1
  Bi2+  Bi69  1  -0.00802052  0.65563689  0.77803124  1
  Bi2+  Bi70  1  0.00325416  0.85144076  0.29574343  1
  Bi2+  Bi71  1  0.01024209  0.91593872  0.79888117  1
  Bi2+  Bi72  1  0.26790101  0.05019505  0.25622387  1
  Bi2+  Bi73  1  0.24970467  0.16184150  0.78636399  1
  Bi2+  Bi74  1  0.23590497  0.37825864  0.29053625  1
  Bi2+  Bi75  1  0.26359446  0.41167612  0.80114130  1
  Bi2+  Bi76  1  0.23824563  0.67748313  0.30273150  1
  Bi2+  Bi77  1  0.24247623  0.63070966  0.78461514  1
  Bi2+  Bi78  1  0.22851175  0.88273302  0.30888511  1
  Bi2+  Bi79  1  0.28083551  0.89701938  0.79832259  1
  Bi2+  Bi80  1  0.52619557  0.11769203  0.29189079  1
  Bi2+  Bi81  1  0.49268956  0.11469380  0.78565499  1
  Bi2+  Bi82  1  0.52914140  0.36873559  0.29560815  1
  Bi2+  Bi83  1  0.48628690  0.31515024  0.77434122  1
  Bi2+  Bi84  1  0.53704821  0.62587148  0.29561364  1
  Bi2+  Bi85  1  0.53210387  0.61195620  0.76761753  1
  Bi2+  Bi86  1  0.42874983  0.87972774  0.29976486  1
  Bi2+  Bi87  1  0.56389431  0.83583800  0.81311295  1
  Bi2+  Bi88  1  0.79561276  0.16628712  0.25580141  1
  Bi2+  Bi89  1  0.76383260  0.17060729  0.78443851  1
  Bi2+  Bi90  1  0.77575305  0.36875885  0.28188678  1
  Bi2+  Bi91  1  0.72686593  0.36936367  0.79610083  1
  Bi2+  Bi92  1  0.79255485  0.64491067  0.28084075  1
  Bi2+  Bi93  1  0.73042421  0.63270882  0.79285626  1
  Bi2+  Bi94  1  0.73211676  0.88817549  0.30249955  1
  Bi2+  Bi95  1  0.72922015  0.96768174  0.78173523  1
  Bi2+  Bi96  1  0.10259117  -0.03063272  0.21519936  1
  Bi2+  Bi97  1  0.16170469  0.04769245  0.70729476  1
  Bi2+  Bi98  1  0.11190371  0.22001291  0.20698496  1
  Bi2+  Bi99  1  0.10889380  0.24041655  0.72074909  1
  Bi2+  Bi100  1  0.05697166  0.49407767  0.20104939  1
  Bi2+  Bi101  1  0.13969376  0.48961535  0.70608067  1
  Bi2+  Bi102  1  0.13309736  0.73441117  0.21142854  1
  Bi2+  Bi103  1  0.18307756  0.78463785  0.72328491  1
  Bi2+  Bi104  1  0.35726600  -0.05090172  0.17055916  1
  Bi2+  Bi105  1  0.41698292  -0.02189572  0.71562066  1
  Bi2+  Bi106  1  0.38112463  0.22479469  0.21523228  1
  Bi2+  Bi107  1  0.34801678  0.25048587  0.70331270  1
  Bi2+  Bi108  1  0.38240898  0.50948073  0.21023058  1
  Bi2+  Bi109  1  0.38568623  0.50814021  0.70505729  1
  Bi2+  Bi110  1  0.35980133  0.76683942  0.21534875  1
  Bi2+  Bi111  1  0.41760872  0.76408290  0.72886515  1
  Bi2+  Bi112  1  0.53470773  -0.01769502  0.21596463  1
  Bi2+  Bi113  1  0.59845661  -0.03627152  0.67351077  1
  Bi2+  Bi114  1  0.63252196  0.24528958  0.21125699  1
  Bi2+  Bi115  1  0.61024910  0.15774278  0.69641903  1
  Bi2+  Bi116  1  0.70789642  0.51059568  0.21011328  1
  Bi2+  Bi117  1  0.62494621  0.45418280  0.71394945  1
  Bi2+  Bi118  1  0.64663682  0.77614682  0.21452039  1
  Bi2+  Bi119  1  0.60757530  0.76779309  0.69900119  1
  Bi2+  Bi120  1  0.88230219  0.01490241  0.20384408  1
  Bi2+  Bi121  1  0.87356862  0.02414623  0.70921645  1
  Bi2+  Bi122  1  0.86778917  0.30894956  0.18570622  1
  Bi2+  Bi123  1  0.88171978  0.26097686  0.70525093  1
  Bi2+  Bi124  1  0.87529500  0.49787066  0.14824813  1
  Bi2+  Bi125  1  0.86048533  0.48886646  0.69264100  1
  Bi2+  Bi126  1  0.93345521  0.73151452  0.21837730  1
  Bi2+  Bi127  1  0.78983842  0.79591318  0.73738943  1
  S2-  S128  1  0.01205991  0.10108563  0.15238850  1
  S2-  S129  1  0.00927521  0.04217666  0.64606767  1
  S2-  S130  1  0.08485486  0.34202366  0.14556539  1
  S2-  S131  1  0.00860293  0.43367711  0.64391941  1
  S2-  S132  1  0.10370960  0.62246294  0.13439296  1
  S2-  S133  1  -0.06589184  0.62856626  0.67641179  1
  S2-  S134  1  -0.10629824  0.87780540  0.15186601  1
  S2-  S135  1  0.02178986  0.81306005  0.71464313  1
  S2-  S136  1  0.25003535  0.19911880  0.14665870  1
  S2-  S137  1  0.27224292  0.12596015  0.64599322  1
  S2-  S138  1  0.23390951  0.45200096  0.19335620  1
  S2-  S139  1  0.26269921  0.43679389  0.64055359  1
  S2-  S140  1  0.33889653  0.62970544  0.14873889  1
  S2-  S141  1  0.14723269  0.62572072  0.65507701  1
  S2-  S142  1  0.13707133  0.86089531  0.13917437  1
  S2-  S143  1  0.17163118  0.89964471  0.65023202  1
  S2-  S144  1  0.50268522  0.16614886  0.15594850  1
  S2-  S145  1  0.48605152  0.23681768  0.63617023  1
  S2-  S146  1  0.40123906  0.36400628  0.15616433  1
  S2-  S147  1  0.51089040  0.47258755  0.63914188  1
  S2-  S148  1  0.55167166  0.56831988  0.19171004  1
  S2-  S149  1  0.38658772  0.63338505  0.64415645  1
  S2-  S150  1  0.50468303  0.76824061  0.15469163  1
  S2-  S151  1  0.38506187  0.86824935  0.64163416  1
  S2-  S152  1  0.76641239  0.12042500  0.15345498  1
  S2-  S153  1  0.76536643  0.11466255  0.65006123  1
  S2-  S154  1  0.63461127  0.36662473  0.14578987  1
  S2-  S155  1  0.75494519  0.35244085  0.65933254  1
  S2-  S156  1  0.74046946  0.71120207  0.14638782  1
  S2-  S157  1  0.73094984  0.57146335  0.66080787  1
  S2-  S158  1  0.67351397  0.92089074  0.16962392  1
  S2-  S159  1  0.84328031  0.87296467  0.65296448  1
  S2-  S160  1  0.01451854  -0.00307767  0.35420807  1
  S2-  S161  1  0.14468647  -0.02003325  0.84494619  1
  S2-  S162  1  0.16962974  0.24883193  0.33217555  1
  S2-  S163  1  0.12552425  0.35142448  0.85688485  1
  S2-  S164  1  0.21596866  0.51226816  0.34844469  1
  S2-  S165  1  0.10622944  0.58836834  0.84269498  1
  S2-  S166  1  0.10546169  0.73926821  0.35568905  1
  S2-  S167  1  0.24125003  0.75817417  0.85757802  1
  S2-  S168  1  0.39465698  0.08568075  0.35380980  1
  S2-  S169  1  0.36829251  0.11749163  0.85827020  1
  S2-  S170  1  0.37680508  0.28673141  0.31685603  1
  S2-  S171  1  0.38151394  0.35186863  0.85844896  1
  S2-  S172  1  0.41365430  0.47866470  0.31303021  1
  S2-  S173  1  0.34511045  0.54917675  0.84241285  1
  S2-  S174  1  0.39955941  0.66827884  0.35591783  1
  S2-  S175  1  0.41316048  0.86268758  0.86000881  1
  S2-  S176  1  0.57582188  -0.08854398  0.34792726  1
  S2-  S177  1  0.59391485  -0.00161561  0.84785239  1
  S2-  S178  1  0.60656402  0.23050886  0.34704441  1
  S2-  S179  1  0.60267642  0.28117347  0.84696289  1
  S2-  S180  1  0.61058561  0.49526888  0.34270942  1
  S2-  S181  1  0.69823876  0.49929465  0.85994581  1
  S2-  S182  1  0.65320170  0.70881929  0.34117129  1
  S2-  S183  1  0.71442652  0.75927116  0.86116736  1
  S2-  S184  1  0.75793956  0.01903814  0.35200164  1
  S2-  S185  1  0.86667649  -0.05787603  0.85114957  1
  S2-  S186  1  0.94782501  0.23542467  0.34791033  1
  S2-  S187  1  0.86870113  0.34828692  0.85866551  1
  S2-  S188  1  0.83881069  0.51115043  0.34927910  1
  S2-  S189  1  0.88036702  0.60849292  0.84324993  1
  S2-  S190  1  0.86272728  0.82791086  0.35828619  1
  S2-  S191  1  1.00213654  0.77222986  0.85139496  1
  S2-  S192  1  0.00199501  0.11833126  0.45317652  1
  S2-  S193  1  -0.00168587  0.11846504  0.94846880  1
  S2-  S194  1  0.00118487  0.37312715  0.44743919  1
  S2-  S195  1  -0.00438475  0.36578568  0.95640152  1
  S2-  S196  1  0.00148607  0.61582842  0.45671188  1
  S2-  S197  1  -0.00851474  0.61213542  0.95063156  1
  S2-  S198  1  0.00695496  0.86496366  0.45634077  1
  S2-  S199  1  -0.00238567  0.86850984  0.95929181  1
  S2-  S200  1  0.24802245  0.11624776  0.44168394  1
  S2-  S201  1  0.23915612  0.11699145  0.95351336  1
  S2-  S202  1  0.25452370  0.36566203  0.44255752  1
  S2-  S203  1  0.24775664  0.36055210  0.95721832  1
  S2-  S204  1  0.25400327  0.62031643  0.46019794  1
  S2-  S205  1  0.24811906  0.61202841  0.95516484  1
  S2-  S206  1  0.25572719  0.86963821  0.45390625  1
  S2-  S207  1  0.24349699  0.87183397  0.95810482  1
  S2-  S208  1  0.51179717  0.11693129  0.45573253  1
  S2-  S209  1  0.50096524  0.11398722  0.95631748  1
  S2-  S210  1  0.50344485  0.37000485  0.44610094  1
  S2-  S211  1  0.50184713  0.36502678  0.96319533  1
  S2-  S212  1  0.50677808  0.61583939  0.45957104  1
  S2-  S213  1  0.49606868  0.61927736  0.94289717  1
  S2-  S214  1  0.50372221  0.86790576  0.45974453  1
  S2-  S215  1  0.49897945  0.86487224  0.96542356  1
  S2-  S216  1  0.75387888  0.12501676  0.45017225  1
  S2-  S217  1  0.74790224  0.11561208  0.94912561  1
  S2-  S218  1  0.75310417  0.37014685  0.45062386  1
  S2-  S219  1  0.74210311  0.36462477  0.96294293  1
  S2-  S220  1  0.75207750  0.61819119  0.45701415  1
  S2-  S221  1  0.74652641  0.62026638  0.95959165  1
  S2-  S222  1  0.74922900  0.86589183  0.46066331  1
  S2-  S223  1  0.75181182  0.86526079  0.96759570  1
  S2-  S224  1  0.12466426  -0.00134899  0.04664283  1
  S2-  S225  1  0.13068083  -0.00649377  0.53895333  1
  S2-  S226  1  0.12190694  0.23954499  0.04099761  1
  S2-  S227  1  0.12809271  0.24380531  0.54096908  1
  S2-  S228  1  0.12610339  0.48201724  0.04219896  1
  S2-  S229  1  0.12861790  0.49187272  0.54052261  1
  S2-  S230  1  0.12501876  0.74225695  0.03443014  1
  S2-  S231  1  0.12621311  0.74890937  0.55758182  1
  S2-  S232  1  0.36802285  -0.00549208  0.04227477  1
  S2-  S233  1  0.38283176  -0.00171736  0.54159697  1
  S2-  S234  1  0.37200270  0.24225144  0.04402160  1
  S2-  S235  1  0.37562335  0.24129393  0.52895430  1
  S2-  S236  1  0.37574796  0.49283105  0.04932797  1
  S2-  S237  1  0.37971487  0.49055559  0.53295837  1
  S2-  S238  1  0.37068880  0.74621225  0.04404626  1
  S2-  S239  1  0.38386103  0.74073145  0.54402320  1
  S2-  S240  1  0.62316580  -0.00589386  0.05334888  1
  S2-  S241  1  0.63104900  -0.00562394  0.54209290  1
  S2-  S242  1  0.62523612  0.23614254  0.04799657  1
  S2-  S243  1  0.63516174  0.24256551  0.54642831  1
  S2-  S244  1  0.62025850  0.50318782  0.05349276  1
  S2-  S245  1  0.63222337  0.49424899  0.54368572  1
  S2-  S246  1  0.61921087  0.73876746  0.04968265  1
  S2-  S247  1  0.62641258  0.74241042  0.55158943  1
  S2-  S248  1  0.87517779  -0.00357543  0.04874317  1
  S2-  S249  1  0.87708974  -0.00766859  0.54108684  1
  S2-  S250  1  0.87196264  0.23996691  0.04590040  1
  S2-  S251  1  0.87929758  0.24253003  0.54521620  1
  S2-  S252  1  0.86941428  0.49036992  0.03625118  1
  S2-  S253  1  0.88061406  0.49641089  0.54790317  1
  S2-  S254  1  0.87881318  0.73559327  0.04697074  1
  S2-  S255  1  0.88457435  0.74381063  0.55470657  1
