# generated using pymatgen
data_La12Ce14Pr13Nd13Sm12(BiS2)64
_symmetry_space_group_name_H-M   'P 1'
_cell_length_a   16.18377302
_cell_length_b   16.20428448
_cell_length_c   27.14607285
_cell_angle_alpha   89.93799857
_cell_angle_beta   89.98223173
_cell_angle_gamma   89.98867205
_symmetry_Int_Tables_number   1
_chemical_formula_structural   La12Ce14Pr13Nd13Sm12(BiS2)64
_chemical_formula_sum   'La12 Ce14 Pr13 Nd13 Sm12 Bi64 S128'
_cell_volume   7118.95691099
_cell_formula_units_Z   1
loop_
 _symmetry_equiv_pos_site_id
 _symmetry_equiv_pos_as_xyz
  1  'x, y, z'
loop_
 _atom_type_symbol
 _atom_type_oxidation_number
  La3+  3.0
  Ce3+  3.0
  Pr3+  3.0
  Nd3+  3.0
  Sm3+  3.0
  Bi2+  2.0
  S2-  -2.0
loop_
 _atom_site_type_symbol
 _atom_site_label
 _atom_site_symmetry_multiplicity
 _atom_site_fract_x
 _atom_site_fract_y
 _atom_site_fract_z
 _atom_site_occupancy
  La3+  La0  1  0.24827602  0.61685442  0.10346766  1
  La3+  La1  1  0.24258810  0.88788058  0.08478019  1
  La3+  La2  1  0.36265748  0.26230140  0.90835148  1
  La3+  La3  1  0.37368776  0.01184573  0.42994821  1
  La3+  La4  1  0.87327199  -0.00115934  0.43059164  1
  La3+  La5  1  0.12700757  0.00870276  0.42568769  1
  La3+  La6  1  0.36937415  0.74585236  0.40367071  1
  La3+  La7  1  0.36153611  -0.00431267  0.91004702  1
  La3+  La8  1  0.74338895  0.89031585  0.06835750  1
  La3+  La9  1  0.24404587  0.11917221  0.58470046  1
  La3+  La10  1  0.62557614  0.01897210  0.92112266  1
  La3+  La11  1  0.62255467  0.01073095  0.42691111  1
  Ce3+  Ce12  1  0.87148274  0.75196658  0.44214980  1
  Ce3+  Ce13  1  0.49460075  0.88547251  0.05862278  1
  Ce3+  Ce14  1  0.86711961  0.50743287  0.93041327  1
  Ce3+  Ce15  1  -0.00282586  0.88477997  0.06803568  1
  Ce3+  Ce16  1  0.12868057  0.25219057  0.43926478  1
  Ce3+  Ce17  1  0.00305975  0.12564680  0.55791649  1
  Ce3+  Ce18  1  -0.00457777  0.13046056  0.05469096  1
  Ce3+  Ce19  1  0.49808079  0.12391647  0.56790823  1
  Ce3+  Ce20  1  0.74719033  0.62675740  0.55876963  1
  Ce3+  Ce21  1  0.37200257  0.25272582  0.44769920  1
  Ce3+  Ce22  1  0.49259255  0.63299728  0.05963078  1
  Ce3+  Ce23  1  -0.00169788  0.37609063  0.55574854  1
  Ce3+  Ce24  1  0.36933959  0.75889512  0.94948398  1
  Ce3+  Ce25  1  0.12775014  0.75306541  0.43449131  1
  Pr3+  Pr26  1  0.49178972  0.13133704  0.05115860  1
  Pr3+  Pr27  1  0.37128953  0.49962107  0.43792108  1
  Pr3+  Pr28  1  0.87446822  0.25439384  0.43920880  1
  Pr3+  Pr29  1  0.86860417  0.75290214  0.93598501  1
  Pr3+  Pr30  1  0.62000741  0.75893115  0.94222959  1
  Pr3+  Pr31  1  0.49695557  0.37633090  0.56537223  1
  Pr3+  Pr32  1  0.12063232  0.00167081  0.93761884  1
  Pr3+  Pr33  1  -0.00844075  0.63043379  0.06604648  1
  Pr3+  Pr34  1  0.74209596  0.13864444  0.06831406  1
  Pr3+  Pr35  1  0.24628101  0.38143747  0.57338459  1
  Pr3+  Pr36  1  0.87317489  0.50440539  0.43959029  1
  Pr3+  Pr37  1  0.24961294  0.62779516  0.56731687  1
  Pr3+  Pr38  1  0.25000439  0.87622327  0.55209640  1
  Nd3+  Nd39  1  0.24861133  0.13202983  0.05608867  1
  Nd3+  Nd40  1  0.74774579  0.62984151  0.06480448  1
  Nd3+  Nd41  1  0.12291687  0.25481412  0.94064436  1
  Nd3+  Nd42  1  0.49778870  0.87829378  0.54972317  1
  Nd3+  Nd43  1  -0.00061002  0.87768289  0.55399669  1
  Nd3+  Nd44  1  0.74897314  0.12489095  0.56142433  1
  Nd3+  Nd45  1  -0.00337268  0.62824496  0.55448362  1
  Nd3+  Nd46  1  0.74696631  0.38069488  0.06885418  1
  Nd3+  Nd47  1  0.74697790  0.87905119  0.55813641  1
  Nd3+  Nd48  1  0.87176126  -0.00106846  0.93456741  1
  Nd3+  Nd49  1  -0.00170951  0.38545172  0.05024944  1
  Nd3+  Nd50  1  0.62401735  0.25364046  0.44518151  1
  Nd3+  Nd51  1  0.12310228  0.50951919  0.93797029  1
  Sm3+  Sm52  1  0.62192309  0.50418632  0.44543207  1
  Sm3+  Sm53  1  0.62208124  0.75367072  0.43984258  1
  Sm3+  Sm54  1  0.12540809  0.75448182  0.95284918  1
  Sm3+  Sm55  1  0.49927222  0.62812207  0.55453845  1
  Sm3+  Sm56  1  0.37018920  0.50812190  0.93674710  1
  Sm3+  Sm57  1  0.86903741  0.25703824  0.94381066  1
  Sm3+  Sm58  1  0.24744116  0.38173945  0.05803991  1
  Sm3+  Sm59  1  0.49049085  0.38236024  0.05414083  1
  Sm3+  Sm60  1  0.12655819  0.50295027  0.44553906  1
  Sm3+  Sm61  1  0.74891765  0.37638851  0.55641596  1
  Sm3+  Sm62  1  0.62089292  0.50458924  0.94942261  1
  Sm3+  Sm63  1  0.62014750  0.25735592  0.94223068  1
  Bi2+  Bi64  1  0.00029604  0.16736554  0.27908731  1
  Bi2+  Bi65  1  -0.00597001  0.07039645  0.78156092  1
  Bi2+  Bi66  1  0.00957410  0.35839317  0.29044467  1
  Bi2+  Bi67  1  -0.02318527  0.41959938  0.78814659  1
  Bi2+  Bi68  1  -0.00984518  0.60035858  0.28810520  1
  Bi2+  Bi69  1  -0.00468211  0.64354859  0.78017137  1
  Bi2+  Bi70  1  -0.00707618  0.88017376  0.27891281  1
  Bi2+  Bi71  1  -0.02685646  0.87337522  0.77338520  1
  Bi2+  Bi72  1  0.25175782  0.15234142  0.28819774  1
  Bi2+  Bi73  1  0.25741879  0.12635176  0.78843740  1
  Bi2+  Bi74  1  0.21677767  0.34312387  0.31683739  1
  Bi2+  Bi75  1  0.24702995  0.39251441  0.79041821  1
  Bi2+  Bi76  1  0.25327931  0.59693954  0.28920439  1
  Bi2+  Bi77  1  0.25079374  0.64462345  0.80009082  1
  Bi2+  Bi78  1  0.26083625  0.86159490  0.28313162  1
  Bi2+  Bi79  1  0.22471371  0.85013309  0.79499357  1
  Bi2+  Bi80  1  0.48310872  0.20486184  0.28348389  1
  Bi2+  Bi81  1  0.52453670  0.11305563  0.78103562  1
  Bi2+  Bi82  1  0.41447967  0.36815801  0.33081679  1
  Bi2+  Bi83  1  0.51511333  0.45347435  0.78541282  1
  Bi2+  Bi84  1  0.50734124  0.53272376  0.28038469  1
  Bi2+  Bi85  1  0.45518225  0.63885826  0.80867492  1
  Bi2+  Bi86  1  0.50380785  0.89591681  0.28113942  1
  Bi2+  Bi87  1  0.48155581  0.83388785  0.78145733  1
  Bi2+  Bi88  1  0.72962624  0.12508675  0.29394644  1
  Bi2+  Bi89  1  0.75125985  0.14762781  0.78475670  1
  Bi2+  Bi90  1  0.71891506  0.38869209  0.28393574  1
  Bi2+  Bi91  1  0.78531202  0.39166664  0.81592648  1
  Bi2+  Bi92  1  0.79349346  0.59768474  0.29621198  1
  Bi2+  Bi93  1  0.75379358  0.60394851  0.79756500  1
  Bi2+  Bi94  1  0.74966489  0.86917389  0.30184270  1
  Bi2+  Bi95  1  0.73961241  0.88613336  0.80421523  1
  Bi2+  Bi96  1  0.10585986  0.00735094  0.20911262  1
  Bi2+  Bi97  1  0.11025296  -0.00999423  0.70155438  1
  Bi2+  Bi98  1  0.13806257  0.25796627  0.21305426  1
  Bi2+  Bi99  1  0.09439877  0.29180791  0.72510892  1
  Bi2+  Bi100  1  0.09348712  0.46841772  0.20714424  1
  Bi2+  Bi101  1  0.10174897  0.52215088  0.70482908  1
  Bi2+  Bi102  1  0.08466296  0.73499180  0.22149742  1
  Bi2+  Bi103  1  0.14361658  0.71638588  0.70540748  1
  Bi2+  Bi104  1  0.37681728  0.03078506  0.19888405  1
  Bi2+  Bi105  1  0.38704484  -0.00696557  0.69538840  1
  Bi2+  Bi106  1  0.34565863  0.22929783  0.19443380  1
  Bi2+  Bi107  1  0.38275893  0.28315894  0.71171940  1
  Bi2+  Bi108  1  0.35520569  0.42055933  0.22458293  1
  Bi2+  Bi109  1  0.37597000  0.54163620  0.71369329  1
  Bi2+  Bi110  1  0.41837386  0.73191182  0.19921729  1
  Bi2+  Bi111  1  0.33707200  0.74489878  0.71092282  1
  Bi2+  Bi112  1  0.62724647  -0.02831254  0.19203964  1
  Bi2+  Bi113  1  0.63000110  -0.01443274  0.68961534  1
  Bi2+  Bi114  1  0.60336559  0.30277694  0.21039069  1
  Bi2+  Bi115  1  0.64452334  0.33721553  0.73400762  1
  Bi2+  Bi116  1  0.63617244  0.50630175  0.18961129  1
  Bi2+  Bi117  1  0.64560580  0.53919945  0.69514806  1
  Bi2+  Bi118  1  0.63373413  0.67610020  0.24802682  1
  Bi2+  Bi119  1  0.61070875  0.71267798  0.74487361  1
  Bi2+  Bi120  1  0.87893310  -0.04095070  0.19726321  1
  Bi2+  Bi121  1  0.86856851  -0.00189017  0.69800641  1
  Bi2+  Bi122  1  0.85224817  0.27219382  0.22852849  1
  Bi2+  Bi123  1  0.91075968  0.23686680  0.73994835  1
  Bi2+  Bi124  1  0.82564319  0.46585210  0.19057452  1
  Bi2+  Bi125  1  0.83539705  0.46097921  0.71044407  1
  Bi2+  Bi126  1  0.88555935  0.72167471  0.22026068  1
  Bi2+  Bi127  1  0.85348326  0.73325623  0.72697909  1
  S2-  S128  1  -0.01339653  0.07705678  0.14799201  1
  S2-  S129  1  0.09170238  0.12064928  0.64143732  1
  S2-  S130  1  -0.02664745  0.39518993  0.14835313  1
  S2-  S131  1  0.02233775  0.38776271  0.65164586  1
  S2-  S132  1  0.08539030  0.60967288  0.15055145  1
  S2-  S133  1  0.00907757  0.63627747  0.65327553  1
  S2-  S134  1  0.09705723  0.87581929  0.14989015  1
  S2-  S135  1  -0.00835654  0.88930275  0.65316863  1
  S2-  S136  1  0.23418506  0.05017835  0.14443123  1
  S2-  S137  1  0.30458419  0.12960535  0.68505446  1
  S2-  S138  1  0.24278882  0.45553229  0.14779710  1
  S2-  S139  1  0.23990454  0.31317019  0.66786207  1
  S2-  S140  1  0.25445928  0.68712228  0.19991282  1
  S2-  S141  1  0.25061484  0.51713796  0.64524378  1
  S2-  S142  1  0.32340739  0.87926459  0.18027176  1
  S2-  S143  1  0.24895342  0.94827491  0.64377610  1
  S2-  S144  1  0.52215561  0.08861071  0.14916681  1
  S2-  S145  1  0.51247461  0.11384369  0.66735432  1
  S2-  S146  1  0.46835354  0.35047632  0.15032579  1
  S2-  S147  1  0.50385591  0.35737234  0.66512986  1
  S2-  S148  1  0.42175543  0.60018619  0.14589699  1
  S2-  S149  1  0.50418464  0.61137928  0.65198290  1
  S2-  S150  1  0.52989231  0.84966438  0.15342646  1
  S2-  S151  1  0.51177143  0.88841741  0.64926608  1
  S2-  S152  1  0.75714851  0.05250925  0.15653932  1
  S2-  S153  1  0.75017669  0.10726970  0.66098626  1
  S2-  S154  1  0.73947848  0.26487615  0.14413353  1
  S2-  S155  1  0.74997949  0.34859778  0.65326251  1
  S2-  S156  1  0.86221920  0.61990992  0.13954552  1
  S2-  S157  1  0.77111250  0.64950862  0.65447502  1
  S2-  S158  1  0.75499977  0.84972871  0.16781955  1
  S2-  S159  1  0.74743408  0.88713863  0.65862694  1
  S2-  S160  1  0.12703336  -0.07164209  0.33385525  1
  S2-  S161  1  0.20522746  0.00302941  0.84954090  1
  S2-  S162  1  0.12170724  0.14789223  0.35865122  1
  S2-  S163  1  0.20066000  0.25368304  0.85133883  1
  S2-  S164  1  0.16641466  0.50211758  0.34978396  1
  S2-  S165  1  0.16541899  0.50559380  0.83981859  1
  S2-  S166  1  0.21299882  0.73384459  0.34947718  1
  S2-  S167  1  0.12539022  0.76219852  0.85224491  1
  S2-  S168  1  0.36641690  -0.04532501  0.33160308  1
  S2-  S169  1  0.38889734  0.02944746  0.80608284  1
  S2-  S170  1  0.37570102  0.15702100  0.36464879  1
  S2-  S171  1  0.41440151  0.22144360  0.81123654  1
  S2-  S172  1  0.38067817  0.58920098  0.35168057  1
  S2-  S173  1  0.37380949  0.41753193  0.85196610  1
  S2-  S174  1  0.41113764  0.77106739  0.30388334  1
  S2-  S175  1  0.36428189  0.83614398  0.86104934  1
  S2-  S176  1  0.62606314  -0.01187799  0.32574419  1
  S2-  S177  1  0.58322220  -0.05104407  0.82818626  1
  S2-  S178  1  0.61524959  0.18000074  0.35545353  1
  S2-  S179  1  0.62667283  0.18716596  0.85257587  1
  S2-  S180  1  0.63417923  0.50086396  0.34778232  1
  S2-  S181  1  0.64435284  0.49095131  0.85251870  1
  S2-  S182  1  0.63017964  0.76277716  0.34110938  1
  S2-  S183  1  0.69732299  0.75044618  0.85231862  1
  S2-  S184  1  0.83700839  0.01232543  0.33174766  1
  S2-  S185  1  0.76982807  0.03259527  0.85440693  1
  S2-  S186  1  0.84664835  0.22545365  0.34068552  1
  S2-  S187  1  0.86423119  0.23870810  0.84591587  1
  S2-  S188  1  0.90023962  0.47490593  0.34195359  1
  S2-  S189  1  0.89340456  0.62939648  0.86086139  1
  S2-  S190  1  0.87505560  0.80283415  0.34918940  1
  S2-  S191  1  0.88670472  0.86959611  0.86093622  1
  S2-  S192  1  -0.00625604  0.12751539  0.45211036  1
  S2-  S193  1  -0.00488932  0.13212430  0.94626410  1
  S2-  S194  1  0.00194277  0.37910496  0.44888098  1
  S2-  S195  1  -0.00294082  0.38053879  0.94327956  1
  S2-  S196  1  0.00130713  0.62732624  0.44692254  1
  S2-  S197  1  0.00120186  0.63109712  0.95890571  1
  S2-  S198  1  0.00071264  0.87546495  0.44742263  1
  S2-  S199  1  0.00113752  0.87696047  0.96102351  1
  S2-  S200  1  0.24799877  0.13015631  0.46493443  1
  S2-  S201  1  0.24813665  0.12908450  0.95113551  1
  S2-  S202  1  0.24778308  0.37883477  0.46244642  1
  S2-  S203  1  0.24444362  0.38295625  0.95402011  1
  S2-  S204  1  0.24934509  0.62684465  0.45983710  1
  S2-  S205  1  0.24950326  0.63096883  0.94841816  1
  S2-  S206  1  0.25434380  0.87656851  0.44628002  1
  S2-  S207  1  0.24351046  0.88038787  0.96337796  1
  S2-  S208  1  0.50140068  0.13062541  0.46185114  1
  S2-  S209  1  0.48639584  0.13373296  0.94310211  1
  S2-  S210  1  0.50207925  0.37840447  0.45771668  1
  S2-  S211  1  0.49764779  0.38068935  0.94949550  1
  S2-  S212  1  0.50084247  0.63000487  0.44965463  1
  S2-  S213  1  0.49657554  0.62812965  0.95218958  1
  S2-  S214  1  0.49682805  0.87552319  0.44244898  1
  S2-  S215  1  0.49807883  0.88652794  0.95201649  1
  S2-  S216  1  0.75119243  0.12840524  0.45439084  1
  S2-  S217  1  0.74783598  0.13961241  0.96065894  1
  S2-  S218  1  0.74676556  0.37977684  0.45072083  1
  S2-  S219  1  0.74374946  0.37865201  0.95908596  1
  S2-  S220  1  0.74497189  0.62838307  0.45063473  1
  S2-  S221  1  0.74202619  0.62764577  0.95915808  1
  S2-  S222  1  0.74363127  0.87792747  0.45087296  1
  S2-  S223  1  0.74182767  0.88414116  0.95884992  1
  S2-  S224  1  0.11954615  0.00913641  0.04279114  1
  S2-  S225  1  0.12266838  -0.00131767  0.53618123  1
  S2-  S226  1  0.12279820  0.25777201  0.04793200  1
  S2-  S227  1  0.12386593  0.25483557  0.54570361  1
  S2-  S228  1  0.12498039  0.50549842  0.04304726  1
  S2-  S229  1  0.11967245  0.50455972  0.54804651  1
  S2-  S230  1  0.12576350  0.75068157  0.05498081  1
  S2-  S231  1  0.12332564  0.75147263  0.54450347  1
  S2-  S232  1  0.36907930  0.00538650  0.04533036  1
  S2-  S233  1  0.37487700  0.00312038  0.54205106  1
  S2-  S234  1  0.36812310  0.25944128  0.04013824  1
  S2-  S235  1  0.37140390  0.24999818  0.55670892  1
  S2-  S236  1  0.36850219  0.50418125  0.04037080  1
  S2-  S237  1  0.37805657  0.50431158  0.54576740  1
  S2-  S238  1  0.36769593  0.75673610  0.05518998  1
  S2-  S239  1  0.37666812  0.75046138  0.55100639  1
  S2-  S240  1  0.62033893  0.01150344  0.03869195  1
  S2-  S241  1  0.62409525  0.00270728  0.54026242  1
  S2-  S242  1  0.61364271  0.26137613  0.04537568  1
  S2-  S243  1  0.62528138  0.25165794  0.55234826  1
  S2-  S244  1  0.61895910  0.50403652  0.05315557  1
  S2-  S245  1  0.62416077  0.50064373  0.55009659  1
  S2-  S246  1  0.62328289  0.75340849  0.04995251  1
  S2-  S247  1  0.62262190  0.75257470  0.54666619  1
  S2-  S248  1  0.87178213  0.00836204  0.04209413  1
  S2-  S249  1  0.87365459  0.00120578  0.54206456  1
  S2-  S250  1  0.87540984  0.25929628  0.04776831  1
  S2-  S251  1  0.87253412  0.25114324  0.54815161  1
  S2-  S252  1  0.86788474  0.50158140  0.03772078  1
  S2-  S253  1  0.87190964  0.50124886  0.54767501  1
  S2-  S254  1  0.86893310  0.76136894  0.04685975  1
  S2-  S255  1  0.87238821  0.75421719  0.54837537  1
