# generated using pymatgen
data_La12Ce14Pr13Nd13Sm12(BiS2)64
_symmetry_space_group_name_H-M   'P 1'
_cell_length_a   16.14086916
_cell_length_b   16.17105269
_cell_length_c   27.22881355
_cell_angle_alpha   89.90251746
_cell_angle_beta   90.11390652
_cell_angle_gamma   90.05520085
_symmetry_Int_Tables_number   1
_chemical_formula_structural   La12Ce14Pr13Nd13Sm12(BiS2)64
_chemical_formula_sum   'La12 Ce14 Pr13 Nd13 Sm12 Bi64 S128'
_cell_volume   7107.09695934
_cell_formula_units_Z   1
loop_
 _symmetry_equiv_pos_site_id
 _symmetry_equiv_pos_as_xyz
  1  'x, y, z'
loop_
 _atom_type_symbol
 _atom_type_oxidation_number
  La3+  3.0
  Ce3+  3.0
  Pr3+  3.0
  Nd3+  3.0
  Sm3+  3.0
  Bi2+  2.0
  S2-  -2.0
loop_
 _atom_site_type_symbol
 _atom_site_label
 _atom_site_symmetry_multiplicity
 _atom_site_fract_x
 _atom_site_fract_y
 _atom_site_fract_z
 _atom_site_occupancy
  La3+  La0  1  0.87392829  0.76602888  0.43225269  1
  La3+  La1  1  0.00736611  0.12547109  0.58949670  1
  La3+  La2  1  0.75000391  0.10590338  0.11319297  1
  La3+  La3  1  0.24819525  0.35679027  0.07542371  1
  La3+  La4  1  0.12217493  0.49758529  0.38341842  1
  La3+  La5  1  0.12212139  -0.01519282  0.89498881  1
  La3+  La6  1  0.24278506  0.86779066  0.05953026  1
  La3+  La7  1  0.87339026  0.49585118  0.94071642  1
  La3+  La8  1  0.11744151  0.71615379  0.89322537  1
  La3+  La9  1  0.86451772  0.24387265  0.92393725  1
  La3+  La10  1  0.62113621  0.76593990  0.43235329  1
  La3+  La11  1  0.62250244  -0.00891197  0.93360450  1
  Ce3+  Ce12  1  0.87388691  0.00896131  0.45362399  1
  Ce3+  Ce13  1  0.49925583  0.86617600  0.05271555  1
  Ce3+  Ce14  1  0.25274103  0.61635060  0.07062792  1
  Ce3+  Ce15  1  0.36706132  0.26422991  0.44526048  1
  Ce3+  Ce16  1  0.49842559  0.36281497  0.05690188  1
  Ce3+  Ce17  1  0.61549461  0.02041019  0.42610680  1
  Ce3+  Ce18  1  0.11876071  0.00248553  0.43704268  1
  Ce3+  Ce19  1  0.49180342  0.61815139  0.06243321  1
  Ce3+  Ce20  1  0.24322923  0.11778035  0.05735969  1
  Ce3+  Ce21  1  0.12051503  0.23968876  0.93586188  1
  Ce3+  Ce22  1  0.74759274  0.62049647  0.06226048  1
  Ce3+  Ce23  1  0.11780127  0.26064625  0.44437571  1
  Ce3+  Ce24  1  0.86922978  0.50663472  0.43922150  1
  Ce3+  Ce25  1  0.62895481  0.50516475  0.44259321  1
  Pr3+  Pr26  1  0.87027066  0.74289657  0.93172800  1
  Pr3+  Pr27  1  0.74863786  0.36286426  0.06559809  1
  Pr3+  Pr28  1  0.61994540  0.73977930  0.93085449  1
  Pr3+  Pr29  1  0.74406173  0.38232861  0.57760106  1
  Pr3+  Pr30  1  0.49828211  0.88480523  0.56482245  1
  Pr3+  Pr31  1  0.74381684  0.88515453  0.56400895  1
  Pr3+  Pr32  1  0.49435210  0.38498186  0.56657653  1
  Pr3+  Pr33  1  0.37263746  0.49988393  0.42390902  1
  Pr3+  Pr34  1  0.24510931  0.38774395  0.55933953  1
  Pr3+  Pr35  1  0.74697569  0.86063061  0.06750315  1
  Pr3+  Pr36  1  0.61793099  0.49316469  0.94788815  1
  Pr3+  Pr37  1  -0.00602024  0.36277585  0.05768175  1
  Pr3+  Pr38  1  0.36928252  0.23919777  0.93608509  1
  Nd3+  Nd39  1  0.00491003  0.62166805  0.07062094  1
  Nd3+  Nd40  1  -0.00319234  0.38424308  0.56715371  1
  Nd3+  Nd41  1  0.36698189  -0.00922431  0.94087068  1
  Nd3+  Nd42  1  0.24498124  0.88326276  0.56201824  1
  Nd3+  Nd43  1  0.87416661  0.25762870  0.45170683  1
  Nd3+  Nd44  1  0.74734392  0.63579495  0.56050846  1
  Nd3+  Nd45  1  0.50406926  0.11471304  0.06011599  1
  Nd3+  Nd46  1  0.36666424  0.49183266  0.94528001  1
  Nd3+  Nd47  1  -0.00621054  0.86981828  0.58873712  1
  Nd3+  Nd48  1  0.36980393  0.00941516  0.43582886  1
  Nd3+  Nd49  1  0.12241273  0.75530042  0.43369434  1
  Nd3+  Nd50  1  -0.00418663  0.86793518  0.04572214  1
  Nd3+  Nd51  1  0.86677636  -0.00921128  0.93171579  1
  Sm3+  Sm52  1  0.62299890  0.24194084  0.93950133  1
  Sm3+  Sm53  1  0.62379725  0.25769589  0.44765667  1
  Sm3+  Sm54  1  -0.00320934  0.63384440  0.55355738  1
  Sm3+  Sm55  1  0.49478420  0.13364522  0.55928604  1
  Sm3+  Sm56  1  0.12305175  0.48930205  0.94855208  1
  Sm3+  Sm57  1  0.49681685  0.63178992  0.54899561  1
  Sm3+  Sm58  1  0.24556503  0.63075371  0.55076412  1
  Sm3+  Sm59  1  -0.01313468  0.11474574  0.04893454  1
  Sm3+  Sm60  1  0.24613761  0.13164349  0.55627819  1
  Sm3+  Sm61  1  0.37085713  0.75646871  0.44416582  1
  Sm3+  Sm62  1  0.74152830  0.13155093  0.57031332  1
  Sm3+  Sm63  1  0.36216992  0.74219957  0.93696263  1
  Bi2+  Bi64  1  0.05426795  0.09758974  0.30123632  1
  Bi2+  Bi65  1  -0.00055989  0.12067151  0.78106961  1
  Bi2+  Bi66  1  -0.03411569  0.36230301  0.29532899  1
  Bi2+  Bi67  1  0.01244009  0.39990400  0.80716725  1
  Bi2+  Bi68  1  -0.00669615  0.62492957  0.27998530  1
  Bi2+  Bi69  1  0.04994183  0.60469624  0.77181335  1
  Bi2+  Bi70  1  0.04163984  0.90069910  0.27003477  1
  Bi2+  Bi71  1  -0.03155406  0.85327085  0.78559870  1
  Bi2+  Bi72  1  0.24782554  0.06475997  0.32354738  1
  Bi2+  Bi73  1  0.32648750  0.10893091  0.70325032  1
  Bi2+  Bi74  1  0.25898807  0.25625677  0.29887602  1
  Bi2+  Bi75  1  0.31665106  0.34883866  0.78100680  1
  Bi2+  Bi76  1  0.25388261  0.65151172  0.28359498  1
  Bi2+  Bi77  1  0.33693137  0.61334165  0.77451374  1
  Bi2+  Bi78  1  0.24849761  0.87385471  0.29277362  1
  Bi2+  Bi79  1  0.28573468  0.85001276  0.77575109  1
  Bi2+  Bi80  1  0.50801434  0.15062060  0.29032814  1
  Bi2+  Bi81  1  0.44679178  0.07763541  0.81068475  1
  Bi2+  Bi82  1  0.51920045  0.40518125  0.30317912  1
  Bi2+  Bi83  1  0.50221920  0.41092430  0.80564160  1
  Bi2+  Bi84  1  0.48760830  0.59641882  0.28173787  1
  Bi2+  Bi85  1  0.50403456  0.70425874  0.81826024  1
  Bi2+  Bi86  1  0.44922410  0.87629959  0.29225722  1
  Bi2+  Bi87  1  0.53000844  0.89621992  0.80997287  1
  Bi2+  Bi88  1  0.78464763  0.10121690  0.32632246  1
  Bi2+  Bi89  1  0.70982298  0.08802150  0.77469729  1
  Bi2+  Bi90  1  0.70779860  0.36142737  0.29873219  1
  Bi2+  Bi91  1  0.75046056  0.40458873  0.79375825  1
  Bi2+  Bi92  1  0.74610142  0.60793672  0.28495933  1
  Bi2+  Bi93  1  0.67592987  0.63556860  0.78348635  1
  Bi2+  Bi94  1  0.77965618  0.85438319  0.30275141  1
  Bi2+  Bi95  1  0.73311233  0.86594706  0.78262073  1
  Bi2+  Bi96  1  0.14140706  0.04138926  0.20293712  1
  Bi2+  Bi97  1  0.13594924  -0.00541556  0.71629450  1
  Bi2+  Bi98  1  0.11356611  0.22981778  0.22107704  1
  Bi2+  Bi99  1  0.13471412  0.30220869  0.73790634  1
  Bi2+  Bi100  1  0.08356229  0.48299451  0.18102164  1
  Bi2+  Bi101  1  0.19331817  0.51169795  0.71246203  1
  Bi2+  Bi102  1  0.12864613  0.78231596  0.19336587  1
  Bi2+  Bi103  1  0.13259466  0.74236307  0.70749840  1
  Bi2+  Bi104  1  0.33658449  0.01554545  0.21380508  1
  Bi2+  Bi105  1  0.37316565  -0.07134673  0.67277095  1
  Bi2+  Bi106  1  0.37784905  0.20993897  0.21019671  1
  Bi2+  Bi107  1  0.44891601  0.25760617  0.69356755  1
  Bi2+  Bi108  1  0.38510267  0.47918739  0.21112063  1
  Bi2+  Bi109  1  0.36768341  0.43889277  0.67372375  1
  Bi2+  Bi110  1  0.41869747  0.75503552  0.19944614  1
  Bi2+  Bi111  1  0.39228916  0.74104172  0.69497147  1
  Bi2+  Bi112  1  0.53618728  -0.00282145  0.21747991  1
  Bi2+  Bi113  1  0.56429681  0.00459900  0.71171352  1
  Bi2+  Bi114  1  0.58888301  0.28252675  0.21655800  1
  Bi2+  Bi115  1  0.57444249  0.22608778  0.80483041  1
  Bi2+  Bi116  1  0.62151031  0.51089380  0.20354813  1
  Bi2+  Bi117  1  0.54259073  0.50538986  0.71107551  1
  Bi2+  Bi118  1  0.61536118  0.70646648  0.21636458  1
  Bi2+  Bi119  1  0.60289478  0.76946676  0.71155768  1
  Bi2+  Bi120  1  0.89105020  -0.00772726  0.20880894  1
  Bi2+  Bi121  1  0.83580394  0.00439055  0.70648191  1
  Bi2+  Bi122  1  0.87739239  0.24290759  0.21317204  1
  Bi2+  Bi123  1  0.87673840  0.28119528  0.71094171  1
  Bi2+  Bi124  1  0.81044685  0.45955292  0.21948510  1
  Bi2+  Bi125  1  0.87913488  0.52321823  0.70876056  1
  Bi2+  Bi126  1  0.87565231  0.75893060  0.19960244  1
  Bi2+  Bi127  1  0.87172893  0.73923597  0.71399580  1
  S2-  S128  1  -0.07541917  0.11820356  0.14213683  1
  S2-  S129  1  0.00779658  0.20660234  0.68197591  1
  S2-  S130  1  0.00640566  0.33186604  0.15759320  1
  S2-  S131  1  -0.02491302  0.41320788  0.66661357  1
  S2-  S132  1  -0.05777676  0.62170038  0.16790667  1
  S2-  S133  1  -0.00030423  0.71190846  0.64259897  1
  S2-  S134  1  -0.01718900  0.86031643  0.14716515  1
  S2-  S135  1  -0.00497476  0.99783986  0.66295505  1
  S2-  S136  1  0.24631053  0.21371260  0.14012696  1
  S2-  S137  1  0.18286304  0.11360385  0.64663523  1
  S2-  S138  1  0.24649113  0.43459515  0.16666985  1
  S2-  S139  1  0.21110969  0.35048276  0.65646674  1
  S2-  S140  1  0.14999129  0.63252986  0.14964682  1
  S2-  S141  1  0.24297358  0.64417183  0.64995229  1
  S2-  S142  1  0.27444649  0.83073275  0.15792460  1
  S2-  S143  1  0.14805824  0.86951147  0.64522044  1
  S2-  S144  1  0.58151380  0.11242024  0.14963748  1
  S2-  S145  1  0.55533243  0.13708318  0.65118760  1
  S2-  S146  1  0.46507424  0.34915597  0.15321429  1
  S2-  S147  1  0.57657866  0.36663177  0.65492514  1
  S2-  S148  1  0.38597155  0.61370596  0.14151028  1
  S2-  S149  1  0.51476959  0.64430445  0.64660789  1
  S2-  S150  1  0.53136445  0.85870991  0.14822883  1
  S2-  S151  1  0.62116777  0.88752559  0.63864436  1
  S2-  S152  1  0.77077514  0.11111748  0.23115944  1
  S2-  S153  1  0.78168004  0.15942595  0.66545571  1
  S2-  S154  1  0.74915196  0.27279665  0.15159430  1
  S2-  S155  1  0.76811471  0.40920204  0.67852606  1
  S2-  S156  1  0.74135877  0.72501364  0.14099786  1
  S2-  S157  1  0.76940471  0.63422613  0.66000644  1
  S2-  S158  1  0.76163543  0.94598227  0.15609274  1
  S2-  S159  1  0.84425787  0.86505325  0.64750640  1
  S2-  S160  1  0.11044431  -0.11619526  0.36337938  1
  S2-  S161  1  0.14784897  0.08257458  0.80977414  1
  S2-  S162  1  0.11331217  0.32385762  0.35276000  1
  S2-  S163  1  0.13193704  0.30990743  0.84639707  1
  S2-  S164  1  0.10305913  0.48899801  0.27361296  1
  S2-  S165  1  0.12176757  0.54797887  0.85665277  1
  S2-  S166  1  0.11735524  0.66601335  0.34366312  1
  S2-  S167  1  0.12432320  0.85307890  0.82659630  1
  S2-  S168  1  0.47403838  0.01269943  0.35650787  1
  S2-  S169  1  0.32458505  -0.03720337  0.84509080  1
  S2-  S170  1  0.38111784  0.34100080  0.35831655  1
  S2-  S171  1  0.34601874  0.21377611  0.83769891  1
  S2-  S172  1  0.28181402  0.52547552  0.33814273  1
  S2-  S173  1  0.35767833  0.48795935  0.84595959  1
  S2-  S174  1  0.35266272  0.75561874  0.34635311  1
  S2-  S175  1  0.28242135  0.71954148  0.84957515  1
  S2-  S176  1  0.67799190  -0.03763003  0.33860725  1
  S2-  S177  1  0.73915574  -0.01086640  0.85633150  1
  S2-  S178  1  0.63481136  0.16990683  0.36257323  1
  S2-  S179  1  0.71924536  0.27008091  0.85810093  1
  S2-  S180  1  0.73571638  0.49591463  0.36488266  1
  S2-  S181  1  0.64650324  0.49504531  0.84778677  1
  S2-  S182  1  0.66524998  0.74203863  0.33604319  1
  S2-  S183  1  0.74138879  0.74171208  0.85576472  1
  S2-  S184  1  0.88379292  -0.03458470  0.35813168  1
  S2-  S185  1  0.95845201  -0.00080355  0.84228035  1
  S2-  S186  1  0.87192494  0.25299557  0.35051615  1
  S2-  S187  1  0.91894920  0.25859868  0.82448249  1
  S2-  S188  1  0.95116966  0.50251828  0.35139760  1
  S2-  S189  1  0.86463134  0.49041519  0.83890303  1
  S2-  S190  1  0.89479823  0.73068767  0.33248387  1
  S2-  S191  1  0.95851390  0.71488737  0.84396291  1
  S2-  S192  1  -0.00131578  0.13285682  0.45683207  1
  S2-  S193  1  -0.00359093  0.11592901  0.94443036  1
  S2-  S194  1  -0.00479203  0.38462685  0.46052559  1
  S2-  S195  1  -0.00391065  0.36774342  0.95098564  1
  S2-  S196  1  -0.00568613  0.63368049  0.45174887  1
  S2-  S197  1  0.00127483  0.61538838  0.95988050  1
  S2-  S198  1  -0.00389438  0.88279648  0.46627171  1
  S2-  S199  1  -0.00091546  0.86650341  0.94219800  1
  S2-  S200  1  0.24465494  0.13532078  0.45208423  1
  S2-  S201  1  0.24125989  0.11163133  0.94878785  1
  S2-  S202  1  0.23963236  0.38913560  0.45357128  1
  S2-  S203  1  0.24577613  0.36447759  0.95876494  1
  S2-  S204  1  0.25075887  0.63163731  0.44869321  1
  S2-  S205  1  0.24465919  0.61535383  0.96089911  1
  S2-  S206  1  0.25250152  0.88166084  0.45582804  1
  S2-  S207  1  0.24202621  0.86761360  0.95121380  1
  S2-  S208  1  0.49022819  0.14252435  0.45665014  1
  S2-  S209  1  0.49786328  0.11694458  0.95129824  1
  S2-  S210  1  0.50297087  0.38276326  0.45887776  1
  S2-  S211  1  0.49493245  0.36474119  0.94976386  1
  S2-  S212  1  0.49760697  0.63112133  0.44319473  1
  S2-  S213  1  0.49012274  0.61747441  0.95360705  1
  S2-  S214  1  0.49196005  0.88264530  0.45647942  1
  S2-  S215  1  0.49170031  0.86487311  0.94712138  1
  S2-  S216  1  0.74878011  0.13504451  0.46462293  1
  S2-  S217  1  0.74362193  0.12006894  0.94791414  1
  S2-  S218  1  0.74714320  0.37712110  0.46823591  1
  S2-  S219  1  0.74508241  0.37308847  0.95959188  1
  S2-  S220  1  0.74670422  0.63911946  0.45466801  1
  S2-  S221  1  0.74498921  0.61532231  0.95620200  1
  S2-  S222  1  0.74439414  0.88791481  0.45668391  1
  S2-  S223  1  0.74464247  0.86298588  0.95887449  1
  S2-  S224  1  0.11670382  -0.00349631  0.05355774  1
  S2-  S225  1  0.12431126  0.00731099  0.54336209  1
  S2-  S226  1  0.11486961  0.23684878  0.04266184  1
  S2-  S227  1  0.12047663  0.25687931  0.55041124  1
  S2-  S228  1  0.12277882  0.48715643  0.05221008  1
  S2-  S229  1  0.11886587  0.51203203  0.55788604  1
  S2-  S230  1  0.12134113  0.74461282  0.04861769  1
  S2-  S231  1  0.12542104  0.75282341  0.54002298  1
  S2-  S232  1  0.37340042  -0.00572682  0.04884621  1
  S2-  S233  1  0.37118567  0.01087768  0.54355650  1
  S2-  S234  1  0.37673713  0.23624203  0.04278798  1
  S2-  S235  1  0.36906340  0.25689098  0.55175419  1
  S2-  S236  1  0.37237208  0.48378016  0.04878315  1
  S2-  S237  1  0.37282476  0.51039591  0.53773961  1
  S2-  S238  1  0.37257467  0.74509156  0.04128659  1
  S2-  S239  1  0.37229398  0.75538643  0.54795893  1
  S2-  S240  1  0.62531608  -0.00998593  0.04320649  1
  S2-  S241  1  0.61827341  0.01523767  0.54055940  1
  S2-  S242  1  0.62348315  0.24125664  0.04352485  1
  S2-  S243  1  0.62240577  0.25639513  0.55061694  1
  S2-  S244  1  0.62090812  0.49238402  0.05470164  1
  S2-  S245  1  0.62282821  0.50941287  0.54979642  1
  S2-  S246  1  0.61699249  0.73711282  0.03879838  1
  S2-  S247  1  0.61925951  0.75463592  0.54094761  1
  S2-  S248  1  0.86863217  -0.00984673  0.03936350  1
  S2-  S249  1  0.87045595  0.01459483  0.55711921  1
  S2-  S250  1  0.87031549  0.24183317  0.03747912  1
  S2-  S251  1  0.87331037  0.25575276  0.55892492  1
  S2-  S252  1  0.87251764  0.49346693  0.05232311  1
  S2-  S253  1  0.87091098  0.50884007  0.55018510  1
  S2-  S254  1  0.87657773  0.73799255  0.04084700  1
  S2-  S255  1  0.87007725  0.75632189  0.54150843  1
