# generated using pymatgen
data_La12Ce14Pr13Nd13Sm12(BiS2)64
_symmetry_space_group_name_H-M   'P 1'
_cell_length_a   16.14057997
_cell_length_b   16.01484894
_cell_length_c   27.32431077
_cell_angle_alpha   90.26025894
_cell_angle_beta   89.71048618
_cell_angle_gamma   90.01992059
_symmetry_Int_Tables_number   1
_chemical_formula_structural   La12Ce14Pr13Nd13Sm12(BiS2)64
_chemical_formula_sum   'La12 Ce14 Pr13 Nd13 Sm12 Bi64 S128'
_cell_volume   7062.86899388
_cell_formula_units_Z   1
loop_
 _symmetry_equiv_pos_site_id
 _symmetry_equiv_pos_as_xyz
  1  'x, y, z'
loop_
 _atom_type_symbol
 _atom_type_oxidation_number
  La3+  3.0
  Ce3+  3.0
  Pr3+  3.0
  Nd3+  3.0
  Sm3+  3.0
  Bi2+  2.0
  S2-  -2.0
loop_
 _atom_site_type_symbol
 _atom_site_label
 _atom_site_symmetry_multiplicity
 _atom_site_fract_x
 _atom_site_fract_y
 _atom_site_fract_z
 _atom_site_occupancy
  La3+  La0  1  -0.00643465  0.38575056  0.56185070  1
  La3+  La1  1  0.86305937  0.76202635  0.93139454  1
  La3+  La2  1  0.23647222  0.39273620  0.07384061  1
  La3+  La3  1  0.77072475  0.11490053  0.12146720  1
  La3+  La4  1  0.86591597  0.50352049  0.89633297  1
  La3+  La5  1  0.48445776  0.37939474  0.58008517  1
  La3+  La6  1  -0.00596933  0.63057956  0.56495874  1
  La3+  La7  1  0.48869276  0.63609569  0.60516776  1
  La3+  La8  1  -0.01519569  0.13255422  0.58248236  1
  La3+  La9  1  0.74428448  0.88001253  0.56566142  1
  La3+  La10  1  0.35876887  0.49996497  0.92360151  1
  La3+  La11  1  0.73130032  0.37927570  0.07337244  1
  Ce3+  Ce12  1  0.49486738  0.13102822  0.57154635  1
  Ce3+  Ce13  1  0.25199234  0.62794474  0.55235179  1
  Ce3+  Ce14  1  -0.01613505  0.88554756  0.06358297  1
  Ce3+  Ce15  1  0.87123565  0.25444495  0.43511445  1
  Ce3+  Ce16  1  0.87410514  0.00478765  0.43219861  1
  Ce3+  Ce17  1  0.24579755  0.13301351  0.07596428  1
  Ce3+  Ce18  1  0.49307236  0.88053526  0.56200430  1
  Ce3+  Ce19  1  0.11697037  0.00629747  0.44655942  1
  Ce3+  Ce20  1  0.73839337  0.62856834  0.05402640  1
  Ce3+  Ce21  1  0.73438850  0.88273640  0.05308367  1
  Ce3+  Ce22  1  -0.00993291  0.13309064  0.05817821  1
  Ce3+  Ce23  1  0.10839941  0.50575773  0.94160108  1
  Ce3+  Ce24  1  0.60728018  0.75272808  0.91430228  1
  Ce3+  Ce25  1  0.11803846  0.75799142  0.94397739  1
  Pr3+  Pr26  1  0.37237667  0.49688551  0.42323373  1
  Pr3+  Pr27  1  0.24725412  0.87925728  0.56014512  1
  Pr3+  Pr28  1  0.24023856  0.63576382  0.06256875  1
  Pr3+  Pr29  1  -0.01664057  0.38739242  0.07082827  1
  Pr3+  Pr30  1  0.61454135  0.50747321  0.93042254  1
  Pr3+  Pr31  1  0.86417827  0.00843788  0.93509922  1
  Pr3+  Pr32  1  0.61663505  0.50514721  0.45273785  1
  Pr3+  Pr33  1  0.11888105  0.51250338  0.40285857  1
  Pr3+  Pr34  1  0.61388266  0.26449278  0.93559031  1
  Pr3+  Pr35  1  0.48688880  0.39283162  0.06718060  1
  Pr3+  Pr36  1  0.36244314  0.01103385  0.94254733  1
  Pr3+  Pr37  1  0.61830990  0.75463445  0.44349858  1
  Pr3+  Pr38  1  0.48722808  0.63640651  0.04936619  1
  Nd3+  Nd39  1  0.37010848  0.00994961  0.43955715  1
  Nd3+  Nd40  1  0.74453854  0.63488121  0.56752173  1
  Nd3+  Nd41  1  0.24299878  0.87720277  0.06843818  1
  Nd3+  Nd42  1  0.24826724  0.38286079  0.55011702  1
  Nd3+  Nd43  1  0.86460861  0.50398246  0.42822428  1
  Nd3+  Nd44  1  0.49522772  0.13577302  0.06796098  1
  Nd3+  Nd45  1  0.74479985  0.39005002  0.57060462  1
  Nd3+  Nd46  1  0.61282281  0.01080272  0.93524089  1
  Nd3+  Nd47  1  0.37186781  0.25305892  0.43358531  1
  Nd3+  Nd48  1  0.36965208  0.75375245  0.43585571  1
  Nd3+  Nd49  1  0.86247764  0.26011365  0.94473874  1
  Nd3+  Nd50  1  -0.00610237  0.88113228  0.56750869  1
  Nd3+  Nd51  1  0.35712586  0.76266781  0.91908777  1
  Sm3+  Sm52  1  0.11603762  0.25643164  0.44233054  1
  Sm3+  Sm53  1  0.49070272  0.88073806  0.04573476  1
  Sm3+  Sm54  1  0.24432700  0.13335766  0.55961552  1
  Sm3+  Sm55  1  -0.01744082  0.63136582  0.05941100  1
  Sm3+  Sm56  1  0.11668195  0.00899367  0.95070271  1
  Sm3+  Sm57  1  0.87089784  0.75556318  0.43231640  1
  Sm3+  Sm58  1  0.11254062  0.26017425  0.95150662  1
  Sm3+  Sm59  1  0.36162774  0.26061103  0.94900850  1
  Sm3+  Sm60  1  0.62021367  0.25630308  0.44834793  1
  Sm3+  Sm61  1  0.61938656  0.00663025  0.44245405  1
  Sm3+  Sm62  1  0.11909436  0.75338085  0.44136197  1
  Sm3+  Sm63  1  0.74486669  0.13351061  0.55956147  1
  Bi2+  Bi64  1  0.04421220  0.05475551  0.23597670  1
  Bi2+  Bi65  1  -0.03148375  0.11824814  0.75770416  1
  Bi2+  Bi66  1  0.00771453  0.30296947  0.30055023  1
  Bi2+  Bi67  1  0.00186056  0.35154832  0.79485539  1
  Bi2+  Bi68  1  -0.00070477  0.63548584  0.28508955  1
  Bi2+  Bi69  1  0.03197327  0.63861307  0.78812862  1
  Bi2+  Bi70  1  0.08841964  0.83868102  0.31515886  1
  Bi2+  Bi71  1  -0.00647869  0.91799015  0.78545961  1
  Bi2+  Bi72  1  0.22401641  0.07460249  0.31103636  1
  Bi2+  Bi73  1  0.34439191  0.12318975  0.79434991  1
  Bi2+  Bi74  1  0.28490281  0.35474778  0.29639978  1
  Bi2+  Bi75  1  0.21608345  0.36691835  0.79635159  1
  Bi2+  Bi76  1  0.35093877  0.59812758  0.26752068  1
  Bi2+  Bi77  1  0.27122805  0.63067834  0.80077777  1
  Bi2+  Bi78  1  0.28435841  0.88600515  0.29961835  1
  Bi2+  Bi79  1  0.21160294  0.89803252  0.79037436  1
  Bi2+  Bi80  1  0.48545502  0.08316418  0.28655994  1
  Bi2+  Bi81  1  0.52647372  0.17957084  0.82153614  1
  Bi2+  Bi82  1  0.53210310  0.39928255  0.24337118  1
  Bi2+  Bi83  1  0.48181390  0.36824546  0.79373938  1
  Bi2+  Bi84  1  0.52802043  0.56052771  0.30904230  1
  Bi2+  Bi85  1  0.51112509  0.64694845  0.77682189  1
  Bi2+  Bi86  1  0.50750809  0.78438412  0.28009675  1
  Bi2+  Bi87  1  0.46907496  0.90836609  0.78042742  1
  Bi2+  Bi88  1  0.72388665  0.11116509  0.32224182  1
  Bi2+  Bi89  1  0.81887256  0.12987611  0.82779947  1
  Bi2+  Bi90  1  0.72906665  0.36890111  0.30075805  1
  Bi2+  Bi91  1  0.70145489  0.26583133  0.78768223  1
  Bi2+  Bi92  1  0.80474227  0.57207766  0.26932389  1
  Bi2+  Bi93  1  0.75703329  0.66479925  0.78792373  1
  Bi2+  Bi94  1  0.75687917  0.81528415  0.28372852  1
  Bi2+  Bi95  1  0.74238477  0.95868480  0.79727148  1
  Bi2+  Bi96  1  0.20931150  -0.02639993  0.18515675  1
  Bi2+  Bi97  1  0.16320818  0.08406524  0.75335734  1
  Bi2+  Bi98  1  0.19788148  0.17010671  0.21103481  1
  Bi2+  Bi99  1  0.12189080  0.26947057  0.71282619  1
  Bi2+  Bi100  1  0.11006753  0.45481009  0.20438428  1
  Bi2+  Bi101  1  0.16282200  0.52633812  0.73126828  1
  Bi2+  Bi102  1  0.17286400  0.78699303  0.21666489  1
  Bi2+  Bi103  1  0.11198625  0.77415637  0.71736417  1
  Bi2+  Bi104  1  0.40496696  -0.04569858  0.21590377  1
  Bi2+  Bi105  1  0.43206911  0.03247481  0.69740204  1
  Bi2+  Bi106  1  0.39918501  0.22776408  0.22910277  1
  Bi2+  Bi107  1  0.34933173  0.24065514  0.70224666  1
  Bi2+  Bi108  1  0.35909247  0.44034959  0.19243051  1
  Bi2+  Bi109  1  0.36087928  0.49513519  0.71086512  1
  Bi2+  Bi110  1  0.44545008  0.69540051  0.18317214  1
  Bi2+  Bi111  1  0.33265161  0.76501429  0.70871708  1
  Bi2+  Bi112  1  0.62111372  -0.09070026  0.21654416  1
  Bi2+  Bi113  1  0.61589369  -0.02303780  0.65909746  1
  Bi2+  Bi114  1  0.62579583  0.23256561  0.21220026  1
  Bi2+  Bi115  1  0.60123756  0.14621820  0.71475599  1
  Bi2+  Bi116  1  0.63095212  0.60109404  0.21226161  1
  Bi2+  Bi117  1  0.66906586  0.47757734  0.71275181  1
  Bi2+  Bi118  1  0.71363982  0.76011154  0.16513609  1
  Bi2+  Bi119  1  0.64999093  0.80786162  0.71325563  1
  Bi2+  Bi120  1  0.92657883  -0.10138871  0.25719876  1
  Bi2+  Bi121  1  0.83933386  -0.02055520  0.68793727  1
  Bi2+  Bi122  1  0.89480007  0.21619390  0.22937086  1
  Bi2+  Bi123  1  0.85227960  0.27603989  0.70713909  1
  Bi2+  Bi124  1  0.86533092  0.44591167  0.19273453  1
  Bi2+  Bi125  1  0.90718583  0.53136672  0.71589565  1
  Bi2+  Bi126  1  0.89918393  0.71366541  0.19812412  1
  Bi2+  Bi127  1  0.88667955  0.79315595  0.71697460  1
  S2-  S128  1  -0.05464969  0.10047707  0.15077739  1
  S2-  S129  1  -0.01021578  0.27847771  0.64524890  1
  S2-  S130  1  -0.00270328  0.33307566  0.17023118  1
  S2-  S131  1  -0.00017618  0.50823178  0.64204464  1
  S2-  S132  1  -0.00841393  0.53599425  0.14464667  1
  S2-  S133  1  -0.00735076  0.75573425  0.64135492  1
  S2-  S134  1  -0.01571181  0.84969010  0.15899626  1
  S2-  S135  1  -0.00776917  0.99298274  0.64688536  1
  S2-  S136  1  0.37250059  0.14025336  0.14416814  1
  S2-  S137  1  0.21473430  0.14350031  0.65646632  1
  S2-  S138  1  0.21142736  0.32429376  0.16871396  1
  S2-  S139  1  0.31893022  0.37688599  0.64165779  1
  S2-  S140  1  0.22349447  0.53129829  0.14671549  1
  S2-  S141  1  0.31979667  0.62805883  0.64327058  1
  S2-  S142  1  0.27620454  0.75344336  0.13929431  1
  S2-  S143  1  0.22736644  0.87475202  0.66058112  1
  S2-  S144  1  0.60006916  0.11744500  0.14738673  1
  S2-  S145  1  0.49269489  0.24176197  0.64918278  1
  S2-  S146  1  0.59055199  0.35886125  0.14747964  1
  S2-  S147  1  0.50474502  0.48342829  0.66374270  1
  S2-  S148  1  0.46838928  0.54211009  0.13500667  1
  S2-  S149  1  0.60409177  0.65375328  0.68748616  1
  S2-  S150  1  0.49340297  0.86266644  0.14434051  1
  S2-  S151  1  0.46028215  0.80259103  0.64825926  1
  S2-  S152  1  0.77016085  0.10177930  0.23095118  1
  S2-  S153  1  0.82552510  0.13967178  0.64660079  1
  S2-  S154  1  0.78297532  0.28704870  0.16117894  1
  S2-  S155  1  0.70110814  0.33950201  0.66527451  1
  S2-  S156  1  0.73683282  0.52827894  0.13826904  1
  S2-  S157  1  0.77888873  0.52520871  0.64628649  1
  S2-  S158  1  0.75018818  0.93896116  0.14573125  1
  S2-  S159  1  0.76598982  0.76237123  0.64263405  1
  S2-  S160  1  0.07880673  0.01819614  0.35169298  1
  S2-  S161  1  0.11064311  0.00161747  0.85261039  1
  S2-  S162  1  0.15009444  0.25929204  0.34380270  1
  S2-  S163  1  0.11844272  0.26053663  0.85277391  1
  S2-  S164  1  0.05713784  0.46352835  0.30682768  1
  S2-  S165  1  0.03182954  0.49877957  0.85351859  1
  S2-  S166  1  0.11858800  0.67353096  0.35224885  1
  S2-  S167  1  0.21266831  0.76252699  0.85927387  1
  S2-  S168  1  0.37558318  0.12252426  0.36233732  1
  S2-  S169  1  0.34384106  -0.04888421  0.84837540  1
  S2-  S170  1  0.41087112  0.35994588  0.35599771  1
  S2-  S171  1  0.35229323  0.34365076  0.86145340  1
  S2-  S172  1  0.26221361  0.50698340  0.34149676  1
  S2-  S173  1  0.41364208  0.53775323  0.82681008  1
  S2-  S174  1  0.35947458  0.73820675  0.33650256  1
  S2-  S175  1  0.47380926  0.77179116  0.84157689  1
  S2-  S176  1  0.59569440  -0.00469968  0.34513336  1
  S2-  S177  1  0.58499412  0.01066681  0.83531478  1
  S2-  S178  1  0.62744861  0.24672491  0.34838609  1
  S2-  S179  1  0.60795346  0.38129209  0.85425031  1
  S2-  S180  1  0.67296249  0.49157716  0.35634917  1
  S2-  S181  1  0.61844254  0.61331281  0.84682019  1
  S2-  S182  1  0.63532084  0.74552551  0.34263232  1
  S2-  S183  1  0.68399592  0.81277384  0.82946389  1
  S2-  S184  1  0.86470255  -0.11976304  0.35956114  1
  S2-  S185  1  0.87851694  -0.10581537  0.85579683  1
  S2-  S186  1  0.87413737  0.13145205  0.36103344  1
  S2-  S187  1  0.87325033  0.33836001  0.85522218  1
  S2-  S188  1  0.86930776  0.36931666  0.35744304  1
  S2-  S189  1  0.78514318  0.50311563  0.79430601  1
  S2-  S190  1  0.87406570  0.63451157  0.35837330  1
  S2-  S191  1  0.88671636  0.66494122  0.84746718  1
  S2-  S192  1  -0.00291735  0.13263058  0.46464744  1
  S2-  S193  1  -0.00856957  0.13251092  0.95163258  1
  S2-  S194  1  0.00334425  0.38725435  0.45095341  1
  S2-  S195  1  -0.01079510  0.38068147  0.96247004  1
  S2-  S196  1  -0.00060343  0.62794075  0.45489472  1
  S2-  S197  1  -0.00879984  0.63563543  0.95576098  1
  S2-  S198  1  -0.00242948  0.87649356  0.45927145  1
  S2-  S199  1  -0.00428900  0.88470616  0.95774362  1
  S2-  S200  1  0.24018136  0.13219393  0.45625950  1
  S2-  S201  1  0.23804678  0.13593043  0.96179437  1
  S2-  S202  1  0.23985699  0.37940540  0.44685630  1
  S2-  S203  1  0.23267426  0.38175152  0.96195281  1
  S2-  S204  1  0.24600100  0.62859188  0.44835046  1
  S2-  S205  1  0.23658369  0.62842374  0.95325975  1
  S2-  S206  1  0.24508726  0.88191198  0.45082610  1
  S2-  S207  1  0.23751148  0.88662664  0.96202763  1
  S2-  S208  1  0.49945067  0.13041149  0.46188634  1
  S2-  S209  1  0.48565136  0.13710843  0.95652152  1
  S2-  S210  1  0.49735584  0.37559910  0.46460218  1
  S2-  S211  1  0.48382010  0.38456856  0.95815582  1
  S2-  S212  1  0.49176045  0.62890413  0.44019526  1
  S2-  S213  1  0.47896706  0.63228458  0.94436266  1
  S2-  S214  1  0.49268851  0.88348986  0.45172706  1
  S2-  S215  1  0.48768682  0.88515436  0.94385810  1
  S2-  S216  1  0.74129046  0.12862805  0.45685433  1
  S2-  S217  1  0.73688713  0.13498754  0.94323872  1
  S2-  S218  1  0.74160950  0.37826624  0.46237349  1
  S2-  S219  1  0.74285521  0.38639714  0.95534782  1
  S2-  S220  1  0.74317293  0.63291964  0.45857799  1
  S2-  S221  1  0.74574436  0.62852335  0.94713500  1
  S2-  S222  1  0.74016371  0.88153141  0.45703582  1
  S2-  S223  1  0.73310037  0.88536113  0.94927833  1
  S2-  S224  1  0.11721464  0.00696284  0.05550404  1
  S2-  S225  1  0.12345189  0.00765048  0.55139873  1
  S2-  S226  1  0.11473869  0.25632809  0.05613572  1
  S2-  S227  1  0.12308038  0.25708715  0.54677994  1
  S2-  S228  1  0.10918237  0.51188445  0.04409989  1
  S2-  S229  1  0.12765381  0.50692382  0.54711490  1
  S2-  S230  1  0.10840955  0.75773783  0.05006228  1
  S2-  S231  1  0.12555867  0.75465021  0.54448615  1
  S2-  S232  1  0.36543736  0.00295740  0.04852946  1
  S2-  S233  1  0.36876112  0.00802823  0.54683284  1
  S2-  S234  1  0.36252882  0.26520649  0.05065472  1
  S2-  S235  1  0.36780974  0.24982193  0.54071799  1
  S2-  S236  1  0.35905849  0.51039062  0.03466510  1
  S2-  S237  1  0.37497160  0.50765996  0.53775709  1
  S2-  S238  1  0.36454410  0.76108116  0.02921859  1
  S2-  S239  1  0.37281389  0.75494770  0.54016488  1
  S2-  S240  1  0.60924295  0.00490503  0.03981286  1
  S2-  S241  1  0.61910629  0.00886802  0.54583797  1
  S2-  S242  1  0.60655719  0.26278730  0.03994600  1
  S2-  S243  1  0.62237772  0.25619129  0.55178619  1
  S2-  S244  1  0.61218361  0.51086470  0.03658112  1
  S2-  S245  1  0.61368085  0.51332632  0.55699858  1
  S2-  S246  1  0.61348077  0.75667383  0.03224062  1
  S2-  S247  1  0.61160597  0.75227091  0.54953376  1
  S2-  S248  1  0.86182184  0.00991770  0.04202155  1
  S2-  S249  1  0.86582041  0.00598544  0.54121973  1
  S2-  S250  1  0.86253473  0.25178552  0.05033306  1
  S2-  S251  1  0.86320883  0.26067526  0.54261346  1
  S2-  S252  1  0.86366865  0.50891834  0.04321204  1
  S2-  S253  1  0.86680133  0.50821617  0.53548350  1
  S2-  S254  1  0.86339113  0.75827824  0.04318419  1
  S2-  S255  1  0.87051705  0.75708503  0.53697827  1
