# generated using pymatgen
data_La12Ce14Pr13Nd13Sm12(BiS2)64
_symmetry_space_group_name_H-M   'P 1'
_cell_length_a   16.10209870
_cell_length_b   16.15325379
_cell_length_c   27.29715767
_cell_angle_alpha   89.81402824
_cell_angle_beta   90.13400130
_cell_angle_gamma   90.00321799
_symmetry_Int_Tables_number   1
_chemical_formula_structural   La12Ce14Pr13Nd13Sm12(BiS2)64
_chemical_formula_sum   'La12 Ce14 Pr13 Nd13 Sm12 Bi64 S128'
_cell_volume   7099.96901330
_cell_formula_units_Z   1
loop_
 _symmetry_equiv_pos_site_id
 _symmetry_equiv_pos_as_xyz
  1  'x, y, z'
loop_
 _atom_type_symbol
 _atom_type_oxidation_number
  La3+  3.0
  Ce3+  3.0
  Pr3+  3.0
  Nd3+  3.0
  Sm3+  3.0
  Bi2+  2.0
  S2-  -2.0
loop_
 _atom_site_type_symbol
 _atom_site_label
 _atom_site_symmetry_multiplicity
 _atom_site_fract_x
 _atom_site_fract_y
 _atom_site_fract_z
 _atom_site_occupancy
  La3+  La0  1  0.50626496  0.36216195  0.59728135  1
  La3+  La1  1  0.37090508  0.24148426  0.90965256  1
  La3+  La2  1  0.87746301  0.49510375  0.93910180  1
  La3+  La3  1  0.26311369  0.36136866  0.06910026  1
  La3+  La4  1  0.64034011  0.23254170  0.91198813  1
  La3+  La5  1  0.75551135  0.88682313  0.11864600  1
  La3+  La6  1  0.49260041  0.86968686  0.56638868  1
  La3+  La7  1  0.87458178  -0.00931531  0.95123206  1
  La3+  La8  1  0.12694792  -0.00818878  0.92782644  1
  La3+  La9  1  0.36961194  0.49196676  0.91685131  1
  La3+  La10  1  0.24543365  0.61626665  0.57498285  1
  La3+  La11  1  0.62259029  0.24270422  0.42753861  1
  Ce3+  Ce12  1  0.86902556  0.24203293  0.44406840  1
  Ce3+  Ce13  1  0.13040979  0.49491415  0.93585019  1
  Ce3+  Ce14  1  0.75066218  0.36606974  0.05950927  1
  Ce3+  Ce15  1  0.00557844  0.86474152  0.06343240  1
  Ce3+  Ce16  1  0.75859080  0.62465339  0.06902178  1
  Ce3+  Ce17  1  0.74228974  0.61856030  0.55670262  1
  Ce3+  Ce18  1  0.86828777  0.74229020  0.44573633  1
  Ce3+  Ce19  1  0.38242164  -0.00452114  0.93280120  1
  Ce3+  Ce20  1  -0.00512045  0.11781922  0.55610189  1
  Ce3+  Ce21  1  0.87921337  0.24239678  0.94752886  1
  Ce3+  Ce22  1  0.50493475  0.86467178  0.06567578  1
  Ce3+  Ce23  1  0.11663324  0.73869951  0.44078249  1
  Ce3+  Ce24  1  0.24618539  0.36576880  0.56749458  1
  Ce3+  Ce25  1  0.49414124  0.11547807  0.56565648  1
  Pr3+  Pr26  1  0.00911706  0.62037182  0.06215044  1
  Pr3+  Pr27  1  0.50389545  0.12154899  0.05553203  1
  Pr3+  Pr28  1  0.00845522  0.11543219  0.06809904  1
  Pr3+  Pr29  1  0.63139717  0.74081417  0.93469270  1
  Pr3+  Pr30  1  0.12522410  0.23805701  0.92930362  1
  Pr3+  Pr31  1  0.61107689  -0.01194678  0.42683053  1
  Pr3+  Pr32  1  0.25830034  0.86774145  0.06000351  1
  Pr3+  Pr33  1  0.87074554  0.49504646  0.44325697  1
  Pr3+  Pr34  1  0.36271809  -0.00124239  0.43029351  1
  Pr3+  Pr35  1  0.62992693  -0.00784055  0.94639224  1
  Pr3+  Pr36  1  0.74883487  0.12916103  0.07533854  1
  Pr3+  Pr37  1  0.38405025  0.74435152  0.92944683  1
  Pr3+  Pr38  1  0.23753058  0.11544755  0.57556850  1
  Nd3+  Nd39  1  0.50012733  0.61377573  0.05486422  1
  Nd3+  Nd40  1  0.12297159  0.24322968  0.44174766  1
  Nd3+  Nd41  1  0.12024929  0.49346824  0.44566350  1
  Nd3+  Nd42  1  0.25180779  0.61778747  0.05975448  1
  Nd3+  Nd43  1  0.13521250  0.74885955  0.92688944  1
  Nd3+  Nd44  1  0.25518755  0.11680336  0.05508552  1
  Nd3+  Nd45  1  0.74110608  0.86625428  0.55316812  1
  Nd3+  Nd46  1  0.87623935  0.74297162  0.93847952  1
  Nd3+  Nd47  1  0.60368757  0.73258537  0.42234224  1
  Nd3+  Nd48  1  0.61360215  0.49302816  0.44786528  1
  Nd3+  Nd49  1  0.24371794  0.86746078  0.55179696  1
  Nd3+  Nd50  1  0.62865599  0.49067465  0.93962286  1
  Nd3+  Nd51  1  0.00934046  0.36965551  0.06003415  1
  Sm3+  Sm52  1  0.36991297  0.49210512  0.45270120  1
  Sm3+  Sm53  1  0.36672168  0.73615209  0.44084102  1
  Sm3+  Sm54  1  -0.00781591  0.36693854  0.55838585  1
  Sm3+  Sm55  1  0.49460012  0.62511251  0.57672334  1
  Sm3+  Sm56  1  0.74269260  0.36759860  0.56003428  1
  Sm3+  Sm57  1  0.49751026  0.36634891  0.03744584  1
  Sm3+  Sm58  1  0.11876843  -0.00608361  0.43497493  1
  Sm3+  Sm59  1  0.73792382  0.11796671  0.55680425  1
  Sm3+  Sm60  1  0.86708502  -0.00671020  0.44030857  1
  Sm3+  Sm61  1  0.37004383  0.24201571  0.45052815  1
  Sm3+  Sm62  1  -0.00284743  0.61786004  0.57155717  1
  Sm3+  Sm63  1  -0.00701702  0.86820649  0.55349100  1
  Bi2+  Bi64  1  0.06134616  0.14156268  0.27396211  1
  Bi2+  Bi65  1  -0.01827561  0.16013549  0.76945885  1
  Bi2+  Bi66  1  0.00737387  0.37197818  0.29512901  1
  Bi2+  Bi67  1  0.01386284  0.35126309  0.79017661  1
  Bi2+  Bi68  1  0.00934081  0.60621746  0.31762762  1
  Bi2+  Bi69  1  0.03335591  0.63553448  0.82969474  1
  Bi2+  Bi70  1  0.05835258  0.82385329  0.27138311  1
  Bi2+  Bi71  1  -0.03907440  0.82673607  0.80826067  1
  Bi2+  Bi72  1  0.25663528  0.13275120  0.27875470  1
  Bi2+  Bi73  1  0.22040371  0.11614966  0.79384742  1
  Bi2+  Bi74  1  0.26786654  0.41861604  0.24200606  1
  Bi2+  Bi75  1  0.20457990  0.38724879  0.77675135  1
  Bi2+  Bi76  1  0.24719253  0.60504439  0.27674660  1
  Bi2+  Bi77  1  0.20466596  0.66005227  0.77426167  1
  Bi2+  Bi78  1  0.24055798  0.89622770  0.28529986  1
  Bi2+  Bi79  1  0.25614456  0.90162544  0.80335077  1
  Bi2+  Bi80  1  0.45143933  0.12989413  0.29438428  1
  Bi2+  Bi81  1  0.50291541  0.07229895  0.77973864  1
  Bi2+  Bi82  1  0.46326770  0.40689338  0.26354731  1
  Bi2+  Bi83  1  0.52875013  0.42951994  0.79193499  1
  Bi2+  Bi84  1  0.46296193  0.60635050  0.29949327  1
  Bi2+  Bi85  1  0.56479653  0.69729214  0.75321861  1
  Bi2+  Bi86  1  0.43791960  0.87436864  0.28219041  1
  Bi2+  Bi87  1  0.45568232  0.89256767  0.81905908  1
  Bi2+  Bi88  1  0.82600708  0.10417572  0.29777507  1
  Bi2+  Bi89  1  0.76726377  0.08697629  0.79719153  1
  Bi2+  Bi90  1  0.65118698  0.36386943  0.29428014  1
  Bi2+  Bi91  1  0.76991991  0.35121719  0.79555623  1
  Bi2+  Bi92  1  0.70304753  0.63248514  0.28512223  1
  Bi2+  Bi93  1  0.84327601  0.60794888  0.81179983  1
  Bi2+  Bi94  1  0.80602203  0.86791299  0.31987022  1
  Bi2+  Bi95  1  0.65228772  0.84749953  0.80232681  1
  Bi2+  Bi96  1  0.15623684  -0.00568193  0.15023960  1
  Bi2+  Bi97  1  0.08829016  -0.01131241  0.71874423  1
  Bi2+  Bi98  1  0.09573746  0.25399832  0.18138106  1
  Bi2+  Bi99  1  0.14304654  0.23703872  0.69415036  1
  Bi2+  Bi100  1  0.04207496  0.50852610  0.19171124  1
  Bi2+  Bi101  1  0.06962097  0.53382188  0.72639802  1
  Bi2+  Bi102  1  0.14316009  0.79627634  0.17132354  1
  Bi2+  Bi103  1  0.14646826  0.80780520  0.70714702  1
  Bi2+  Bi104  1  0.33511212  0.00199737  0.20169776  1
  Bi2+  Bi105  1  0.37371792  -0.03146716  0.71632627  1
  Bi2+  Bi106  1  0.39724588  0.26035075  0.19264186  1
  Bi2+  Bi107  1  0.38207776  0.28344389  0.71925083  1
  Bi2+  Bi108  1  0.35369579  0.56413962  0.18116667  1
  Bi2+  Bi109  1  0.34419293  0.52393078  0.72750516  1
  Bi2+  Bi110  1  0.33021307  0.75372098  0.21073417  1
  Bi2+  Bi111  1  0.40158975  0.76485886  0.70998845  1
  Bi2+  Bi112  1  0.63622065  -0.01557581  0.23377054  1
  Bi2+  Bi113  1  0.63033421  -0.00987947  0.70614849  1
  Bi2+  Bi114  1  0.64194777  0.20158676  0.20906192  1
  Bi2+  Bi115  1  0.63714845  0.23700444  0.70825636  1
  Bi2+  Bi116  1  0.61858689  0.49067209  0.20734985  1
  Bi2+  Bi117  1  0.70362066  0.53862212  0.73823756  1
  Bi2+  Bi118  1  0.60097837  0.73835608  0.21311562  1
  Bi2+  Bi119  1  0.74761348  0.76231410  0.71351364  1
  Bi2+  Bi120  1  0.99756302  -0.01326148  0.21565548  1
  Bi2+  Bi121  1  0.89533365  -0.01815085  0.74322646  1
  Bi2+  Bi122  1  0.84400722  0.28257135  0.25668259  1
  Bi2+  Bi123  1  0.88177148  0.29985189  0.70726098  1
  Bi2+  Bi124  1  0.80403463  0.47654652  0.24657302  1
  Bi2+  Bi125  1  0.88340050  0.53791243  0.69206062  1
  Bi2+  Bi126  1  0.88558379  0.72171828  0.21054280  1
  Bi2+  Bi127  1  0.94402096  0.72371768  0.70847080  1
  S2-  S128  1  -0.03248057  0.14080479  0.16553542  1
  S2-  S129  1  0.08600381  0.10374057  0.63866455  1
  S2-  S130  1  -0.03096928  0.37040352  0.15842579  1
  S2-  S131  1  0.01852962  0.35102164  0.65461504  1
  S2-  S132  1  -0.08927878  0.60256931  0.14844970  1
  S2-  S133  1  0.11645236  0.61818966  0.64422683  1
  S2-  S134  1  -0.07423217  0.85099761  0.15107802  1
  S2-  S135  1  0.00498457  0.87159113  0.65091957  1
  S2-  S136  1  0.25607692  0.21631201  0.13821178  1
  S2-  S137  1  0.28280031  0.15675425  0.67377354  1
  S2-  S138  1  0.17285094  0.40978718  0.15515160  1
  S2-  S139  1  0.25959644  0.39131514  0.66532060  1
  S2-  S140  1  0.13406016  0.62793211  0.13798954  1
  S2-  S141  1  0.36493338  0.62078935  0.65053264  1
  S2-  S142  1  0.37819356  0.86924707  0.13612739  1
  S2-  S143  1  0.28301428  0.85933484  0.64846102  1
  S2-  S144  1  0.51291999  0.13514529  0.15792736  1
  S2-  S145  1  0.49822764  0.21233481  0.65137878  1
  S2-  S146  1  0.42408313  0.37502363  0.12664439  1
  S2-  S147  1  0.47356539  0.43201312  0.69048831  1
  S2-  S148  1  0.51856366  0.61881255  0.15575259  1
  S2-  S149  1  0.52268479  0.75595973  0.64375082  1
  S2-  S150  1  0.58752007  0.87697236  0.15607682  1
  S2-  S151  1  0.49505764  0.99332886  0.63974971  1
  S2-  S152  1  0.73482422  0.05016557  0.16742596  1
  S2-  S153  1  0.71681232  0.12011839  0.65501778  1
  S2-  S154  1  0.73273415  0.27209676  0.14086565  1
  S2-  S155  1  0.67030520  0.35986165  0.64855294  1
  S2-  S156  1  0.73949788  0.71620988  0.15269668  1
  S2-  S157  1  0.69909362  0.62282298  0.65004080  1
  S2-  S158  1  0.76785758  0.88131259  0.22796333  1
  S2-  S159  1  0.73651529  0.89482651  0.65141729  1
  S2-  S160  1  0.22584970  0.01716293  0.36014695  1
  S2-  S161  1  0.08934648  0.10820185  0.85221671  1
  S2-  S162  1  0.10413003  0.26016341  0.34308898  1
  S2-  S163  1  0.22390646  0.25851329  0.84550779  1
  S2-  S164  1  0.11155158  0.47891150  0.34628444  1
  S2-  S165  1  0.22166680  0.49239442  0.85288761  1
  S2-  S166  1  0.14572094  0.70678744  0.34593129  1
  S2-  S167  1  0.10424242  0.87628087  0.85177911  1
  S2-  S168  1  0.47951284  -0.01320989  0.35390726  1
  S2-  S169  1  0.37443247  0.09540897  0.84829802  1
  S2-  S170  1  0.34500567  0.21826389  0.35437230  1
  S2-  S171  1  0.40879250  0.31614276  0.81245781  1
  S2-  S172  1  0.34689447  0.54004763  0.35907050  1
  S2-  S173  1  0.42538058  0.54027771  0.82226698  1
  S2-  S174  1  0.45464397  0.74649247  0.35669620  1
  S2-  S175  1  0.26677817  0.74312065  0.85271908  1
  S2-  S176  1  0.70104654  0.01164054  0.33674365  1
  S2-  S177  1  0.63585413  0.07427092  0.85525904  1
  S2-  S178  1  0.57760562  0.21221561  0.33126688  1
  S2-  S179  1  0.61879231  0.28056798  0.81272335  1
  S2-  S180  1  0.59988756  0.57849965  0.36180388  1
  S2-  S181  1  0.66633999  0.50099340  0.84302152  1
  S2-  S182  1  0.66510131  0.78673596  0.33234959  1
  S2-  S183  1  0.51564988  0.73498995  0.85474486  1
  S2-  S184  1  0.92762721  -0.00407686  0.34790116  1
  S2-  S185  1  0.87320945  -0.02830741  0.85001429  1
  S2-  S186  1  0.79421600  0.24502317  0.35733269  1
  S2-  S187  1  0.80820293  0.22003650  0.85971146  1
  S2-  S188  1  0.88848325  0.48649685  0.34339127  1
  S2-  S189  1  0.89829892  0.44046319  0.84358147  1
  S2-  S190  1  0.89784771  0.72344114  0.34986628  1
  S2-  S191  1  0.76234822  0.73431668  0.85914392  1
  S2-  S192  1  -0.00407672  0.11762022  0.44988398  1
  S2-  S193  1  -0.00008920  0.11704601  0.96031548  1
  S2-  S194  1  -0.00579425  0.36674958  0.45377604  1
  S2-  S195  1  0.00547723  0.36742398  0.95186295  1
  S2-  S196  1  -0.00479005  0.61682030  0.46468440  1
  S2-  S197  1  0.00538689  0.62056518  0.95359673  1
  S2-  S198  1  -0.00425735  0.86968257  0.44879018  1
  S2-  S199  1  0.00069967  0.86447658  0.95694021  1
  S2-  S200  1  0.24061724  0.12146662  0.46496022  1
  S2-  S201  1  0.25163797  0.11506577  0.95079282  1
  S2-  S202  1  0.24573095  0.36822237  0.45758858  1
  S2-  S203  1  0.25073421  0.36527713  0.95315692  1
  S2-  S204  1  0.24331080  0.61575125  0.46449231  1
  S2-  S205  1  0.25295447  0.62045410  0.95382976  1
  S2-  S206  1  0.24316242  0.86256932  0.44679124  1
  S2-  S207  1  0.26105855  0.87249288  0.95311253  1
  S2-  S208  1  0.49312757  0.12042754  0.45597964  1
  S2-  S209  1  0.50529784  0.12236338  0.94875053  1
  S2-  S210  1  0.49076292  0.36807437  0.44178673  1
  S2-  S211  1  0.50406179  0.36507121  0.93404972  1
  S2-  S212  1  0.48741846  0.61527576  0.46840092  1
  S2-  S213  1  0.50249896  0.60918077  0.95009847  1
  S2-  S214  1  0.48739051  0.86471569  0.45745693  1
  S2-  S215  1  0.50548780  0.86994024  0.95785428  1
  S2-  S216  1  0.74474512  0.11413693  0.45296418  1
  S2-  S217  1  0.75405450  0.11908084  0.96656117  1
  S2-  S218  1  0.74332580  0.37232858  0.45557610  1
  S2-  S219  1  0.75228135  0.36586744  0.95320128  1
  S2-  S220  1  0.74382088  0.61804741  0.45154205  1
  S2-  S221  1  0.75151236  0.61410810  0.96171998  1
  S2-  S222  1  0.74452269  0.86818673  0.44833624  1
  S2-  S223  1  0.75148287  0.86764326  0.95405780  1
  S2-  S224  1  0.12897047  -0.00892132  0.03703102  1
  S2-  S225  1  0.11691466  -0.01145836  0.53918634  1
  S2-  S226  1  0.12691374  0.24194468  0.03951746  1
  S2-  S227  1  0.11766833  0.24626965  0.54675659  1
  S2-  S228  1  0.13171430  0.49070548  0.04004612  1
  S2-  S229  1  0.11673292  0.48713808  0.55075653  1
  S2-  S230  1  0.13261388  0.74679790  0.03459428  1
  S2-  S231  1  0.11584380  0.74552883  0.54660632  1
  S2-  S232  1  0.38124199  -0.00292539  0.03939212  1
  S2-  S233  1  0.36062885  -0.00339074  0.54161117  1
  S2-  S234  1  0.37947396  0.23951960  0.02775570  1
  S2-  S235  1  0.36917867  0.24404462  0.55406077  1
  S2-  S236  1  0.37396339  0.49436544  0.03058181  1
  S2-  S237  1  0.37848042  0.48493384  0.55605082  1
  S2-  S238  1  0.37843503  0.73728213  0.03899653  1
  S2-  S239  1  0.36727914  0.74212639  0.54440389  1
  S2-  S240  1  0.63111600  -0.00487819  0.05221227  1
  S2-  S241  1  0.62210868  -0.00677046  0.53741551  1
  S2-  S242  1  0.62258092  0.24898009  0.03594017  1
  S2-  S243  1  0.62100757  0.24478309  0.53943172  1
  S2-  S244  1  0.62540097  0.48876123  0.04768327  1
  S2-  S245  1  0.61507470  0.49306678  0.55223484  1
  S2-  S246  1  0.62330656  0.73570965  0.04356325  1
  S2-  S247  1  0.62070995  0.74086894  0.53586103  1
  S2-  S248  1  0.87617084  -0.00543256  0.05914360  1
  S2-  S249  1  0.86838059  -0.00612144  0.54684727  1
  S2-  S250  1  0.88342471  0.24482613  0.05103967  1
  S2-  S251  1  0.86591722  0.24235333  0.55113066  1
  S2-  S252  1  0.87774487  0.48935417  0.04624559  1
  S2-  S253  1  0.86938207  0.49175009  0.55114254  1
  S2-  S254  1  0.88186037  0.74241190  0.04321126  1
  S2-  S255  1  0.87194894  0.74127527  0.55341792  1
