# generated using pymatgen
data_La12Ce14Pr13Nd13Sm12(BiS2)64
_symmetry_space_group_name_H-M   'P 1'
_cell_length_a   16.08697821
_cell_length_b   16.14861203
_cell_length_c   27.26665437
_cell_angle_alpha   90.01015440
_cell_angle_beta   89.86225347
_cell_angle_gamma   90.04223867
_symmetry_Int_Tables_number   1
_chemical_formula_structural   La12Ce14Pr13Nd13Sm12(BiS2)64
_chemical_formula_sum   'La12 Ce14 Pr13 Nd13 Sm12 Bi64 S128'
_cell_volume   7083.37358723
_cell_formula_units_Z   1
loop_
 _symmetry_equiv_pos_site_id
 _symmetry_equiv_pos_as_xyz
  1  'x, y, z'
loop_
 _atom_type_symbol
 _atom_type_oxidation_number
  La3+  3.0
  Ce3+  3.0
  Pr3+  3.0
  Nd3+  3.0
  Sm3+  3.0
  Bi2+  2.0
  S2-  -2.0
loop_
 _atom_site_type_symbol
 _atom_site_label
 _atom_site_symmetry_multiplicity
 _atom_site_fract_x
 _atom_site_fract_y
 _atom_site_fract_z
 _atom_site_occupancy
  La3+  La0  1  0.13954642  0.00322175  0.91273911  1
  La3+  La1  1  0.61290040  -0.00628449  0.41028104  1
  La3+  La2  1  0.86504014  0.50379175  0.42502085  1
  La3+  La3  1  0.13436775  0.74119546  0.90638181  1
  La3+  La4  1  0.24989422  0.87835430  0.06052498  1
  La3+  La5  1  0.23636091  0.37418272  0.57339545  1
  La3+  La6  1  -0.01892591  0.86139616  0.60711322  1
  La3+  La7  1  0.13078779  0.25559987  0.92027899  1
  La3+  La8  1  0.23300110  0.12357603  0.58603246  1
  La3+  La9  1  0.48782792  0.87054637  0.57176224  1
  La3+  La10  1  0.11735893  0.24616385  0.43417390  1
  La3+  La11  1  0.11195490  0.50118455  0.38312994  1
  Ce3+  Ce12  1  0.62764702  0.00579588  0.94444611  1
  Ce3+  Ce13  1  0.38095205  0.25473309  0.93558040  1
  Ce3+  Ce14  1  0.38697142  0.00275092  0.93657285  1
  Ce3+  Ce15  1  0.49270515  0.62262777  0.55630334  1
  Ce3+  Ce16  1  0.23865319  0.87140989  0.56762234  1
  Ce3+  Ce17  1  0.36600048  0.74924456  0.44178296  1
  Ce3+  Ce18  1  0.24637057  0.12954785  0.05352967  1
  Ce3+  Ce19  1  0.61767846  0.24849805  0.44879670  1
  Ce3+  Ce20  1  0.62370690  0.75870298  0.94078664  1
  Ce3+  Ce21  1  0.75246787  0.37102451  0.06787578  1
  Ce3+  Ce22  1  -0.01141276  0.37417193  0.55917231  1
  Ce3+  Ce23  1  0.25046210  0.37550094  0.05814222  1
  Ce3+  Ce24  1  0.75321889  0.63077896  0.05843069  1
  Ce3+  Ce25  1  0.73799557  0.88493087  0.57084508  1
  Pr3+  Pr26  1  0.36705472  0.00075534  0.44325431  1
  Pr3+  Pr27  1  0.25377556  0.63041641  0.06271168  1
  Pr3+  Pr28  1  0.88193756  0.00346138  0.94120102  1
  Pr3+  Pr29  1  -0.00179626  0.37932960  0.07342368  1
  Pr3+  Pr30  1  0.61585358  0.75050808  0.44175510  1
  Pr3+  Pr31  1  0.76063297  0.12950467  0.07478146  1
  Pr3+  Pr32  1  0.87856119  0.50406770  0.94132296  1
  Pr3+  Pr33  1  0.62868715  0.25324138  0.93220505  1
  Pr3+  Pr34  1  0.74907966  0.88226790  0.08031322  1
  Pr3+  Pr35  1  0.87853170  0.75595398  0.93969721  1
  Pr3+  Pr36  1  0.88196586  0.25465702  0.93451835  1
  Pr3+  Pr37  1  0.36122606  0.49443220  0.43901923  1
  Pr3+  Pr38  1  0.86680168  -0.00399698  0.44586381  1
  Nd3+  Nd39  1  0.36624875  0.24854500  0.44759942  1
  Nd3+  Nd40  1  0.11848136  0.74881691  0.43557802  1
  Nd3+  Nd41  1  0.62188041  0.49735289  0.44379068  1
  Nd3+  Nd42  1  0.49905242  0.88633647  0.07715417  1
  Nd3+  Nd43  1  0.50236569  0.37586777  0.06002774  1
  Nd3+  Nd44  1  0.38271162  0.75496034  0.93571493  1
  Nd3+  Nd45  1  0.49236382  0.12319465  0.56460185  1
  Nd3+  Nd46  1  0.74702181  0.63063210  0.56508334  1
  Nd3+  Nd47  1  -0.00718337  0.62399811  0.55413836  1
  Nd3+  Nd48  1  0.86643870  0.24906221  0.43925050  1
  Nd3+  Nd49  1  0.00866929  0.12707699  0.05869495  1
  Nd3+  Nd50  1  0.37934559  0.50473605  0.94392804  1
  Nd3+  Nd51  1  0.86700181  0.75517983  0.43919191  1
  Sm3+  Sm52  1  0.50542071  0.62945181  0.05891074  1
  Sm3+  Sm53  1  0.12791618  0.50437086  0.94767723  1
  Sm3+  Sm54  1  -0.00630728  0.12203897  0.56145130  1
  Sm3+  Sm55  1  0.11862328  0.00105594  0.44645462  1
  Sm3+  Sm56  1  0.74064771  0.11858359  0.55536604  1
  Sm3+  Sm57  1  0.23722456  0.62340518  0.55448142  1
  Sm3+  Sm58  1  0.01116610  0.87652309  0.04878553  1
  Sm3+  Sm59  1  0.50394459  0.12889409  0.06282058  1
  Sm3+  Sm60  1  0.00311184  0.63210832  0.05740932  1
  Sm3+  Sm61  1  0.63149727  0.50279763  0.94751849  1
  Sm3+  Sm62  1  0.74887960  0.37590754  0.56850391  1
  Sm3+  Sm63  1  0.49432963  0.37426468  0.56069549  1
  Bi2+  Bi64  1  0.05063248  0.09882936  0.27187127  1
  Bi2+  Bi65  1  -0.02758976  0.15764699  0.79617687  1
  Bi2+  Bi66  1  0.00374153  0.35204428  0.28180291  1
  Bi2+  Bi67  1  0.05318275  0.40056067  0.77851469  1
  Bi2+  Bi68  1  -0.03590973  0.71451207  0.27603953  1
  Bi2+  Bi69  1  -0.03604874  0.61079648  0.80253888  1
  Bi2+  Bi70  1  0.02408350  0.90111914  0.28597713  1
  Bi2+  Bi71  1  -0.04076542  0.87482394  0.79072938  1
  Bi2+  Bi72  1  0.26503862  0.04838949  0.30897034  1
  Bi2+  Bi73  1  0.26940023  0.13171192  0.78827369  1
  Bi2+  Bi74  1  0.26330138  0.38570708  0.28771874  1
  Bi2+  Bi75  1  0.27282649  0.38229784  0.77690111  1
  Bi2+  Bi76  1  0.24731340  0.66297661  0.28932886  1
  Bi2+  Bi77  1  0.25627731  0.59121933  0.79504110  1
  Bi2+  Bi78  1  0.21805222  0.86019520  0.29214633  1
  Bi2+  Bi79  1  0.27352036  0.86776473  0.78455479  1
  Bi2+  Bi80  1  0.50925867  0.14266599  0.30756442  1
  Bi2+  Bi81  1  0.57959532  0.13130784  0.79956206  1
  Bi2+  Bi82  1  0.50553087  0.37649327  0.31314674  1
  Bi2+  Bi83  1  0.57207754  0.35753223  0.78523299  1
  Bi2+  Bi84  1  0.51912131  0.62801805  0.29271607  1
  Bi2+  Bi85  1  0.50237669  0.63182523  0.79553147  1
  Bi2+  Bi86  1  0.49748966  0.82790778  0.28697929  1
  Bi2+  Bi87  1  0.50435322  0.88664329  0.78828619  1
  Bi2+  Bi88  1  0.82837104  0.10987475  0.29442395  1
  Bi2+  Bi89  1  0.75805060  0.17277853  0.83629809  1
  Bi2+  Bi90  1  0.70117563  0.37171287  0.27718143  1
  Bi2+  Bi91  1  0.78708777  0.35397571  0.79167556  1
  Bi2+  Bi92  1  0.71352409  0.62382551  0.30443382  1
  Bi2+  Bi93  1  0.69846288  0.60433689  0.79256676  1
  Bi2+  Bi94  1  0.77000117  0.84366916  0.29155417  1
  Bi2+  Bi95  1  0.69726166  0.87201303  0.79234011  1
  Bi2+  Bi96  1  0.17472293  -0.01060454  0.20397779  1
  Bi2+  Bi97  1  0.11200026  0.00187631  0.71732528  1
  Bi2+  Bi98  1  0.18754375  0.24482745  0.19633108  1
  Bi2+  Bi99  1  0.12184251  0.26070559  0.71031817  1
  Bi2+  Bi100  1  0.14486640  0.49440753  0.17833019  1
  Bi2+  Bi101  1  0.17256560  0.50074466  0.70403196  1
  Bi2+  Bi102  1  0.07920229  0.72950304  0.18346981  1
  Bi2+  Bi103  1  0.12273794  0.72873234  0.71116602  1
  Bi2+  Bi104  1  0.38334099  -0.01527323  0.21734720  1
  Bi2+  Bi105  1  0.42534419  -0.00275020  0.70341365  1
  Bi2+  Bi106  1  0.36699669  0.18313929  0.22531622  1
  Bi2+  Bi107  1  0.40219481  0.24640046  0.71348709  1
  Bi2+  Bi108  1  0.42374048  0.48578850  0.23372549  1
  Bi2+  Bi109  1  0.43356123  0.49687299  0.72527278  1
  Bi2+  Bi110  1  0.39463147  0.73840592  0.20929125  1
  Bi2+  Bi111  1  0.37403751  0.73459242  0.70868071  1
  Bi2+  Bi112  1  0.62745369  -0.00563319  0.21464501  1
  Bi2+  Bi113  1  0.60703714  -0.07330616  0.68093024  1
  Bi2+  Bi114  1  0.55581495  0.24070036  0.21031278  1
  Bi2+  Bi115  1  0.68225894  0.30770418  0.69207976  1
  Bi2+  Bi116  1  0.61617006  0.50460554  0.20483747  1
  Bi2+  Bi117  1  0.63051840  0.49764637  0.70439509  1
  Bi2+  Bi118  1  0.67642910  0.73630422  0.21214216  1
  Bi2+  Bi119  1  0.62352432  0.73883870  0.71606425  1
  Bi2+  Bi120  1  0.91087089  0.00959564  0.20611699  1
  Bi2+  Bi121  1  0.73731001  0.04395902  0.74523546  1
  Bi2+  Bi122  1  0.82826191  0.24605631  0.21009236  1
  Bi2+  Bi123  1  0.85243902  0.21547429  0.71528509  1
  Bi2+  Bi124  1  0.82270111  0.49339522  0.22261508  1
  Bi2+  Bi125  1  0.90185563  0.46978715  0.71654111  1
  Bi2+  Bi126  1  0.87631645  0.81469096  0.19114653  1
  Bi2+  Bi127  1  0.85377660  0.70317590  0.71088863  1
  S2-  S128  1  -0.09108348  0.14880139  0.14149106  1
  S2-  S129  1  0.07795307  0.12687740  0.64806628  1
  S2-  S130  1  0.05971284  0.34233069  0.16984272  1
  S2-  S131  1  0.09242348  0.38030956  0.64042104  1
  S2-  S132  1  0.00294939  0.58726324  0.15297175  1
  S2-  S133  1  -0.00159826  0.69352881  0.64997091  1
  S2-  S134  1  0.11270878  0.87898162  0.13014811  1
  S2-  S135  1  -0.03673828  0.95126020  0.69883494  1
  S2-  S136  1  0.13879816  0.11797416  0.13156166  1
  S2-  S137  1  0.27608534  0.05685471  0.68359699  1
  S2-  S138  1  0.27402512  0.38146076  0.15559741  1
  S2-  S139  1  0.26228121  0.25918247  0.65199549  1
  S2-  S140  1  0.23417391  0.64784159  0.16298144  1
  S2-  S141  1  0.24620904  0.64234568  0.65348759  1
  S2-  S142  1  0.36091196  0.86460188  0.14190703  1
  S2-  S143  1  0.14147925  0.86913941  0.65269510  1
  S2-  S144  1  0.50383585  0.03720310  0.14739836  1
  S2-  S145  1  0.50157429  0.14452927  0.66493113  1
  S2-  S146  1  0.50736644  0.38387401  0.15961735  1
  S2-  S147  1  0.44471682  0.38023236  0.65474378  1
  S2-  S148  1  0.48937475  0.64047268  0.15599123  1
  S2-  S149  1  0.49269354  0.68551294  0.64746385  1
  S2-  S150  1  0.61655548  0.85777066  0.15085463  1
  S2-  S151  1  0.36093568  0.86347735  0.64394521  1
  S2-  S152  1  0.70177815  0.24741507  0.14627963  1
  S2-  S153  1  0.73355758  0.03214664  0.63959019  1
  S2-  S154  1  0.86062675  0.38941965  0.14542307  1
  S2-  S155  1  0.87594569  0.37398390  0.63781573  1
  S2-  S156  1  0.75739742  0.60680291  0.15564312  1
  S2-  S157  1  0.78810910  0.57648326  0.65751722  1
  S2-  S158  1  0.74671250  1.01166774  0.15295665  1
  S2-  S159  1  0.81487369  0.82049871  0.64947058  1
  S2-  S160  1  0.12304686  0.10279591  0.36394716  1
  S2-  S161  1  0.12246411  -0.07590791  0.81793060  1
  S2-  S162  1  0.13469222  0.33170569  0.34567054  1
  S2-  S163  1  0.12512069  0.13277733  0.84133749  1
  S2-  S164  1  0.11868666  0.48536847  0.27137732  1
  S2-  S165  1  0.12075882  0.56443762  0.85651395  1
  S2-  S166  1  0.11322291  0.66962934  0.34480556  1
  S2-  S167  1  0.07190092  0.73988499  0.80708265  1
  S2-  S168  1  0.45955823  0.00445469  0.35661354  1
  S2-  S169  1  0.30666410  0.00618556  0.84704567  1
  S2-  S170  1  0.36799372  0.29094686  0.34993944  1
  S2-  S171  1  0.27772867  0.26655699  0.85356597  1
  S2-  S172  1  0.28497236  0.51910626  0.34860816  1
  S2-  S173  1  0.37231626  0.50120852  0.84480844  1
  S2-  S174  1  0.35403298  0.77347795  0.34515767  1
  S2-  S175  1  0.28495013  0.74587875  0.84964001  1
  S2-  S176  1  0.65614092  0.05673361  0.31312815  1
  S2-  S177  1  0.52367231  0.00578526  0.86531087  1
  S2-  S178  1  0.62681480  0.26371240  0.35239812  1
  S2-  S179  1  0.50310721  0.25291118  0.85812989  1
  S2-  S180  1  0.72057397  0.48103410  0.36223767  1
  S2-  S181  1  0.60817083  0.49777571  0.85040346  1
  S2-  S182  1  0.62443969  0.84036057  0.35494021  1
  S2-  S183  1  0.51245714  0.76008448  0.86383497  1
  S2-  S184  1  0.84209693  -0.04668255  0.34880256  1
  S2-  S185  1  0.91944910  0.00587518  0.84209301  1
  S2-  S186  1  0.90065457  0.24281954  0.34032125  1
  S2-  S187  1  0.99166464  0.29448621  0.85580552  1
  S2-  S188  1  0.95403119  0.46751268  0.33900040  1
  S2-  S189  1  0.84961262  0.50093883  0.84218883  1
  S2-  S190  1  0.86179686  0.66575799  0.35402635  1
  S2-  S191  1  0.86931033  0.74515518  0.83920497  1
  S2-  S192  1  -0.01156682  0.12136311  0.45767228  1
  S2-  S193  1  0.00499384  0.12841424  0.95143889  1
  S2-  S194  1  -0.01028367  0.37255605  0.45269722  1
  S2-  S195  1  0.00516660  0.38603050  0.96176726  1
  S2-  S196  1  -0.00498907  0.62557668  0.44998505  1
  S2-  S197  1  0.00313357  0.63075309  0.95257539  1
  S2-  S198  1  -0.00273009  0.87573592  0.44095053  1
  S2-  S199  1  0.01035074  0.87382610  0.94369160  1
  S2-  S200  1  0.24432250  0.12329950  0.46540250  1
  S2-  S201  1  0.25875083  0.12955224  0.95121528  1
  S2-  S202  1  0.24352779  0.37115864  0.46111028  1
  S2-  S203  1  0.25244316  0.38420726  0.95314663  1
  S2-  S204  1  0.24150215  0.62468417  0.45203961  1
  S2-  S205  1  0.25491594  0.62644236  0.95588779  1
  S2-  S206  1  0.24088384  0.87643938  0.45471707  1
  S2-  S207  1  0.25623119  0.87521845  0.94985425  1
  S2-  S208  1  0.49423095  0.12574915  0.45785080  1
  S2-  S209  1  0.50465804  0.13146451  0.96100401  1
  S2-  S210  1  0.49373410  0.37543608  0.45764866  1
  S2-  S211  1  0.50583498  0.38279559  0.95530010  1
  S2-  S212  1  0.49232475  0.62018557  0.44857489  1
  S2-  S213  1  0.50707296  0.62368917  0.95587555  1
  S2-  S214  1  0.48938522  0.87269034  0.46077182  1
  S2-  S215  1  0.50609976  0.88087245  0.96805882  1
  S2-  S216  1  0.74018758  0.12036407  0.44995526  1
  S2-  S217  1  0.75548976  0.12762057  0.96089950  1
  S2-  S218  1  0.74369650  0.36976589  0.46423129  1
  S2-  S219  1  0.75341465  0.37826809  0.95509118  1
  S2-  S220  1  0.73968916  0.62815807  0.45899450  1
  S2-  S221  1  0.75056509  0.63130459  0.95116686  1
  S2-  S222  1  0.73918080  0.87567913  0.46101394  1
  S2-  S223  1  0.75211376  0.88021166  0.95429442  1
  S2-  S224  1  0.12847842  0.00283013  0.02684659  1
  S2-  S225  1  0.11104326  -0.00583022  0.54873181  1
  S2-  S226  1  0.12607873  0.25829440  0.03717936  1
  S2-  S227  1  0.11306639  0.24611292  0.54288841  1
  S2-  S228  1  0.12599408  0.50509658  0.05089691  1
  S2-  S229  1  0.11607551  0.50377241  0.54740403  1
  S2-  S230  1  0.12817263  0.74770559  0.03453979  1
  S2-  S231  1  0.11629212  0.74894431  0.54224092  1
  S2-  S232  1  0.37514952  0.01004261  0.04405850  1
  S2-  S233  1  0.36430980  0.00389701  0.55068047  1
  S2-  S234  1  0.37813337  0.25129555  0.04858879  1
  S2-  S235  1  0.37191208  0.25021344  0.55138163  1
  S2-  S236  1  0.38053952  0.50426256  0.05102551  1
  S2-  S237  1  0.36700763  0.49926527  0.54843124  1
  S2-  S238  1  0.38230997  0.74911724  0.04266252  1
  S2-  S239  1  0.36453740  0.74331860  0.54430930  1
  S2-  S240  1  0.63041652  0.00812039  0.04780132  1
  S2-  S241  1  0.61064323  0.00043544  0.54174081  1
  S2-  S242  1  0.62312921  0.25221264  0.03949938  1
  S2-  S243  1  0.62122666  0.24947636  0.55531204  1
  S2-  S244  1  0.62848934  0.50161968  0.05238871  1
  S2-  S245  1  0.62143858  0.49753501  0.55179675  1
  S2-  S246  1  0.62853053  0.75297097  0.04647269  1
  S2-  S247  1  0.61880342  0.74974512  0.54934950  1
  S2-  S248  1  0.88407356  -0.00467173  0.04715282  1
  S2-  S249  1  0.87574583  -0.00384758  0.55209073  1
  S2-  S250  1  0.88034773  0.25607457  0.04010348  1
  S2-  S251  1  0.86384164  0.23964841  0.54611583  1
  S2-  S252  1  0.87768958  0.50939616  0.04656441  1
  S2-  S253  1  0.86420827  0.50333455  0.53842371  1
  S2-  S254  1  0.87942060  0.75724559  0.04784631  1
  S2-  S255  1  0.87055928  0.75189765  0.54300262  1
