# generated using pymatgen
data_La12Ce14Pr13Nd13Sm12(BiS2)64
_symmetry_space_group_name_H-M   'P 1'
_cell_length_a   16.09111849
_cell_length_b   16.12455079
_cell_length_c   27.33224663
_cell_angle_alpha   90.09013522
_cell_angle_beta   89.85276643
_cell_angle_gamma   89.99131093
_symmetry_Int_Tables_number   1
_chemical_formula_structural   La12Ce14Pr13Nd13Sm12(BiS2)64
_chemical_formula_sum   'La12 Ce14 Pr13 Nd13 Sm12 Bi64 S128'
_cell_volume   7091.64866326
_cell_formula_units_Z   1
loop_
 _symmetry_equiv_pos_site_id
 _symmetry_equiv_pos_as_xyz
  1  'x, y, z'
loop_
 _atom_type_symbol
 _atom_type_oxidation_number
  La3+  3.0
  Ce3+  3.0
  Pr3+  3.0
  Nd3+  3.0
  Sm3+  3.0
  Bi2+  2.0
  S2-  -2.0
loop_
 _atom_site_type_symbol
 _atom_site_label
 _atom_site_symmetry_multiplicity
 _atom_site_fract_x
 _atom_site_fract_y
 _atom_site_fract_z
 _atom_site_occupancy
  La3+  La0  1  0.10780531  0.24339096  0.43506200  1
  La3+  La1  1  0.49747112  0.13758261  0.07380647  1
  La3+  La2  1  0.35502190  0.49844689  0.42252274  1
  La3+  La3  1  0.73965302  0.63818139  0.06801307  1
  La3+  La4  1  0.60375348  0.00575191  0.40575758  1
  La3+  La5  1  0.37191092  0.76063895  0.92579037  1
  La3+  La6  1  0.85476741  0.24128146  0.43185494  1
  La3+  La7  1  0.36863118  0.25471782  0.92900469  1
  La3+  La8  1  0.73842284  0.88790228  0.07920119  1
  La3+  La9  1  0.85375058  0.49563733  0.41677558  1
  La3+  La10  1  0.63012226  0.77314312  0.90067135  1
  La3+  La11  1  0.49367143  0.63964587  0.61425915  1
  Ce3+  Ce12  1  0.10245662  0.49846247  0.43084947  1
  Ce3+  Ce13  1  0.47465435  0.12890657  0.56975481  1
  Ce3+  Ce14  1  0.62548171  0.51087507  0.93491625  1
  Ce3+  Ce15  1  0.25060353  0.63527503  0.05484316  1
  Ce3+  Ce16  1  0.22613113  0.37528892  0.55972040  1
  Ce3+  Ce17  1  0.60978178  0.49849470  0.44622654  1
  Ce3+  Ce18  1  0.60778308  0.74608980  0.44402825  1
  Ce3+  Ce19  1  0.12675919  0.75952548  0.93899342  1
  Ce3+  Ce20  1  0.87561964  0.25934125  0.94005095  1
  Ce3+  Ce21  1  0.73758827  0.62230257  0.56671701  1
  Ce3+  Ce22  1  0.37192383  0.01022109  0.94622393  1
  Ce3+  Ce23  1  0.35905423  0.00525814  0.43103544  1
  Ce3+  Ce24  1  -0.00343032  0.38287576  0.06410110  1
  Ce3+  Ce25  1  0.49519662  0.38671144  0.05771163  1
  Pr3+  Pr26  1  -0.02243260  0.37495700  0.56237533  1
  Pr3+  Pr27  1  0.74782095  0.38864297  0.06756197  1
  Pr3+  Pr28  1  0.10500730  0.74902330  0.44016656  1
  Pr3+  Pr29  1  -0.00201335  0.64158757  0.07169061  1
  Pr3+  Pr30  1  0.36044735  0.24904463  0.43828180  1
  Pr3+  Pr31  1  -0.00258177  0.88958748  0.06148228  1
  Pr3+  Pr32  1  0.62381057  0.26053730  0.94043238  1
  Pr3+  Pr33  1  0.87221462  0.51386790  0.94378507  1
  Pr3+  Pr34  1  0.74724358  0.14095144  0.09318631  1
  Pr3+  Pr35  1  0.11779301  0.26484183  0.92230709  1
  Pr3+  Pr36  1  0.87028767  0.00845949  0.94414691  1
  Pr3+  Pr37  1  0.72778670  0.87557247  0.55789755  1
  Pr3+  Pr38  1  0.47391176  0.37906888  0.57334494  1
  Nd3+  Nd39  1  0.23578841  0.86985059  0.55333086  1
  Nd3+  Nd40  1  0.22831288  0.12266347  0.56946293  1
  Nd3+  Nd41  1  0.87150653  0.76144161  0.94441136  1
  Nd3+  Nd42  1  0.36177960  0.74681101  0.43409752  1
  Nd3+  Nd43  1  0.48093400  0.87539012  0.55643339  1
  Nd3+  Nd44  1  0.25257084  0.88432687  0.06748880  1
  Nd3+  Nd45  1  0.37353862  0.50053913  0.92842491  1
  Nd3+  Nd46  1  -0.00027590  0.13773302  0.06248633  1
  Nd3+  Nd47  1  0.62084239  0.01771147  0.93778649  1
  Nd3+  Nd48  1  0.11992636  0.50939752  0.94353491  1
  Nd3+  Nd49  1  0.23734950  0.62063943  0.55689284  1
  Nd3+  Nd50  1  -0.02081812  0.87228074  0.55243706  1
  Nd3+  Nd51  1  -0.01994175  0.12164296  0.57096475  1
  Sm3+  Sm52  1  0.60422363  0.24657399  0.44753783  1
  Sm3+  Sm53  1  0.85107756  0.75087318  0.43523132  1
  Sm3+  Sm54  1  0.24808602  0.38650809  0.05828849  1
  Sm3+  Sm55  1  0.10715294  -0.00384776  0.44578019  1
  Sm3+  Sm56  1  0.85419292  0.00002457  0.43626386  1
  Sm3+  Sm57  1  0.49630517  0.88310987  0.05949974  1
  Sm3+  Sm58  1  -0.02357149  0.62269357  0.55415107  1
  Sm3+  Sm59  1  0.73402972  0.12355596  0.56326126  1
  Sm3+  Sm60  1  0.73554280  0.37533417  0.55872885  1
  Sm3+  Sm61  1  0.49603884  0.63647634  0.04749058  1
  Sm3+  Sm62  1  0.12462918  0.01110455  0.94750155  1
  Sm3+  Sm63  1  0.25061799  0.14043431  0.06848889  1
  Bi2+  Bi64  1  0.03914338  0.12631656  0.28548194  1
  Bi2+  Bi65  1  -0.05621460  0.13534647  0.78556677  1
  Bi2+  Bi66  1  0.01648211  0.38846607  0.26834375  1
  Bi2+  Bi67  1  -0.02108807  0.41713044  0.80576343  1
  Bi2+  Bi68  1  -0.02159933  0.62749571  0.28398437  1
  Bi2+  Bi69  1  0.02816501  0.67442951  0.82910698  1
  Bi2+  Bi70  1  0.04286679  0.87165453  0.29325848  1
  Bi2+  Bi71  1  0.02676197  0.85281162  0.77866568  1
  Bi2+  Bi72  1  0.25206947  0.10478883  0.27054904  1
  Bi2+  Bi73  1  0.18969792  0.13308543  0.77034782  1
  Bi2+  Bi74  1  0.25054348  0.33490077  0.30037270  1
  Bi2+  Bi75  1  0.26608041  0.37014353  0.80114900  1
  Bi2+  Bi76  1  0.23695253  0.68618437  0.27921942  1
  Bi2+  Bi77  1  0.20900615  0.63409289  0.78752832  1
  Bi2+  Bi78  1  0.26121306  0.88461499  0.28494695  1
  Bi2+  Bi79  1  0.21470192  0.90432897  0.79697954  1
  Bi2+  Bi80  1  0.46541212  0.12155090  0.29746330  1
  Bi2+  Bi81  1  0.46302999  0.15480582  0.79331553  1
  Bi2+  Bi82  1  0.54081256  0.38913382  0.30780047  1
  Bi2+  Bi83  1  0.53704082  0.35824424  0.77622026  1
  Bi2+  Bi84  1  0.46214152  0.56536314  0.28320032  1
  Bi2+  Bi85  1  0.50309170  0.60044940  0.81365490  1
  Bi2+  Bi86  1  0.45574156  0.84393012  0.27381702  1
  Bi2+  Bi87  1  0.49233855  0.91442138  0.78948179  1
  Bi2+  Bi88  1  0.79801523  0.21447202  0.28471274  1
  Bi2+  Bi89  1  0.73475524  0.14636369  0.79174972  1
  Bi2+  Bi90  1  0.73999631  0.40771611  0.27929099  1
  Bi2+  Bi91  1  0.79833021  0.33468155  0.78612895  1
  Bi2+  Bi92  1  0.65197478  0.63259416  0.28495764  1
  Bi2+  Bi93  1  0.84340708  0.65142475  0.78878424  1
  Bi2+  Bi94  1  0.77037986  0.84116618  0.30397586  1
  Bi2+  Bi95  1  0.77706068  0.91093334  0.79246425  1
  Bi2+  Bi96  1  0.19458433  -0.02360047  0.18301222  1
  Bi2+  Bi97  1  0.05161684  0.02073320  0.71501886  1
  Bi2+  Bi98  1  0.12923395  0.16829576  0.18569343  1
  Bi2+  Bi99  1  0.10538853  0.29747605  0.72620174  1
  Bi2+  Bi100  1  0.18144636  0.49815561  0.25467940  1
  Bi2+  Bi101  1  0.14115653  0.50115246  0.70911618  1
  Bi2+  Bi102  1  0.13197558  0.79258949  0.19979811  1
  Bi2+  Bi103  1  0.08220131  0.70224740  0.70653803  1
  Bi2+  Bi104  1  0.39598290  -0.00904586  0.20467131  1
  Bi2+  Bi105  1  0.31588509  -0.00442342  0.72052919  1
  Bi2+  Bi106  1  0.37475747  0.26651188  0.21358529  1
  Bi2+  Bi107  1  0.36614424  0.23887570  0.70629009  1
  Bi2+  Bi108  1  0.35644053  0.46333377  0.19030004  1
  Bi2+  Bi109  1  0.36467816  0.49084166  0.70643325  1
  Bi2+  Bi110  1  0.39055046  0.71087508  0.19409412  1
  Bi2+  Bi111  1  0.34955756  0.77378861  0.70230298  1
  Bi2+  Bi112  1  0.64890654  0.01524003  0.21427008  1
  Bi2+  Bi113  1  0.57714713  0.04868415  0.72036785  1
  Bi2+  Bi114  1  0.61009454  0.23090375  0.25254440  1
  Bi2+  Bi115  1  0.64773328  0.24119779  0.70227367  1
  Bi2+  Bi116  1  0.59353283  0.49965472  0.20225783  1
  Bi2+  Bi117  1  0.70728597  0.42214261  0.70056327  1
  Bi2+  Bi118  1  0.60688351  0.77121395  0.20895178  1
  Bi2+  Bi119  1  0.63034958  0.74700031  0.72110306  1
  Bi2+  Bi120  1  0.89485154  -0.01172062  0.28620573  1
  Bi2+  Bi121  1  0.76653908  0.01073822  0.69735608  1
  Bi2+  Bi122  1  0.91461713  0.23047545  0.19421832  1
  Bi2+  Bi123  1  0.91968243  0.26213163  0.69823213  1
  Bi2+  Bi124  1  0.87465052  0.46765409  0.19798783  1
  Bi2+  Bi125  1  0.95112565  0.54334811  0.71500476  1
  Bi2+  Bi126  1  0.87811485  0.73703963  0.21268788  1
  Bi2+  Bi127  1  0.88827044  0.77883903  0.69299519  1
  S2-  S128  1  -0.01360686  0.08279506  0.15698494  1
  S2-  S129  1  0.10415892  0.12293253  0.64390565  1
  S2-  S130  1  0.01687209  0.37768276  0.16155262  1
  S2-  S131  1  0.10324452  0.38115303  0.63633179  1
  S2-  S132  1  -0.02559642  0.60332155  0.17003824  1
  S2-  S133  1  -0.12526535  0.62679217  0.63412130  1
  S2-  S134  1  -0.02228311  0.83345462  0.15627104  1
  S2-  S135  1  -0.03472197  0.90601585  0.64896754  1
  S2-  S136  1  0.36687759  0.14025650  0.14533130  1
  S2-  S137  1  0.34917731  0.10067237  0.64248256  1
  S2-  S138  1  0.25004835  0.34759715  0.15447134  1
  S2-  S139  1  0.32250649  0.37346311  0.64338201  1
  S2-  S140  1  0.26898444  0.60535055  0.14958168  1
  S2-  S141  1  0.31896042  0.62874570  0.64601791  1
  S2-  S142  1  0.37794050  0.85995553  0.13703960  1
  S2-  S143  1  0.24425608  0.87292686  0.65297665  1
  S2-  S144  1  0.60512963  0.14126066  0.15660409  1
  S2-  S145  1  0.49890588  0.24678933  0.64345566  1
  S2-  S146  1  0.49642400  0.36244908  0.15496997  1
  S2-  S147  1  0.50091334  0.47754125  0.65812597  1
  S2-  S148  1  0.52723028  0.63730973  0.14537584  1
  S2-  S149  1  0.48051067  0.65635280  0.72503167  1
  S2-  S150  1  0.59060462  0.89720173  0.14515894  1
  S2-  S151  1  0.48275596  0.81513901  0.65071125  1
  S2-  S152  1  0.77341805  0.00392357  0.15708949  1
  S2-  S153  1  0.84759863  0.12809163  0.64019824  1
  S2-  S154  1  0.77575431  0.28657991  0.15001323  1
  S2-  S155  1  0.84486561  0.38488718  0.63680882  1
  S2-  S156  1  0.73869988  0.51376802  0.14367352  1
  S2-  S157  1  0.65781992  0.63528698  0.65552627  1
  S2-  S158  1  0.75150103  0.74875177  0.14946829  1
  S2-  S159  1  0.73143073  0.84425734  0.65784689  1
  S2-  S160  1  0.10665354  0.01066060  0.34832062  1
  S2-  S161  1  0.13653770  0.02735442  0.84981633  1
  S2-  S162  1  0.08695054  0.27599633  0.33541572  1
  S2-  S163  1  0.24361558  0.22841468  0.85413502  1
  S2-  S164  1  0.21363726  0.48352787  0.35405735  1
  S2-  S165  1  0.12483643  0.41792307  0.85839231  1
  S2-  S166  1  0.09410821  0.72245856  0.34151056  1
  S2-  S167  1  0.23459049  0.77039777  0.85962313  1
  S2-  S168  1  0.46144443  -0.02836080  0.34901294  1
  S2-  S169  1  0.39492820  0.02330140  0.84919295  1
  S2-  S170  1  0.32747542  0.13452497  0.36211786  1
  S2-  S171  1  0.40715096  0.36237760  0.84855755  1
  S2-  S172  1  0.38851914  0.35815541  0.35662062  1
  S2-  S173  1  0.33078823  0.55508508  0.83529450  1
  S2-  S174  1  0.35770939  0.64729561  0.35128510  1
  S2-  S175  1  0.47261390  0.77100429  0.84256965  1
  S2-  S176  1  0.68899006  -0.02045603  0.31664761  1
  S2-  S177  1  0.62995299  -0.07045451  0.84981533  1
  S2-  S178  1  0.60278946  0.17289132  0.35770576  1
  S2-  S179  1  0.60321909  0.16171324  0.85696668  1
  S2-  S180  1  0.70245244  0.51737292  0.36085070  1
  S2-  S181  1  0.60315486  0.45826910  0.84155303  1
  S2-  S182  1  0.62250943  0.77038794  0.34704337  1
  S2-  S183  1  0.64895132  0.66939552  0.81463570  1
  S2-  S184  1  0.86263370  0.11083029  0.36083042  1
  S2-  S185  1  0.89052055  0.00142993  0.84365268  1
  S2-  S186  1  0.84724318  0.34450474  0.35047227  1
  S2-  S187  1  0.97592013  0.25413106  0.85845223  1
  S2-  S188  1  0.99225925  0.50349458  0.35022426  1
  S2-  S189  1  0.83828484  0.51030073  0.84481789  1
  S2-  S190  1  0.85976542  0.69447169  0.34178557  1
  S2-  S191  1  0.79935831  0.78609839  0.85492771  1
  S2-  S192  1  -0.01551659  0.11573682  0.46024914  1
  S2-  S193  1  0.00136514  0.13179979  0.95653860  1
  S2-  S194  1  -0.01736938  0.36929428  0.45369323  1
  S2-  S195  1  -0.00528498  0.38707140  0.95976983  1
  S2-  S196  1  -0.02395066  0.62979612  0.45170959  1
  S2-  S197  1  -0.00103487  0.63741482  0.96288271  1
  S2-  S198  1  -0.02287773  0.87525072  0.44543800  1
  S2-  S199  1  0.00135411  0.88454115  0.95334929  1
  S2-  S200  1  0.22638647  0.11814099  0.46263091  1
  S2-  S201  1  0.24455869  0.13282645  0.96344146  1
  S2-  S202  1  0.22874040  0.36931472  0.45419469  1
  S2-  S203  1  0.24652307  0.38449323  0.95540773  1
  S2-  S204  1  0.22985696  0.62801037  0.45241939  1
  S2-  S205  1  0.24736449  0.62794575  0.95125167  1
  S2-  S206  1  0.23443736  0.87270900  0.44607010  1
  S2-  S207  1  0.24640885  0.88861693  0.96132679  1
  S2-  S208  1  0.48510909  0.12050873  0.46157653  1
  S2-  S209  1  0.49354168  0.13714314  0.96181547  1
  S2-  S210  1  0.48841923  0.37290323  0.46267845  1
  S2-  S211  1  0.49978927  0.38374844  0.95411886  1
  S2-  S212  1  0.48662548  0.62113290  0.44532694  1
  S2-  S213  1  0.49781788  0.63094880  0.94323652  1
  S2-  S214  1  0.48570551  0.87390670  0.45187732  1
  S2-  S215  1  0.49830630  0.88772702  0.95447691  1
  S2-  S216  1  0.72448208  0.11551461  0.45955583  1
  S2-  S217  1  0.75148949  0.13689106  0.95052285  1
  S2-  S218  1  0.72819601  0.36732902  0.45546280  1
  S2-  S219  1  0.74993207  0.38479890  0.95432243  1
  S2-  S220  1  0.73448943  0.62882291  0.45872635  1
  S2-  S221  1  0.74503248  0.63904287  0.95398082  1
  S2-  S222  1  0.72905708  0.88008409  0.44978301  1
  S2-  S223  1  0.74540899  0.88684635  0.96126866  1
  S2-  S224  1  0.12747624  0.01191456  0.05193021  1
  S2-  S225  1  0.10731628  -0.00907822  0.54821863  1
  S2-  S226  1  0.12554665  0.26172452  0.04661385  1
  S2-  S227  1  0.10178157  0.24532865  0.54220805  1
  S2-  S228  1  0.12169939  0.51049900  0.05130041  1
  S2-  S229  1  0.10262835  0.50705061  0.53911569  1
  S2-  S230  1  0.12518860  0.76188054  0.04834660  1
  S2-  S231  1  0.10501920  0.74631017  0.54792379  1
  S2-  S232  1  0.37083978  0.01169146  0.04859168  1
  S2-  S233  1  0.35498869  -0.00531025  0.53946725  1
  S2-  S234  1  0.36914031  0.26388694  0.04164055  1
  S2-  S235  1  0.35031550  0.24724627  0.54320320  1
  S2-  S236  1  0.37220980  0.50927239  0.03889433  1
  S2-  S237  1  0.35111459  0.49623739  0.53651925  1
  S2-  S238  1  0.37264943  0.75681329  0.03455659  1
  S2-  S239  1  0.36058672  0.74755817  0.53954093  1
  S2-  S240  1  0.62232131  0.01706058  0.04461380  1
  S2-  S241  1  0.60503398  0.00306021  0.56395719  1
  S2-  S242  1  0.62507820  0.26259691  0.04692548  1
  S2-  S243  1  0.61618456  0.24901242  0.54932809  1
  S2-  S244  1  0.61795125  0.50966789  0.04052802  1
  S2-  S245  1  0.61275370  0.49766440  0.55021233  1
  S2-  S246  1  0.61493894  0.75927791  0.04389893  1
  S2-  S247  1  0.60482646  0.74734326  0.54828413  1
  S2-  S248  1  0.87303603  0.01451895  0.04903818  1
  S2-  S249  1  0.85562532  -0.00296830  0.54011300  1
  S2-  S250  1  0.87356019  0.25746174  0.04518908  1
  S2-  S251  1  0.85535163  0.24577151  0.53927229  1
  S2-  S252  1  0.87687395  0.51386143  0.04955871  1
  S2-  S253  1  0.85738233  0.49864944  0.53124376  1
  S2-  S254  1  0.87330394  0.76242455  0.04815978  1
  S2-  S255  1  0.85481888  0.75330622  0.53859308  1
