# generated using pymatgen
data_La12Ce14Pr13Nd13Sm12(BiS2)64
_symmetry_space_group_name_H-M   'P 1'
_cell_length_a   16.16252715
_cell_length_b   16.15456125
_cell_length_c   27.23499603
_cell_angle_alpha   89.97272264
_cell_angle_beta   90.13033709
_cell_angle_gamma   90.06117792
_symmetry_Int_Tables_number   1
_chemical_formula_structural   La12Ce14Pr13Nd13Sm12(BiS2)64
_chemical_formula_sum   'La12 Ce14 Pr13 Nd13 Sm12 Bi64 S128'
_cell_volume   7110.99430662
_cell_formula_units_Z   1
loop_
 _symmetry_equiv_pos_site_id
 _symmetry_equiv_pos_as_xyz
  1  'x, y, z'
loop_
 _atom_type_symbol
 _atom_type_oxidation_number
  La3+  3.0
  Ce3+  3.0
  Pr3+  3.0
  Nd3+  3.0
  Sm3+  3.0
  Bi2+  2.0
  S2-  -2.0
loop_
 _atom_site_type_symbol
 _atom_site_label
 _atom_site_symmetry_multiplicity
 _atom_site_fract_x
 _atom_site_fract_y
 _atom_site_fract_z
 _atom_site_occupancy
  La3+  La0  1  -0.01426912  0.38489832  0.08274052  1
  La3+  La1  1  0.49903930  0.63887408  0.07530718  1
  La3+  La2  1  0.36644143  0.00630015  0.88765958  1
  La3+  La3  1  0.73978210  0.12750206  0.10576364  1
  La3+  La4  1  0.86865262  0.26668133  0.92346150  1
  La3+  La5  1  0.12283713  0.49020891  0.38601021  1
  La3+  La6  1  -0.00512047  0.89018495  0.06659355  1
  La3+  La7  1  0.49840233  0.89485111  0.05741522  1
  La3+  La8  1  -0.00691219  0.63969222  0.08245668  1
  La3+  La9  1  0.75522426  0.62465966  0.56858146  1
  La3+  La10  1  0.25397718  0.13131254  0.57923935  1
  La3+  La11  1  0.87573132  -0.00138515  0.43051897  1
  Ce3+  Ce12  1  0.00720688  0.62315086  0.55371856  1
  Ce3+  Ce13  1  0.00627287  0.37533377  0.55645231  1
  Ce3+  Ce14  1  0.13153254  0.24892903  0.43924357  1
  Ce3+  Ce15  1  0.87524678  0.01450609  0.92538839  1
  Ce3+  Ce16  1  0.12844318  0.01253976  0.94518436  1
  Ce3+  Ce17  1  0.37277273  0.26036531  0.93438220  1
  Ce3+  Ce18  1  0.37536804  0.24928688  0.44113539  1
  Ce3+  Ce19  1  0.37435214  0.49977316  0.43031985  1
  Ce3+  Ce20  1  0.00609235  0.87432920  0.55647052  1
  Ce3+  Ce21  1  0.12620763  0.76065679  0.94907139  1
  Ce3+  Ce22  1  -0.01082267  0.14073784  0.05495193  1
  Ce3+  Ce23  1  0.50296458  0.87165760  0.56322652  1
  Ce3+  Ce24  1  0.12076301  0.26668938  0.94511930  1
  Ce3+  Ce25  1  0.13360693  -0.00472627  0.43998053  1
  Pr3+  Pr26  1  0.25437416  0.86375773  0.57035610  1
  Pr3+  Pr27  1  0.49746755  0.38566844  0.06527710  1
  Pr3+  Pr28  1  0.62038328  0.76171808  0.93941397  1
  Pr3+  Pr29  1  0.88104973  0.25069750  0.43499154  1
  Pr3+  Pr30  1  0.37936698  0.76019566  0.42418097  1
  Pr3+  Pr31  1  0.87331254  0.50053096  0.43423651  1
  Pr3+  Pr32  1  0.24792193  0.14137223  0.06260443  1
  Pr3+  Pr33  1  0.37606335  0.00175885  0.44474523  1
  Pr3+  Pr34  1  0.37257124  0.51606811  0.94126323  1
  Pr3+  Pr35  1  0.49863680  0.14186316  0.05808369  1
  Pr3+  Pr36  1  0.75473935  0.37160528  0.55847647  1
  Pr3+  Pr37  1  0.75698593  0.12271458  0.56100737  1
  Pr3+  Pr38  1  0.25076066  0.89018902  0.06237380  1
  Nd3+  Nd39  1  0.74824673  0.64044116  0.06376787  1
  Nd3+  Nd40  1  0.12862047  0.75010911  0.43007110  1
  Nd3+  Nd41  1  0.25557923  0.37712351  0.55986086  1
  Nd3+  Nd42  1  0.50368995  0.12377840  0.56235269  1
  Nd3+  Nd43  1  0.62857958  0.00148717  0.44002649  1
  Nd3+  Nd44  1  0.62003877  0.01544762  0.93317320  1
  Nd3+  Nd45  1  0.25627328  0.62240801  0.55343583  1
  Nd3+  Nd46  1  0.25215100  0.64083141  0.08125728  1
  Nd3+  Nd47  1  0.62471313  0.26357334  0.93751124  1
  Nd3+  Nd48  1  0.62860969  0.75010835  0.44252679  1
  Nd3+  Nd49  1  0.74862347  0.38507617  0.05763773  1
  Nd3+  Nd50  1  0.50466545  0.37592671  0.55774864  1
  Nd3+  Nd51  1  0.74954499  0.89204972  0.05190804  1
  Sm3+  Sm52  1  0.00601091  0.12223119  0.55158491  1
  Sm3+  Sm53  1  0.75564977  0.87486805  0.55513535  1
  Sm3+  Sm54  1  0.11998486  0.51494130  0.95442991  1
  Sm3+  Sm55  1  0.62798860  0.49929108  0.43525591  1
  Sm3+  Sm56  1  0.62295837  0.51582958  0.94623656  1
  Sm3+  Sm57  1  0.87749089  0.51918990  0.93900726  1
  Sm3+  Sm58  1  0.50432449  0.62389789  0.54599802  1
  Sm3+  Sm59  1  0.87506739  0.76665194  0.93413855  1
  Sm3+  Sm60  1  0.37036669  0.75983598  0.93718851  1
  Sm3+  Sm61  1  0.87838797  0.74642277  0.44082675  1
  Sm3+  Sm62  1  0.24891489  0.38896413  0.05697032  1
  Sm3+  Sm63  1  0.62699530  0.24908962  0.44373857  1
  Bi2+  Bi64  1  0.02247445  0.11233318  0.28905922  1
  Bi2+  Bi65  1  -0.03159863  0.12735880  0.75569901  1
  Bi2+  Bi66  1  -0.00306605  0.35722318  0.28756168  1
  Bi2+  Bi67  1  0.04117839  0.37205692  0.80579611  1
  Bi2+  Bi68  1  -0.01483007  0.63046362  0.28696696  1
  Bi2+  Bi69  1  -0.04168436  0.64811672  0.77795808  1
  Bi2+  Bi70  1  -0.00521293  0.87743181  0.29533260  1
  Bi2+  Bi71  1  0.00888686  0.83438510  0.75789115  1
  Bi2+  Bi72  1  0.20268999  0.11541238  0.33512414  1
  Bi2+  Bi73  1  0.23175870  0.13759839  0.78969192  1
  Bi2+  Bi74  1  0.31966118  0.32342814  0.25262985  1
  Bi2+  Bi75  1  0.29214973  0.39694525  0.78052577  1
  Bi2+  Bi76  1  0.24778177  0.61486374  0.27840902  1
  Bi2+  Bi77  1  0.21717849  0.61722355  0.81146720  1
  Bi2+  Bi78  1  0.25181478  0.93842476  0.29203730  1
  Bi2+  Bi79  1  0.24011643  0.87010576  0.79131102  1
  Bi2+  Bi80  1  0.39294395  0.08314881  0.31218280  1
  Bi2+  Bi81  1  0.59487559  0.18104972  0.80441218  1
  Bi2+  Bi82  1  0.51420169  0.46222085  0.32093156  1
  Bi2+  Bi83  1  0.47232599  0.33962105  0.81705312  1
  Bi2+  Bi84  1  0.51515996  0.64787194  0.28474236  1
  Bi2+  Bi85  1  0.44287991  0.53633300  0.78790595  1
  Bi2+  Bi86  1  0.52966468  0.84635081  0.29906515  1
  Bi2+  Bi87  1  0.48645180  0.80956131  0.76216150  1
  Bi2+  Bi88  1  0.75786171  0.12412805  0.30805866  1
  Bi2+  Bi89  1  0.76571991  0.07203390  0.80383574  1
  Bi2+  Bi90  1  0.69530779  0.43103238  0.26669488  1
  Bi2+  Bi91  1  0.68195478  0.41356621  0.78978967  1
  Bi2+  Bi92  1  0.72917413  0.62553922  0.28578714  1
  Bi2+  Bi93  1  0.72616959  0.67801123  0.80475309  1
  Bi2+  Bi94  1  0.69438615  0.85726370  0.22655485  1
  Bi2+  Bi95  1  0.75652236  0.87442862  0.78872455  1
  Bi2+  Bi96  1  0.08645040  -0.01336584  0.20729117  1
  Bi2+  Bi97  1  0.10454965  -0.00286120  0.69750084  1
  Bi2+  Bi98  1  0.16295692  0.20648695  0.22846308  1
  Bi2+  Bi99  1  0.12940775  0.30842079  0.70796663  1
  Bi2+  Bi100  1  0.15072842  0.45794723  0.18366308  1
  Bi2+  Bi101  1  0.13999120  0.50160422  0.71459872  1
  Bi2+  Bi102  1  0.12857958  0.79035045  0.21761148  1
  Bi2+  Bi103  1  0.11309073  0.69626203  0.70117005  1
  Bi2+  Bi104  1  0.36181018  -0.01340400  0.20155780  1
  Bi2+  Bi105  1  0.37417796  0.00137952  0.68575142  1
  Bi2+  Bi106  1  0.43544603  0.19655050  0.19350106  1
  Bi2+  Bi107  1  0.40686610  0.27514343  0.70973765  1
  Bi2+  Bi108  1  0.40884238  0.49140058  0.22096471  1
  Bi2+  Bi109  1  0.32174213  0.49632493  0.67869160  1
  Bi2+  Bi110  1  0.39575805  0.76797626  0.21372226  1
  Bi2+  Bi111  1  0.36612619  0.67718713  0.71351672  1
  Bi2+  Bi112  1  0.55148767  0.00485203  0.23229580  1
  Bi2+  Bi113  1  0.60681138  -0.00948601  0.75727311  1
  Bi2+  Bi114  1  0.55741489  0.28918384  0.26718501  1
  Bi2+  Bi115  1  0.66217691  0.26993782  0.70713007  1
  Bi2+  Bi116  1  0.58622378  0.49463402  0.17220097  1
  Bi2+  Bi117  1  0.58281963  0.51341595  0.70888646  1
  Bi2+  Bi118  1  0.62940599  0.68114742  0.18518598  1
  Bi2+  Bi119  1  0.62500099  0.71030085  0.70797951  1
  Bi2+  Bi120  1  0.89517195  -0.03422611  0.19191200  1
  Bi2+  Bi121  1  0.83907903  0.01469088  0.69863339  1
  Bi2+  Bi122  1  0.88595405  0.24671355  0.21184195  1
  Bi2+  Bi123  1  0.86990734  0.28438656  0.71729535  1
  Bi2+  Bi124  1  0.84868065  0.50606209  0.20799997  1
  Bi2+  Bi125  1  0.87768067  0.46361839  0.76436006  1
  Bi2+  Bi126  1  0.87093537  0.77425719  0.21483852  1
  Bi2+  Bi127  1  0.86538817  0.75275772  0.68846535  1
  S2-  S128  1  -0.08982922  0.12422748  0.14178395  1
  S2-  S129  1  0.00039850  0.11413703  0.64925975  1
  S2-  S130  1  0.04953884  0.30922082  0.17358014  1
  S2-  S131  1  -0.00619008  0.35748620  0.65429420  1
  S2-  S132  1  -0.00551605  0.51495398  0.15599605  1
  S2-  S133  1  -0.02397443  0.62929144  0.64973233  1
  S2-  S134  1  0.00517070  0.78083433  0.14744341  1
  S2-  S135  1  -0.00295577  0.87070377  0.65429880  1
  S2-  S136  1  0.27125156  0.12720232  0.16329675  1
  S2-  S137  1  0.22881147  0.09999389  0.68082219  1
  S2-  S138  1  0.30337815  0.38469548  0.15104431  1
  S2-  S139  1  0.26425760  0.28425355  0.64440287  1
  S2-  S140  1  0.17387986  0.62428897  0.17240965  1
  S2-  S141  1  0.25625533  0.71628552  0.63732708  1
  S2-  S142  1  0.26047947  0.83532088  0.15859971  1
  S2-  S143  1  0.23788440  0.90572063  0.67000899  1
  S2-  S144  1  0.56798493  0.10493156  0.14848466  1
  S2-  S145  1  0.47210488  0.14257233  0.65958878  1
  S2-  S146  1  0.54142576  0.32476655  0.15730897  1
  S2-  S147  1  0.52015011  0.37145688  0.65747402  1
  S2-  S148  1  0.38396653  0.63807422  0.15239500  1
  S2-  S149  1  0.50526163  0.62921032  0.64390499  1
  S2-  S150  1  0.49206233  0.88251870  0.15832201  1
  S2-  S151  1  0.48947011  0.87468588  0.66045368  1
  S2-  S152  1  0.74143216  0.17870707  0.20774372  1
  S2-  S153  1  0.73335409  0.12614783  0.66017760  1
  S2-  S154  1  0.83008100  0.36720959  0.14561201  1
  S2-  S155  1  0.76031576  0.38098379  0.65828992  1
  S2-  S156  1  0.83926836  0.64525886  0.14802654  1
  S2-  S157  1  0.75498984  0.62187854  0.66921658  1
  S2-  S158  1  0.74208651  0.96052810  0.14409708  1
  S2-  S159  1  0.75680505  0.87708315  0.65284650  1
  S2-  S160  1  0.13236103  -0.11418261  0.36186476  1
  S2-  S161  1  0.18463849  0.00491163  0.85153064  1
  S2-  S162  1  0.11910644  0.32068575  0.35067627  1
  S2-  S163  1  0.12930098  0.24567979  0.84675960  1
  S2-  S164  1  0.11601979  0.48383125  0.27494911  1
  S2-  S165  1  0.10943700  0.51978627  0.85509498  1
  S2-  S166  1  0.11661851  0.65757668  0.34357495  1
  S2-  S167  1  0.15029160  0.75862419  0.85122025  1
  S2-  S168  1  0.39262402  -0.09068518  0.35952096  1
  S2-  S169  1  0.34610283  0.00743470  0.77911373  1
  S2-  S170  1  0.38014340  0.25395571  0.34292166  1
  S2-  S171  1  0.35280446  0.17453754  0.84943059  1
  S2-  S172  1  0.28730998  0.49717840  0.34680667  1
  S2-  S173  1  0.36932401  0.63114548  0.86611988  1
  S2-  S174  1  0.33518387  0.71640804  0.32646316  1
  S2-  S175  1  0.36725606  0.84247869  0.84749070  1
  S2-  S176  1  0.67698634  0.00196648  0.34493956  1
  S2-  S177  1  0.53307984  0.01810286  0.84570601  1
  S2-  S178  1  0.63680340  0.22298535  0.34680533  1
  S2-  S179  1  0.71851623  0.27758586  0.85232140  1
  S2-  S180  1  0.74035155  0.50827648  0.36135385  1
  S2-  S181  1  0.64192246  0.54647802  0.85011524  1
  S2-  S182  1  0.65367518  0.75123083  0.34490985  1
  S2-  S183  1  0.59105954  0.76468633  0.83930747  1
  S2-  S184  1  0.89470048  0.01572077  0.33073284  1
  S2-  S185  1  0.88153911  -0.11646129  0.85747572  1
  S2-  S186  1  0.87168996  0.26042562  0.33412284  1
  S2-  S187  1  0.90491801  0.13779460  0.85198988  1
  S2-  S188  1  0.95437488  0.49613425  0.34405960  1
  S2-  S189  1  0.89317977  0.40795735  0.86148985  1
  S2-  S190  1  0.89928895  0.75125996  0.34323713  1
  S2-  S191  1  0.87351167  0.64171980  0.86528219  1
  S2-  S192  1  0.00554686  0.12245405  0.44628548  1
  S2-  S193  1  0.00420462  0.13690517  0.95292266  1
  S2-  S194  1  0.00384062  0.37684320  0.45167615  1
  S2-  S195  1  0.00021269  0.39092797  0.96552668  1
  S2-  S196  1  0.00090503  0.62431694  0.44968577  1
  S2-  S197  1  0.00060140  0.64000598  0.96551867  1
  S2-  S198  1  -0.00162069  0.87313299  0.45223885  1
  S2-  S199  1  0.00448658  0.88766647  0.95834004  1
  S2-  S200  1  0.25406111  0.12583225  0.46503719  1
  S2-  S201  1  0.24581940  0.14047441  0.95705204  1
  S2-  S202  1  0.25301107  0.37497221  0.45410972  1
  S2-  S203  1  0.24702183  0.39123055  0.95093813  1
  S2-  S204  1  0.25862235  0.63143312  0.44926829  1
  S2-  S205  1  0.24614650  0.63567705  0.96852613  1
  S2-  S206  1  0.25560761  0.87390719  0.46184989  1
  S2-  S207  1  0.25216827  0.88769027  0.95634419  1
  S2-  S208  1  0.50471921  0.12476111  0.45438182  1
  S2-  S209  1  0.49805694  0.14191228  0.95145522  1
  S2-  S210  1  0.50531671  0.37404015  0.45115111  1
  S2-  S211  1  0.49996765  0.39082678  0.95614077  1
  S2-  S212  1  0.50420320  0.62509988  0.44150780  1
  S2-  S213  1  0.50017629  0.63738453  0.96386322  1
  S2-  S214  1  0.50844652  0.87684886  0.45725233  1
  S2-  S215  1  0.49379472  0.88644757  0.95016939  1
  S2-  S216  1  0.75345642  0.12690963  0.45382983  1
  S2-  S217  1  0.74497614  0.13460675  0.94283847  1
  S2-  S218  1  0.74988113  0.36944205  0.45239504  1
  S2-  S219  1  0.74580583  0.39719231  0.95417833  1
  S2-  S220  1  0.75176782  0.62817708  0.45954778  1
  S2-  S221  1  0.74580288  0.63943148  0.95950370  1
  S2-  S222  1  0.75425862  0.87233481  0.44990308  1
  S2-  S223  1  0.74235251  0.88861308  0.94771684  1
  S2-  S224  1  0.12242686  0.01528656  0.05368539  1
  S2-  S225  1  0.13162586  -0.00020614  0.54894647  1
  S2-  S226  1  0.12228175  0.26567201  0.05263127  1
  S2-  S227  1  0.12682963  0.24870175  0.54650604  1
  S2-  S228  1  0.12617289  0.51076098  0.05760496  1
  S2-  S229  1  0.13145978  0.49968160  0.55786842  1
  S2-  S230  1  0.12774263  0.76246475  0.05316193  1
  S2-  S231  1  0.12668290  0.74810896  0.53874266  1
  S2-  S232  1  0.37301831  0.01758236  0.05470106  1
  S2-  S233  1  0.37656578  -0.00102704  0.55307211  1
  S2-  S234  1  0.37186032  0.26539498  0.04288604  1
  S2-  S235  1  0.38334080  0.25033759  0.54627206  1
  S2-  S236  1  0.37400457  0.51111523  0.04834524  1
  S2-  S237  1  0.38202727  0.49971291  0.53929912  1
  S2-  S238  1  0.37493272  0.76427037  0.04555383  1
  S2-  S239  1  0.38489571  0.74738600  0.53707939  1
  S2-  S240  1  0.62657096  0.01724906  0.03935055  1
  S2-  S241  1  0.62980784  -0.00224865  0.54852350  1
  S2-  S242  1  0.63029133  0.25889961  0.04563886  1
  S2-  S243  1  0.62779315  0.24787079  0.54914152  1
  S2-  S244  1  0.62447962  0.51293502  0.05027295  1
  S2-  S245  1  0.62940744  0.49980394  0.54262381  1
  S2-  S246  1  0.62404440  0.76612838  0.04847840  1
  S2-  S247  1  0.62966084  0.75005737  0.54919795  1
  S2-  S248  1  0.87168691  0.01328456  0.03538778  1
  S2-  S249  1  0.87980835  -0.00154084  0.54159099  1
  S2-  S250  1  0.86672345  0.25856656  0.03848131  1
  S2-  S251  1  0.88169859  0.24655425  0.54408048  1
  S2-  S252  1  0.86917727  0.51435942  0.04450526  1
  S2-  S253  1  0.87714788  0.49833930  0.54536841  1
  S2-  S254  1  0.86978425  0.76605852  0.03999789  1
  S2-  S255  1  0.87824988  0.75117782  0.54572336  1
