# generated using pymatgen
data_La12Ce14Pr13Nd13Sm12(BiS2)64
_symmetry_space_group_name_H-M   'P 1'
_cell_length_a   16.17128651
_cell_length_b   16.08964324
_cell_length_c   27.25542875
_cell_angle_alpha   89.86121652
_cell_angle_beta   89.93699074
_cell_angle_gamma   89.91605942
_symmetry_Int_Tables_number   1
_chemical_formula_structural   La12Ce14Pr13Nd13Sm12(BiS2)64
_chemical_formula_sum   'La12 Ce14 Pr13 Nd13 Sm12 Bi64 S128'
_cell_volume   7091.56362173
_cell_formula_units_Z   1
loop_
 _symmetry_equiv_pos_site_id
 _symmetry_equiv_pos_as_xyz
  1  'x, y, z'
loop_
 _atom_type_symbol
 _atom_type_oxidation_number
  La3+  3.0
  Ce3+  3.0
  Pr3+  3.0
  Nd3+  3.0
  Sm3+  3.0
  Bi2+  2.0
  S2-  -2.0
loop_
 _atom_site_type_symbol
 _atom_site_label
 _atom_site_symmetry_multiplicity
 _atom_site_fract_x
 _atom_site_fract_y
 _atom_site_fract_z
 _atom_site_occupancy
  La3+  La0  1  0.24757660  0.64062879  0.55661891  1
  La3+  La1  1  0.74115687  0.15048540  0.58951757  1
  La3+  La2  1  0.37234599  0.25741270  0.43307887  1
  La3+  La3  1  0.37830028  0.73321160  0.38252756  1
  La3+  La4  1  0.01803210  0.12712816  0.10295981  1
  La3+  La5  1  0.88543255  -0.00014752  0.92776733  1
  La3+  La6  1  0.00044926  0.14247076  0.59522092  1
  La3+  La7  1  0.13395235  0.25922831  0.93273844  1
  La3+  La8  1  0.24823299  0.13946957  0.57051965  1
  La3+  La9  1  0.11875811  0.76586817  0.42634732  1
  La3+  La10  1  0.50076948  0.88315378  0.56816134  1
  La3+  La11  1  0.62046672  0.77412618  0.43067300  1
  Ce3+  Ce12  1  0.00838096  0.88232071  0.06009060  1
  Ce3+  Ce13  1  0.24764305  0.38735001  0.55973026  1
  Ce3+  Ce14  1  0.38288555  0.00392656  0.94213473  1
  Ce3+  Ce15  1  0.63335074  0.50828852  0.93798306  1
  Ce3+  Ce16  1  0.50020955  0.64072665  0.56280993  1
  Ce3+  Ce17  1  0.12199483  0.01792258  0.44328916  1
  Ce3+  Ce18  1  0.13396828  0.75224697  0.94608030  1
  Ce3+  Ce19  1  0.25579577  0.13274010  0.05521913  1
  Ce3+  Ce20  1  0.63460068  0.75644558  0.94353817  1
  Ce3+  Ce21  1  0.88284875  0.75457366  0.94734827  1
  Ce3+  Ce22  1  0.50939742  0.13000963  0.05129763  1
  Ce3+  Ce23  1  0.75115980  0.63431471  0.54884286  1
  Ce3+  Ce24  1  0.87667773  0.76596324  0.43327242  1
  Ce3+  Ce25  1  0.25633142  0.88214917  0.05932613  1
  Pr3+  Pr26  1  0.89056687  0.26365899  0.91928180  1
  Pr3+  Pr27  1  -0.00050656  0.37967094  0.07101503  1
  Pr3+  Pr28  1  0.13119657  0.00767509  0.93640207  1
  Pr3+  Pr29  1  -0.00402686  0.88872096  0.56440918  1
  Pr3+  Pr30  1  0.87333470  0.51105305  0.43193616  1
  Pr3+  Pr31  1  0.75768037  0.87852996  0.06586323  1
  Pr3+  Pr32  1  0.62807386  0.02085194  0.44063128  1
  Pr3+  Pr33  1  0.76017683  0.37602194  0.05453340  1
  Pr3+  Pr34  1  0.00961549  0.62803717  0.07095730  1
  Pr3+  Pr35  1  0.38299509  0.76415953  0.92853666  1
  Pr3+  Pr36  1  0.75271143  0.62918356  0.07372145  1
  Pr3+  Pr37  1  0.63482485  0.25591177  0.93503309  1
  Pr3+  Pr38  1  0.37231661  0.50987928  0.43990681  1
  Nd3+  Nd39  1  0.26187784  0.37420133  0.07489792  1
  Nd3+  Nd40  1  0.87346018  0.02000458  0.45209246  1
  Nd3+  Nd41  1  0.37560045  0.00745300  0.43639449  1
  Nd3+  Nd42  1  0.63352728  0.00777744  0.93025593  1
  Nd3+  Nd43  1  0.12130830  0.26198925  0.44433119  1
  Nd3+  Nd44  1  0.38324975  0.50493362  0.94472584  1
  Nd3+  Nd45  1  0.87642035  0.26519477  0.44946565  1
  Nd3+  Nd46  1  0.00972662  0.39840314  0.59929840  1
  Nd3+  Nd47  1  0.88584577  0.50862305  0.94096501  1
  Nd3+  Nd48  1  0.24643914  0.88627652  0.55005100  1
  Nd3+  Nd49  1  0.50784806  0.88308298  0.06088429  1
  Nd3+  Nd50  1  0.62045756  0.51587014  0.43721056  1
  Nd3+  Nd51  1  0.50968102  0.37750313  0.06560032  1
  Sm3+  Sm52  1  0.76832821  0.12480670  0.05752438  1
  Sm3+  Sm53  1  0.49612117  0.13046236  0.56999645  1
  Sm3+  Sm54  1  0.26164821  0.63088940  0.06387807  1
  Sm3+  Sm55  1  0.38023071  0.25799873  0.93269377  1
  Sm3+  Sm56  1  0.74924201  0.88968741  0.56104244  1
  Sm3+  Sm57  1  0.49935572  0.38684419  0.55189480  1
  Sm3+  Sm58  1  0.62636836  0.26041386  0.44095806  1
  Sm3+  Sm59  1  0.50473686  0.63066594  0.05304671  1
  Sm3+  Sm60  1  -0.00439179  0.63510918  0.55632997  1
  Sm3+  Sm61  1  0.13642225  0.50745960  0.95294705  1
  Sm3+  Sm62  1  0.75200510  0.38708270  0.55796370  1
  Sm3+  Sm63  1  0.12313425  0.51280470  0.43748014  1
  Bi2+  Bi64  1  -0.01255311  0.11795677  0.32625626  1
  Bi2+  Bi65  1  -0.00415875  0.11800669  0.78650182  1
  Bi2+  Bi66  1  -0.09014826  0.41647218  0.30345506  1
  Bi2+  Bi67  1  -0.00103753  0.37881950  0.78271240  1
  Bi2+  Bi68  1  0.00561167  0.63879663  0.29970336  1
  Bi2+  Bi69  1  0.00816480  0.59445265  0.81244177  1
  Bi2+  Bi70  1  0.03393009  0.87729675  0.23710931  1
  Bi2+  Bi71  1  0.00726372  0.78365481  0.78674141  1
  Bi2+  Bi72  1  0.22693427  0.11313990  0.31307637  1
  Bi2+  Bi73  1  0.23338031  0.12292372  0.80231670  1
  Bi2+  Bi74  1  0.33528425  0.35314372  0.31330111  1
  Bi2+  Bi75  1  0.32377768  0.35566289  0.76774065  1
  Bi2+  Bi76  1  0.24872326  0.61053047  0.28254864  1
  Bi2+  Bi77  1  0.24701229  0.62447530  0.81515845  1
  Bi2+  Bi78  1  0.27363547  0.87628044  0.28331702  1
  Bi2+  Bi79  1  0.24027452  0.86318473  0.75293374  1
  Bi2+  Bi80  1  0.51154026  0.11393658  0.29520255  1
  Bi2+  Bi81  1  0.42889318  0.14304691  0.78859513  1
  Bi2+  Bi82  1  0.52172589  0.33200026  0.28892417  1
  Bi2+  Bi83  1  0.50241641  0.32172521  0.81296914  1
  Bi2+  Bi84  1  0.50919597  0.51720502  0.22701475  1
  Bi2+  Bi85  1  0.48651943  0.58560503  0.79036106  1
  Bi2+  Bi86  1  0.53091118  0.85295887  0.29213792  1
  Bi2+  Bi87  1  0.49285428  0.85388716  0.79793248  1
  Bi2+  Bi88  1  0.70391152  0.13004135  0.26860870  1
  Bi2+  Bi89  1  0.73385261  0.11302425  0.79088193  1
  Bi2+  Bi90  1  0.73217410  0.33654116  0.29836979  1
  Bi2+  Bi91  1  0.69781497  0.45600961  0.75643535  1
  Bi2+  Bi92  1  0.69423641  0.55463283  0.26583259  1
  Bi2+  Bi93  1  0.81179620  0.57924184  0.82112441  1
  Bi2+  Bi94  1  0.78479226  0.86480147  0.30653690  1
  Bi2+  Bi95  1  0.74398078  0.85930170  0.80085972  1
  Bi2+  Bi96  1  0.20980953  0.00447979  0.21174781  1
  Bi2+  Bi97  1  0.09818801  -0.04728308  0.69532177  1
  Bi2+  Bi98  1  0.14044463  0.25076167  0.22240710  1
  Bi2+  Bi99  1  0.17189416  0.24058693  0.71549976  1
  Bi2+  Bi100  1  0.06233818  0.47601402  0.24051414  1
  Bi2+  Bi101  1  0.15874462  0.46538235  0.73910218  1
  Bi2+  Bi102  1  0.06819495  0.70178564  0.19445444  1
  Bi2+  Bi103  1  0.10273966  0.65414237  0.71592958  1
  Bi2+  Bi104  1  0.40472882  0.04387422  0.20791566  1
  Bi2+  Bi105  1  0.34150774  0.01910013  0.71684356  1
  Bi2+  Bi106  1  0.37209634  0.23909836  0.22302689  1
  Bi2+  Bi107  1  0.35655893  0.21094385  0.68427907  1
  Bi2+  Bi108  1  0.32319852  0.45937916  0.21329509  1
  Bi2+  Bi109  1  0.41807409  0.50018599  0.69988308  1
  Bi2+  Bi110  1  0.38813378  0.74242998  0.17421482  1
  Bi2+  Bi111  1  0.35171420  0.73709213  0.69779447  1
  Bi2+  Bi112  1  0.61410326  -0.00539416  0.20357732  1
  Bi2+  Bi113  1  0.60484443  0.00879282  0.70130159  1
  Bi2+  Bi114  1  0.64579529  0.27720240  0.19967645  1
  Bi2+  Bi115  1  0.60689585  0.29276019  0.71558048  1
  Bi2+  Bi116  1  0.65594761  0.46317182  0.15929750  1
  Bi2+  Bi117  1  0.60050158  0.56592407  0.67869275  1
  Bi2+  Bi118  1  0.67995375  0.74529353  0.24108944  1
  Bi2+  Bi119  1  0.61293724  0.72824061  0.74134095  1
  Bi2+  Bi120  1  0.85761985  -0.05446917  0.21385463  1
  Bi2+  Bi121  1  0.84257405  -0.06935060  0.69791080  1
  Bi2+  Bi122  1  0.89088685  0.25494484  0.21167445  1
  Bi2+  Bi123  1  0.85037683  0.29790360  0.72777183  1
  Bi2+  Bi124  1  0.84545130  0.52358383  0.19311898  1
  Bi2+  Bi125  1  0.87125733  0.51475340  0.70847172  1
  Bi2+  Bi126  1  0.87784964  0.73712004  0.20869704  1
  Bi2+  Bi127  1  0.82357833  0.71198524  0.73431040  1
  S2-  S128  1  0.01142855  0.13417882  0.23175346  1
  S2-  S129  1  -0.03270672  0.05136371  0.68714658  1
  S2-  S130  1  0.02750528  0.28134733  0.15331606  1
  S2-  S131  1  -0.02247676  0.27282769  0.66661857  1
  S2-  S132  1  0.00621775  0.51473279  0.14879822  1
  S2-  S133  1  0.00035450  0.55638300  0.64500958  1
  S2-  S134  1  0.00047090  0.96115476  0.14736965  1
  S2-  S135  1  -0.01811029  0.83641312  0.66040694  1
  S2-  S136  1  0.18850282  0.14103797  0.14580314  1
  S2-  S137  1  0.15032300  0.10909727  0.65331275  1
  S2-  S138  1  0.19066306  0.38883569  0.16879801  1
  S2-  S139  1  0.16938772  0.39383492  0.64721282  1
  S2-  S140  1  0.27114922  0.61741732  0.16228387  1
  S2-  S141  1  0.24840883  0.62464583  0.65779804  1
  S2-  S142  1  0.26005713  0.85945134  0.15628139  1
  S2-  S143  1  0.23567755  0.85739116  0.64932010  1
  S2-  S144  1  0.52260103  0.12148302  0.14842393  1
  S2-  S145  1  0.59125364  0.15832830  0.65118624  1
  S2-  S146  1  0.40056263  0.35248086  0.14220729  1
  S2-  S147  1  0.49979220  0.37678637  0.65044120  1
  S2-  S148  1  0.51502252  0.63325223  0.15126480  1
  S2-  S149  1  0.48619014  0.75068446  0.64135146  1
  S2-  S150  1  0.50839376  0.87044926  0.16009562  1
  S2-  S151  1  0.47474369  0.99406046  0.64601298  1
  S2-  S152  1  0.85772146  0.15494693  0.14025152  1
  S2-  S153  1  0.76638100  0.07737953  0.68602281  1
  S2-  S154  1  0.84883371  0.37551325  0.14216617  1
  S2-  S155  1  0.74349804  0.31033359  0.64694907  1
  S2-  S156  1  0.73753795  0.75674552  0.14486013  1
  S2-  S157  1  0.76244482  0.62747444  0.64578806  1
  S2-  S158  1  0.74176412  0.99674761  0.13973021  1
  S2-  S159  1  0.69158955  0.88173863  0.65392398  1
  S2-  S160  1  0.11483180  -0.00519797  0.34535968  1
  S2-  S161  1  0.10702798  0.01769685  0.83431078  1
  S2-  S162  1  0.12492418  0.23711451  0.34412244  1
  S2-  S163  1  0.02957582  0.25131647  0.84831927  1
  S2-  S164  1  0.13208214  0.51689835  0.33781773  1
  S2-  S165  1  0.14055265  0.50288789  0.85415551  1
  S2-  S166  1  0.21308383  0.74950236  0.34015671  1
  S2-  S167  1  0.15153810  0.76669123  0.84903593  1
  S2-  S168  1  0.39037069  -0.09473001  0.35161997  1
  S2-  S169  1  0.38548588  -0.07356245  0.85543345  1
  S2-  S170  1  0.37970350  0.13059078  0.36191443  1
  S2-  S171  1  0.26406828  0.27423951  0.85873129  1
  S2-  S172  1  0.36811431  0.56579219  0.34380691  1
  S2-  S173  1  0.35689902  0.51270357  0.84621299  1
  S2-  S174  1  0.38334172  0.74381592  0.27070497  1
  S2-  S175  1  0.39218452  0.72289280  0.83017465  1
  S2-  S176  1  0.63566425  -0.08741158  0.35642481  1
  S2-  S177  1  0.62850288  -0.02768185  0.83112259  1
  S2-  S178  1  0.63997841  0.14809516  0.36636784  1
  S2-  S179  1  0.60713223  0.19062897  0.84245050  1
  S2-  S180  1  0.62360471  0.45958202  0.34354612  1
  S2-  S181  1  0.59310313  0.47777667  0.84448325  1
  S2-  S182  1  0.55014537  0.71320537  0.34543249  1
  S2-  S183  1  0.62611878  0.74834247  0.84645397  1
  S2-  S184  1  0.86705659  0.00969692  0.35113777  1
  S2-  S185  1  0.87515305  0.03823790  0.82731037  1
  S2-  S186  1  0.88078979  0.25071470  0.34834875  1
  S2-  S187  1  0.80425052  0.24031849  0.82684762  1
  S2-  S188  1  0.85927325  0.57421977  0.33761553  1
  S2-  S189  1  0.89332965  0.41986797  0.85564345  1
  S2-  S190  1  0.98406659  0.77557168  0.35671661  1
  S2-  S191  1  0.88934973  0.83281873  0.85939627  1
  S2-  S192  1  -0.00177197  0.14120541  0.46244754  1
  S2-  S193  1  0.00659787  0.12821798  0.94364206  1
  S2-  S194  1  0.00146660  0.38992329  0.44188473  1
  S2-  S195  1  0.01300811  0.38904153  0.96041954  1
  S2-  S196  1  -0.00195055  0.63316305  0.45267930  1
  S2-  S197  1  0.00981100  0.63016009  0.96048675  1
  S2-  S198  1  -0.00431571  0.89391449  0.45819339  1
  S2-  S199  1  0.01289207  0.87748831  0.95508520  1
  S2-  S200  1  0.24588302  0.13870004  0.46157569  1
  S2-  S201  1  0.26067286  0.12888280  0.95058239  1
  S2-  S202  1  0.24581837  0.38710978  0.45236791  1
  S2-  S203  1  0.26045817  0.38466742  0.96408701  1
  S2-  S204  1  0.24666475  0.63612468  0.44882295  1
  S2-  S205  1  0.26234393  0.63225223  0.95804828  1
  S2-  S206  1  0.24300077  0.89057120  0.44720449  1
  S2-  S207  1  0.25528505  0.88089051  0.95364310  1
  S2-  S208  1  0.50051615  0.14072732  0.46496344  1
  S2-  S209  1  0.50347487  0.13092386  0.94587460  1
  S2-  S210  1  0.50018249  0.38426103  0.44717563  1
  S2-  S211  1  0.50626369  0.37806435  0.95706219  1
  S2-  S212  1  0.49520077  0.63645758  0.45546693  1
  S2-  S213  1  0.50538393  0.63291832  0.94824154  1
  S2-  S214  1  0.50478708  0.89696724  0.46101457  1
  S2-  S215  1  0.51129700  0.88177359  0.95403981  1
  S2-  S216  1  0.75306540  0.14601119  0.47016731  1
  S2-  S217  1  0.75790496  0.12856420  0.94856792  1
  S2-  S218  1  0.74646436  0.38798957  0.45259723  1
  S2-  S219  1  0.75512048  0.38306339  0.94801670  1
  S2-  S220  1  0.74637400  0.64013908  0.44278106  1
  S2-  S221  1  0.75699104  0.63140144  0.96098295  1
  S2-  S222  1  0.75551255  0.89079019  0.45811764  1
  S2-  S223  1  0.75488029  0.88089342  0.95672816  1
  S2-  S224  1  0.13224287  0.00722590  0.04433278  1
  S2-  S225  1  0.11941026  0.01288938  0.54935594  1
  S2-  S226  1  0.13313237  0.25655630  0.04326623  1
  S2-  S227  1  0.11925482  0.26670590  0.55103188  1
  S2-  S228  1  0.14179431  0.50629084  0.05532659  1
  S2-  S229  1  0.12070348  0.51165230  0.54196141  1
  S2-  S230  1  0.13500564  0.75283603  0.05308161  1
  S2-  S231  1  0.11644594  0.76022544  0.54212273  1
  S2-  S232  1  0.38172384  0.00587691  0.04916647  1
  S2-  S233  1  0.36727256  0.01363941  0.54442493  1
  S2-  S234  1  0.38396408  0.25192088  0.03794606  1
  S2-  S235  1  0.37583400  0.26361375  0.54476404  1
  S2-  S236  1  0.38462809  0.50601782  0.05111227  1
  S2-  S237  1  0.37501441  0.51142376  0.54771055  1
  S2-  S238  1  0.38319327  0.75674541  0.04181306  1
  S2-  S239  1  0.36945101  0.76348080  0.54304984  1
  S2-  S240  1  0.63140696  0.00591903  0.03754437  1
  S2-  S241  1  0.62924414  0.01620169  0.54936599  1
  S2-  S242  1  0.63536297  0.25153244  0.04410131  1
  S2-  S243  1  0.62201600  0.26790198  0.54371949  1
  S2-  S244  1  0.62906027  0.50644075  0.04270591  1
  S2-  S245  1  0.62481686  0.50873622  0.54375990  1
  S2-  S246  1  0.62662691  0.75381331  0.04701918  1
  S2-  S247  1  0.63129687  0.76083924  0.54153827  1
  S2-  S248  1  0.88526648  0.00130396  0.03821357  1
  S2-  S249  1  0.87134967  0.01839182  0.56022754  1
  S2-  S250  1  0.88218791  0.25472307  0.03178477  1
  S2-  S251  1  0.88212441  0.27101053  0.55405014  1
  S2-  S252  1  0.87808098  0.51147300  0.04484454  1
  S2-  S253  1  0.87700296  0.50634955  0.54143089  1
  S2-  S254  1  0.88601378  0.75278891  0.05253960  1
  S2-  S255  1  0.87333237  0.76096427  0.54369496  1
