# generated using pymatgen
data_La12Ce14Pr13Nd13Sm12(BiS2)64
_symmetry_space_group_name_H-M   'P 1'
_cell_length_a   16.08593283
_cell_length_b   16.07733983
_cell_length_c   27.46796429
_cell_angle_alpha   89.93775230
_cell_angle_beta   90.30608847
_cell_angle_gamma   89.86814630
_symmetry_Int_Tables_number   1
_chemical_formula_structural   La12Ce14Pr13Nd13Sm12(BiS2)64
_chemical_formula_sum   'La12 Ce14 Pr13 Nd13 Sm12 Bi64 S128'
_cell_volume   7103.61322772
_cell_formula_units_Z   1
loop_
 _symmetry_equiv_pos_site_id
 _symmetry_equiv_pos_as_xyz
  1  'x, y, z'
loop_
 _atom_type_symbol
 _atom_type_oxidation_number
  La3+  3.0
  Ce3+  3.0
  Pr3+  3.0
  Nd3+  3.0
  Sm3+  3.0
  Bi2+  2.0
  S2-  -2.0
loop_
 _atom_site_type_symbol
 _atom_site_label
 _atom_site_symmetry_multiplicity
 _atom_site_fract_x
 _atom_site_fract_y
 _atom_site_fract_z
 _atom_site_occupancy
  La3+  La0  1  0.11776948  0.02547678  0.92415470  1
  La3+  La1  1  0.86011276  0.03393773  0.89076768  1
  La3+  La2  1  0.63559558  0.00094107  0.43084804  1
  La3+  La3  1  0.01316925  0.11884481  0.57810185  1
  La3+  La4  1  0.87184838  0.77331417  0.89103465  1
  La3+  La5  1  0.49812500  0.89064526  0.07200058  1
  La3+  La6  1  0.90447399  0.49370789  0.39560261  1
  La3+  La7  1  0.86060871  0.51779427  0.92516027  1
  La3+  La8  1  0.24465402  0.64277915  0.06727534  1
  La3+  La9  1  0.12981631  -0.00358586  0.43440610  1
  La3+  La10  1  0.76876433  0.37506392  0.56375384  1
  La3+  La11  1  0.13929198  0.24923439  0.43877705  1
  Ce3+  Ce12  1  0.01184269  0.86584399  0.57244966  1
  Ce3+  Ce13  1  -0.00965338  0.39286157  0.06093600  1
  Ce3+  Ce14  1  0.38375806  0.24405198  0.43196808  1
  Ce3+  Ce15  1  0.36695451  0.26492122  0.95698473  1
  Ce3+  Ce16  1  0.61404497  0.26407692  0.94469882  1
  Ce3+  Ce17  1  0.74245555  0.39251767  0.06114042  1
  Ce3+  Ce18  1  0.49447160  0.64296000  0.06181288  1
  Ce3+  Ce19  1  0.26928092  0.62181488  0.55505342  1
  Ce3+  Ce20  1  0.74047555  0.13782899  0.05869327  1
  Ce3+  Ce21  1  0.64527211  0.50516354  0.42904655  1
  Ce3+  Ce22  1  0.51519584  0.87431839  0.56154880  1
  Ce3+  Ce23  1  0.61962273  0.77081770  0.93255978  1
  Ce3+  Ce24  1  0.89023953  0.00007645  0.44771758  1
  Ce3+  Ce25  1  0.86579873  0.26547839  0.94852364  1
  Pr3+  Pr26  1  0.76200086  0.12377207  0.56643380  1
  Pr3+  Pr27  1  0.88991652  0.74424826  0.43441811  1
  Pr3+  Pr28  1  -0.01161537  0.64441149  0.05541592  1
  Pr3+  Pr29  1  0.26472091  0.87491435  0.56453779  1
  Pr3+  Pr30  1  0.51509707  0.62263360  0.55982605  1
  Pr3+  Pr31  1  0.51218738  0.12549173  0.57040430  1
  Pr3+  Pr32  1  -0.00989796  0.89309298  0.05143760  1
  Pr3+  Pr33  1  0.63714963  0.75167912  0.43247384  1
  Pr3+  Pr34  1  0.26176856  0.12067571  0.57600137  1
  Pr3+  Pr35  1  0.49334281  0.39645052  0.07071057  1
  Pr3+  Pr36  1  0.76377081  0.62450437  0.56246237  1
  Pr3+  Pr37  1  0.61367857  0.01597840  0.93143356  1
  Pr3+  Pr38  1  0.24410151  0.13137489  0.07713517  1
  Nd3+  Nd39  1  0.24561916  0.39601471  0.07191917  1
  Nd3+  Nd40  1  0.36478904  0.02658249  0.93040495  1
  Nd3+  Nd41  1  0.64041126  0.25050053  0.43629852  1
  Nd3+  Nd42  1  0.11787396  0.26803712  0.94783938  1
  Nd3+  Nd43  1  0.39300102  0.50429810  0.42697247  1
  Nd3+  Nd44  1  0.74197157  0.64325410  0.05768513  1
  Nd3+  Nd45  1  0.37129147  0.52125890  0.93011237  1
  Nd3+  Nd46  1  0.27279787  0.37342853  0.56697014  1
  Nd3+  Nd47  1  0.51745283  0.37600212  0.55974286  1
  Nd3+  Nd48  1  0.38689595  0.75520397  0.43361757  1
  Nd3+  Nd49  1  0.50223064  0.13680087  0.07563538  1
  Nd3+  Nd50  1  0.13576990  0.74660633  0.44377159  1
  Nd3+  Nd51  1  -0.00643326  0.13892443  0.06152467  1
  Sm3+  Sm52  1  0.61589192  0.51813720  0.93692347  1
  Sm3+  Sm53  1  0.11710732  0.51805798  0.94639211  1
  Sm3+  Sm54  1  0.01525114  0.37503206  0.56182636  1
  Sm3+  Sm55  1  0.76310622  0.87161818  0.55377882  1
  Sm3+  Sm56  1  0.38470156  0.00157880  0.43940314  1
  Sm3+  Sm57  1  0.24354276  0.89468946  0.04656199  1
  Sm3+  Sm58  1  0.14181580  0.49644363  0.44831435  1
  Sm3+  Sm59  1  0.11119837  0.76834934  0.94044164  1
  Sm3+  Sm60  1  0.01344039  0.62615426  0.56165255  1
  Sm3+  Sm61  1  0.74455672  0.89179498  0.04422093  1
  Sm3+  Sm62  1  0.89368389  0.24851127  0.43901159  1
  Sm3+  Sm63  1  0.36891185  0.76669354  0.93850655  1
  Bi2+  Bi64  1  0.02896242  0.10958018  0.29788677  1
  Bi2+  Bi65  1  -0.00046147  0.14566298  0.78458306  1
  Bi2+  Bi66  1  0.05969788  0.36460300  0.29256586  1
  Bi2+  Bi67  1  -0.07629454  0.35984621  0.79569129  1
  Bi2+  Bi68  1  0.02135399  0.68787369  0.28033324  1
  Bi2+  Bi69  1  -0.00476002  0.54764531  0.77975082  1
  Bi2+  Bi70  1  -0.00638651  0.88104290  0.28550590  1
  Bi2+  Bi71  1  0.02849105  0.87997071  0.77229550  1
  Bi2+  Bi72  1  0.27683331  0.13571387  0.29012697  1
  Bi2+  Bi73  1  0.25438085  0.14747141  0.79876451  1
  Bi2+  Bi74  1  0.27531142  0.35793220  0.27239073  1
  Bi2+  Bi75  1  0.20045712  0.36504978  0.81820544  1
  Bi2+  Bi76  1  0.25564614  0.69432136  0.30179171  1
  Bi2+  Bi77  1  0.28625692  0.54431407  0.78610324  1
  Bi2+  Bi78  1  0.24819503  0.86772921  0.23936621  1
  Bi2+  Bi79  1  0.31750718  0.88260513  0.78491606  1
  Bi2+  Bi80  1  0.52291802  0.11176410  0.28595552  1
  Bi2+  Bi81  1  0.49030690  0.08347788  0.81286580  1
  Bi2+  Bi82  1  0.47294614  0.37677725  0.32288973  1
  Bi2+  Bi83  1  0.40185247  0.38295585  0.79926467  1
  Bi2+  Bi84  1  0.52261001  0.55948410  0.28439155  1
  Bi2+  Bi85  1  0.47898153  0.63403346  0.79534522  1
  Bi2+  Bi86  1  0.49416676  0.80929813  0.30548641  1
  Bi2+  Bi87  1  0.48499734  0.88697017  0.84764348  1
  Bi2+  Bi88  1  0.74905384  0.01977527  0.30749157  1
  Bi2+  Bi89  1  0.72669894  0.17192275  0.79095878  1
  Bi2+  Bi90  1  0.66762960  0.33534640  0.31136300  1
  Bi2+  Bi91  1  0.74647973  0.42888436  0.75783394  1
  Bi2+  Bi92  1  0.75427688  0.62041124  0.28730507  1
  Bi2+  Bi93  1  0.73765971  0.61375648  0.78607934  1
  Bi2+  Bi94  1  0.79910444  0.83130302  0.27733132  1
  Bi2+  Bi95  1  0.64690002  0.87655527  0.78338480  1
  Bi2+  Bi96  1  0.11077624  0.00194197  0.18310125  1
  Bi2+  Bi97  1  0.14396321  0.02515242  0.71188187  1
  Bi2+  Bi98  1  0.11722588  0.24790479  0.18977410  1
  Bi2+  Bi99  1  0.07748942  0.30404641  0.73306006  1
  Bi2+  Bi100  1  0.14611135  0.54151638  0.26062229  1
  Bi2+  Bi101  1  0.14429914  0.50290809  0.70704772  1
  Bi2+  Bi102  1  0.17328858  0.70394447  0.19066578  1
  Bi2+  Bi103  1  0.17528565  0.75557672  0.76288728  1
  Bi2+  Bi104  1  0.42963381  -0.04374013  0.23940547  1
  Bi2+  Bi105  1  0.39474847  0.02606721  0.70829806  1
  Bi2+  Bi106  1  0.43899958  0.25718390  0.23118509  1
  Bi2+  Bi107  1  0.31552275  0.27194542  0.71786908  1
  Bi2+  Bi108  1  0.38057669  0.51943177  0.20867346  1
  Bi2+  Bi109  1  0.40322228  0.56209135  0.67594649  1
  Bi2+  Bi110  1  0.36862938  0.71932817  0.20048245  1
  Bi2+  Bi111  1  0.33248585  0.76064952  0.69299522  1
  Bi2+  Bi112  1  0.61978615  -0.01584054  0.20471747  1
  Bi2+  Bi113  1  0.60309153  0.03018224  0.71667606  1
  Bi2+  Bi114  1  0.68466158  0.23918010  0.21293402  1
  Bi2+  Bi115  1  0.53458951  0.25279336  0.75881408  1
  Bi2+  Bi116  1  0.63219970  0.44453118  0.21401915  1
  Bi2+  Bi117  1  0.56179306  0.45718285  0.70787134  1
  Bi2+  Bi118  1  0.64936737  0.75075867  0.20251518  1
  Bi2+  Bi119  1  0.53098036  0.75541627  0.71602469  1
  Bi2+  Bi120  1  0.88333416  0.03823987  0.22648682  1
  Bi2+  Bi121  1  0.84454425  -0.00797447  0.68750086  1
  Bi2+  Bi122  1  0.82881548  0.19892860  0.28945805  1
  Bi2+  Bi123  1  0.80616870  0.26941988  0.70401595  1
  Bi2+  Bi124  1  0.89825266  0.48597101  0.20320267  1
  Bi2+  Bi125  1  0.95481177  0.51810979  0.67431989  1
  Bi2+  Bi126  1  0.89900859  0.75160929  0.19098126  1
  Bi2+  Bi127  1  0.87097731  0.74721885  0.69918330  1
  S2-  S128  1  -0.01133405  0.13403101  0.16121861  1
  S2-  S129  1  -0.12354945  0.13703196  0.64719569  1
  S2-  S130  1  0.00487153  0.38382793  0.15980352  1
  S2-  S131  1  -0.09868759  0.36608784  0.63898457  1
  S2-  S132  1  -0.02030320  0.61499821  0.15443321  1
  S2-  S133  1  0.00539401  0.73447857  0.64183498  1
  S2-  S134  1  0.00192212  0.87293741  0.15196749  1
  S2-  S135  1  0.00981780  0.96456225  0.65446475  1
  S2-  S136  1  0.23206451  0.12828175  0.18127969  1
  S2-  S137  1  0.13657304  0.14499200  0.65031067  1
  S2-  S138  1  0.24922755  0.32625484  0.16488872  1
  S2-  S139  1  0.19017881  0.35936196  0.65774565  1
  S2-  S140  1  0.25057021  0.52823728  0.14225865  1
  S2-  S141  1  0.23662381  0.62807170  0.65038933  1
  S2-  S142  1  0.24190354  0.94068010  0.14014802  1
  S2-  S143  1  0.26285395  0.97348761  0.64793051  1
  S2-  S144  1  0.47131117  0.01152398  0.14467152  1
  S2-  S145  1  0.38994313  0.15854514  0.64672001  1
  S2-  S146  1  0.53849782  0.31987944  0.16149935  1
  S2-  S147  1  0.40240710  0.40484436  0.63601658  1
  S2-  S148  1  0.49462380  0.53195104  0.13884115  1
  S2-  S149  1  0.57535258  0.61943171  0.65504968  1
  S2-  S150  1  0.50661265  0.75513712  0.14025671  1
  S2-  S151  1  0.50922606  0.91152540  0.65690266  1
  S2-  S152  1  0.65008470  0.12518820  0.14164455  1
  S2-  S153  1  0.64107755  0.12624887  0.64232298  1
  S2-  S154  1  0.76984538  0.39583522  0.15919053  1
  S2-  S155  1  0.64014807  0.37990533  0.63770530  1
  S2-  S156  1  0.73730830  0.63574035  0.15899052  1
  S2-  S157  1  0.80096435  0.61302006  0.66256965  1
  S2-  S158  1  0.69980628  0.88533796  0.14120690  1
  S2-  S159  1  0.75867651  0.84489849  0.65108411  1
  S2-  S160  1  0.17600778  0.04240538  0.33861512  1
  S2-  S161  1  0.01309963  0.00452000  0.84373984  1
  S2-  S162  1  0.25079638  0.25611925  0.35888995  1
  S2-  S163  1  0.12003496  0.18771938  0.86077891  1
  S2-  S164  1  0.07850845  0.49711510  0.35711068  1
  S2-  S165  1  0.13195243  0.51631192  0.84922243  1
  S2-  S166  1  0.11528855  0.79257595  0.34837962  1
  S2-  S167  1  0.06940582  0.76224270  0.84611991  1
  S2-  S168  1  0.38073490  -0.11621344  0.36181029  1
  S2-  S169  1  0.24788189  0.00568151  0.85237571  1
  S2-  S170  1  0.39957274  0.11397336  0.36205717  1
  S2-  S171  1  0.37569505  0.17864750  0.87189694  1
  S2-  S172  1  0.31692148  0.46545820  0.33933475  1
  S2-  S173  1  0.50151519  0.50204699  0.85897605  1
  S2-  S174  1  0.40433700  0.65634190  0.34978911  1
  S2-  S175  1  0.35004223  0.65663426  0.86209180  1
  S2-  S176  1  0.61783956  -0.12612326  0.35552052  1
  S2-  S177  1  0.70209724  0.01710068  0.84361274  1
  S2-  S178  1  0.63630944  0.13155381  0.36035187  1
  S2-  S179  1  0.62269544  0.27060507  0.84662136  1
  S2-  S180  1  0.74601461  0.48112349  0.34895387  1
  S2-  S181  1  0.72036737  0.49752129  0.85629044  1
  S2-  S182  1  0.63312927  0.64089465  0.35157619  1
  S2-  S183  1  0.70020595  0.74769907  0.84648205  1
  S2-  S184  1  0.97696006  -0.00892634  0.36454113  1
  S2-  S185  1  0.86248603  0.05433350  0.77357305  1
  S2-  S186  1  1.01351283  0.24336652  0.36400168  1
  S2-  S187  1  0.86905584  0.20961889  0.85666205  1
  S2-  S188  1  0.91099155  0.42551798  0.29456913  1
  S2-  S189  1  0.88231719  0.62188483  0.84188027  1
  S2-  S190  1  0.89053522  0.65068537  0.34852793  1
  S2-  S191  1  0.87715315  0.83494216  0.79340127  1
  S2-  S192  1  0.01235140  0.12364914  0.46619639  1
  S2-  S193  1  -0.01345989  0.13983869  0.95733383  1
  S2-  S194  1  0.01033459  0.38035466  0.45878968  1
  S2-  S195  1  -0.00823485  0.39319602  0.95188512  1
  S2-  S196  1  0.01470216  0.61989393  0.45735142  1
  S2-  S197  1  -0.00877021  0.64182982  0.95016827  1
  S2-  S198  1  0.01033330  0.86699562  0.46330205  1
  S2-  S199  1  -0.01524491  0.88958857  0.94574548  1
  S2-  S200  1  0.25923337  0.11788470  0.46362165  1
  S2-  S201  1  0.24087727  0.14431220  0.96865918  1
  S2-  S202  1  0.26702456  0.37964496  0.45954946  1
  S2-  S203  1  0.24233492  0.39401432  0.95985008  1
  S2-  S204  1  0.26175573  0.62339228  0.44942066  1
  S2-  S205  1  0.23474507  0.64467476  0.95942614  1
  S2-  S206  1  0.25767714  0.87311585  0.45868005  1
  S2-  S207  1  0.24099931  0.88568102  0.94557998  1
  S2-  S208  1  0.51357920  0.12400470  0.46256500  1
  S2-  S209  1  0.49548166  0.14051640  0.96708177  1
  S2-  S210  1  0.51627749  0.37552746  0.44937888  1
  S2-  S211  1  0.49162593  0.38908381  0.96055705  1
  S2-  S212  1  0.51315918  0.62711470  0.45436655  1
  S2-  S213  1  0.49810201  0.64725877  0.95540657  1
  S2-  S214  1  0.51115877  0.87588875  0.45956916  1
  S2-  S215  1  0.48837024  0.89319937  0.95937166  1
  S2-  S216  1  0.77013320  0.12695292  0.45640896  1
  S2-  S217  1  0.74246599  0.13835677  0.95411841  1
  S2-  S218  1  0.77115938  0.37036650  0.45174136  1
  S2-  S219  1  0.74002661  0.38751852  0.95684654  1
  S2-  S220  1  0.76606894  0.62505043  0.45537027  1
  S2-  S221  1  0.74161219  0.64394822  0.95265294  1
  S2-  S222  1  0.76798527  0.87365284  0.44913713  1
  S2-  S223  1  0.75197877  0.89423075  0.94158338  1
  S2-  S224  1  0.11719374  0.01692744  0.03951476  1
  S2-  S225  1  0.13446902  -0.00713164  0.54509379  1
  S2-  S226  1  0.12039959  0.26588657  0.05373544  1
  S2-  S227  1  0.13979872  0.25579382  0.54623187  1
  S2-  S228  1  0.11360642  0.51632875  0.04881991  1
  S2-  S229  1  0.13846524  0.50007043  0.55142905  1
  S2-  S230  1  0.11852695  0.76904296  0.04502659  1
  S2-  S231  1  0.14330986  0.74627917  0.54810483  1
  S2-  S232  1  0.36684630  0.01679088  0.03937742  1
  S2-  S233  1  0.39083595  -0.00211260  0.54489010  1
  S2-  S234  1  0.37118554  0.26135133  0.06182296  1
  S2-  S235  1  0.39205907  0.25128197  0.53894838  1
  S2-  S236  1  0.36809743  0.51719632  0.03611959  1
  S2-  S237  1  0.39197913  0.50236184  0.53336227  1
  S2-  S238  1  0.36472022  0.77003376  0.04255270  1
  S2-  S239  1  0.39019882  0.74996285  0.54510676  1
  S2-  S240  1  0.61939745  0.01295993  0.03794808  1
  S2-  S241  1  0.64083397  -0.00519428  0.54135649  1
  S2-  S242  1  0.61828924  0.26840511  0.04845079  1
  S2-  S243  1  0.64044490  0.25015170  0.53902251  1
  S2-  S244  1  0.62131747  0.51611240  0.04236324  1
  S2-  S245  1  0.64100761  0.50154756  0.53684578  1
  S2-  S246  1  0.62185858  0.76791036  0.03709157  1
  S2-  S247  1  0.63886475  0.74980960  0.54280166  1
  S2-  S248  1  0.86529581  0.01654626  0.05757943  1
  S2-  S249  1  0.88517972  -0.00715636  0.54961449  1
  S2-  S250  1  0.86735541  0.26413181  0.05432741  1
  S2-  S251  1  0.89294387  0.24837756  0.54056425  1
  S2-  S252  1  0.86585361  0.51633237  0.04068774  1
  S2-  S253  1  0.89287917  0.50491493  0.54723153  1
  S2-  S254  1  0.86410550  0.76781383  0.04844622  1
  S2-  S255  1  0.88585618  0.74698438  0.54081880  1
