# generated using pymatgen
data_La12Ce14Pr13Nd13Sm12(BiS2)64
_symmetry_space_group_name_H-M   'P 1'
_cell_length_a   16.08985480
_cell_length_b   16.11591672
_cell_length_c   27.20632634
_cell_angle_alpha   90.08729690
_cell_angle_beta   90.26364992
_cell_angle_gamma   89.94554372
_symmetry_Int_Tables_number   1
_chemical_formula_structural   La12Ce14Pr13Nd13Sm12(BiS2)64
_chemical_formula_sum   'La12 Ce14 Pr13 Nd13 Sm12 Bi64 S128'
_cell_volume   7054.58948786
_cell_formula_units_Z   1
loop_
 _symmetry_equiv_pos_site_id
 _symmetry_equiv_pos_as_xyz
  1  'x, y, z'
loop_
 _atom_type_symbol
 _atom_type_oxidation_number
  La3+  3.0
  Ce3+  3.0
  Pr3+  3.0
  Nd3+  3.0
  Sm3+  3.0
  Bi2+  2.0
  S2-  -2.0
loop_
 _atom_site_type_symbol
 _atom_site_label
 _atom_site_symmetry_multiplicity
 _atom_site_fract_x
 _atom_site_fract_y
 _atom_site_fract_z
 _atom_site_occupancy
  La3+  La0  1  -0.00102118  0.89997348  0.06792182  1
  La3+  La1  1  0.36658088  0.49837790  0.41850960  1
  La3+  La2  1  0.00593998  0.39766564  0.07059350  1
  La3+  La3  1  0.62162302  -0.00004277  0.39072317  1
  La3+  La4  1  0.49758751  0.87347433  0.55265006  1
  La3+  La5  1  0.62549627  0.73887770  0.41897737  1
  La3+  La6  1  0.73911827  0.62847359  0.58115129  1
  La3+  La7  1  0.23957422  0.11985609  0.60350309  1
  La3+  La8  1  0.75621128  0.14661387  0.08246563  1
  La3+  La9  1  0.74954186  0.12422816  0.55975137  1
  La3+  La10  1  0.12099404  0.74322549  0.42823718  1
  La3+  La11  1  0.74883119  0.36951547  0.59645785  1
  Ce3+  Ce12  1  0.37857477  0.77123247  0.94571158  1
  Ce3+  Ce13  1  0.50039849  0.90058279  0.06653480  1
  Ce3+  Ce14  1  0.74610884  0.39626153  0.06796147  1
  Ce3+  Ce15  1  0.49944076  0.13921956  0.05843430  1
  Ce3+  Ce16  1  0.12498402  0.27288475  0.93890899  1
  Ce3+  Ce17  1  0.49594246  0.62375492  0.55374563  1
  Ce3+  Ce18  1  0.24920547  0.62622118  0.55743317  1
  Ce3+  Ce19  1  0.37278064  0.24442075  0.44488574  1
  Ce3+  Ce20  1  0.37386876  0.74851342  0.42398438  1
  Ce3+  Ce21  1  0.62157725  0.24470175  0.43835193  1
  Ce3+  Ce22  1  0.87273955  -0.00057737  0.43199648  1
  Ce3+  Ce23  1  0.12529272  0.01690525  0.93132313  1
  Ce3+  Ce24  1  0.50138812  0.39691886  0.05753801  1
  Ce3+  Ce25  1  0.74750963  0.86906468  0.55163096  1
  Pr3+  Pr26  1  0.00012787  0.37018049  0.57214141  1
  Pr3+  Pr27  1  0.37244210  -0.00255135  0.43662432  1
  Pr3+  Pr28  1  0.49700609  0.37333226  0.56158298  1
  Pr3+  Pr29  1  0.62357260  0.77239427  0.93582527  1
  Pr3+  Pr30  1  0.25434854  0.37649195  0.56845765  1
  Pr3+  Pr31  1  0.37477393  0.51853804  0.93313049  1
  Pr3+  Pr32  1  -0.00162646  0.12379319  0.55629177  1
  Pr3+  Pr33  1  -0.00348731  0.62229138  0.55910797  1
  Pr3+  Pr34  1  0.37159790  0.27086793  0.92285328  1
  Pr3+  Pr35  1  0.87006860  0.25566052  0.42727814  1
  Pr3+  Pr36  1  0.87514527  0.02188618  0.93373668  1
  Pr3+  Pr37  1  0.87793451  0.27048479  0.94129746  1
  Pr3+  Pr38  1  0.12037559  -0.00093660  0.43288523  1
  Nd3+  Nd39  1  0.25134013  0.89955353  0.05834415  1
  Nd3+  Nd40  1  0.38204934  0.02080349  0.91912150  1
  Nd3+  Nd41  1  0.00477336  0.15349649  0.06948138  1
  Nd3+  Nd42  1  0.62594312  0.52193804  0.94292587  1
  Nd3+  Nd43  1  0.49544286  0.65368014  0.09527724  1
  Nd3+  Nd44  1  0.62354926  0.49476108  0.44329017  1
  Nd3+  Nd45  1  0.11849140  0.48766043  0.43633981  1
  Nd3+  Nd46  1  0.12382972  0.24906916  0.44153123  1
  Nd3+  Nd47  1  0.49617998  0.12013203  0.55938126  1
  Nd3+  Nd48  1  0.63015940  0.26936098  0.94261592  1
  Nd3+  Nd49  1  0.24431788  0.86793587  0.56336995  1
  Nd3+  Nd50  1  0.26847403  0.38808400  0.06962391  1
  Nd3+  Nd51  1  0.25390283  0.64399669  0.06161120  1
  Sm3+  Sm52  1  0.74657606  0.64761887  0.05734461  1
  Sm3+  Sm53  1  0.25401142  0.14463040  0.05013650  1
  Sm3+  Sm54  1  0.86792239  0.74409194  0.43402084  1
  Sm3+  Sm55  1  0.87786029  0.76933796  0.94853136  1
  Sm3+  Sm56  1  0.12638628  0.52052550  0.94603169  1
  Sm3+  Sm57  1  0.86813084  0.49346549  0.45128601  1
  Sm3+  Sm58  1  0.74762268  0.89402883  0.05730488  1
  Sm3+  Sm59  1  -0.00312912  0.87225910  0.55117683  1
  Sm3+  Sm60  1  0.12452894  0.76827458  0.94818150  1
  Sm3+  Sm61  1  0.00141837  0.64155543  0.06808851  1
  Sm3+  Sm62  1  0.87616539  0.52105099  0.94676446  1
  Sm3+  Sm63  1  0.63068807  0.02225992  0.93658841  1
  Bi2+  Bi64  1  0.02345986  0.11452643  0.28014807  1
  Bi2+  Bi65  1  0.04988746  0.09256431  0.78166444  1
  Bi2+  Bi66  1  -0.01697987  0.49917371  0.31904052  1
  Bi2+  Bi67  1  -0.01106561  0.26885773  0.82209567  1
  Bi2+  Bi68  1  -0.00668089  0.69618833  0.32036843  1
  Bi2+  Bi69  1  -0.00386424  0.59404776  0.79848962  1
  Bi2+  Bi70  1  0.01682669  0.87850776  0.28439917  1
  Bi2+  Bi71  1  0.01361181  0.84652098  0.79999566  1
  Bi2+  Bi72  1  0.21518126  0.09865587  0.30654622  1
  Bi2+  Bi73  1  0.25402361  0.14067471  0.80282774  1
  Bi2+  Bi74  1  0.24107388  0.36104395  0.31041578  1
  Bi2+  Bi75  1  0.23374328  0.40650435  0.78311891  1
  Bi2+  Bi76  1  0.18751026  0.63825261  0.28695579  1
  Bi2+  Bi77  1  0.26384581  0.59734642  0.79826646  1
  Bi2+  Bi78  1  0.21270968  0.90601169  0.29517711  1
  Bi2+  Bi79  1  0.26357586  0.85744781  0.78993406  1
  Bi2+  Bi80  1  0.49052274  0.13218884  0.28540755  1
  Bi2+  Bi81  1  0.56866741  0.11905658  0.78829148  1
  Bi2+  Bi82  1  0.54711023  0.37247780  0.28863898  1
  Bi2+  Bi83  1  0.46070057  0.39334181  0.76963535  1
  Bi2+  Bi84  1  0.49977919  0.62230598  0.28619986  1
  Bi2+  Bi85  1  0.45797240  0.59224713  0.77522215  1
  Bi2+  Bi86  1  0.42154014  0.86989412  0.27826169  1
  Bi2+  Bi87  1  0.52414215  0.85987363  0.79212830  1
  Bi2+  Bi88  1  0.75522198  0.12809208  0.28062343  1
  Bi2+  Bi89  1  0.83680984  0.13290544  0.79412524  1
  Bi2+  Bi90  1  0.73909928  0.37362148  0.29045939  1
  Bi2+  Bi91  1  0.69278347  0.39523495  0.80386322  1
  Bi2+  Bi92  1  0.74991025  0.60865391  0.28890861  1
  Bi2+  Bi93  1  0.82447474  0.57734074  0.74717352  1
  Bi2+  Bi94  1  0.78526336  0.86697794  0.27896054  1
  Bi2+  Bi95  1  0.76634666  0.87411427  0.79904397  1
  Bi2+  Bi96  1  0.16083584  0.01843638  0.18850397  1
  Bi2+  Bi97  1  0.12886193  -0.06400579  0.72350300  1
  Bi2+  Bi98  1  0.14880854  0.21517130  0.21075998  1
  Bi2+  Bi99  1  0.09205772  0.26101852  0.71142119  1
  Bi2+  Bi100  1  0.09131097  0.48139825  0.22630167  1
  Bi2+  Bi101  1  0.11211927  0.46008026  0.68568425  1
  Bi2+  Bi102  1  0.07815716  0.67282217  0.19203885  1
  Bi2+  Bi103  1  0.11411710  0.65542498  0.71082877  1
  Bi2+  Bi104  1  0.35600019  0.01747477  0.21192381  1
  Bi2+  Bi105  1  0.40614928  -0.00333154  0.70002759  1
  Bi2+  Bi106  1  0.34624646  0.23625460  0.24012887  1
  Bi2+  Bi107  1  0.39375197  0.26413215  0.69526442  1
  Bi2+  Bi108  1  0.35560754  0.48586235  0.20307561  1
  Bi2+  Bi109  1  0.29793570  0.54420561  0.68122562  1
  Bi2+  Bi110  1  0.30362077  0.74808074  0.22166989  1
  Bi2+  Bi111  1  0.35132085  0.72853621  0.71469728  1
  Bi2+  Bi112  1  0.61188824  -0.03966310  0.19277022  1
  Bi2+  Bi113  1  0.64973433  -0.02317880  0.72226973  1
  Bi2+  Bi114  1  0.61893278  0.27152659  0.20299223  1
  Bi2+  Bi115  1  0.64176033  0.26106387  0.72548446  1
  Bi2+  Bi116  1  0.66716854  0.46716235  0.19567485  1
  Bi2+  Bi117  1  0.60715698  0.51222013  0.71157161  1
  Bi2+  Bi118  1  0.61852570  0.71841811  0.21626973  1
  Bi2+  Bi119  1  0.61058109  0.77776733  0.69984381  1
  Bi2+  Bi120  1  0.89820225  -0.02406509  0.21023122  1
  Bi2+  Bi121  1  0.84800066  -0.01144731  0.70880673  1
  Bi2+  Bi122  1  0.89746231  0.24208281  0.21280520  1
  Bi2+  Bi123  1  0.90662788  0.17420367  0.68120719  1
  Bi2+  Bi124  1  0.86455080  0.48781107  0.22253685  1
  Bi2+  Bi125  1  0.94360965  0.41618769  0.74703640  1
  Bi2+  Bi126  1  0.88648892  0.69522239  0.21581124  1
  Bi2+  Bi127  1  0.90103230  0.79444258  0.69924387  1
  S2-  S128  1  -0.10187206  0.11184903  0.14737129  1
  S2-  S129  1  0.07354692  0.12118486  0.64821549  1
  S2-  S130  1  0.01636488  0.28011560  0.14717679  1
  S2-  S131  1  -0.10096834  0.34695198  0.65455967  1
  S2-  S132  1  -0.00948050  0.52536062  0.14338138  1
  S2-  S133  1  -0.03234811  0.65187228  0.65760098  1
  S2-  S134  1  0.03832886  0.90025012  0.16582201  1
  S2-  S135  1  0.02274401  0.87706091  0.64936713  1
  S2-  S136  1  0.27723158  0.19938514  0.14277884  1
  S2-  S137  1  0.30137903  0.12066356  0.70739127  1
  S2-  S138  1  0.21597691  0.44099990  0.16114139  1
  S2-  S139  1  0.23370936  0.27658380  0.65320142  1
  S2-  S140  1  0.34026675  0.63683094  0.14893913  1
  S2-  S141  1  0.23843480  0.73617248  0.63636851  1
  S2-  S142  1  0.27453955  0.88481744  0.15687974  1
  S2-  S143  1  0.25687527  0.95957122  0.64880389  1
  S2-  S144  1  0.47844040  0.03026509  0.13602709  1
  S2-  S145  1  0.49149427  0.12999417  0.65988102  1
  S2-  S146  1  0.41001763  0.37886800  0.13920077  1
  S2-  S147  1  0.38706418  0.41106418  0.64067834  1
  S2-  S148  1  0.52534577  0.56046217  0.18126746  1
  S2-  S149  1  0.57569766  0.63524342  0.64249009  1
  S2-  S150  1  0.52093839  0.80031956  0.15021469  1
  S2-  S151  1  0.47453023  0.85043415  0.65277741  1
  S2-  S152  1  0.67118156  0.11054860  0.17310479  1
  S2-  S153  1  0.73913806  0.20611312  0.64965735  1
  S2-  S154  1  0.77118411  0.29652713  0.14750303  1
  S2-  S155  1  0.59623504  0.36929270  0.65008352  1
  S2-  S156  1  0.74063101  0.67047140  0.15446244  1
  S2-  S157  1  0.75968559  0.51770806  0.66138729  1
  S2-  S158  1  0.76410848  0.90273216  0.15545937  1
  S2-  S159  1  0.75110879  0.78068898  0.63870309  1
  S2-  S160  1  0.00216168  0.00044066  0.35590199  1
  S2-  S161  1  0.24277635  -0.00707902  0.85479062  1
  S2-  S162  1  0.09976779  0.33461069  0.35552835  1
  S2-  S163  1  0.21301244  0.28364850  0.85454736  1
  S2-  S164  1  0.21324207  0.50907674  0.35292736  1
  S2-  S165  1  0.12778077  0.50454285  0.84741249  1
  S2-  S166  1  0.23866105  0.76936096  0.35461987  1
  S2-  S167  1  0.13645938  0.77006619  0.84945587  1
  S2-  S168  1  0.45408182  0.00303961  0.34604909  1
  S2-  S169  1  0.52495232  -0.00450023  0.85632142  1
  S2-  S170  1  0.38134130  0.22722782  0.34688663  1
  S2-  S171  1  0.39476024  0.15304159  0.84762045  1
  S2-  S172  1  0.40509805  0.43697057  0.31717631  1
  S2-  S173  1  0.38082625  0.40600304  0.85465550  1
  S2-  S174  1  0.38436209  0.63122792  0.35167220  1
  S2-  S175  1  0.38898034  0.79657132  0.84900876  1
  S2-  S176  1  0.63323032  -0.06141540  0.28752255  1
  S2-  S177  1  0.75034130  0.03138507  0.85971011  1
  S2-  S178  1  0.62617671  0.16460553  0.34878652  1
  S2-  S179  1  0.59399640  0.25902976  0.84375739  1
  S2-  S180  1  0.62493720  0.57411334  0.35297734  1
  S2-  S181  1  0.60933535  0.51848938  0.84270682  1
  S2-  S182  1  0.52021543  0.77075193  0.33573348  1
  S2-  S183  1  0.64825455  0.76574267  0.83468284  1
  S2-  S184  1  0.78672328  0.00189553  0.34525524  1
  S2-  S185  1  0.99767894  -0.00212023  0.85952586  1
  S2-  S186  1  0.87902541  0.19871288  0.32651489  1
  S2-  S187  1  0.81090759  0.28327624  0.84799616  1
  S2-  S188  1  0.86226625  0.40581151  0.36494698  1
  S2-  S189  1  0.85937812  0.52717838  0.84948408  1
  S2-  S190  1  0.76667071  0.74988938  0.35248417  1
  S2-  S191  1  0.88072198  0.77769827  0.85024796  1
  S2-  S192  1  -0.00471210  0.12993654  0.45032741  1
  S2-  S193  1  0.00267443  0.14669447  0.95961201  1
  S2-  S194  1  -0.00459460  0.37208881  0.46499262  1
  S2-  S195  1  0.00078067  0.40076744  0.95767102  1
  S2-  S196  1  -0.00803611  0.61744166  0.45191178  1
  S2-  S197  1  0.00069099  0.64369656  0.96131758  1
  S2-  S198  1  -0.00619532  0.86705344  0.44729838  1
  S2-  S199  1  0.00180862  0.88841096  0.96091837  1
  S2-  S200  1  0.24541531  0.12261121  0.44533490  1
  S2-  S201  1  0.24687358  0.14343723  0.94844652  1
  S2-  S202  1  0.24992808  0.37027854  0.45777838  1
  S2-  S203  1  0.24856998  0.39938896  0.96093102  1
  S2-  S204  1  0.24138614  0.62125057  0.45456119  1
  S2-  S205  1  0.24985484  0.64479005  0.95437166  1
  S2-  S206  1  0.24495613  0.87656331  0.45540796  1
  S2-  S207  1  0.24786953  0.88860446  0.95492659  1
  S2-  S208  1  0.50119466  0.11834297  0.45383843  1
  S2-  S209  1  0.50765008  0.14444691  0.95437143  1
  S2-  S210  1  0.49628450  0.37203992  0.44998569  1
  S2-  S211  1  0.50551335  0.39514902  0.95319109  1
  S2-  S212  1  0.49799963  0.62075508  0.45158249  1
  S2-  S213  1  0.50075789  0.64424309  0.94224155  1
  S2-  S214  1  0.50337400  0.87667007  0.44546452  1
  S2-  S215  1  0.50313015  0.89528174  0.95941064  1
  S2-  S216  1  0.74884894  0.12406356  0.45188255  1
  S2-  S217  1  0.75165914  0.14835888  0.96263494  1
  S2-  S218  1  0.74194065  0.36969767  0.45870038  1
  S2-  S219  1  0.75135661  0.39938891  0.95994070  1
  S2-  S220  1  0.75104192  0.61830508  0.45851710  1
  S2-  S221  1  0.75253694  0.64671386  0.95232603  1
  S2-  S222  1  0.74367100  0.87781958  0.44801524  1
  S2-  S223  1  0.75360132  0.89084756  0.95375715  1
  S2-  S224  1  0.12600479  0.02491749  0.04554192  1
  S2-  S225  1  0.12121286  -0.00387427  0.54047572  1
  S2-  S226  1  0.13476604  0.27296363  0.04449838  1
  S2-  S227  1  0.12649688  0.24779742  0.54676109  1
  S2-  S228  1  0.13110235  0.52177483  0.04955527  1
  S2-  S229  1  0.12360353  0.49823270  0.54636357  1
  S2-  S230  1  0.12583493  0.76814659  0.05416183  1
  S2-  S231  1  0.11587445  0.74747320  0.53721118  1
  S2-  S232  1  0.37155160  0.02055546  0.03286456  1
  S2-  S233  1  0.36790947  0.00097298  0.54433601  1
  S2-  S234  1  0.38088830  0.26365274  0.03284682  1
  S2-  S235  1  0.36988848  0.24080616  0.55028827  1
  S2-  S236  1  0.38219802  0.52615314  0.04158308  1
  S2-  S237  1  0.37276183  0.50318579  0.53404965  1
  S2-  S238  1  0.37594213  0.77196266  0.05008699  1
  S2-  S239  1  0.37227382  0.74781706  0.53537745  1
  S2-  S240  1  0.63187483  0.02015928  0.04352369  1
  S2-  S241  1  0.62526008  -0.00317321  0.55991775  1
  S2-  S242  1  0.62383933  0.26898124  0.05014372  1
  S2-  S243  1  0.61901095  0.24598725  0.54411257  1
  S2-  S244  1  0.62066845  0.52812016  0.05103569  1
  S2-  S245  1  0.62323129  0.49769315  0.54725800  1
  S2-  S246  1  0.62430396  0.76822993  0.04385266  1
  S2-  S247  1  0.62156646  0.74729486  0.53451205  1
  S2-  S248  1  0.87237585  0.01698049  0.04241868  1
  S2-  S249  1  0.87424937  -0.00460933  0.54440814  1
  S2-  S250  1  0.87824405  0.27510616  0.04651539  1
  S2-  S251  1  0.87358336  0.24962726  0.54104852  1
  S2-  S252  1  0.86873961  0.52324607  0.05045006  1
  S2-  S253  1  0.87116609  0.49633606  0.55438968  1
  S2-  S254  1  0.87678214  0.76691641  0.05450926  1
  S2-  S255  1  0.87427990  0.74741855  0.53847031  1
