# generated using pymatgen
data_La12Ce14Pr13Nd13Sm12(BiS2)64
_symmetry_space_group_name_H-M   'P 1'
_cell_length_a   16.16772654
_cell_length_b   16.12354231
_cell_length_c   27.26584615
_cell_angle_alpha   90.08277067
_cell_angle_beta   89.66162228
_cell_angle_gamma   90.09613745
_symmetry_Int_Tables_number   1
_chemical_formula_structural   La12Ce14Pr13Nd13Sm12(BiS2)64
_chemical_formula_sum   'La12 Ce14 Pr13 Nd13 Sm12 Bi64 S128'
_cell_volume   7107.54739108
_cell_formula_units_Z   1
loop_
 _symmetry_equiv_pos_site_id
 _symmetry_equiv_pos_as_xyz
  1  'x, y, z'
loop_
 _atom_type_symbol
 _atom_type_oxidation_number
  La3+  3.0
  Ce3+  3.0
  Pr3+  3.0
  Nd3+  3.0
  Sm3+  3.0
  Bi2+  2.0
  S2-  -2.0
loop_
 _atom_site_type_symbol
 _atom_site_label
 _atom_site_symmetry_multiplicity
 _atom_site_fract_x
 _atom_site_fract_y
 _atom_site_fract_z
 _atom_site_occupancy
  La3+  La0  1  0.63049680  0.25901910  0.43999933  1
  La3+  La1  1  0.88557453  0.75909518  0.42281639  1
  La3+  La2  1  0.36486485  0.50131601  0.92922095  1
  La3+  La3  1  0.62839344  0.00668037  0.44716853  1
  La3+  La4  1  0.25559056  0.86506361  0.07933480  1
  La3+  La5  1  0.87826420  0.74798819  0.93529361  1
  La3+  La6  1  0.25099201  0.10908150  0.11536104  1
  La3+  La7  1  0.87122397  0.24769570  0.92992730  1
  La3+  La8  1  0.37900380  0.24874894  0.92468850  1
  La3+  La9  1  0.50477664  0.14170043  0.57519145  1
  La3+  La10  1  0.63511210  0.75793318  0.42347545  1
  La3+  La11  1  0.37294686  0.75220811  0.93587960  1
  Ce3+  Ce12  1  0.62108939  0.24964544  0.93553312  1
  Ce3+  Ce13  1  0.75561901  0.87572584  0.56608872  1
  Ce3+  Ce14  1  0.12734660  0.49943938  0.43690957  1
  Ce3+  Ce15  1  0.12344232  0.74899908  0.94698464  1
  Ce3+  Ce16  1  0.75538926  0.13078857  0.56870884  1
  Ce3+  Ce17  1  0.25557321  0.87986439  0.55551860  1
  Ce3+  Ce18  1  -0.00147684  0.62217549  0.06115356  1
  Ce3+  Ce19  1  0.62191596  0.50257334  0.93127479  1
  Ce3+  Ce20  1  0.37925864  0.01070028  0.44357680  1
  Ce3+  Ce21  1  0.12636829  0.00554463  0.94209993  1
  Ce3+  Ce22  1  0.50590391  0.87435284  0.06469596  1
  Ce3+  Ce23  1  0.74441889  0.12158966  0.04962726  1
  Ce3+  Ce24  1  0.25117460  0.63225865  0.54758095  1
  Ce3+  Ce25  1  0.13034676  0.00892248  0.43332441  1
  Pr3+  Pr26  1  0.75179324  0.63221254  0.56756586  1
  Pr3+  Pr27  1  0.12187479  0.24071846  0.92768940  1
  Pr3+  Pr28  1  0.00738158  0.38159593  0.57139304  1
  Pr3+  Pr29  1  0.37445609  -0.00048969  0.94788439  1
  Pr3+  Pr30  1  0.76006191  0.37881261  0.58546296  1
  Pr3+  Pr31  1  0.00380677  0.64116759  0.56630055  1
  Pr3+  Pr32  1  0.62681023  -0.01062671  0.91905434  1
  Pr3+  Pr33  1  0.49853259  0.62274327  0.05985330  1
  Pr3+  Pr34  1  0.87424609  -0.00192319  0.93599654  1
  Pr3+  Pr35  1  0.13093807  0.25531245  0.43152477  1
  Pr3+  Pr36  1  0.37792976  0.50566194  0.43129576  1
  Pr3+  Pr37  1  0.38447470  0.26197031  0.42729574  1
  Pr3+  Pr38  1  0.25120162  0.37572528  0.57192329  1
  Nd3+  Nd39  1  0.74552320  0.37236258  0.05820056  1
  Nd3+  Nd40  1  0.87350174  0.49658282  0.93775260  1
  Nd3+  Nd41  1  -0.00158967  0.13130597  0.06589050  1
  Nd3+  Nd42  1  0.62455434  0.74468196  0.93242978  1
  Nd3+  Nd43  1  0.88159598  0.50614712  0.45001962  1
  Nd3+  Nd44  1  0.63289975  0.50709124  0.44359532  1
  Nd3+  Nd45  1  0.00298188  0.13050932  0.56045660  1
  Nd3+  Nd46  1  0.49616041  0.38645222  0.56770419  1
  Nd3+  Nd47  1  0.25395955  0.13094066  0.56009194  1
  Nd3+  Nd48  1  0.24830397  0.36594164  0.05287016  1
  Nd3+  Nd49  1  -0.00055971  0.37193380  0.05637006  1
  Nd3+  Nd50  1  0.87674000  0.01172009  0.43694588  1
  Nd3+  Nd51  1  0.11501054  0.49244247  0.91465257  1
  Sm3+  Sm52  1  0.75171478  0.87070407  0.06485017  1
  Sm3+  Sm53  1  -0.00106742  0.87834294  0.05721198  1
  Sm3+  Sm54  1  0.24659814  0.61925890  0.06122054  1
  Sm3+  Sm55  1  0.49508952  0.12376075  0.05515415  1
  Sm3+  Sm56  1  0.38134409  0.75672759  0.43217529  1
  Sm3+  Sm57  1  0.49459257  0.37412820  0.05481318  1
  Sm3+  Sm58  1  0.74822924  0.62394348  0.05605340  1
  Sm3+  Sm59  1  0.50146705  0.87779996  0.55732422  1
  Sm3+  Sm60  1  0.00528188  0.88040334  0.55507376  1
  Sm3+  Sm61  1  0.50246535  0.63196112  0.55059483  1
  Sm3+  Sm62  1  0.87900078  0.25506320  0.44102373  1
  Sm3+  Sm63  1  0.13010209  0.76354713  0.42615182  1
  Bi2+  Bi64  1  -0.02260781  0.15857826  0.28986823  1
  Bi2+  Bi65  1  -0.03948340  0.04586706  0.80952855  1
  Bi2+  Bi66  1  -0.01755833  0.35829356  0.29256906  1
  Bi2+  Bi67  1  0.01205769  0.38307177  0.77931721  1
  Bi2+  Bi68  1  0.10195287  0.57595515  0.30661882  1
  Bi2+  Bi69  1  -0.01784594  0.64256048  0.79453027  1
  Bi2+  Bi70  1  0.00763385  0.84487057  0.29017780  1
  Bi2+  Bi71  1  0.02637100  0.86615088  0.78821621  1
  Bi2+  Bi72  1  0.24369323  0.05880523  0.30280613  1
  Bi2+  Bi73  1  0.20180103  0.11472871  0.76852276  1
  Bi2+  Bi74  1  0.24383645  0.41086847  0.28228870  1
  Bi2+  Bi75  1  0.28021058  0.39012816  0.79917237  1
  Bi2+  Bi76  1  0.30225294  0.60620187  0.30398327  1
  Bi2+  Bi77  1  0.24782605  0.72123044  0.78134449  1
  Bi2+  Bi78  1  0.20781685  0.86852608  0.25674681  1
  Bi2+  Bi79  1  0.21878653  0.91846422  0.78374705  1
  Bi2+  Bi80  1  0.48131340  0.11893794  0.30335158  1
  Bi2+  Bi81  1  0.45877814  0.12609359  0.80070653  1
  Bi2+  Bi82  1  0.50787377  0.38381533  0.28980162  1
  Bi2+  Bi83  1  0.54243000  0.38606755  0.78314655  1
  Bi2+  Bi84  1  0.49574738  0.58220059  0.28832520  1
  Bi2+  Bi85  1  0.49664837  0.62512230  0.78373025  1
  Bi2+  Bi86  1  0.45851030  0.84351723  0.28659190  1
  Bi2+  Bi87  1  0.48686695  0.87759291  0.79272258  1
  Bi2+  Bi88  1  0.70191064  0.11184044  0.30854570  1
  Bi2+  Bi89  1  0.77489992  0.23965565  0.80785122  1
  Bi2+  Bi90  1  0.79006815  0.35531528  0.31640578  1
  Bi2+  Bi91  1  0.73760878  0.43086634  0.82607476  1
  Bi2+  Bi92  1  0.83251197  0.61868126  0.27726062  1
  Bi2+  Bi93  1  0.74293271  0.61896512  0.78219343  1
  Bi2+  Bi94  1  0.75984058  0.86940337  0.29345038  1
  Bi2+  Bi95  1  0.83305767  0.88111575  0.76241979  1
  Bi2+  Bi96  1  0.05323057  -0.03632203  0.20536821  1
  Bi2+  Bi97  1  0.06703710  0.01186338  0.71120797  1
  Bi2+  Bi98  1  0.11331140  0.24591942  0.20898161  1
  Bi2+  Bi99  1  0.13071970  0.27651189  0.71292545  1
  Bi2+  Bi100  1  0.16688203  0.49240517  0.18758020  1
  Bi2+  Bi101  1  0.17023955  0.53735590  0.75726906  1
  Bi2+  Bi102  1  0.13737703  0.69802409  0.21950056  1
  Bi2+  Bi103  1  0.11038913  0.69425540  0.69257916  1
  Bi2+  Bi104  1  0.45763407  -0.00336326  0.21495572  1
  Bi2+  Bi105  1  0.34006204  -0.00984029  0.70127447  1
  Bi2+  Bi106  1  0.38116333  0.26655730  0.20172665  1
  Bi2+  Bi107  1  0.38828337  0.25990473  0.69860018  1
  Bi2+  Bi108  1  0.36120986  0.50393406  0.20253101  1
  Bi2+  Bi109  1  0.38472076  0.54410942  0.70409142  1
  Bi2+  Bi110  1  0.39436876  0.72609259  0.20147522  1
  Bi2+  Bi111  1  0.35810750  0.77560597  0.68743543  1
  Bi2+  Bi112  1  0.65261974  -0.00212459  0.21339559  1
  Bi2+  Bi113  1  0.62940196  0.00865120  0.73187017  1
  Bi2+  Bi114  1  0.66192105  0.28176997  0.23882868  1
  Bi2+  Bi115  1  0.64003696  0.25260386  0.72629439  1
  Bi2+  Bi116  1  0.70407909  0.48239299  0.24111992  1
  Bi2+  Bi117  1  0.60295383  0.52170594  0.70699415  1
  Bi2+  Bi118  1  0.63842991  0.74110082  0.20599346  1
  Bi2+  Bi119  1  0.64787532  0.81447464  0.74848665  1
  Bi2+  Bi120  1  0.83964705  0.06834744  0.22648905  1
  Bi2+  Bi121  1  0.79954879  0.01392627  0.67984190  1
  Bi2+  Bi122  1  0.85190790  0.26810149  0.20428004  1
  Bi2+  Bi123  1  0.87205079  0.18678764  0.70977654  1
  Bi2+  Bi124  1  0.97538121  0.51338454  0.21952304  1
  Bi2+  Bi125  1  0.84218529  0.44764611  0.72768507  1
  Bi2+  Bi126  1  0.88046915  0.77082835  0.20887609  1
  Bi2+  Bi127  1  0.87979883  0.69174719  0.69275887  1
  S2-  S128  1  0.07956298  0.10891098  0.15314192  1
  S2-  S129  1  0.02327042  0.16024442  0.65855927  1
  S2-  S130  1  -0.01229360  0.28576932  0.14250860  1
  S2-  S131  1  0.12937230  0.39350072  0.64612510  1
  S2-  S132  1  -0.00538592  0.66143135  0.15664225  1
  S2-  S133  1  -0.00624866  0.57833134  0.66252221  1
  S2-  S134  1  -0.08347306  0.89510577  0.14427319  1
  S2-  S135  1  -0.00558851  0.78906759  0.63874709  1
  S2-  S136  1  0.25389865  0.14299006  0.22210808  1
  S2-  S137  1  0.25764421  0.22055476  0.64570390  1
  S2-  S138  1  0.24301448  0.28317720  0.14046916  1
  S2-  S139  1  0.37254192  0.41092444  0.64586159  1
  S2-  S140  1  0.25455737  0.71482055  0.14378815  1
  S2-  S141  1  0.26475029  0.63568798  0.64534928  1
  S2-  S142  1  0.21070584  0.95123274  0.16348381  1
  S2-  S143  1  0.22895725  0.87978608  0.65171405  1
  S2-  S144  1  0.43395783  0.13899415  0.14835824  1
  S2-  S145  1  0.44909524  0.10035804  0.67191716  1
  S2-  S146  1  0.46941674  0.38695071  0.15295074  1
  S2-  S147  1  0.52752379  0.28110928  0.64730428  1
  S2-  S148  1  0.53600039  0.64132911  0.15857174  1
  S2-  S149  1  0.50362840  0.63573171  0.64919786  1
  S2-  S150  1  0.40838207  0.86934092  0.14687467  1
  S2-  S151  1  0.47515082  0.87366819  0.65528500  1
  S2-  S152  1  0.72788904  0.11451697  0.14587371  1
  S2-  S153  1  0.73842433  0.23328618  0.64774205  1
  S2-  S154  1  0.74513521  0.39554995  0.15673547  1
  S2-  S155  1  0.89971397  0.36293946  0.65282533  1
  S2-  S156  1  0.75593507  0.68763817  0.14758617  1
  S2-  S157  1  0.74223371  0.51719138  0.64907980  1
  S2-  S158  1  0.63402475  0.87095453  0.13773968  1
  S2-  S159  1  0.74777142  0.76018345  0.63832651  1
  S2-  S160  1  0.14109935  -0.10173208  0.35515136  1
  S2-  S161  1  0.11348856  0.10095530  0.85817858  1
  S2-  S162  1  0.11497133  0.12829592  0.35672603  1
  S2-  S163  1  0.13316068  0.35257980  0.84900664  1
  S2-  S164  1  0.12381897  0.38324421  0.35914092  1
  S2-  S165  1  0.24077323  0.54026876  0.85146183  1
  S2-  S166  1  0.01863105  0.71268042  0.35452453  1
  S2-  S167  1  0.10139123  0.73569950  0.85063385  1
  S2-  S168  1  0.39709425  -0.01888743  0.34763985  1
  S2-  S169  1  0.39539244  -0.01250185  0.84674916  1
  S2-  S170  1  0.33291697  0.18231101  0.33843418  1
  S2-  S171  1  0.32007609  0.23798366  0.82594232  1
  S2-  S172  1  0.37320123  0.39535102  0.35330951  1
  S2-  S173  1  0.43711646  0.48224385  0.83663955  1
  S2-  S174  1  0.32624226  0.76475343  0.33927366  1
  S2-  S175  1  0.39942978  0.73451200  0.83658787  1
  S2-  S176  1  0.64370979  -0.03650328  0.34952968  1
  S2-  S177  1  0.60335062  0.06945135  0.82596572  1
  S2-  S178  1  0.53102302  0.24985676  0.35740540  1
  S2-  S179  1  0.52122738  0.25757273  0.85603792  1
  S2-  S180  1  0.61311569  0.49773124  0.34371425  1
  S2-  S181  1  0.61987926  0.62284264  0.85764142  1
  S2-  S182  1  0.54602856  0.73421625  0.33513666  1
  S2-  S183  1  0.62053270  0.85095672  0.85305803  1
  S2-  S184  1  0.88340115  -0.09119046  0.35472096  1
  S2-  S185  1  0.80854082  -0.01490822  0.84319455  1
  S2-  S186  1  0.85852470  0.14140685  0.36451245  1
  S2-  S187  1  0.94205105  0.25391028  0.83697333  1
  S2-  S188  1  0.86490024  0.50614765  0.35017818  1
  S2-  S189  1  0.97052309  0.51135348  0.85313181  1
  S2-  S190  1  0.76023887  0.73138357  0.35042104  1
  S2-  S191  1  0.84425228  0.72203545  0.83827370  1
  S2-  S192  1  0.00211478  0.13245995  0.45708289  1
  S2-  S193  1  -0.00657176  0.12298038  0.95861113  1
  S2-  S194  1  -0.00044316  0.37644745  0.45985620  1
  S2-  S195  1  -0.00403611  0.37161429  0.95239113  1
  S2-  S196  1  0.00872802  0.62682176  0.45867737  1
  S2-  S197  1  0.00169729  0.61986775  0.95623618  1
  S2-  S198  1  0.00746529  0.88556275  0.45386923  1
  S2-  S199  1  0.00103845  0.87712359  0.95155897  1
  S2-  S200  1  0.25654462  0.13301246  0.45579603  1
  S2-  S201  1  0.25494339  0.12495631  0.94651546  1
  S2-  S202  1  0.25439851  0.38088042  0.45977102  1
  S2-  S203  1  0.24669088  0.37214652  0.94900677  1
  S2-  S204  1  0.25083301  0.63347448  0.44223508  1
  S2-  S205  1  0.24482876  0.62721341  0.95856626  1
  S2-  S206  1  0.25932720  0.88042383  0.45185341  1
  S2-  S207  1  0.24690547  0.87514628  0.95360704  1
  S2-  S208  1  0.50433589  0.13164017  0.46236436  1
  S2-  S209  1  0.50456700  0.11866357  0.95172855  1
  S2-  S210  1  0.50621304  0.38710809  0.45958294  1
  S2-  S211  1  0.49976334  0.38117881  0.95191226  1
  S2-  S212  1  0.50341445  0.63054483  0.44619259  1
  S2-  S213  1  0.49369824  0.62289241  0.95359131  1
  S2-  S214  1  0.50137779  0.87857089  0.45162642  1
  S2-  S215  1  0.50004194  0.87275224  0.95694423  1
  S2-  S216  1  0.75097350  0.13290655  0.46422783  1
  S2-  S217  1  0.74395413  0.12206115  0.94424029  1
  S2-  S218  1  0.75693539  0.38115631  0.45723189  1
  S2-  S219  1  0.74616680  0.37487640  0.95272581  1
  S2-  S220  1  0.75562463  0.62910840  0.45811197  1
  S2-  S221  1  0.75348481  0.62146743  0.95295076  1
  S2-  S222  1  0.75453588  0.88373954  0.45894734  1
  S2-  S223  1  0.75152965  0.87056963  0.95791083  1
  S2-  S224  1  0.12340038  -0.00143272  0.04772248  1
  S2-  S225  1  0.12837192  0.00564139  0.54629047  1
  S2-  S226  1  0.12033665  0.24883539  0.03665929  1
  S2-  S227  1  0.12689633  0.25143524  0.54100640  1
  S2-  S228  1  0.12372153  0.49659556  0.04782262  1
  S2-  S229  1  0.12821884  0.50974057  0.54284169  1
  S2-  S230  1  0.11976031  0.75088460  0.05138343  1
  S2-  S231  1  0.13061405  0.76031014  0.53501761  1
  S2-  S232  1  0.36771510  0.00457045  0.05267980  1
  S2-  S233  1  0.38144592  0.00662048  0.55010680  1
  S2-  S234  1  0.38015884  0.25098525  0.03580142  1
  S2-  S235  1  0.37931486  0.25588137  0.54106464  1
  S2-  S236  1  0.37012212  0.49863646  0.04314756  1
  S2-  S237  1  0.37705809  0.51209413  0.53813829  1
  S2-  S238  1  0.37545483  0.74417504  0.04250920  1
  S2-  S239  1  0.37996796  0.75492756  0.53950266  1
  S2-  S240  1  0.62323463  -0.00035323  0.03807568  1
  S2-  S241  1  0.62527185  0.00363866  0.55718793  1
  S2-  S242  1  0.61829274  0.25011067  0.04529208  1
  S2-  S243  1  0.63159567  0.26274434  0.54507843  1
  S2-  S244  1  0.62481857  0.49903989  0.04496089  1
  S2-  S245  1  0.62438363  0.50583915  0.54826250  1
  S2-  S246  1  0.62747046  0.74413600  0.03910986  1
  S2-  S247  1  0.62218919  0.75654523  0.53807330  1
  S2-  S248  1  0.87186220  0.00042032  0.04327953  1
  S2-  S249  1  0.88114422  0.00312110  0.54718854  1
  S2-  S250  1  0.86818369  0.24853633  0.03976320  1
  S2-  S251  1  0.87926089  0.25356274  0.54496616  1
  S2-  S252  1  0.87142395  0.49787616  0.04804770  1
  S2-  S253  1  0.88026547  0.50762592  0.55315406  1
  S2-  S254  1  0.87550254  0.74910348  0.04316221  1
  S2-  S255  1  0.87998710  0.75989321  0.53508666  1
