# generated using pymatgen
data_La12Ce14Pr13Nd13Sm12(BiS2)64
_symmetry_space_group_name_H-M   'P 1'
_cell_length_a   16.16969113
_cell_length_b   16.18403985
_cell_length_c   27.15897442
_cell_angle_alpha   89.98759253
_cell_angle_beta   90.08463509
_cell_angle_gamma   90.00863144
_symmetry_Int_Tables_number   1
_chemical_formula_structural   La12Ce14Pr13Nd13Sm12(BiS2)64
_chemical_formula_sum   'La12 Ce14 Pr13 Nd13 Sm12 Bi64 S128'
_cell_volume   7107.24915355
_cell_formula_units_Z   1
loop_
 _symmetry_equiv_pos_site_id
 _symmetry_equiv_pos_as_xyz
  1  'x, y, z'
loop_
 _atom_type_symbol
 _atom_type_oxidation_number
  La3+  3.0
  Ce3+  3.0
  Pr3+  3.0
  Nd3+  3.0
  Sm3+  3.0
  Bi2+  2.0
  S2-  -2.0
loop_
 _atom_site_type_symbol
 _atom_site_label
 _atom_site_symmetry_multiplicity
 _atom_site_fract_x
 _atom_site_fract_y
 _atom_site_fract_z
 _atom_site_occupancy
  La3+  La0  1  0.62518351  0.75781261  0.94138936  1
  La3+  La1  1  0.50427569  0.12679081  0.57064340  1
  La3+  La2  1  0.86902472  -0.01212646  0.88801215  1
  La3+  La3  1  0.75979648  0.38026566  0.57511086  1
  La3+  La4  1  -0.00182083  0.89577927  0.08100647  1
  La3+  La5  1  0.62540223  0.48760473  0.39242962  1
  La3+  La6  1  0.87976793  0.26422136  0.91270771  1
  La3+  La7  1  0.11753325  0.76638042  0.94278038  1
  La3+  La8  1  0.75667057  0.36537029  0.08191939  1
  La3+  La9  1  0.61750737  0.75456073  0.40411136  1
  La3+  La10  1  0.36987018  0.51395363  0.92732475  1
  La3+  La11  1  0.61617346  0.01263889  0.92767783  1
  Ce3+  Ce12  1  0.25316312  0.87391248  0.55907287  1
  Ce3+  Ce13  1  0.24457004  0.38736627  0.06862204  1
  Ce3+  Ce14  1  0.00231555  0.12564479  0.56194277  1
  Ce3+  Ce15  1  0.38233696  0.50410847  0.44186141  1
  Ce3+  Ce16  1  0.38011940  0.25428484  0.44844793  1
  Ce3+  Ce17  1  0.86016583  0.50908194  0.94140509  1
  Ce3+  Ce18  1  0.00360826  0.63022412  0.55278461  1
  Ce3+  Ce19  1  0.62800775  0.00032251  0.43928741  1
  Ce3+  Ce20  1  0.75618443  0.12468718  0.56025921  1
  Ce3+  Ce21  1  0.12315804  0.51170867  0.94262383  1
  Ce3+  Ce22  1  0.13117429  0.75599191  0.42709661  1
  Ce3+  Ce23  1  0.00432187  0.37721476  0.56541109  1
  Ce3+  Ce24  1  0.38068388  0.74954111  0.44575356  1
  Ce3+  Ce25  1  -0.00678398  0.63430953  0.06279030  1
  Pr3+  Pr26  1  0.87672404  0.00007014  0.43600103  1
  Pr3+  Pr27  1  0.74482645  0.88943755  0.06416832  1
  Pr3+  Pr28  1  0.88212706  0.75255962  0.41998645  1
  Pr3+  Pr29  1  0.25092231  0.88548461  0.06105676  1
  Pr3+  Pr30  1  0.75525448  0.64065631  0.08191536  1
  Pr3+  Pr31  1  0.24639552  0.63683499  0.06533161  1
  Pr3+  Pr32  1  0.49041123  0.38991922  0.06759041  1
  Pr3+  Pr33  1  0.61840445  0.50625834  0.94579836  1
  Pr3+  Pr34  1  0.13102660  0.25371811  0.43611232  1
  Pr3+  Pr35  1  0.87981900  0.49930877  0.43273461  1
  Pr3+  Pr36  1  0.25206804  0.37762949  0.56221318  1
  Pr3+  Pr37  1  0.37076109  0.76060601  0.93438933  1
  Pr3+  Pr38  1  0.88214849  0.25165021  0.43877573  1
  Nd3+  Nd39  1  0.25297405  0.12463469  0.55848277  1
  Nd3+  Nd40  1  0.75296150  0.87427676  0.55662577  1
  Nd3+  Nd41  1  0.49832320  0.88789204  0.05998228  1
  Nd3+  Nd42  1  0.38204861  0.00271462  0.44322466  1
  Nd3+  Nd43  1  -0.00873075  0.13735294  0.05556976  1
  Nd3+  Nd44  1  0.25280318  0.62721261  0.55695984  1
  Nd3+  Nd45  1  -0.00303728  0.38564635  0.05926698  1
  Nd3+  Nd46  1  0.51100458  0.62680407  0.56143557  1
  Nd3+  Nd47  1  0.50734746  0.38063399  0.56131731  1
  Nd3+  Nd48  1  0.50007744  0.13897692  0.06541833  1
  Nd3+  Nd49  1  0.24571828  0.13457348  0.06089878  1
  Nd3+  Nd50  1  0.37240556  0.01318207  0.93503983  1
  Nd3+  Nd51  1  0.87137429  0.76415168  0.94757514  1
  Sm3+  Sm52  1  0.49880733  0.63627805  0.06668789  1
  Sm3+  Sm53  1  0.62133748  0.26260278  0.93697028  1
  Sm3+  Sm54  1  0.75105804  0.62757651  0.54293183  1
  Sm3+  Sm55  1  0.00272506  0.87307636  0.55497037  1
  Sm3+  Sm56  1  0.12498524  0.50188808  0.43846649  1
  Sm3+  Sm57  1  0.12015446  0.26045127  0.94272317  1
  Sm3+  Sm58  1  0.63092461  0.25492151  0.44733615  1
  Sm3+  Sm59  1  0.12879572  -0.00075530  0.44451645  1
  Sm3+  Sm60  1  0.11741038  0.01232812  0.93877879  1
  Sm3+  Sm61  1  0.74907691  0.13516485  0.03787698  1
  Sm3+  Sm62  1  0.50678388  0.87511271  0.55784422  1
  Sm3+  Sm63  1  0.36964741  0.26146385  0.95096743  1
  Bi2+  Bi64  1  0.04894809  0.11972100  0.23263758  1
  Bi2+  Bi65  1  0.11562689  0.16386102  0.78109792  1
  Bi2+  Bi66  1  0.00404175  0.34532340  0.29616885  1
  Bi2+  Bi67  1  0.04234690  0.40554508  0.79283249  1
  Bi2+  Bi68  1  0.02503268  0.60717071  0.28403861  1
  Bi2+  Bi69  1  0.02931910  0.60161364  0.77886114  1
  Bi2+  Bi70  1  0.03309216  0.88239869  0.28567638  1
  Bi2+  Bi71  1  0.04090502  0.86211439  0.78801356  1
  Bi2+  Bi72  1  0.21634950  0.21737754  0.30254026  1
  Bi2+  Bi73  1  0.24547910  0.03751968  0.82822642  1
  Bi2+  Bi74  1  0.18589160  0.41210946  0.32226259  1
  Bi2+  Bi75  1  0.23577433  0.32578427  0.81334231  1
  Bi2+  Bi76  1  0.22002955  0.63183405  0.30698061  1
  Bi2+  Bi77  1  0.26761631  0.61884096  0.79324509  1
  Bi2+  Bi78  1  0.22344696  0.82830201  0.29793037  1
  Bi2+  Bi79  1  0.25292374  0.82862365  0.82400635  1
  Bi2+  Bi80  1  0.56415802  0.08175036  0.32075980  1
  Bi2+  Bi81  1  0.40900640  0.12593072  0.78758866  1
  Bi2+  Bi82  1  0.50229105  0.26150571  0.28728291  1
  Bi2+  Bi83  1  0.50117545  0.35369902  0.78908286  1
  Bi2+  Bi84  1  0.45939304  0.64380729  0.28244865  1
  Bi2+  Bi85  1  0.55882800  0.60881606  0.81383532  1
  Bi2+  Bi86  1  0.48197538  0.90169909  0.29197972  1
  Bi2+  Bi87  1  0.44019418  0.87199137  0.79474870  1
  Bi2+  Bi88  1  0.75080358  0.11977883  0.28457333  1
  Bi2+  Bi89  1  0.73353379  0.12341997  0.77674897  1
  Bi2+  Bi90  1  0.74587244  0.36450687  0.28223012  1
  Bi2+  Bi91  1  0.74049803  0.39343330  0.80571795  1
  Bi2+  Bi92  1  0.75782947  0.60519478  0.27453884  1
  Bi2+  Bi93  1  0.76488895  0.63342781  0.74333385  1
  Bi2+  Bi94  1  0.78163794  0.92006622  0.29071040  1
  Bi2+  Bi95  1  0.73990932  0.84771198  0.78547062  1
  Bi2+  Bi96  1  0.21952833  0.01907074  0.22913687  1
  Bi2+  Bi97  1  0.15636978  -0.01034196  0.72790543  1
  Bi2+  Bi98  1  0.14112596  0.28031506  0.19485937  1
  Bi2+  Bi99  1  0.10891891  0.29868589  0.69366563  1
  Bi2+  Bi100  1  0.15841797  0.47448961  0.18561738  1
  Bi2+  Bi101  1  0.13938738  0.49031792  0.70354742  1
  Bi2+  Bi102  1  0.13352950  0.67003565  0.19566043  1
  Bi2+  Bi103  1  0.11672251  0.74523117  0.68273883  1
  Bi2+  Bi104  1  0.41617464  0.06401200  0.24038684  1
  Bi2+  Bi105  1  0.35492499  -0.01501464  0.71433476  1
  Bi2+  Bi106  1  0.33504872  0.26649686  0.21176421  1
  Bi2+  Bi107  1  0.30232275  0.25198340  0.71311874  1
  Bi2+  Bi108  1  0.34361531  0.48812239  0.27407330  1
  Bi2+  Bi109  1  0.34580912  0.45672559  0.75097416  1
  Bi2+  Bi110  1  0.34240521  0.81736425  0.20658202  1
  Bi2+  Bi111  1  0.33588860  0.76113495  0.72475278  1
  Bi2+  Bi112  1  0.67555449  -0.00244179  0.19878448  1
  Bi2+  Bi113  1  0.61226823  -0.05181409  0.71063752  1
  Bi2+  Bi114  1  0.62371977  0.20515206  0.20129138  1
  Bi2+  Bi115  1  0.58560131  0.24277620  0.71030785  1
  Bi2+  Bi116  1  0.58079819  0.47410517  0.19145369  1
  Bi2+  Bi117  1  0.60563094  0.48804015  0.69224915  1
  Bi2+  Bi118  1  0.60332463  0.74498242  0.20176973  1
  Bi2+  Bi119  1  0.59626345  0.70684319  0.69973480  1
  Bi2+  Bi120  1  0.86812101  0.00712599  0.19502165  1
  Bi2+  Bi121  1  0.87281510  -0.00033440  0.68788798  1
  Bi2+  Bi122  1  0.87658955  0.20332149  0.20395575  1
  Bi2+  Bi123  1  0.89416496  0.24319155  0.70504250  1
  Bi2+  Bi124  1  0.96513271  0.48048586  0.20206633  1
  Bi2+  Bi125  1  0.88698938  0.48081860  0.73514865  1
  Bi2+  Bi126  1  0.87175151  0.74728696  0.21641234  1
  Bi2+  Bi127  1  0.92136339  0.75298309  0.72008470  1
  S2-  S128  1  0.01598675  0.04727551  0.14187914  1
  S2-  S129  1  -0.00978769  0.12309929  0.66036235  1
  S2-  S130  1  -0.08118791  0.34168749  0.14392775  1
  S2-  S131  1  -0.09840235  0.38466622  0.64499049  1
  S2-  S132  1  -0.09762803  0.62138187  0.14692434  1
  S2-  S133  1  -0.01259838  0.63647584  0.64926993  1
  S2-  S134  1  -0.00718005  0.82866313  0.17822964  1
  S2-  S135  1  -0.01697669  0.88027775  0.65306162  1
  S2-  S136  1  0.29550813  0.11706290  0.15636742  1
  S2-  S137  1  0.27973577  0.11505885  0.65628213  1
  S2-  S138  1  0.33091963  0.41014562  0.15085690  1
  S2-  S139  1  0.28038970  0.42905329  0.65746301  1
  S2-  S140  1  0.29035819  0.67146321  0.16136498  1
  S2-  S141  1  0.24399688  0.65600414  0.65556043  1
  S2-  S142  1  0.21186193  0.89935635  0.15928412  1
  S2-  S143  1  0.22575163  0.87764550  0.65605097  1
  S2-  S144  1  0.53002206  0.07172942  0.15597770  1
  S2-  S145  1  0.54363942  0.09901909  0.66810749  1
  S2-  S146  1  0.52805898  0.31319913  0.15501290  1
  S2-  S147  1  0.49625669  0.36338668  0.66084297  1
  S2-  S148  1  0.49508112  0.62609069  0.16620296  1
  S2-  S149  1  0.48189983  0.60818784  0.66069913  1
  S2-  S150  1  0.49164582  0.84979585  0.15741146  1
  S2-  S151  1  0.51871788  0.85184493  0.65588147  1
  S2-  S152  1  0.75552908  0.19783517  0.13016474  1
  S2-  S153  1  0.77670175  0.14313537  0.65927052  1
  S2-  S154  1  0.72509374  0.40430654  0.18020102  1
  S2-  S155  1  0.69928342  0.36196251  0.67398932  1
  S2-  S156  1  0.69176657  0.60724754  0.17564310  1
  S2-  S157  1  0.72340358  0.62083141  0.64286561  1
  S2-  S158  1  0.74650669  0.79866864  0.15154065  1
  S2-  S159  1  0.74583733  0.89129574  0.65749274  1
  S2-  S160  1  0.14406442  -0.03900966  0.34874939  1
  S2-  S161  1  0.03664875  -0.01761037  0.85337710  1
  S2-  S162  1  0.05572983  0.20935390  0.34888461  1
  S2-  S163  1  0.03676513  0.25235867  0.85551429  1
  S2-  S164  1  0.01115720  0.49244218  0.36112014  1
  S2-  S165  1  0.22633590  0.49865872  0.86349782  1
  S2-  S166  1  0.02128939  0.75643168  0.34983577  1
  S2-  S167  1  0.10576426  0.72410457  0.84454876  1
  S2-  S168  1  0.38203758  0.00473350  0.34323888  1
  S2-  S169  1  0.48296223  0.01527268  0.85579448  1
  S2-  S170  1  0.37128815  0.25689141  0.35163067  1
  S2-  S171  1  0.38324537  0.26667868  0.85251126  1
  S2-  S172  1  0.45694358  0.50575707  0.35347258  1
  S2-  S173  1  0.50207438  0.47819663  0.86115797  1
  S2-  S174  1  0.44302406  0.75967402  0.35441531  1
  S2-  S175  1  0.40172487  0.65304719  0.85575914  1
  S2-  S176  1  0.62903826  -0.09016642  0.35302897  1
  S2-  S177  1  0.70582455  -0.01143901  0.84132405  1
  S2-  S178  1  0.62823831  0.31956919  0.35573584  1
  S2-  S179  1  0.62169799  0.26176742  0.83677055  1
  S2-  S180  1  0.62508955  0.48907574  0.28321107  1
  S2-  S181  1  0.70316337  0.53791810  0.85775062  1
  S2-  S182  1  0.61681077  0.68875870  0.30813458  1
  S2-  S183  1  0.62398416  0.76623638  0.83982485  1
  S2-  S184  1  0.91698279  -0.01612367  0.33766250  1
  S2-  S185  1  0.87209594  0.03377012  0.78163734  1
  S2-  S186  1  0.86205953  0.29387087  0.34100365  1
  S2-  S187  1  0.83208384  0.23790859  0.80775306  1
  S2-  S188  1  0.78679816  0.49598983  0.34653544  1
  S2-  S189  1  0.87555894  0.41992718  0.85788740  1
  S2-  S190  1  0.81700029  0.75039670  0.32325225  1
  S2-  S191  1  0.86830083  0.82021902  0.85166660  1
  S2-  S192  1  0.00459161  0.12116250  0.45543328  1
  S2-  S193  1  -0.00245893  0.13212840  0.95145660  1
  S2-  S194  1  0.00681379  0.37373008  0.46010562  1
  S2-  S195  1  0.00167302  0.38958033  0.95496239  1
  S2-  S196  1  0.00513912  0.63066670  0.44977229  1
  S2-  S197  1  -0.00838332  0.63389305  0.95410420  1
  S2-  S198  1  0.00394824  0.87839466  0.45139188  1
  S2-  S199  1  -0.00647538  0.88957798  0.96181154  1
  S2-  S200  1  0.25316824  0.12386228  0.45176295  1
  S2-  S201  1  0.24529206  0.13772797  0.95366260  1
  S2-  S202  1  0.25356521  0.38015588  0.45522740  1
  S2-  S203  1  0.24467755  0.38039596  0.96226374  1
  S2-  S204  1  0.25175692  0.62500426  0.44969181  1
  S2-  S205  1  0.24345317  0.64187367  0.95782325  1
  S2-  S206  1  0.25759020  0.87846123  0.45260505  1
  S2-  S207  1  0.24756823  0.88997268  0.95428680  1
  S2-  S208  1  0.50504947  0.12993490  0.46038120  1
  S2-  S209  1  0.49500935  0.14200498  0.95686097  1
  S2-  S210  1  0.50656484  0.37753419  0.45617045  1
  S2-  S211  1  0.49458475  0.37850541  0.96156815  1
  S2-  S212  1  0.50831443  0.62788228  0.45353044  1
  S2-  S213  1  0.49907914  0.63697640  0.96179211  1
  S2-  S214  1  0.50341117  0.87725253  0.45488398  1
  S2-  S215  1  0.49527497  0.88247976  0.95320595  1
  S2-  S216  1  0.75257793  0.12787711  0.45085107  1
  S2-  S217  1  0.74810723  0.13794976  0.93471795  1
  S2-  S218  1  0.75493034  0.37476938  0.45954034  1
  S2-  S219  1  0.74270011  0.37971604  0.95659233  1
  S2-  S220  1  0.74758274  0.63215282  0.43985159  1
  S2-  S221  1  0.74932160  0.63884784  0.96743851  1
  S2-  S222  1  0.75433201  0.87216883  0.44944775  1
  S2-  S223  1  0.74748379  0.88886693  0.95571896  1
  S2-  S224  1  0.12586740  0.01119417  0.04313746  1
  S2-  S225  1  0.12691074  -0.00103391  0.55030935  1
  S2-  S226  1  0.11993579  0.25809410  0.04935162  1
  S2-  S227  1  0.12996259  0.24968936  0.54699560  1
  S2-  S228  1  0.11968706  0.51236827  0.04947453  1
  S2-  S229  1  0.12769125  0.50330546  0.54564750  1
  S2-  S230  1  0.11925892  0.76343250  0.05237203  1
  S2-  S231  1  0.12881590  0.75353197  0.53811042  1
  S2-  S232  1  0.37423889  0.01287735  0.04428852  1
  S2-  S233  1  0.38045245  -0.00098068  0.55094070  1
  S2-  S234  1  0.37021631  0.25853631  0.05422228  1
  S2-  S235  1  0.37805166  0.25297526  0.55520782  1
  S2-  S236  1  0.37220678  0.51665484  0.04297077  1
  S2-  S237  1  0.38023265  0.50430237  0.54830869  1
  S2-  S238  1  0.37569924  0.76072896  0.04495846  1
  S2-  S239  1  0.38139203  0.75113485  0.55234977  1
  S2-  S240  1  0.62231367  0.01348609  0.03928663  1
  S2-  S241  1  0.62904906  0.00045075  0.54771166  1
  S2-  S242  1  0.62158700  0.25892478  0.04157776  1
  S2-  S243  1  0.63108104  0.25241129  0.55311237  1
  S2-  S244  1  0.62328574  0.50967210  0.05567729  1
  S2-  S245  1  0.63180043  0.50127655  0.55043025  1
  S2-  S246  1  0.61981891  0.75997233  0.04997004  1
  S2-  S247  1  0.62917912  0.75313468  0.54390810  1
  S2-  S248  1  0.86664010  0.01404384  0.05161378  1
  S2-  S249  1  0.87931288  -0.00187346  0.54451969  1
  S2-  S250  1  0.87454334  0.25759196  0.02845455  1
  S2-  S251  1  0.88018619  0.24897265  0.54644696  1
  S2-  S252  1  0.86783447  0.50325075  0.04773620  1
  S2-  S253  1  0.87793508  0.50765294  0.54092210  1
  S2-  S254  1  0.87671897  0.76801256  0.05175417  1
  S2-  S255  1  0.87650451  0.75221394  0.53916337  1
