# generated using pymatgen
data_La12Ce14Pr13Nd13Sm12(BiS2)64
_symmetry_space_group_name_H-M   'P 1'
_cell_length_a   16.15842929
_cell_length_b   16.17517344
_cell_length_c   27.21295017
_cell_angle_alpha   90.14789798
_cell_angle_beta   90.22463418
_cell_angle_gamma   90.11279994
_symmetry_Int_Tables_number   1
_chemical_formula_structural   La12Ce14Pr13Nd13Sm12(BiS2)64
_chemical_formula_sum   'La12 Ce14 Pr13 Nd13 Sm12 Bi64 S128'
_cell_volume   7112.43121590
_cell_formula_units_Z   1
loop_
 _symmetry_equiv_pos_site_id
 _symmetry_equiv_pos_as_xyz
  1  'x, y, z'
loop_
 _atom_type_symbol
 _atom_type_oxidation_number
  La3+  3.0
  Ce3+  3.0
  Pr3+  3.0
  Nd3+  3.0
  Sm3+  3.0
  Bi2+  2.0
  S2-  -2.0
loop_
 _atom_site_type_symbol
 _atom_site_label
 _atom_site_symmetry_multiplicity
 _atom_site_fract_x
 _atom_site_fract_y
 _atom_site_fract_z
 _atom_site_occupancy
  La3+  La0  1  0.36410723  -0.01140933  0.43635638  1
  La3+  La1  1  0.75520343  0.38214406  0.61110139  1
  La3+  La2  1  0.13823531  0.74525555  0.90113128  1
  La3+  La3  1  0.87178095  0.50837635  0.92179354  1
  La3+  La4  1  0.61130265  0.00370911  0.42308668  1
  La3+  La5  1  0.76814097  0.37451413  0.07729417  1
  La3+  La6  1  0.12341508  0.00195004  0.90982392  1
  La3+  La7  1  0.49316138  0.87388912  0.60364536  1
  La3+  La8  1  0.61909464  0.74893928  0.42987087  1
  La3+  La9  1  0.51035876  0.88261444  0.09280622  1
  La3+  La10  1  0.12189097  0.24437988  0.42189006  1
  La3+  La11  1  0.01077082  0.87701748  0.05344734  1
  Ce3+  Ce12  1  0.38193630  0.50395347  0.94475367  1
  Ce3+  Ce13  1  0.37927281  0.00022695  0.94065539  1
  Ce3+  Ce14  1  0.74317431  0.87135921  0.55613361  1
  Ce3+  Ce15  1  0.75220879  0.87643784  0.06063174  1
  Ce3+  Ce16  1  0.50698990  0.62990759  0.06188631  1
  Ce3+  Ce17  1  -0.00368241  0.61859691  0.55530690  1
  Ce3+  Ce18  1  0.36680044  0.24406765  0.43991727  1
  Ce3+  Ce19  1  0.75631971  0.13076850  0.05900997  1
  Ce3+  Ce20  1  0.49893634  0.36956919  0.56577432  1
  Ce3+  Ce21  1  0.86984303  0.74595062  0.44457375  1
  Ce3+  Ce22  1  0.50274562  0.12537538  0.06102807  1
  Ce3+  Ce23  1  0.62617481  -0.00060851  0.94507144  1
  Ce3+  Ce24  1  0.36848877  0.75059478  0.44849836  1
  Ce3+  Ce25  1  0.37773055  0.24969742  0.94498567  1
  Pr3+  Pr26  1  0.87008490  -0.00352256  0.44144687  1
  Pr3+  Pr27  1  -0.00511168  0.12503379  0.56145775  1
  Pr3+  Pr28  1  0.49895938  0.62037048  0.56081220  1
  Pr3+  Pr29  1  0.13037584  0.50236979  0.93313484  1
  Pr3+  Pr30  1  0.24482440  0.12025258  0.56357218  1
  Pr3+  Pr31  1  0.11974262  0.74800286  0.43760190  1
  Pr3+  Pr32  1  0.24393045  0.12511180  0.06554280  1
  Pr3+  Pr33  1  0.12088116  0.49410588  0.43020173  1
  Pr3+  Pr34  1  0.61173320  0.49361795  0.43236819  1
  Pr3+  Pr35  1  0.24728599  0.62382631  0.56202686  1
  Pr3+  Pr36  1  0.62667421  0.75379739  0.93504408  1
  Pr3+  Pr37  1  0.11912320  -0.00585447  0.42345804  1
  Pr3+  Pr38  1  0.86425204  0.49395961  0.43852066  1
  Nd3+  Nd39  1  0.25286811  0.37887383  0.05916749  1
  Nd3+  Nd40  1  0.74346727  0.11968732  0.55630214  1
  Nd3+  Nd41  1  0.87062664  0.25447413  0.92523551  1
  Nd3+  Nd42  1  0.38398058  0.75156439  0.93034915  1
  Nd3+  Nd43  1  0.00033497  0.37227295  0.56485242  1
  Nd3+  Nd44  1  0.86698228  0.24960711  0.44549636  1
  Nd3+  Nd45  1  0.75632179  0.62593072  0.06256958  1
  Nd3+  Nd46  1  0.63001585  0.25106676  0.94052032  1
  Nd3+  Nd47  1  0.23952704  0.88062059  0.57958334  1
  Nd3+  Nd48  1  0.50653634  0.37715542  0.05633785  1
  Nd3+  Nd49  1  0.87868751  -0.00089141  0.93764227  1
  Nd3+  Nd50  1  0.37026124  0.49587624  0.44045948  1
  Nd3+  Nd51  1  0.13694301  0.25251497  0.92438918  1
  Sm3+  Sm52  1  0.25599788  0.63040944  0.05686495  1
  Sm3+  Sm53  1  0.00688418  0.12800009  0.04412972  1
  Sm3+  Sm54  1  0.61859760  0.24870635  0.44856908  1
  Sm3+  Sm55  1  0.74361127  0.61784708  0.55878668  1
  Sm3+  Sm56  1  0.25653463  0.87679413  0.04838528  1
  Sm3+  Sm57  1  0.49526427  0.11588516  0.56004966  1
  Sm3+  Sm58  1  0.00680514  0.62772889  0.05204305  1
  Sm3+  Sm59  1  -0.00471024  0.87061047  0.56388993  1
  Sm3+  Sm60  1  0.63328903  0.50061074  0.94488194  1
  Sm3+  Sm61  1  0.87966305  0.74856228  0.94175588  1
  Sm3+  Sm62  1  0.00511047  0.37844075  0.04567713  1
  Sm3+  Sm63  1  0.24461901  0.36867368  0.56089890  1
  Bi2+  Bi64  1  0.00234729  0.12513895  0.25698159  1
  Bi2+  Bi65  1  -0.00410384  0.10385526  0.78049673  1
  Bi2+  Bi66  1  0.02637527  0.44048571  0.27118821  1
  Bi2+  Bi67  1  0.04127528  0.34262580  0.77513456  1
  Bi2+  Bi68  1  0.03685398  0.64307117  0.28238908  1
  Bi2+  Bi69  1  -0.00408516  0.60847488  0.78811796  1
  Bi2+  Bi70  1  -0.01066177  0.91442654  0.28183142  1
  Bi2+  Bi71  1  -0.07378783  0.85664925  0.78027634  1
  Bi2+  Bi72  1  0.21584616  0.11997242  0.28824808  1
  Bi2+  Bi73  1  0.25539471  0.13506474  0.78781651  1
  Bi2+  Bi74  1  0.25159353  0.45639307  0.31419377  1
  Bi2+  Bi75  1  0.21901848  0.39595983  0.80614544  1
  Bi2+  Bi76  1  0.20702634  0.63770553  0.33601796  1
  Bi2+  Bi77  1  0.27330494  0.61998987  0.78448123  1
  Bi2+  Bi78  1  0.20571669  0.87840429  0.28087645  1
  Bi2+  Bi79  1  0.31035177  0.87945679  0.77176034  1
  Bi2+  Bi80  1  0.49668129  0.12179572  0.28305034  1
  Bi2+  Bi81  1  0.45786883  0.21093271  0.82025898  1
  Bi2+  Bi82  1  0.55519839  0.36306006  0.30866032  1
  Bi2+  Bi83  1  0.51171321  0.39808095  0.79345901  1
  Bi2+  Bi84  1  0.42823947  0.58598337  0.27368154  1
  Bi2+  Bi85  1  0.52803518  0.61337219  0.80110046  1
  Bi2+  Bi86  1  0.50036357  0.86483997  0.30571083  1
  Bi2+  Bi87  1  0.54000554  0.89922761  0.79900707  1
  Bi2+  Bi88  1  0.75370719  0.17857745  0.28968026  1
  Bi2+  Bi89  1  0.63617059  0.14875115  0.79641220  1
  Bi2+  Bi90  1  0.77842570  0.37269087  0.29629686  1
  Bi2+  Bi91  1  0.80583823  0.37746122  0.79893559  1
  Bi2+  Bi92  1  0.78528709  0.60201832  0.28786415  1
  Bi2+  Bi93  1  0.71556557  0.65398789  0.81089824  1
  Bi2+  Bi94  1  0.75392141  0.85818980  0.29757766  1
  Bi2+  Bi95  1  0.73114160  0.85082398  0.79904675  1
  Bi2+  Bi96  1  0.14653706  0.00579860  0.17933413  1
  Bi2+  Bi97  1  0.12336117  -0.00915198  0.71232900  1
  Bi2+  Bi98  1  0.11374926  0.27265113  0.22148883  1
  Bi2+  Bi99  1  0.16093034  0.24004426  0.70493221  1
  Bi2+  Bi100  1  0.15315940  0.50825018  0.19651850  1
  Bi2+  Bi101  1  0.15932039  0.48565164  0.71041532  1
  Bi2+  Bi102  1  0.08963059  0.74853844  0.19185500  1
  Bi2+  Bi103  1  0.10310996  0.73058102  0.70581608  1
  Bi2+  Bi104  1  0.37042295  -0.01126298  0.20387868  1
  Bi2+  Bi105  1  0.39439823  0.09749759  0.71818500  1
  Bi2+  Bi106  1  0.38197122  0.28447859  0.27780101  1
  Bi2+  Bi107  1  0.34439447  0.27480157  0.66621397  1
  Bi2+  Bi108  1  0.33871186  0.44944124  0.21008760  1
  Bi2+  Bi109  1  0.35561262  0.44429095  0.72579951  1
  Bi2+  Bi110  1  0.29376272  0.71961995  0.24510498  1
  Bi2+  Bi111  1  0.38814042  0.70017951  0.69777818  1
  Bi2+  Bi112  1  0.68433244  0.11295544  0.18955186  1
  Bi2+  Bi113  1  0.64998199  0.03636952  0.70348804  1
  Bi2+  Bi114  1  0.54556785  0.25411951  0.20468762  1
  Bi2+  Bi115  1  0.53335721  0.24643553  0.71142922  1
  Bi2+  Bi116  1  0.58367567  0.50088172  0.21415578  1
  Bi2+  Bi117  1  0.62106552  0.50881825  0.72086417  1
  Bi2+  Bi118  1  0.61155906  0.74802498  0.20336989  1
  Bi2+  Bi119  1  0.67104249  0.75281200  0.69863792  1
  Bi2+  Bi120  1  0.84419832  0.02046319  0.22667522  1
  Bi2+  Bi121  1  0.84154538  0.01780232  0.72630733  1
  Bi2+  Bi122  1  0.91416628  0.29048166  0.21799627  1
  Bi2+  Bi123  1  0.90421608  0.24188674  0.69314546  1
  Bi2+  Bi124  1  0.84992021  0.52435797  0.18634238  1
  Bi2+  Bi125  1  0.84438348  0.66272698  0.70488604  1
  Bi2+  Bi126  1  0.88811970  0.75443991  0.23995158  1
  Bi2+  Bi127  1  0.86908275  0.84939761  0.67057309  1
  S2-  S128  1  0.08608096  0.13356612  0.13074750  1
  S2-  S129  1  0.02814749  0.12076156  0.66155313  1
  S2-  S130  1  -0.06969065  0.38960460  0.13397265  1
  S2-  S131  1  -0.08161479  0.38632459  0.65325333  1
  S2-  S132  1  -0.01777066  0.63062536  0.14957504  1
  S2-  S133  1  0.00002909  0.62698159  0.65446691  1
  S2-  S134  1  0.01958079  0.89074129  0.15398563  1
  S2-  S135  1  0.10083544  0.86042498  0.64546353  1
  S2-  S136  1  0.29018793  0.11364041  0.16641315  1
  S2-  S137  1  0.23745595  0.02883802  0.64996557  1
  S2-  S138  1  0.21211007  0.34879142  0.15348004  1
  S2-  S139  1  0.13245634  0.37167140  0.63684566  1
  S2-  S140  1  0.23424473  0.64126228  0.15499436  1
  S2-  S141  1  0.23282126  0.63636727  0.66203021  1
  S2-  S142  1  0.26509250  0.88876438  0.14703588  1
  S2-  S143  1  0.33807378  0.84940870  0.66338107  1
  S2-  S144  1  0.50114099  0.03661088  0.14493413  1
  S2-  S145  1  0.49989652  0.03381676  0.64795557  1
  S2-  S146  1  0.48392115  0.39304763  0.15431010  1
  S2-  S147  1  0.58827483  0.38237438  0.64964571  1
  S2-  S148  1  0.50366065  0.63321956  0.16011042  1
  S2-  S149  1  0.50756714  0.59797603  0.66079722  1
  S2-  S150  1  0.48006995  0.84392667  0.19717475  1
  S2-  S151  1  0.51415177  0.81191902  0.70614630  1
  S2-  S152  1  0.77890821  0.22586456  0.13903343  1
  S2-  S153  1  0.77448715  0.13406278  0.65404121  1
  S2-  S154  1  0.70811959  0.42918746  0.17052352  1
  S2-  S155  1  0.76130483  0.32258360  0.71440834  1
  S2-  S156  1  0.74256565  0.64581483  0.16183938  1
  S2-  S157  1  0.74881377  0.54693334  0.64938853  1
  S2-  S158  1  0.67079154  0.86673360  0.14656503  1
  S2-  S159  1  0.66264737  0.89528882  0.64074971  1
  S2-  S160  1  0.25234845  -0.00450646  0.35144073  1
  S2-  S161  1  0.18540131  -0.05135572  0.81251011  1
  S2-  S162  1  0.08330306  0.11795423  0.35044530  1
  S2-  S163  1  0.12137609  0.14223186  0.84744035  1
  S2-  S164  1  0.10776942  0.37726956  0.35376343  1
  S2-  S165  1  0.13735996  0.59099831  0.84671218  1
  S2-  S166  1  0.09571017  0.85416831  0.35714593  1
  S2-  S167  1  0.06237375  0.76957918  0.80780476  1
  S2-  S168  1  0.46604824  0.01709171  0.35410933  1
  S2-  S169  1  0.40674522  -0.03040541  0.84309289  1
  S2-  S170  1  0.27318488  0.23362525  0.35792567  1
  S2-  S171  1  0.28903897  0.26112240  0.85966002  1
  S2-  S172  1  0.47167684  0.50000091  0.35779585  1
  S2-  S173  1  0.38629171  0.55466954  0.85208895  1
  S2-  S174  1  0.37704682  0.80489331  0.35558832  1
  S2-  S175  1  0.28782693  0.75874208  0.84282423  1
  S2-  S176  1  0.64853922  -0.03342236  0.32384897  1
  S2-  S177  1  0.66874876  -0.00182811  0.85007537  1
  S2-  S178  1  0.60586733  0.20962584  0.35185592  1
  S2-  S179  1  0.72776671  0.26254850  0.85855181  1
  S2-  S180  1  0.68521394  0.50956564  0.33921272  1
  S2-  S181  1  0.72275705  0.49279665  0.86069388  1
  S2-  S182  1  0.61027646  0.74271304  0.32706195  1
  S2-  S183  1  0.51007327  0.76186057  0.85788863  1
  S2-  S184  1  0.86976753  -0.01915604  0.34060075  1
  S2-  S185  1  0.96281417  -0.01149761  0.85069323  1
  S2-  S186  1  0.87502507  0.25368440  0.34557879  1
  S2-  S187  1  0.92531936  0.24080813  0.82790548  1
  S2-  S188  1  0.89233666  0.49040891  0.33859295  1
  S2-  S189  1  0.95177843  0.46759358  0.83235130  1
  S2-  S190  1  0.85339796  0.73614876  0.34818784  1
  S2-  S191  1  0.87681927  0.66135979  0.85669038  1
  S2-  S192  1  -0.01010014  0.12370046  0.45536329  1
  S2-  S193  1  -0.00110261  0.13009018  0.94388720  1
  S2-  S194  1  -0.00771354  0.37207710  0.45659156  1
  S2-  S195  1  0.00667961  0.37413889  0.94232105  1
  S2-  S196  1  -0.00521465  0.61917214  0.44725430  1
  S2-  S197  1  0.01026958  0.63203264  0.94930354  1
  S2-  S198  1  -0.00889286  0.87051662  0.46043178  1
  S2-  S199  1  0.00634080  0.86740875  0.94527522  1
  S2-  S200  1  0.24345189  0.11787938  0.45878414  1
  S2-  S201  1  0.25562507  0.12327868  0.95405211  1
  S2-  S202  1  0.24800229  0.37311390  0.45770739  1
  S2-  S203  1  0.25609682  0.38257656  0.95440105  1
  S2-  S204  1  0.24746923  0.62014639  0.45591903  1
  S2-  S205  1  0.25796588  0.62931582  0.95329451  1
  S2-  S206  1  0.24058727  0.86820402  0.46431761  1
  S2-  S207  1  0.25272668  0.87513342  0.94405702  1
  S2-  S208  1  0.49141516  0.12638944  0.45751031  1
  S2-  S209  1  0.50503305  0.12656566  0.95368777  1
  S2-  S210  1  0.49183941  0.36727070  0.45834791  1
  S2-  S211  1  0.50641666  0.37728172  0.94975203  1
  S2-  S212  1  0.49297808  0.62521562  0.45440018  1
  S2-  S213  1  0.50921030  0.62409960  0.95687438  1
  S2-  S214  1  0.49816715  0.86946306  0.45137772  1
  S2-  S215  1  0.50312395  0.87872787  0.96234925  1
  S2-  S216  1  0.74334231  0.12312667  0.44932502  1
  S2-  S217  1  0.75488839  0.12238755  0.95277076  1
  S2-  S218  1  0.73951652  0.36927267  0.44669065  1
  S2-  S219  1  0.75262233  0.37657882  0.96433208  1
  S2-  S220  1  0.74193386  0.62116638  0.45288051  1
  S2-  S221  1  0.74923733  0.63169485  0.95811470  1
  S2-  S222  1  0.74388422  0.87337610  0.44908258  1
  S2-  S223  1  0.75731800  0.87348497  0.95328890  1
  S2-  S224  1  0.12981205  0.00046957  0.02935314  1
  S2-  S225  1  0.11238280  -0.00329690  0.54224376  1
  S2-  S226  1  0.12841563  0.25662635  0.03225057  1
  S2-  S227  1  0.12290771  0.24433636  0.54000631  1
  S2-  S228  1  0.12918540  0.50388260  0.04246997  1
  S2-  S229  1  0.12469647  0.49915271  0.53962377  1
  S2-  S230  1  0.13348740  0.75036232  0.04590858  1
  S2-  S231  1  0.11906092  0.74401922  0.54489985  1
  S2-  S232  1  0.37515819  0.00292252  0.04541849  1
  S2-  S233  1  0.37276156  -0.00781242  0.54811212  1
  S2-  S234  1  0.37655389  0.25248331  0.05242193  1
  S2-  S235  1  0.37158785  0.24436444  0.54592146  1
  S2-  S236  1  0.37867043  0.50349269  0.05175820  1
  S2-  S237  1  0.36976268  0.49344546  0.55129043  1
  S2-  S238  1  0.38003686  0.75435108  0.04962671  1
  S2-  S239  1  0.37580633  0.74902373  0.55455444  1
  S2-  S240  1  0.63253870  0.00456004  0.04823160  1
  S2-  S241  1  0.61923321  -0.00038889  0.53693605  1
  S2-  S242  1  0.62761641  0.25147703  0.04701388  1
  S2-  S243  1  0.61973562  0.24115696  0.55328924  1
  S2-  S244  1  0.63146624  0.50178970  0.04988664  1
  S2-  S245  1  0.62219422  0.49477718  0.54217535  1
  S2-  S246  1  0.62957981  0.75230283  0.04447558  1
  S2-  S247  1  0.62186924  0.74503204  0.54563854  1
  S2-  S248  1  0.88144949  0.00385739  0.04539812  1
  S2-  S249  1  0.87191688  -0.00358969  0.54939318  1
  S2-  S250  1  0.88818326  0.25022106  0.03316975  1
  S2-  S251  1  0.86546287  0.25102069  0.55150429  1
  S2-  S252  1  0.88312175  0.50757232  0.03489229  1
  S2-  S253  1  0.86827160  0.49675017  0.54545073  1
  S2-  S254  1  0.88063817  0.75193898  0.04712266  1
  S2-  S255  1  0.86952243  0.74216874  0.54919682  1
