# generated using pymatgen
data_La12Ce14Pr13Nd13Sm12(BiS2)64
_symmetry_space_group_name_H-M   'P 1'
_cell_length_a   16.19836382
_cell_length_b   16.19877581
_cell_length_c   27.12751604
_cell_angle_alpha   89.90379532
_cell_angle_beta   89.97993301
_cell_angle_gamma   89.97440210
_symmetry_Int_Tables_number   1
_chemical_formula_structural   La12Ce14Pr13Nd13Sm12(BiS2)64
_chemical_formula_sum   'La12 Ce14 Pr13 Nd13 Sm12 Bi64 S128'
_cell_volume   7118.07714824
_cell_formula_units_Z   1
loop_
 _symmetry_equiv_pos_site_id
 _symmetry_equiv_pos_as_xyz
  1  'x, y, z'
loop_
 _atom_type_symbol
 _atom_type_oxidation_number
  La3+  3.0
  Ce3+  3.0
  Pr3+  3.0
  Nd3+  3.0
  Sm3+  3.0
  Bi2+  2.0
  S2-  -2.0
loop_
 _atom_site_type_symbol
 _atom_site_label
 _atom_site_symmetry_multiplicity
 _atom_site_fract_x
 _atom_site_fract_y
 _atom_site_fract_z
 _atom_site_occupancy
  La3+  La0  1  -0.00987726  0.87323061  0.56416078  1
  La3+  La1  1  -0.01265620  0.37013985  0.56950681  1
  La3+  La2  1  0.86726026  0.49237393  0.90532436  1
  La3+  La3  1  0.24442120  0.87559497  0.56638489  1
  La3+  La4  1  0.25256943  0.37900680  0.09126980  1
  La3+  La5  1  0.25103239  0.11742989  0.07131038  1
  La3+  La6  1  0.86566716  0.50663168  0.42941008  1
  La3+  La7  1  0.51024078  0.12619237  0.60408051  1
  La3+  La8  1  0.37161821  -0.01062795  0.90190090  1
  La3+  La9  1  -0.00736761  0.38433505  0.07717110  1
  La3+  La10  1  0.74455483  0.38350374  0.07317361  1
  La3+  La11  1  0.75507932  0.11876640  0.09852134  1
  Ce3+  Ce12  1  0.74381707  0.37028419  0.55475103  1
  Ce3+  Ce13  1  0.49432804  0.62168937  0.55606448  1
  Ce3+  Ce14  1  0.62146276  0.75286727  0.94607163  1
  Ce3+  Ce15  1  0.87213097  0.00005793  0.93485339  1
  Ce3+  Ce16  1  0.49838646  0.87920946  0.06382367  1
  Ce3+  Ce17  1  0.11757685  0.00139679  0.44873477  1
  Ce3+  Ce18  1  0.62539341  0.24518148  0.95278181  1
  Ce3+  Ce19  1  0.36829428  0.00277208  0.44694034  1
  Ce3+  Ce20  1  0.49364931  0.36862700  0.54853831  1
  Ce3+  Ce21  1  0.49483646  0.87936684  0.56081488  1
  Ce3+  Ce22  1  0.61774596  0.75228434  0.44397711  1
  Ce3+  Ce23  1  0.87482654  0.25947955  0.42587806  1
  Ce3+  Ce24  1  0.49496971  0.62442779  0.05562866  1
  Ce3+  Ce25  1  0.61667716  0.00100138  0.43657523  1
  Pr3+  Pr26  1  -0.00359499  0.62226355  0.04923053  1
  Pr3+  Pr27  1  0.37559150  0.49390851  0.93461516  1
  Pr3+  Pr28  1  -0.00808317  0.12950843  0.56397327  1
  Pr3+  Pr29  1  0.11590219  0.50109564  0.43313403  1
  Pr3+  Pr30  1  0.36821688  0.24807920  0.42921298  1
  Pr3+  Pr31  1  0.75762222  0.87147532  0.06960862  1
  Pr3+  Pr32  1  0.61992344  0.24687570  0.42640069  1
  Pr3+  Pr33  1  0.74304390  0.87760035  0.55508944  1
  Pr3+  Pr34  1  0.12323319  0.49224462  0.93999904  1
  Pr3+  Pr35  1  0.87336573  0.00379499  0.43445675  1
  Pr3+  Pr36  1  0.61897457  0.50133413  0.43370912  1
  Pr3+  Pr37  1  0.73909898  0.62101356  0.56604948  1
  Pr3+  Pr38  1  -0.00359879  0.12311925  0.06445935  1
  Nd3+  Nd39  1  0.49796717  0.11805200  0.07196345  1
  Nd3+  Nd40  1  0.62194536  0.00244649  0.94668578  1
  Nd3+  Nd41  1  0.36842959  0.75145419  0.44481345  1
  Nd3+  Nd42  1  0.86720719  0.75457722  0.92406234  1
  Nd3+  Nd43  1  0.12587509  0.00443796  0.93693538  1
  Nd3+  Nd44  1  0.12436749  0.74691502  0.93366895  1
  Nd3+  Nd45  1  -0.00289592  0.61361560  0.57296388  1
  Nd3+  Nd46  1  0.86952608  0.74851240  0.44145586  1
  Nd3+  Nd47  1  0.37149340  0.24700644  0.94356546  1
  Nd3+  Nd48  1  0.12381912  0.25254917  0.95842767  1
  Nd3+  Nd49  1  0.24812671  0.12836978  0.55776340  1
  Nd3+  Nd50  1  0.75004990  0.62518117  0.05438562  1
  Nd3+  Nd51  1  0.36844676  0.50147852  0.43748846  1
  Sm3+  Sm52  1  0.24343430  0.62217868  0.55440542  1
  Sm3+  Sm53  1  0.11796633  0.75068305  0.44485030  1
  Sm3+  Sm54  1  0.24530472  0.37371914  0.55046935  1
  Sm3+  Sm55  1  0.87153645  0.25172670  0.95177587  1
  Sm3+  Sm56  1  0.49892415  0.37090276  0.06209574  1
  Sm3+  Sm57  1  0.74204613  0.12541440  0.54961206  1
  Sm3+  Sm58  1  0.24721229  0.62452196  0.05197042  1
  Sm3+  Sm59  1  0.11799317  0.25258018  0.43725695  1
  Sm3+  Sm60  1  0.24839901  0.87557673  0.05820433  1
  Sm3+  Sm61  1  -0.00336340  0.87225054  0.04869238  1
  Sm3+  Sm62  1  0.62651228  0.49707323  0.93764832  1
  Sm3+  Sm63  1  0.37423700  0.75006872  0.94511257  1
  Bi2+  Bi64  1  -0.00600913  0.04513019  0.30086715  1
  Bi2+  Bi65  1  -0.03559839  0.11454376  0.80644779  1
  Bi2+  Bi66  1  0.02676618  0.39089449  0.28138022  1
  Bi2+  Bi67  1  0.03269224  0.36869959  0.80520353  1
  Bi2+  Bi68  1  -0.00321649  0.65492255  0.27863782  1
  Bi2+  Bi69  1  0.02079013  0.62842569  0.79552230  1
  Bi2+  Bi70  1  0.00711203  0.84695590  0.28763411  1
  Bi2+  Bi71  1  -0.02554774  0.92295500  0.78265893  1
  Bi2+  Bi72  1  0.25581497  0.09291957  0.30097392  1
  Bi2+  Bi73  1  0.22417934  0.14296542  0.80453260  1
  Bi2+  Bi74  1  0.24284265  0.37217458  0.30515717  1
  Bi2+  Bi75  1  0.30091286  0.39534466  0.77134072  1
  Bi2+  Bi76  1  0.25799368  0.66888815  0.26951550  1
  Bi2+  Bi77  1  0.27471326  0.60365075  0.79064605  1
  Bi2+  Bi78  1  0.25904821  0.86753025  0.26441951  1
  Bi2+  Bi79  1  0.24792525  0.82741272  0.79356960  1
  Bi2+  Bi80  1  0.46144254  0.11477821  0.28959412  1
  Bi2+  Bi81  1  0.52270723  0.12944642  0.80606814  1
  Bi2+  Bi82  1  0.51236639  0.47784810  0.28801358  1
  Bi2+  Bi83  1  0.49685250  0.40757435  0.80329659  1
  Bi2+  Bi84  1  0.51389484  0.66972866  0.29240180  1
  Bi2+  Bi85  1  0.46594694  0.60041182  0.81513783  1
  Bi2+  Bi86  1  0.46128750  0.86228555  0.29200103  1
  Bi2+  Bi87  1  0.54182892  0.86368601  0.80255101  1
  Bi2+  Bi88  1  0.72489989  0.11554123  0.29636374  1
  Bi2+  Bi89  1  0.77630503  0.11420620  0.77039412  1
  Bi2+  Bi90  1  0.76634476  0.36862049  0.30035276  1
  Bi2+  Bi91  1  0.75245182  0.32680556  0.79664740  1
  Bi2+  Bi92  1  0.77106070  0.62855079  0.28902784  1
  Bi2+  Bi93  1  0.72377416  0.63004110  0.79117445  1
  Bi2+  Bi94  1  0.74801436  0.83247664  0.27959837  1
  Bi2+  Bi95  1  0.77913884  0.89738183  0.76426878  1
  Bi2+  Bi96  1  0.10173706  -0.05652128  0.20055001  1
  Bi2+  Bi97  1  0.10298543  0.04341585  0.73010520  1
  Bi2+  Bi98  1  0.11966554  0.13053740  0.22568990  1
  Bi2+  Bi99  1  0.10334396  0.24343689  0.73180323  1
  Bi2+  Bi100  1  0.11926655  0.59863673  0.19761303  1
  Bi2+  Bi101  1  0.16576501  0.50175697  0.70516688  1
  Bi2+  Bi102  1  0.20241501  0.76500772  0.17059121  1
  Bi2+  Bi103  1  0.14318897  0.77075843  0.70574592  1
  Bi2+  Bi104  1  0.36045748  0.01641925  0.21000512  1
  Bi2+  Bi105  1  0.36611930  0.00165761  0.70785448  1
  Bi2+  Bi106  1  0.35789076  0.28166626  0.21421245  1
  Bi2+  Bi107  1  0.34857534  0.25721027  0.69538154  1
  Bi2+  Bi108  1  0.36551087  0.53093321  0.21521806  1
  Bi2+  Bi109  1  0.41592936  0.52249945  0.70730019  1
  Bi2+  Bi110  1  0.46829081  0.78316767  0.18702387  1
  Bi2+  Bi111  1  0.39601286  0.72093332  0.72663882  1
  Bi2+  Bi112  1  0.60628884  -0.06305066  0.22279672  1
  Bi2+  Bi113  1  0.65705539  0.00045183  0.69975577  1
  Bi2+  Bi114  1  0.59660220  0.29042209  0.21271817  1
  Bi2+  Bi115  1  0.60637825  0.32433506  0.72165397  1
  Bi2+  Bi116  1  0.63498785  0.56230892  0.21350891  1
  Bi2+  Bi117  1  0.63957953  0.50967886  0.71626636  1
  Bi2+  Bi118  1  0.66731888  0.76173059  0.18013283  1
  Bi2+  Bi119  1  0.59080928  0.72366260  0.72762050  1
  Bi2+  Bi120  1  0.87508951  -0.03920107  0.21115925  1
  Bi2+  Bi121  1  0.91930460  0.06110817  0.68877864  1
  Bi2+  Bi122  1  0.87416668  0.22545493  0.21969403  1
  Bi2+  Bi123  1  0.87664157  0.25299812  0.70818486  1
  Bi2+  Bi124  1  0.87658669  0.46688459  0.19955779  1
  Bi2+  Bi125  1  0.89043444  0.50901372  0.69833072  1
  Bi2+  Bi126  1  0.86315241  0.72489750  0.19944678  1
  Bi2+  Bi127  1  0.87953034  0.76382612  0.70169307  1
  S2-  S128  1  -0.08955397  0.10795438  0.15210380  1
  S2-  S129  1  0.01381298  0.24138389  0.64157185  1
  S2-  S130  1  -0.00929534  0.33450994  0.17853329  1
  S2-  S131  1  0.02844658  0.47597942  0.64532618  1
  S2-  S132  1  -0.01356918  0.53823528  0.13848068  1
  S2-  S133  1  -0.01410267  0.65367667  0.67428935  1
  S2-  S134  1  -0.08367557  0.84890850  0.13456578  1
  S2-  S135  1  0.01793408  0.85731439  0.66334679  1
  S2-  S136  1  0.24854711  0.20036011  0.16181831  1
  S2-  S137  1  0.27023984  0.12551055  0.65664076  1
  S2-  S138  1  0.23281209  0.38122475  0.20027654  1
  S2-  S139  1  0.24274307  0.37494492  0.64870102  1
  S2-  S140  1  0.26068085  0.54306114  0.13796475  1
  S2-  S141  1  0.21530772  0.63370720  0.65150126  1
  S2-  S142  1  0.24888461  0.97914756  0.13846365  1
  S2-  S143  1  0.25473149  0.87748535  0.66692701  1
  S2-  S144  1  0.49290865  0.19622342  0.16555024  1
  S2-  S145  1  0.46816563  0.13349402  0.70826785  1
  S2-  S146  1  0.52471614  0.40008648  0.15842779  1
  S2-  S147  1  0.49359112  0.30033779  0.63857350  1
  S2-  S148  1  0.47300119  0.62019627  0.15300678  1
  S2-  S149  1  0.55474035  0.60317336  0.64651969  1
  S2-  S150  1  0.49728225  0.98394182  0.14372254  1
  S2-  S151  1  0.50388930  0.95282748  0.65017342  1
  S2-  S152  1  0.70858631  0.15658814  0.19825605  1
  S2-  S153  1  0.67450504  0.13436525  0.64118868  1
  S2-  S154  1  0.77027482  0.33780931  0.17213466  1
  S2-  S155  1  0.83066517  0.37878941  0.64039373  1
  S2-  S156  1  0.74856375  0.53233894  0.13961773  1
  S2-  S157  1  0.78519582  0.63209961  0.66316870  1
  S2-  S158  1  0.73957621  0.96768183  0.15399934  1
  S2-  S159  1  0.76391821  0.87727823  0.65474183  1
  S2-  S160  1  0.13819582  -0.00431259  0.35214992  1
  S2-  S161  1  0.21484121  -0.00706726  0.85155907  1
  S2-  S162  1  0.11496940  0.27155251  0.33787771  1
  S2-  S163  1  0.13900061  0.26644233  0.85917100  1
  S2-  S164  1  0.12981351  0.49314012  0.33139051  1
  S2-  S165  1  0.12471122  0.50636793  0.83894597  1
  S2-  S166  1  0.10712470  0.74295970  0.34699103  1
  S2-  S167  1  0.10394738  0.76689956  0.83495394  1
  S2-  S168  1  0.37949132  -0.00708458  0.35004203  1
  S2-  S169  1  0.42334534  -0.01310154  0.79739637  1
  S2-  S170  1  0.38477484  0.24992155  0.32688880  1
  S2-  S171  1  0.37984715  0.15062393  0.85844987  1
  S2-  S172  1  0.36198420  0.48261514  0.33874991  1
  S2-  S173  1  0.35897454  0.36707665  0.86598507  1
  S2-  S174  1  0.36877822  0.72765080  0.34667734  1
  S2-  S175  1  0.38116787  0.81855499  0.85564187  1
  S2-  S176  1  0.60331465  0.03850458  0.34052164  1
  S2-  S177  1  0.61267078  -0.00284546  0.84573624  1
  S2-  S178  1  0.63278308  0.27629135  0.32516106  1
  S2-  S179  1  0.62273219  0.24768115  0.85338386  1
  S2-  S180  1  0.72140568  0.49879551  0.35225270  1
  S2-  S181  1  0.71474290  0.48889553  0.85234769  1
  S2-  S182  1  0.64675390  0.73817388  0.34791960  1
  S2-  S183  1  0.65507650  0.75910535  0.85075230  1
  S2-  S184  1  0.83370040  -0.00514848  0.33604125  1
  S2-  S185  1  0.85637475  -0.10727285  0.85761569  1
  S2-  S186  1  0.85808394  0.21576212  0.32859683  1
  S2-  S187  1  0.88229607  0.32355582  0.86173789  1
  S2-  S188  1  0.91554953  0.40413934  0.35181535  1
  S2-  S189  1  0.92038926  0.49479647  0.80053633  1
  S2-  S190  1  0.88831695  0.64355614  0.36295675  1
  S2-  S191  1  0.88000252  0.67180908  0.83625889  1
  S2-  S192  1  -0.00424415  0.12972163  0.45193796  1
  S2-  S193  1  -0.00273922  0.12679802  0.95599184  1
  S2-  S194  1  -0.00047494  0.37467049  0.45896063  1
  S2-  S195  1  -0.00309381  0.37402269  0.96344280  1
  S2-  S196  1  0.00012358  0.62744611  0.46296341  1
  S2-  S197  1  -0.00245421  0.62003855  0.94264562  1
  S2-  S198  1  -0.00650688  0.87335078  0.45450207  1
  S2-  S199  1  0.00369534  0.87482494  0.94568338  1
  S2-  S200  1  0.24128910  0.12788481  0.45038531  1
  S2-  S201  1  0.24508785  0.12587298  0.96267979  1
  S2-  S202  1  0.24370136  0.37544628  0.44520806  1
  S2-  S203  1  0.24744451  0.37441347  0.96982027  1
  S2-  S204  1  0.24290118  0.62668792  0.44874267  1
  S2-  S205  1  0.25148702  0.62309282  0.94682463  1
  S2-  S206  1  0.24262506  0.87373790  0.45735594  1
  S2-  S207  1  0.24682391  0.87120908  0.95473615  1
  S2-  S208  1  0.49292627  0.12568407  0.44339447  1
  S2-  S209  1  0.49877616  0.12477811  0.96298381  1
  S2-  S210  1  0.49346756  0.37505863  0.44094214  1
  S2-  S211  1  0.50490149  0.37361185  0.95694967  1
  S2-  S212  1  0.49300891  0.62517154  0.44931898  1
  S2-  S213  1  0.49874685  0.62406530  0.94951176  1
  S2-  S214  1  0.49253734  0.87551005  0.45330531  1
  S2-  S215  1  0.49633434  0.87699936  0.95649036  1
  S2-  S216  1  0.74600456  0.12579132  0.44473072  1
  S2-  S217  1  0.75254683  0.12461149  0.94737169  1
  S2-  S218  1  0.74267576  0.37177517  0.45008556  1
  S2-  S219  1  0.74574764  0.37312736  0.96148854  1
  S2-  S220  1  0.73903792  0.62957134  0.45854734  1
  S2-  S221  1  0.74643390  0.62480484  0.94939507  1
  S2-  S222  1  0.74675707  0.87606085  0.44776937  1
  S2-  S223  1  0.74442897  0.87636782  0.96009456  1
  S2-  S224  1  0.11654921  -0.00443343  0.04366834  1
  S2-  S225  1  0.11772721  0.00341750  0.55689454  1
  S2-  S226  1  0.11943955  0.25285272  0.06421464  1
  S2-  S227  1  0.12479781  0.25083384  0.54170165  1
  S2-  S228  1  0.12628096  0.49868454  0.04637428  1
  S2-  S229  1  0.12618460  0.49890764  0.54050410  1
  S2-  S230  1  0.12204784  0.74848485  0.04070403  1
  S2-  S231  1  0.11883687  0.74685096  0.55064742  1
  S2-  S232  1  0.37358507  -0.00542975  0.04160903  1
  S2-  S233  1  0.37207359  0.00476393  0.55213469  1
  S2-  S234  1  0.37435590  0.25292920  0.05376892  1
  S2-  S235  1  0.36768566  0.24973049  0.53752354  1
  S2-  S236  1  0.37721777  0.49589898  0.04225537  1
  S2-  S237  1  0.36830985  0.49885444  0.54546123  1
  S2-  S238  1  0.36952593  0.75010193  0.04876083  1
  S2-  S239  1  0.36937965  0.74738678  0.55277832  1
  S2-  S240  1  0.63191992  0.00439943  0.05052564  1
  S2-  S241  1  0.61762981  0.00325069  0.54219449  1
  S2-  S242  1  0.62652511  0.24589139  0.05959072  1
  S2-  S243  1  0.61855316  0.24656459  0.53538010  1
  S2-  S244  1  0.61761510  0.50218302  0.04234503  1
  S2-  S245  1  0.61826454  0.49405355  0.54172463  1
  S2-  S246  1  0.62270204  0.74991207  0.05097337  1
  S2-  S247  1  0.61755900  0.75208660  0.55183298  1
  S2-  S248  1  0.87468665  -0.00131839  0.04121375  1
  S2-  S249  1  0.86869727  0.00361097  0.54371971  1
  S2-  S250  1  0.86959603  0.24959984  0.05581568  1
  S2-  S251  1  0.86460315  0.24505804  0.53689158  1
  S2-  S252  1  0.87017903  0.50059152  0.03672211  1
  S2-  S253  1  0.86641975  0.50332888  0.54110570  1
  S2-  S254  1  0.87412789  0.74589958  0.03213865  1
  S2-  S255  1  0.86753301  0.74651052  0.54835057  1
