# generated using pymatgen
data_La12Ce14Pr13Nd13Sm12(BiS2)64
_symmetry_space_group_name_H-M   'P 1'
_cell_length_a   16.09888814
_cell_length_b   16.15979904
_cell_length_c   27.20962068
_cell_angle_alpha   89.85151315
_cell_angle_beta   89.69253048
_cell_angle_gamma   90.06532673
_symmetry_Int_Tables_number   1
_chemical_formula_structural   La12Ce14Pr13Nd13Sm12(BiS2)64
_chemical_formula_sum   'La12 Ce14 Pr13 Nd13 Sm12 Bi64 S128'
_cell_volume   7078.58293854
_cell_formula_units_Z   1
loop_
 _symmetry_equiv_pos_site_id
 _symmetry_equiv_pos_as_xyz
  1  'x, y, z'
loop_
 _atom_type_symbol
 _atom_type_oxidation_number
  La3+  3.0
  Ce3+  3.0
  Pr3+  3.0
  Nd3+  3.0
  Sm3+  3.0
  Bi2+  2.0
  S2-  -2.0
loop_
 _atom_site_type_symbol
 _atom_site_label
 _atom_site_symmetry_multiplicity
 _atom_site_fract_x
 _atom_site_fract_y
 _atom_site_fract_z
 _atom_site_occupancy
  La3+  La0  1  0.23820510  0.63065564  0.56237571  1
  La3+  La1  1  0.72986414  0.63796570  0.59897316  1
  La3+  La2  1  0.89436735  0.23967278  0.92628015  1
  La3+  La3  1  -0.01681652  0.39422000  0.56883411  1
  La3+  La4  1  0.48067199  0.37877272  0.57824320  1
  La3+  La5  1  0.47431629  0.13458195  0.57026260  1
  La3+  La6  1  0.10508303  0.51342072  0.40986128  1
  La3+  La7  1  0.65082914  0.74881298  0.92087465  1
  La3+  La8  1  0.23175250  0.88501574  0.56548948  1
  La3+  La9  1  0.52619258  0.11592894  0.08113366  1
  La3+  La10  1  0.63407232  0.24355936  0.90289714  1
  La3+  La11  1  0.51373651  0.85913691  0.09367210  1
  Ce3+  Ce12  1  0.27137563  0.86998046  0.05630897  1
  Ce3+  Ce13  1  0.60774865  0.51059057  0.44853037  1
  Ce3+  Ce14  1  0.86050071  0.00625027  0.44832155  1
  Ce3+  Ce15  1  0.60702333  0.25887395  0.44427344  1
  Ce3+  Ce16  1  0.11019306  0.26143711  0.44258310  1
  Ce3+  Ce17  1  0.76938423  0.37002874  0.05304154  1
  Ce3+  Ce18  1  0.77092885  0.12108593  0.06461134  1
  Ce3+  Ce19  1  0.64507911  0.00207611  0.94617899  1
  Ce3+  Ce20  1  0.26931862  0.12581137  0.06847401  1
  Ce3+  Ce21  1  0.72834079  0.88277858  0.57640535  1
  Ce3+  Ce22  1  0.36027316  0.75968988  0.43970705  1
  Ce3+  Ce23  1  0.89312351  0.49426109  0.93533378  1
  Ce3+  Ce24  1  0.10868800  0.00814316  0.43976986  1
  Ce3+  Ce25  1  0.27153636  0.62424318  0.05662477  1
  Pr3+  Pr26  1  0.85966069  0.26197129  0.44211776  1
  Pr3+  Pr27  1  0.72773254  0.38631922  0.57083155  1
  Pr3+  Pr28  1  0.90209454  -0.00387281  0.93883072  1
  Pr3+  Pr29  1  0.36831780  0.26249771  0.42129506  1
  Pr3+  Pr30  1  0.39900674  0.00264842  0.94357148  1
  Pr3+  Pr31  1  0.36895475  0.50799087  0.42896400  1
  Pr3+  Pr32  1  0.48128059  0.63423328  0.57134576  1
  Pr3+  Pr33  1  -0.01437653  0.88327263  0.56710496  1
  Pr3+  Pr34  1  0.14589928  0.49238123  0.94086836  1
  Pr3+  Pr35  1  0.39974072  0.75035549  0.92604859  1
  Pr3+  Pr36  1  0.01537891  0.86670814  0.06771251  1
  Pr3+  Pr37  1  0.90165542  0.74843966  0.92572243  1
  Pr3+  Pr38  1  0.01785074  0.12351705  0.07167115  1
  Nd3+  Nd39  1  0.25369472  0.39159615  0.10397677  1
  Nd3+  Nd40  1  0.14149639  0.24836591  0.94571287  1
  Nd3+  Nd41  1  0.76509848  0.62440390  0.05381372  1
  Nd3+  Nd42  1  0.51517563  0.36771606  0.07458924  1
  Nd3+  Nd43  1  0.47944383  0.88520408  0.56408734  1
  Nd3+  Nd44  1  0.39501790  0.24871437  0.95199694  1
  Nd3+  Nd45  1  0.23729325  0.38564294  0.55249572  1
  Nd3+  Nd46  1  0.00876831  0.37335722  0.06903603  1
  Nd3+  Nd47  1  0.85710702  0.76013597  0.44521673  1
  Nd3+  Nd48  1  0.36270675  0.01216177  0.42647540  1
  Nd3+  Nd49  1  0.23470920  0.13604435  0.55242399  1
  Nd3+  Nd50  1  0.85781815  0.51130998  0.44334348  1
  Nd3+  Nd51  1  -0.01743962  0.13884138  0.56238030  1
  Sm3+  Sm52  1  0.64433921  0.49522324  0.93402703  1
  Sm3+  Sm53  1  0.76813336  0.86862384  0.06070445  1
  Sm3+  Sm54  1  0.51972898  0.62345532  0.04863945  1
  Sm3+  Sm55  1  0.60973827  0.75958927  0.44757869  1
  Sm3+  Sm56  1  -0.01578659  0.63453406  0.55951808  1
  Sm3+  Sm57  1  0.01864450  0.62259894  0.05050218  1
  Sm3+  Sm58  1  0.11065054  0.75697394  0.43643031  1
  Sm3+  Sm59  1  0.39726712  0.49326176  0.94245998  1
  Sm3+  Sm60  1  0.14657148  -0.00235730  0.94950194  1
  Sm3+  Sm61  1  0.60991462  0.00703067  0.44759348  1
  Sm3+  Sm62  1  0.14779137  0.74710619  0.92938125  1
  Sm3+  Sm63  1  0.73478035  0.13519472  0.55888668  1
  Bi2+  Bi64  1  -0.03262273  0.09810609  0.30250646  1
  Bi2+  Bi65  1  0.03438943  0.12785444  0.79743058  1
  Bi2+  Bi66  1  0.00815631  0.36142342  0.29781208  1
  Bi2+  Bi67  1  0.09343970  0.36603819  0.78168584  1
  Bi2+  Bi68  1  -0.02674903  0.62150265  0.28764082  1
  Bi2+  Bi69  1  0.01193657  0.63045543  0.72873687  1
  Bi2+  Bi70  1  -0.04979793  0.87509842  0.30750559  1
  Bi2+  Bi71  1  -0.00979715  0.88516711  0.79783817  1
  Bi2+  Bi72  1  0.14149635  0.10084357  0.24551690  1
  Bi2+  Bi73  1  0.25645960  0.11966828  0.80135497  1
  Bi2+  Bi74  1  0.24646710  0.32102596  0.28768970  1
  Bi2+  Bi75  1  0.25578506  0.30721854  0.83283989  1
  Bi2+  Bi76  1  0.24596425  0.70387828  0.28804739  1
  Bi2+  Bi77  1  0.19500123  0.59300432  0.76619590  1
  Bi2+  Bi78  1  0.14882653  0.87411639  0.29273507  1
  Bi2+  Bi79  1  0.19553704  0.81675480  0.78403814  1
  Bi2+  Bi80  1  0.47088527  0.11380500  0.30290944  1
  Bi2+  Bi81  1  0.50557598  0.11207603  0.78805586  1
  Bi2+  Bi82  1  0.49729527  0.38256132  0.29411146  1
  Bi2+  Bi83  1  0.43251130  0.35089372  0.78870278  1
  Bi2+  Bi84  1  0.51365708  0.63217129  0.28942458  1
  Bi2+  Bi85  1  0.42072483  0.66723715  0.79618035  1
  Bi2+  Bi86  1  0.51779438  0.87064651  0.31328702  1
  Bi2+  Bi87  1  0.45617052  0.90266180  0.78863718  1
  Bi2+  Bi88  1  0.71961106  0.12833349  0.24833534  1
  Bi2+  Bi89  1  0.76828423  0.11125898  0.79008789  1
  Bi2+  Bi90  1  0.77224156  0.37385558  0.30423142  1
  Bi2+  Bi91  1  0.75450013  0.40888160  0.80335838  1
  Bi2+  Bi92  1  0.71361684  0.55571981  0.28677400  1
  Bi2+  Bi93  1  0.80710951  0.62696020  0.79065568  1
  Bi2+  Bi94  1  0.76761686  0.81935184  0.27791293  1
  Bi2+  Bi95  1  0.73094489  0.90236342  0.78425935  1
  Bi2+  Bi96  1  0.08794995  -0.05090030  0.18302570  1
  Bi2+  Bi97  1  0.17798108  -0.02052461  0.72742404  1
  Bi2+  Bi98  1  0.05394654  0.24049889  0.19210396  1
  Bi2+  Bi99  1  0.12625734  0.15707173  0.69638315  1
  Bi2+  Bi100  1  0.12796322  0.53062206  0.21502829  1
  Bi2+  Bi101  1  0.19421058  0.43511178  0.69161495  1
  Bi2+  Bi102  1  0.12542503  0.75786793  0.19903387  1
  Bi2+  Bi103  1  0.17040695  0.72571002  0.67756657  1
  Bi2+  Bi104  1  0.36145799  -0.02914752  0.21972564  1
  Bi2+  Bi105  1  0.38692305  0.02693155  0.70871247  1
  Bi2+  Bi106  1  0.39083410  0.23555533  0.20245214  1
  Bi2+  Bi107  1  0.29567860  0.25451417  0.71336509  1
  Bi2+  Bi108  1  0.38110440  0.52510954  0.22268079  1
  Bi2+  Bi109  1  0.36949027  0.51129118  0.73457165  1
  Bi2+  Bi110  1  0.39730040  0.72700272  0.21333780  1
  Bi2+  Bi111  1  0.36143760  0.77170109  0.70814699  1
  Bi2+  Bi112  1  0.63729265  -0.03145831  0.21726780  1
  Bi2+  Bi113  1  0.60538064  0.00155814  0.71659291  1
  Bi2+  Bi114  1  0.64506943  0.30701245  0.22407173  1
  Bi2+  Bi115  1  0.62938352  0.27523447  0.70484898  1
  Bi2+  Bi116  1  0.58015005  0.49476382  0.20399116  1
  Bi2+  Bi117  1  0.61899624  0.53276087  0.73080947  1
  Bi2+  Bi118  1  0.65521213  0.70991747  0.20632659  1
  Bi2+  Bi119  1  0.63666017  0.77401445  0.71896189  1
  Bi2+  Bi120  1  0.89898225  -0.01125594  0.21361843  1
  Bi2+  Bi121  1  0.87641646  -0.02585855  0.71819062  1
  Bi2+  Bi122  1  0.86137551  0.25082189  0.20828665  1
  Bi2+  Bi123  1  0.87213251  0.21676993  0.69993461  1
  Bi2+  Bi124  1  0.85477356  0.49021792  0.21757367  1
  Bi2+  Bi125  1  0.90467745  0.45047707  0.70881492  1
  Bi2+  Bi126  1  0.90209370  0.72933965  0.20259374  1
  Bi2+  Bi127  1  0.96547440  0.80382271  0.69122329  1
  S2-  S128  1  -0.10868302  0.11941937  0.14180616  1
  S2-  S129  1  -0.02873584  0.08968909  0.65800949  1
  S2-  S130  1  0.09314001  0.41142792  0.15459271  1
  S2-  S131  1  -0.01492675  0.31103313  0.65970526  1
  S2-  S132  1  0.02827947  0.63329568  0.14934636  1
  S2-  S133  1  -0.00369183  0.53279715  0.63946042  1
  S2-  S134  1  -0.11442820  0.86042577  0.13864225  1
  S2-  S135  1  0.10833409  0.89078173  0.64212149  1
  S2-  S136  1  0.30474327  0.08959344  0.16398350  1
  S2-  S137  1  0.32843423  0.13015469  0.63564970  1
  S2-  S138  1  0.23199469  0.28023448  0.18350559  1
  S2-  S139  1  0.33210051  0.37941754  0.63755088  1
  S2-  S140  1  0.26040497  0.55684011  0.14791308  1
  S2-  S141  1  0.35178324  0.62979182  0.64327062  1
  S2-  S142  1  0.34140401  0.84806656  0.14529620  1
  S2-  S143  1  0.35718601  0.89776565  0.63876998  1
  S2-  S144  1  0.52774800  0.24317153  0.15202064  1
  S2-  S145  1  0.50759454  0.23894806  0.65061475  1
  S2-  S146  1  0.40422339  0.39528636  0.15586405  1
  S2-  S147  1  0.58477248  0.42587123  0.66195130  1
  S2-  S148  1  0.51657237  0.69552684  0.13833571  1
  S2-  S149  1  0.57996196  0.64342716  0.66023256  1
  S2-  S150  1  0.49721675  0.99468915  0.16161275  1
  S2-  S151  1  0.58873683  0.88552292  0.64362493  1
  S2-  S152  1  0.67953403  0.09481082  0.14924866  1
  S2-  S153  1  0.72437032  0.14996745  0.65750821  1
  S2-  S154  1  0.86449459  0.37973853  0.13707202  1
  S2-  S155  1  0.78031152  0.35604970  0.66742633  1
  S2-  S156  1  0.78238891  0.61913698  0.15397089  1
  S2-  S157  1  0.78222085  0.56866910  0.69083747  1
  S2-  S158  1  0.66897816  0.85116919  0.14514120  1
  S2-  S159  1  0.76755377  0.78062226  0.65629956  1
  S2-  S160  1  0.12268480  0.03147275  0.34286871  1
  S2-  S161  1  0.08844289  -0.00227938  0.85743444  1
  S2-  S162  1  0.11256194  0.26380837  0.34424671  1
  S2-  S163  1  0.03799342  0.25912807  0.86202150  1
  S2-  S164  1  0.15440217  0.46027498  0.31079178  1
  S2-  S165  1  0.12813804  0.49881589  0.84038996  1
  S2-  S166  1  0.10628781  0.66518416  0.35282719  1
  S2-  S167  1  0.03123641  0.75217232  0.85303662  1
  S2-  S168  1  0.37152527  -0.02825296  0.32743660  1
  S2-  S169  1  0.34650603  -0.00895081  0.84623685  1
  S2-  S170  1  0.33112682  0.17750204  0.33152400  1
  S2-  S171  1  0.46376633  0.22201606  0.86103968  1
  S2-  S172  1  0.35130568  0.39422696  0.35033920  1
  S2-  S173  1  0.40681485  0.50433634  0.84304542  1
  S2-  S174  1  0.39485181  0.74675501  0.34422112  1
  S2-  S175  1  0.27041483  0.73143627  0.85679992  1
  S2-  S176  1  0.59198916  0.00664885  0.34900792  1
  S2-  S177  1  0.63470121  0.08223817  0.85758218  1
  S2-  S178  1  0.53251121  0.24879454  0.35634670  1
  S2-  S179  1  0.60964759  0.34068749  0.81081196  1
  S2-  S180  1  0.51860205  0.51389166  0.36381882  1
  S2-  S181  1  0.66067231  0.55201299  0.83774160  1
  S2-  S182  1  0.63996302  0.78533587  0.35017625  1
  S2-  S183  1  0.52696097  0.76009391  0.84784758  1
  S2-  S184  1  0.84873570  0.00288863  0.35100167  1
  S2-  S185  1  0.89408302  0.09204563  0.85458046  1
  S2-  S186  1  0.88828195  0.25268733  0.34253384  1
  S2-  S187  1  0.78630989  0.26127490  0.84350218  1
  S2-  S188  1  0.94937672  0.49720617  0.35733375  1
  S2-  S189  1  0.89862910  0.50400702  0.83641997  1
  S2-  S190  1  0.86850164  0.72713491  0.34645461  1
  S2-  S191  1  0.78491219  0.75452831  0.84854770  1
  S2-  S192  1  -0.01683056  0.13465415  0.45506675  1
  S2-  S193  1  0.02459726  0.11954842  0.96507079  1
  S2-  S194  1  -0.01550366  0.38580583  0.45918130  1
  S2-  S195  1  0.01588443  0.37463858  0.96067964  1
  S2-  S196  1  -0.01713979  0.63610623  0.45683153  1
  S2-  S197  1  0.02248724  0.61924829  0.94760848  1
  S2-  S198  1  -0.01297414  0.88045510  0.45653418  1
  S2-  S199  1  0.02574372  0.87127244  0.96005374  1
  S2-  S200  1  0.23560371  0.13325598  0.44733562  1
  S2-  S201  1  0.26673850  0.12441066  0.95956323  1
  S2-  S202  1  0.22949602  0.38975655  0.44783766  1
  S2-  S203  1  0.27186321  0.37221387  0.95445662  1
  S2-  S204  1  0.23751382  0.63264080  0.45013474  1
  S2-  S205  1  0.27281063  0.61570197  0.95274609  1
  S2-  S206  1  0.23380565  0.88311619  0.44863992  1
  S2-  S207  1  0.26895483  0.87501935  0.95168368  1
  S2-  S208  1  0.48591553  0.12885156  0.45740147  1
  S2-  S209  1  0.52135604  0.12579169  0.96775749  1
  S2-  S210  1  0.48831479  0.38264717  0.46299569  1
  S2-  S211  1  0.52213150  0.37260928  0.95535693  1
  S2-  S212  1  0.48584984  0.63960199  0.46070217  1
  S2-  S213  1  0.52166741  0.61725693  0.94583641  1
  S2-  S214  1  0.48574700  0.88504406  0.45590980  1
  S2-  S215  1  0.52261069  0.87850912  0.94643529  1
  S2-  S216  1  0.73373558  0.13282056  0.45243016  1
  S2-  S217  1  0.76832388  0.12284323  0.95775413  1
  S2-  S218  1  0.73330448  0.38549670  0.45694334  1
  S2-  S219  1  0.76299675  0.37205928  0.94789652  1
  S2-  S220  1  0.73300240  0.63581235  0.44877335  1
  S2-  S221  1  0.76978425  0.61769094  0.94862832  1
  S2-  S222  1  0.73234934  0.88409724  0.46379249  1
  S2-  S223  1  0.77285006  0.87604290  0.95234539  1
  S2-  S224  1  0.14442585  -0.00421609  0.05423513  1
  S2-  S225  1  0.10660427  0.01440719  0.54507958  1
  S2-  S226  1  0.14290210  0.25202896  0.05370131  1
  S2-  S227  1  0.11024851  0.26111074  0.54996990  1
  S2-  S228  1  0.14248360  0.50001188  0.04597493  1
  S2-  S229  1  0.11352713  0.51172580  0.54000330  1
  S2-  S230  1  0.14411091  0.74595937  0.04068661  1
  S2-  S231  1  0.10851729  0.75475568  0.54090150  1
  S2-  S232  1  0.39242806  -0.00392347  0.04929260  1
  S2-  S233  1  0.35589578  0.00788449  0.53367275  1
  S2-  S234  1  0.38582791  0.25231023  0.05609539  1
  S2-  S235  1  0.35709338  0.25945265  0.53252280  1
  S2-  S236  1  0.39714169  0.49928717  0.04666502  1
  S2-  S237  1  0.36302414  0.50793514  0.53727403  1
  S2-  S238  1  0.39621371  0.74652403  0.03433360  1
  S2-  S239  1  0.35894423  0.76110680  0.54322088  1
  S2-  S240  1  0.64246442  -0.01362382  0.04818113  1
  S2-  S241  1  0.60760409  0.01685578  0.55115460  1
  S2-  S242  1  0.64826695  0.25082267  0.05283902  1
  S2-  S243  1  0.61264044  0.25713079  0.54755705  1
  S2-  S244  1  0.64073759  0.49623201  0.04417848  1
  S2-  S245  1  0.61043901  0.51412676  0.55190582  1
  S2-  S246  1  0.64347803  0.74609629  0.03363584  1
  S2-  S247  1  0.61037173  0.75495517  0.54937171  1
  S2-  S248  1  0.89506792  -0.00648441  0.04384178  1
  S2-  S249  1  0.85711364  0.00747191  0.55496731  1
  S2-  S250  1  0.89386396  0.24653035  0.03883765  1
  S2-  S251  1  0.85611701  0.26157125  0.54869728  1
  S2-  S252  1  0.89284954  0.50384125  0.04154761  1
  S2-  S253  1  0.84932299  0.51671569  0.54967647  1
  S2-  S254  1  0.89356399  0.74237572  0.03524701  1
  S2-  S255  1  0.86064789  0.75586666  0.55030214  1
