# generated using pymatgen
data_La12Ce14Pr13Nd13Sm12(BiS2)64
_symmetry_space_group_name_H-M   'P 1'
_cell_length_a   16.20793712
_cell_length_b   16.20116775
_cell_length_c   27.10600560
_cell_angle_alpha   89.94063460
_cell_angle_beta   90.00176613
_cell_angle_gamma   89.97033879
_symmetry_Int_Tables_number   1
_chemical_formula_structural   La12Ce14Pr13Nd13Sm12(BiS2)64
_chemical_formula_sum   'La12 Ce14 Pr13 Nd13 Sm12 Bi64 S128'
_cell_volume   7117.69368839
_cell_formula_units_Z   1
loop_
 _symmetry_equiv_pos_site_id
 _symmetry_equiv_pos_as_xyz
  1  'x, y, z'
loop_
 _atom_type_symbol
 _atom_type_oxidation_number
  La3+  3.0
  Ce3+  3.0
  Pr3+  3.0
  Nd3+  3.0
  Sm3+  3.0
  Bi2+  2.0
  S2-  -2.0
loop_
 _atom_site_type_symbol
 _atom_site_label
 _atom_site_symmetry_multiplicity
 _atom_site_fract_x
 _atom_site_fract_y
 _atom_site_fract_z
 _atom_site_occupancy
  La3+  La0  1  0.12487840  -0.00083453  0.43135130  1
  La3+  La1  1  0.49182354  0.86406892  0.08986526  1
  La3+  La2  1  0.75422769  0.36716414  0.57187361  1
  La3+  La3  1  0.74821646  0.12812370  0.07846350  1
  La3+  La4  1  0.23103508  0.86925577  0.09853394  1
  La3+  La5  1  -0.00463100  0.60882686  0.61150174  1
  La3+  La6  1  0.11736238  0.24325405  0.92284840  1
  La3+  La7  1  -0.00692327  0.87367511  0.57039195  1
  La3+  La8  1  0.74656266  0.85979299  0.07829414  1
  La3+  La9  1  0.37267400  0.24216073  0.93614395  1
  La3+  La10  1  0.25503272  0.63439619  0.57924831  1
  La3+  La11  1  0.86010817  0.23313706  0.91722031  1
  Ce3+  Ce12  1  0.86754403  0.74920300  0.93515526  1
  Ce3+  Ce13  1  0.12211697  -0.00754848  0.93846407  1
  Ce3+  Ce14  1  0.62146987  0.23964795  0.94083417  1
  Ce3+  Ce15  1  -0.00376357  0.11994362  0.05170721  1
  Ce3+  Ce16  1  0.37593315  0.00756525  0.43044190  1
  Ce3+  Ce17  1  0.62498717  0.50322962  0.44321104  1
  Ce3+  Ce18  1  0.49497786  0.37090921  0.05467995  1
  Ce3+  Ce19  1  0.25144055  0.37834665  0.55963744  1
  Ce3+  Ce20  1  0.11484630  0.49671719  0.93536484  1
  Ce3+  Ce21  1  0.75086113  0.87250667  0.56513893  1
  Ce3+  Ce22  1  0.63020702  0.00086473  0.43163228  1
  Ce3+  Ce23  1  -0.00565788  0.62126103  0.05035462  1
  Ce3+  Ce24  1  0.75348463  0.62170996  0.55786834  1
  Ce3+  Ce25  1  0.86581895  -0.00589350  0.94891554  1
  Pr3+  Pr26  1  0.49948971  0.12519989  0.54978640  1
  Pr3+  Pr27  1  -0.00055414  0.12942498  0.56054266  1
  Pr3+  Pr28  1  0.24094738  0.88065292  0.56674469  1
  Pr3+  Pr29  1  0.36736914  -0.00989498  0.95661073  1
  Pr3+  Pr30  1  -0.00712542  0.36846249  0.04596285  1
  Pr3+  Pr31  1  0.61354649  0.75151062  0.94057570  1
  Pr3+  Pr32  1  0.12423234  0.74987009  0.44907963  1
  Pr3+  Pr33  1  0.11212643  0.74438123  0.92432557  1
  Pr3+  Pr34  1  0.24144153  0.62220937  0.05991997  1
  Pr3+  Pr35  1  0.50241150  0.62558325  0.56866138  1
  Pr3+  Pr36  1  0.62788689  0.25701648  0.43226574  1
  Pr3+  Pr37  1  0.49207023  0.13155808  0.07768218  1
  Pr3+  Pr38  1  0.36894601  0.49759720  0.93726135  1
  Nd3+  Nd39  1  0.50222013  0.87726214  0.55306992  1
  Nd3+  Nd40  1  0.49323044  0.61896073  0.06295272  1
  Nd3+  Nd41  1  0.24246930  0.37006907  0.04887969  1
  Nd3+  Nd42  1  0.61643026  -0.00703642  0.96423548  1
  Nd3+  Nd43  1  0.25114888  0.12682491  0.55891654  1
  Nd3+  Nd44  1  0.74949971  0.37340407  0.06032325  1
  Nd3+  Nd45  1  0.62741229  0.75223121  0.43661746  1
  Nd3+  Nd46  1  0.12543635  0.25428483  0.44327215  1
  Nd3+  Nd47  1  0.87675582  0.75102469  0.44261267  1
  Nd3+  Nd48  1  0.37365184  0.25299020  0.43377291  1
  Nd3+  Nd49  1  0.37245210  0.50661053  0.44142996  1
  Nd3+  Nd50  1  0.85826198  0.49459592  0.92257143  1
  Nd3+  Nd51  1  0.87903899  0.26387254  0.42711866  1
  Sm3+  Sm52  1  0.37466813  0.75438215  0.44089030  1
  Sm3+  Sm53  1  0.49979047  0.37507462  0.55044433  1
  Sm3+  Sm54  1  0.74518512  0.61863954  0.05458593  1
  Sm3+  Sm55  1  0.36679519  0.74635629  0.94803751  1
  Sm3+  Sm56  1  -0.00201502  0.86843819  0.05591692  1
  Sm3+  Sm57  1  0.00224949  0.36994228  0.56835224  1
  Sm3+  Sm58  1  0.62105656  0.49689433  0.94081225  1
  Sm3+  Sm59  1  0.12638764  0.50572438  0.45121368  1
  Sm3+  Sm60  1  0.87468461  0.00392462  0.44140877  1
  Sm3+  Sm61  1  0.87773968  0.50058626  0.44184231  1
  Sm3+  Sm62  1  0.74950003  0.12802977  0.54968775  1
  Sm3+  Sm63  1  0.24212114  0.12291528  0.05932524  1
  Bi2+  Bi64  1  0.01223996  0.14471323  0.27962920  1
  Bi2+  Bi65  1  -0.02368183  0.10740573  0.78965405  1
  Bi2+  Bi66  1  -0.00314916  0.41706780  0.28266165  1
  Bi2+  Bi67  1  0.03568110  0.37451207  0.79122338  1
  Bi2+  Bi68  1  -0.00989099  0.60810859  0.28140345  1
  Bi2+  Bi69  1  0.02462712  0.63226177  0.79776167  1
  Bi2+  Bi70  1  -0.00871250  0.81101500  0.29428743  1
  Bi2+  Bi71  1  -0.09600386  0.91534887  0.80201952  1
  Bi2+  Bi72  1  0.23731427  0.15736817  0.28928636  1
  Bi2+  Bi73  1  0.24887878  0.10326095  0.80308419  1
  Bi2+  Bi74  1  0.20914870  0.37744233  0.29612469  1
  Bi2+  Bi75  1  0.32422427  0.35861810  0.77629085  1
  Bi2+  Bi76  1  0.25904022  0.61949750  0.30034638  1
  Bi2+  Bi77  1  0.26267381  0.61177026  0.78723785  1
  Bi2+  Bi78  1  0.23730489  0.87837800  0.29370532  1
  Bi2+  Bi79  1  0.30056031  0.90589255  0.76175820  1
  Bi2+  Bi80  1  0.49807290  0.19268617  0.27724220  1
  Bi2+  Bi81  1  0.52874123  0.10750012  0.80289009  1
  Bi2+  Bi82  1  0.44931755  0.37986609  0.29549926  1
  Bi2+  Bi83  1  0.51641767  0.37841841  0.79438396  1
  Bi2+  Bi84  1  0.52109914  0.55985615  0.27064029  1
  Bi2+  Bi85  1  0.51144009  0.64431552  0.79161211  1
  Bi2+  Bi86  1  0.48402647  0.85319728  0.29911298  1
  Bi2+  Bi87  1  0.48440197  0.89559144  0.81763301  1
  Bi2+  Bi88  1  0.75621722  0.12199497  0.28762374  1
  Bi2+  Bi89  1  0.71499369  0.12404807  0.77239381  1
  Bi2+  Bi90  1  0.74601325  0.40106356  0.28698205  1
  Bi2+  Bi91  1  0.70374941  0.36936038  0.78524367  1
  Bi2+  Bi92  1  0.79106273  0.59700097  0.27568982  1
  Bi2+  Bi93  1  0.72456281  0.61676646  0.78145959  1
  Bi2+  Bi94  1  0.73205444  0.85531017  0.30746497  1
  Bi2+  Bi95  1  0.71886091  0.88177514  0.80167946  1
  Bi2+  Bi96  1  0.09146875  0.01388385  0.20504260  1
  Bi2+  Bi97  1  0.11303800  0.00369947  0.73076180  1
  Bi2+  Bi98  1  0.09450527  0.30761723  0.20827219  1
  Bi2+  Bi99  1  0.14344864  0.22053261  0.70708659  1
  Bi2+  Bi100  1  0.19456850  0.50967035  0.20966246  1
  Bi2+  Bi101  1  0.17937648  0.47430328  0.72663567  1
  Bi2+  Bi102  1  0.10529065  0.72694423  0.20978379  1
  Bi2+  Bi103  1  0.14848627  0.76756255  0.71010226  1
  Bi2+  Bi104  1  0.34514119  0.05010475  0.21881386  1
  Bi2+  Bi105  1  0.40783814  0.04589175  0.71770980  1
  Bi2+  Bi106  1  0.35350698  0.29440875  0.20873221  1
  Bi2+  Bi107  1  0.39519099  0.23759162  0.69484460  1
  Bi2+  Bi108  1  0.38523504  0.49532761  0.18772746  1
  Bi2+  Bi109  1  0.42907716  0.48830366  0.70915116  1
  Bi2+  Bi110  1  0.37157567  0.68423666  0.21747907  1
  Bi2+  Bi111  1  0.40839081  0.75632906  0.71650950  1
  Bi2+  Bi112  1  0.62432295  0.00906052  0.22361141  1
  Bi2+  Bi113  1  0.63516864  -0.03402289  0.70926970  1
  Bi2+  Bi114  1  0.61342527  0.33147907  0.21088112  1
  Bi2+  Bi115  1  0.59112287  0.24605788  0.71664626  1
  Bi2+  Bi116  1  0.65419642  0.51942275  0.18796116  1
  Bi2+  Bi117  1  0.60139469  0.58541288  0.69224284  1
  Bi2+  Bi118  1  0.63251933  0.76302672  0.20485099  1
  Bi2+  Bi119  1  0.64198502  0.77661724  0.67781300  1
  Bi2+  Bi120  1  0.91965336  -0.02218008  0.25344376  1
  Bi2+  Bi121  1  0.83274155  0.00971292  0.70839255  1
  Bi2+  Bi122  1  0.87099984  0.22786639  0.19567236  1
  Bi2+  Bi123  1  0.86667714  0.27615530  0.69801738  1
  Bi2+  Bi124  1  0.84506855  0.47112928  0.19154249  1
  Bi2+  Bi125  1  0.86350776  0.49976892  0.72222595  1
  Bi2+  Bi126  1  0.88605976  0.72763051  0.20561631  1
  Bi2+  Bi127  1  0.82422922  0.75066109  0.71833753  1
  S2-  S128  1  -0.00961803  0.12978479  0.14892128  1
  S2-  S129  1  -0.00344319  0.22347633  0.64804800  1
  S2-  S130  1  -0.03893565  0.36900348  0.14569592  1
  S2-  S131  1  -0.01944144  0.44890581  0.65583752  1
  S2-  S132  1  -0.00157001  0.63235939  0.14786546  1
  S2-  S133  1  -0.00792461  0.70376249  0.70325029  1
  S2-  S134  1  0.07328150  0.87539869  0.14537645  1
  S2-  S135  1  0.09671138  0.90041230  0.65060068  1
  S2-  S136  1  0.22306253  0.09601812  0.15657008  1
  S2-  S137  1  0.21479214  0.10529781  0.65654198  1
  S2-  S138  1  0.22283242  0.31711975  0.14261841  1
  S2-  S139  1  0.21143614  0.35315552  0.65435719  1
  S2-  S140  1  0.23822660  0.71140919  0.14721965  1
  S2-  S141  1  0.15587310  0.61323116  0.66202512  1
  S2-  S142  1  0.29946027  0.90261263  0.19263076  1
  S2-  S143  1  0.28085557  0.80222469  0.65299731  1
  S2-  S144  1  0.50309441  0.09511488  0.17746657  1
  S2-  S145  1  0.51467366  0.12209609  0.64942672  1
  S2-  S146  1  0.49237065  0.28938490  0.13985069  1
  S2-  S147  1  0.49710143  0.35894422  0.64780527  1
  S2-  S148  1  0.49440498  0.70861610  0.14802638  1
  S2-  S149  1  0.39063696  0.62369729  0.64742838  1
  S2-  S150  1  0.51832856  0.89004745  0.19332808  1
  S2-  S151  1  0.50250180  0.87004034  0.65313212  1
  S2-  S152  1  0.76388835  0.09480565  0.18040016  1
  S2-  S153  1  0.76550761  0.21193119  0.63398216  1
  S2-  S154  1  0.74031399  0.27682768  0.14267258  1
  S2-  S155  1  0.75455212  0.40815526  0.67287445  1
  S2-  S156  1  0.75243466  0.70500075  0.13927772  1
  S2-  S157  1  0.82731433  0.61724397  0.64694809  1
  S2-  S158  1  0.72760965  0.89111085  0.18007344  1
  S2-  S159  1  0.86027109  0.87457341  0.64261527  1
  S2-  S160  1  0.16244816  0.00886961  0.33252609  1
  S2-  S161  1  0.10759450  0.00684308  0.84050892  1
  S2-  S162  1  0.11293587  0.24821219  0.34467937  1
  S2-  S163  1  0.13496725  0.24601401  0.82109501  1
  S2-  S164  1  0.16102469  0.51640602  0.35426913  1
  S2-  S165  1  0.14280217  0.49874149  0.83832727  1
  S2-  S166  1  0.14046028  0.78976793  0.35083273  1
  S2-  S167  1  0.16175454  0.73492562  0.82506393  1
  S2-  S168  1  0.37704931  -0.04340610  0.33528254  1
  S2-  S169  1  0.35505254  -0.00928024  0.85498084  1
  S2-  S170  1  0.36813615  0.16116514  0.34932808  1
  S2-  S171  1  0.35179165  0.21664070  0.83763654  1
  S2-  S172  1  0.39212010  0.52735524  0.34345751  1
  S2-  S173  1  0.38422605  0.54697514  0.84150670  1
  S2-  S174  1  0.37110124  0.75117047  0.34144665  1
  S2-  S175  1  0.40961510  0.76604433  0.85316401  1
  S2-  S176  1  0.60651235  -0.01989174  0.33299544  1
  S2-  S177  1  0.61391116  -0.00365882  0.86370727  1
  S2-  S178  1  0.63442588  0.21781090  0.33369283  1
  S2-  S179  1  0.71328174  0.23980534  0.85761654  1
  S2-  S180  1  0.63224468  0.48146089  0.34608410  1
  S2-  S181  1  0.71765515  0.49141443  0.85875001  1
  S2-  S182  1  0.60917601  0.74565808  0.33668427  1
  S2-  S183  1  0.63995134  0.73828265  0.84080848  1
  S2-  S184  1  0.83494185  -0.01732492  0.34631244  1
  S2-  S185  1  0.86226365  0.06794226  0.85972600  1
  S2-  S186  1  0.87585530  0.19375692  0.33447384  1
  S2-  S187  1  0.92500097  0.26772603  0.82022958  1
  S2-  S188  1  0.88554380  0.40319271  0.35957111  1
  S2-  S189  1  0.92623307  0.50307550  0.82727981  1
  S2-  S190  1  0.83719866  0.75240064  0.34490686  1
  S2-  S191  1  0.95225098  0.75082231  0.84871440  1
  S2-  S192  1  -0.00074977  0.12726807  0.44961140  1
  S2-  S193  1  -0.00300080  0.11833562  0.94730663  1
  S2-  S194  1  0.00742124  0.38121124  0.45952775  1
  S2-  S195  1  -0.01136184  0.36889487  0.93886698  1
  S2-  S196  1  -0.00025343  0.62349330  0.44367394  1
  S2-  S197  1  -0.01202806  0.61679124  0.94511022  1
  S2-  S198  1  -0.00348101  0.87863203  0.45538834  1
  S2-  S199  1  -0.00608387  0.87299991  0.95164349  1
  S2-  S200  1  0.24802698  0.12808639  0.45192547  1
  S2-  S201  1  0.24369248  0.11990969  0.95266060  1
  S2-  S202  1  0.25074974  0.37829871  0.45155531  1
  S2-  S203  1  0.24437940  0.37010826  0.94111276  1
  S2-  S204  1  0.25211351  0.62980371  0.46255733  1
  S2-  S205  1  0.24301151  0.62271449  0.95098952  1
  S2-  S206  1  0.25228166  0.87707784  0.45675088  1
  S2-  S207  1  0.24255096  0.86426881  0.94659806  1
  S2-  S208  1  0.50480968  0.12843158  0.44399686  1
  S2-  S209  1  0.49318730  0.11767900  0.96479723  1
  S2-  S210  1  0.49693793  0.37773484  0.44548306  1
  S2-  S211  1  0.49800562  0.37273749  0.94674755  1
  S2-  S212  1  0.49989017  0.62968558  0.45554045  1
  S2-  S213  1  0.49563453  0.62025338  0.95576679  1
  S2-  S214  1  0.50110563  0.87646672  0.44709397  1
  S2-  S215  1  0.49100789  0.86837562  0.97228497  1
  S2-  S216  1  0.75312736  0.12979844  0.44608350  1
  S2-  S217  1  0.74059607  0.11514303  0.96706919  1
  S2-  S218  1  0.74989931  0.37935115  0.45780474  1
  S2-  S219  1  0.74140292  0.36867906  0.95585279  1
  S2-  S220  1  0.75249188  0.62435950  0.44935671  1
  S2-  S221  1  0.74090638  0.62645193  0.95172366  1
  S2-  S222  1  0.75247124  0.87665826  0.45635759  1
  S2-  S223  1  0.74285247  0.86990513  0.96321894  1
  S2-  S224  1  0.12345069  -0.00573638  0.04494300  1
  S2-  S225  1  0.12220693  0.00670591  0.54102776  1
  S2-  S226  1  0.11992730  0.24405846  0.03415425  1
  S2-  S227  1  0.12812172  0.25121190  0.54759930  1
  S2-  S228  1  0.11908635  0.49451162  0.04403755  1
  S2-  S229  1  0.12297881  0.50049492  0.55419397  1
  S2-  S230  1  0.11827892  0.74645473  0.03691764  1
  S2-  S231  1  0.11895148  0.74797853  0.55438795  1
  S2-  S232  1  0.36561306  -0.00439446  0.06388413  1
  S2-  S233  1  0.37373232  -0.00011268  0.54438204  1
  S2-  S234  1  0.36479925  0.24504760  0.04346315  1
  S2-  S235  1  0.37496037  0.25167907  0.54130160  1
  S2-  S236  1  0.36748103  0.49537161  0.04483275  1
  S2-  S237  1  0.37778415  0.49883750  0.54750611  1
  S2-  S238  1  0.36523608  0.74882871  0.05127007  1
  S2-  S239  1  0.37946484  0.75593306  0.54486575  1
  S2-  S240  1  0.61816650  -0.00500352  0.06959313  1
  S2-  S241  1  0.62904161  0.00218661  0.54271019  1
  S2-  S242  1  0.61974784  0.24770703  0.04447515  1
  S2-  S243  1  0.62246861  0.25128941  0.53998436  1
  S2-  S244  1  0.62105920  0.49660591  0.04600401  1
  S2-  S245  1  0.62506162  0.49662409  0.55100534  1
  S2-  S246  1  0.61812553  0.74188726  0.04728504  1
  S2-  S247  1  0.62610472  0.74827226  0.54412624  1
  S2-  S248  1  0.87142492  -0.00981497  0.05773962  1
  S2-  S249  1  0.87275389  0.00809888  0.54583651  1
  S2-  S250  1  0.87122091  0.24407809  0.03583324  1
  S2-  S251  1  0.87962962  0.25197936  0.53455916  1
  S2-  S252  1  0.86786422  0.49789983  0.03635469  1
  S2-  S253  1  0.87865843  0.49589357  0.54551115  1
  S2-  S254  1  0.87380810  0.74586248  0.04148639  1
  S2-  S255  1  0.87697698  0.74260340  0.54703360  1
