# generated using pymatgen
data_La12Ce14Pr13Nd13Sm12(BiS2)64
_symmetry_space_group_name_H-M   'P 1'
_cell_length_a   16.09257814
_cell_length_b   16.08814442
_cell_length_c   27.09749465
_cell_angle_alpha   90.01688608
_cell_angle_beta   89.83902633
_cell_angle_gamma   90.03013924
_symmetry_Int_Tables_number   1
_chemical_formula_structural   La12Ce14Pr13Nd13Sm12(BiS2)64
_chemical_formula_sum   'La12 Ce14 Pr13 Nd13 Sm12 Bi64 S128'
_cell_volume   7015.50485020
_cell_formula_units_Z   1
loop_
 _symmetry_equiv_pos_site_id
 _symmetry_equiv_pos_as_xyz
  1  'x, y, z'
loop_
 _atom_type_symbol
 _atom_type_oxidation_number
  La3+  3.0
  Ce3+  3.0
  Pr3+  3.0
  Nd3+  3.0
  Sm3+  3.0
  Bi2+  2.0
  S2-  -2.0
loop_
 _atom_site_type_symbol
 _atom_site_label
 _atom_site_symmetry_multiplicity
 _atom_site_fract_x
 _atom_site_fract_y
 _atom_site_fract_z
 _atom_site_occupancy
  La3+  La0  1  0.62283603  0.51775404  0.93294179  1
  La3+  La1  1  0.01463391  0.87625795  0.58441447  1
  La3+  La2  1  0.49083239  0.11969943  0.59347238  1
  La3+  La3  1  0.12982538  0.52380319  0.93086340  1
  La3+  La4  1  0.12169659  0.25270508  0.42485454  1
  La3+  La5  1  0.88982100  0.75076397  0.42003268  1
  La3+  La6  1  0.39705713  0.00185193  0.40855488  1
  La3+  La7  1  0.62877267  0.74159255  0.41519503  1
  La3+  La8  1  0.87837184  0.26978354  0.90646411  1
  La3+  La9  1  0.88699473  0.50130098  0.42976309  1
  La3+  La10  1  0.00147087  0.63373659  0.08945727  1
  La3+  La11  1  0.12612059  0.00473718  0.41802205  1
  Ce3+  Ce12  1  0.24705302  0.89415643  0.06655743  1
  Ce3+  Ce13  1  0.24919398  0.63962564  0.06915863  1
  Ce3+  Ce14  1  0.11957843  0.26306265  0.94331771  1
  Ce3+  Ce15  1  0.49665878  0.64314218  0.06689771  1
  Ce3+  Ce16  1  0.24251157  0.13824584  0.07397015  1
  Ce3+  Ce17  1  0.62289091  0.76160182  0.93873173  1
  Ce3+  Ce18  1  0.87538749  0.76019714  0.95031624  1
  Ce3+  Ce19  1  0.50179718  0.14134306  0.06695749  1
  Ce3+  Ce20  1  0.37472781  0.26137607  0.94736481  1
  Ce3+  Ce21  1  0.25931537  0.12322478  0.54518519  1
  Ce3+  Ce22  1  0.75939866  0.37965432  0.56847887  1
  Ce3+  Ce23  1  0.12044205  0.76592386  0.95408874  1
  Ce3+  Ce24  1  0.01944342  0.37932753  0.57486305  1
  Ce3+  Ce25  1  0.88413930  -0.00232633  0.44828698  1
  Pr3+  Pr26  1  -0.00464286  0.14137214  0.06314639  1
  Pr3+  Pr27  1  0.12562289  0.01556683  0.93535589  1
  Pr3+  Pr28  1  0.88111926  0.01504636  0.90651763  1
  Pr3+  Pr29  1  0.74366666  0.63441296  0.06983488  1
  Pr3+  Pr30  1  0.37404999  0.01551644  0.93806528  1
  Pr3+  Pr31  1  0.75867227  0.86821876  0.56495763  1
  Pr3+  Pr32  1  0.74885402  0.89041072  0.05926068  1
  Pr3+  Pr33  1  0.01050447  0.12493125  0.56962752  1
  Pr3+  Pr34  1  0.61238636  0.26956916  0.91489294  1
  Pr3+  Pr35  1  0.50969737  0.62407884  0.57044497  1
  Pr3+  Pr36  1  0.13684873  0.75402788  0.43227683  1
  Pr3+  Pr37  1  0.00929917  0.62619057  0.56365497  1
  Pr3+  Pr38  1  0.75006242  0.13204753  0.60216860  1
  Nd3+  Nd39  1  0.50705903  0.37273006  0.56807991  1
  Nd3+  Nd40  1  0.76105403  0.62559164  0.55969351  1
  Nd3+  Nd41  1  0.38736845  0.74838142  0.44161351  1
  Nd3+  Nd42  1  0.88233854  0.25118943  0.45611541  1
  Nd3+  Nd43  1  0.63335088  0.24766630  0.44906108  1
  Nd3+  Nd44  1  0.26027650  0.88052362  0.54838666  1
  Nd3+  Nd45  1  0.38691047  0.24752492  0.42918592  1
  Nd3+  Nd46  1  0.63681336  0.00133807  0.44638161  1
  Nd3+  Nd47  1  0.13316430  0.50128305  0.43370350  1
  Nd3+  Nd48  1  0.49983928  0.89577046  0.06982652  1
  Nd3+  Nd49  1  0.62681407  0.01552218  0.93240117  1
  Nd3+  Nd50  1  0.88371025  0.52457400  0.92129518  1
  Nd3+  Nd51  1  0.50247348  0.38532211  0.06815535  1
  Sm3+  Sm52  1  0.37439753  0.76731169  0.95041660  1
  Sm3+  Sm53  1  0.24679477  0.39061371  0.05599695  1
  Sm3+  Sm54  1  -0.00504774  0.39380593  0.05861099  1
  Sm3+  Sm55  1  0.36954085  0.51581758  0.94623973  1
  Sm3+  Sm56  1  0.51112800  0.87695963  0.55437164  1
  Sm3+  Sm57  1  0.74886169  0.38902232  0.04624598  1
  Sm3+  Sm58  1  0.63129843  0.49919572  0.44135647  1
  Sm3+  Sm59  1  0.25645032  0.37188435  0.55304901  1
  Sm3+  Sm60  1  0.74901036  0.14274072  0.04419319  1
  Sm3+  Sm61  1  0.25784594  0.62734418  0.55292529  1
  Sm3+  Sm62  1  0.38366430  0.49679685  0.44423974  1
  Sm3+  Sm63  1  -0.00465752  0.89267215  0.06394075  1
  Bi2+  Bi64  1  -0.00249115  0.13642243  0.29033090  1
  Bi2+  Bi65  1  0.03294499  0.13818236  0.78665477  1
  Bi2+  Bi66  1  -0.00193079  0.36405828  0.28616526  1
  Bi2+  Bi67  1  0.01242951  0.38511322  0.77712183  1
  Bi2+  Bi68  1  -0.01494639  0.61994792  0.28582472  1
  Bi2+  Bi69  1  0.01660395  0.65610010  0.79713312  1
  Bi2+  Bi70  1  0.01708120  0.88713504  0.29724639  1
  Bi2+  Bi71  1  0.04051081  0.85381371  0.78782103  1
  Bi2+  Bi72  1  0.25633833  0.07452178  0.28555797  1
  Bi2+  Bi73  1  0.23772627  0.17018863  0.80093770  1
  Bi2+  Bi74  1  0.27201657  0.33098235  0.31180057  1
  Bi2+  Bi75  1  0.24913769  0.37250560  0.78332172  1
  Bi2+  Bi76  1  0.22874656  0.52310640  0.30914728  1
  Bi2+  Bi77  1  0.31564802  0.64393127  0.79640441  1
  Bi2+  Bi78  1  0.26016814  0.71383944  0.29812664  1
  Bi2+  Bi79  1  0.23416574  0.88944083  0.79286587  1
  Bi2+  Bi80  1  0.50687779  0.16669703  0.27225391  1
  Bi2+  Bi81  1  0.43022237  0.11092081  0.79886964  1
  Bi2+  Bi82  1  0.48988751  0.35951408  0.30944357  1
  Bi2+  Bi83  1  0.44615987  0.39222276  0.79432609  1
  Bi2+  Bi84  1  0.50093331  0.62125021  0.28701390  1
  Bi2+  Bi85  1  0.50580823  0.59373169  0.79243636  1
  Bi2+  Bi86  1  0.52912762  0.87335393  0.28929439  1
  Bi2+  Bi87  1  0.51349705  0.85766597  0.79561301  1
  Bi2+  Bi88  1  0.76584977  0.21991537  0.30127837  1
  Bi2+  Bi89  1  0.73351818  0.07937819  0.78704683  1
  Bi2+  Bi90  1  0.71559065  0.41186131  0.29174634  1
  Bi2+  Bi91  1  0.72104730  0.39785004  0.78275179  1
  Bi2+  Bi92  1  0.73575018  0.63510244  0.27809523  1
  Bi2+  Bi93  1  0.76510455  0.62371397  0.78753278  1
  Bi2+  Bi94  1  0.73721713  1.02695948  0.30556147  1
  Bi2+  Bi95  1  0.70804289  0.81597062  0.78051578  1
  Bi2+  Bi96  1  0.12539332  -0.00075702  0.19761789  1
  Bi2+  Bi97  1  0.16900705  0.01194640  0.70953081  1
  Bi2+  Bi98  1  0.14876441  0.27930013  0.22675253  1
  Bi2+  Bi99  1  0.05075430  0.24881129  0.68945142  1
  Bi2+  Bi100  1  0.11732958  0.49188649  0.21296391  1
  Bi2+  Bi101  1  0.14844942  0.49319159  0.70655074  1
  Bi2+  Bi102  1  0.12906924  0.75015279  0.21925177  1
  Bi2+  Bi103  1  0.15574477  0.74746899  0.70231127  1
  Bi2+  Bi104  1  0.38306730  -0.04383420  0.19842098  1
  Bi2+  Bi105  1  0.36849637  -0.02336708  0.72216270  1
  Bi2+  Bi106  1  0.38433399  0.28619109  0.21680597  1
  Bi2+  Bi107  1  0.34042377  0.24030135  0.71147136  1
  Bi2+  Bi108  1  0.34677464  0.48451025  0.21070307  1
  Bi2+  Bi109  1  0.36616413  0.50685278  0.71218235  1
  Bi2+  Bi110  1  0.37397089  0.67907564  0.20550972  1
  Bi2+  Bi111  1  0.36895534  0.77565147  0.71304359  1
  Bi2+  Bi112  1  0.64498394  0.01732188  0.20811435  1
  Bi2+  Bi113  1  0.61268251  -0.08581670  0.69982460  1
  Bi2+  Bi114  1  0.65769047  0.26797971  0.20301766  1
  Bi2+  Bi115  1  0.60088357  0.24312323  0.72031384  1
  Bi2+  Bi116  1  0.56758794  0.46166293  0.21611000  1
  Bi2+  Bi117  1  0.63304014  0.53507819  0.70887189  1
  Bi2+  Bi118  1  0.63799991  0.74180655  0.18726339  1
  Bi2+  Bi119  1  0.55444063  0.72247143  0.69121618  1
  Bi2+  Bi120  1  0.85373478  0.09184521  0.21637986  1
  Bi2+  Bi121  1  0.91604844  -0.03024112  0.72734869  1
  Bi2+  Bi122  1  0.96060703  0.25395949  0.18304890  1
  Bi2+  Bi123  1  0.87017708  0.30148746  0.71384443  1
  Bi2+  Bi124  1  0.85635445  0.42518592  0.21208460  1
  Bi2+  Bi125  1  0.88224453  0.51653895  0.71478427  1
  Bi2+  Bi126  1  0.87133540  0.83023556  0.22621362  1
  Bi2+  Bi127  1  0.85674901  0.73174652  0.69889891  1
  S2-  S128  1  0.10544036  0.13653046  0.14387505  1
  S2-  S129  1  0.02913431  0.01947231  0.65134639  1
  S2-  S130  1  -0.01636294  0.48367114  0.14474914  1
  S2-  S131  1  0.00980150  0.50920464  0.64358883  1
  S2-  S132  1  -0.03045584  0.70780155  0.18728902  1
  S2-  S133  1  0.01810434  0.73198475  0.64806598  1
  S2-  S134  1  -0.00935335  0.92699029  0.16245320  1
  S2-  S135  1  -0.13254165  0.88273593  0.64840008  1
  S2-  S136  1  0.30664451  0.09006288  0.16755634  1
  S2-  S137  1  0.31940078  0.12399811  0.63795897  1
  S2-  S138  1  0.22641289  0.38519648  0.15406453  1
  S2-  S139  1  0.16679485  0.36382195  0.63872886  1
  S2-  S140  1  0.15639271  0.62599668  0.15173221  1
  S2-  S141  1  0.24419354  0.61398739  0.65113989  1
  S2-  S142  1  0.23795801  0.87034421  0.16570381  1
  S2-  S143  1  0.18541090  0.87919868  0.64038238  1
  S2-  S144  1  0.51430331  0.02404083  0.14253878  1
  S2-  S145  1  0.61433600  0.10556237  0.67025712  1
  S2-  S146  1  0.51142812  0.26322622  0.14127052  1
  S2-  S147  1  0.48597463  0.27351222  0.65222828  1
  S2-  S148  1  0.56298516  0.59309095  0.15259613  1
  S2-  S149  1  0.50094305  0.49736848  0.64319804  1
  S2-  S150  1  0.47808802  0.81079534  0.16035459  1
  S2-  S151  1  0.47550751  0.95442803  0.64085429  1
  S2-  S152  1  0.72589522  0.13679048  0.14324067  1
  S2-  S153  1  0.82216457  0.09111727  0.69696831  1
  S2-  S154  1  0.72632409  0.39670318  0.14563667  1
  S2-  S155  1  0.73102406  0.29082996  0.65534913  1
  S2-  S156  1  0.76592881  0.64569928  0.17106607  1
  S2-  S157  1  0.76409614  0.50807907  0.63884263  1
  S2-  S158  1  0.73552179  0.87920141  0.16117470  1
  S2-  S159  1  0.72723633  0.73445144  0.63883130  1
  S2-  S160  1  0.18014147  -0.05492167  0.32341823  1
  S2-  S161  1  0.02977504  -0.00550677  0.84930567  1
  S2-  S162  1  0.14334940  0.14461551  0.34418856  1
  S2-  S163  1  0.04198092  0.27132743  0.85531777  1
  S2-  S164  1  0.02145601  0.48993155  0.35637466  1
  S2-  S165  1  0.02493703  0.51763808  0.85023915  1
  S2-  S166  1  0.04346735  0.73311849  0.34720057  1
  S2-  S167  1  0.13027914  0.71640881  0.86047376  1
  S2-  S168  1  0.38315688  -0.06184402  0.30626526  1
  S2-  S169  1  0.25713776  0.01691238  0.86142147  1
  S2-  S170  1  0.38834888  0.14515276  0.34513533  1
  S2-  S171  1  0.45474908  0.25034625  0.85895960  1
  S2-  S172  1  0.42600966  0.50508770  0.34852828  1
  S2-  S173  1  0.27236818  0.52666567  0.86289144  1
  S2-  S174  1  0.47433627  0.74698060  0.35526361  1
  S2-  S175  1  0.39317978  0.78142004  0.85211354  1
  S2-  S176  1  0.57452629  -0.00611586  0.35133673  1
  S2-  S177  1  0.57961677  0.03186434  0.83583595  1
  S2-  S178  1  0.60644982  0.23428552  0.34896007  1
  S2-  S179  1  0.67928765  0.23197779  0.81875853  1
  S2-  S180  1  0.63086560  0.58511183  0.35534408  1
  S2-  S181  1  0.59288645  0.41642922  0.85181974  1
  S2-  S182  1  0.67680997  0.77520997  0.31292959  1
  S2-  S183  1  0.62348461  0.65132040  0.86086198  1
  S2-  S184  1  0.96752947  0.01544098  0.36073635  1
  S2-  S185  1  0.81014804  -0.06393710  0.82294411  1
  S2-  S186  1  0.95872473  0.25903401  0.36506789  1
  S2-  S187  1  0.87223820  0.14280193  0.83396372  1
  S2-  S188  1  0.85970691  0.61711980  0.34875760  1
  S2-  S189  1  0.84889699  0.40886538  0.84391089  1
  S2-  S190  1  0.86719055  0.84109855  0.32609240  1
  S2-  S191  1  0.87753965  0.67667915  0.86327260  1
  S2-  S192  1  0.00579702  0.12703441  0.46307350  1
  S2-  S193  1  -0.00576723  0.13717448  0.95489978  1
  S2-  S194  1  0.01021809  0.37729293  0.46492422  1
  S2-  S195  1  -0.00227440  0.39309626  0.95526559  1
  S2-  S196  1  0.01390348  0.62684786  0.45593241  1
  S2-  S197  1  0.00064244  0.64022700  0.96827622  1
  S2-  S198  1  0.01036944  0.87473122  0.45419731  1
  S2-  S199  1  -0.00616423  0.89026058  0.95779080  1
  S2-  S200  1  0.25932602  0.12596729  0.44296010  1
  S2-  S201  1  0.24743241  0.14268423  0.96324371  1
  S2-  S202  1  0.25788416  0.37304889  0.44795372  1
  S2-  S203  1  0.24862047  0.38497345  0.95205129  1
  S2-  S204  1  0.26184197  0.62392452  0.44737633  1
  S2-  S205  1  0.25265681  0.64655533  0.96523268  1
  S2-  S206  1  0.26600159  0.87693369  0.44111190  1
  S2-  S207  1  0.24932018  0.88711658  0.95965082  1
  S2-  S208  1  0.50987984  0.12561242  0.45333055  1
  S2-  S209  1  0.50139412  0.13566643  0.95790415  1
  S2-  S210  1  0.50818089  0.37510356  0.45698626  1
  S2-  S211  1  0.49029194  0.39267801  0.96144734  1
  S2-  S212  1  0.50427700  0.61859417  0.46196502  1
  S2-  S213  1  0.49099838  0.63971546  0.95936864  1
  S2-  S214  1  0.51035110  0.87528313  0.45145085  1
  S2-  S215  1  0.50035514  0.89067936  0.95708615  1
  S2-  S216  1  0.76049365  0.12656624  0.44942002  1
  S2-  S217  1  0.75118093  0.13957710  0.94033622  1
  S2-  S218  1  0.75683490  0.37689558  0.45363896  1
  S2-  S219  1  0.74746031  0.38692022  0.94486131  1
  S2-  S220  1  0.75550221  0.62440783  0.45436905  1
  S2-  S221  1  0.74941550  0.63935372  0.96190502  1
  S2-  S222  1  0.75688141  0.87155262  0.45020393  1
  S2-  S223  1  0.75064860  0.88850864  0.95020940  1
  S2-  S224  1  0.12015687  0.01176161  0.04353783  1
  S2-  S225  1  0.13395048  0.00083375  0.53567112  1
  S2-  S226  1  0.12059111  0.27097837  0.04818928  1
  S2-  S227  1  0.13474508  0.24681266  0.53754617  1
  S2-  S228  1  0.12604758  0.51255503  0.04343650  1
  S2-  S229  1  0.14086674  0.50276417  0.53911163  1
  S2-  S230  1  0.11962741  0.76900055  0.05901062  1
  S2-  S231  1  0.13912576  0.75113796  0.53896565  1
  S2-  S232  1  0.37143909  0.01599912  0.04524526  1
  S2-  S233  1  0.38561249  -0.00009684  0.53204028  1
  S2-  S234  1  0.36779465  0.26452683  0.05227436  1
  S2-  S235  1  0.38168750  0.25256749  0.53776779  1
  S2-  S236  1  0.37401064  0.51203231  0.05314679  1
  S2-  S237  1  0.37645455  0.49861111  0.54752183  1
  S2-  S238  1  0.37133085  0.76833352  0.05483885  1
  S2-  S239  1  0.38438395  0.75167524  0.54942561  1
  S2-  S240  1  0.62869272  0.01596430  0.03968006  1
  S2-  S241  1  0.63613623  0.00126274  0.55214734  1
  S2-  S242  1  0.62610332  0.26556595  0.03361985  1
  S2-  S243  1  0.63103615  0.24502119  0.55272350  1
  S2-  S244  1  0.62094210  0.51081801  0.04259961  1
  S2-  S245  1  0.63113145  0.49900807  0.54378657  1
  S2-  S246  1  0.62190819  0.76547300  0.04720350  1
  S2-  S247  1  0.62586624  0.74968925  0.53593145  1
  S2-  S248  1  0.87151528  0.01670094  0.05199726  1
  S2-  S249  1  0.87281227  0.01186972  0.55267874  1
  S2-  S250  1  0.87239445  0.26752079  0.04517318  1
  S2-  S251  1  0.88470128  0.25135802  0.56173998  1
  S2-  S252  1  0.86870954  0.51455639  0.04305320  1
  S2-  S253  1  0.88642567  0.49849353  0.53909902  1
  S2-  S254  1  0.87468252  0.76307550  0.05796459  1
  S2-  S255  1  0.88624379  0.75005637  0.53911296  1
