# generated using pymatgen
data_La12Ce14Pr13Nd13Sm12(BiS2)64
_symmetry_space_group_name_H-M   'P 1'
_cell_length_a   16.14978421
_cell_length_b   16.15125830
_cell_length_c   27.31427075
_cell_angle_alpha   90.13782241
_cell_angle_beta   90.22420837
_cell_angle_gamma   89.95134017
_symmetry_Int_Tables_number   1
_chemical_formula_structural   La12Ce14Pr13Nd13Sm12(BiS2)64
_chemical_formula_sum   'La12 Ce14 Pr13 Nd13 Sm12 Bi64 S128'
_cell_volume   7124.55857669
_cell_formula_units_Z   1
loop_
 _symmetry_equiv_pos_site_id
 _symmetry_equiv_pos_as_xyz
  1  'x, y, z'
loop_
 _atom_type_symbol
 _atom_type_oxidation_number
  La3+  3.0
  Ce3+  3.0
  Pr3+  3.0
  Nd3+  3.0
  Sm3+  3.0
  Bi2+  2.0
  S2-  -2.0
loop_
 _atom_site_type_symbol
 _atom_site_label
 _atom_site_symmetry_multiplicity
 _atom_site_fract_x
 _atom_site_fract_y
 _atom_site_fract_z
 _atom_site_occupancy
  La3+  La0  1  0.50389210  0.38567915  0.06949907  1
  La3+  La1  1  0.85431735  0.50604591  0.39630952  1
  La3+  La2  1  0.60803192  0.23476194  0.43011128  1
  La3+  La3  1  0.73869896  0.37445007  0.56700350  1
  La3+  La4  1  0.13413972  0.76365003  0.91628194  1
  La3+  La5  1  0.37950739  0.50905087  0.93187684  1
  La3+  La6  1  -0.00535525  0.87449782  0.60293073  1
  La3+  La7  1  0.87564678  0.00490354  0.93158712  1
  La3+  La8  1  0.38047212  0.00631386  0.94782869  1
  La3+  La9  1  0.73314288  0.11269776  0.56826075  1
  La3+  La10  1  0.88724800  0.49722422  0.91447500  1
  La3+  La11  1  0.85510781  0.24444231  0.42812215  1
  Ce3+  Ce12  1  0.50372018  0.62793155  0.06255027  1
  Ce3+  Ce13  1  0.87986389  0.75557712  0.93839662  1
  Ce3+  Ce14  1  -0.02261117  0.11876817  0.56828059  1
  Ce3+  Ce15  1  0.48533977  0.61627868  0.55982098  1
  Ce3+  Ce16  1  0.36304087  0.48988114  0.44374158  1
  Ce3+  Ce17  1  0.23450845  0.61638483  0.55998561  1
  Ce3+  Ce18  1  0.88084827  0.26169371  0.94873185  1
  Ce3+  Ce19  1  0.50283715  0.14119823  0.07110160  1
  Ce3+  Ce20  1  0.48698958  0.11748402  0.56759186  1
  Ce3+  Ce21  1  0.12719426  0.50576733  0.93416749  1
  Ce3+  Ce22  1  0.63170096  0.50502869  0.93723558  1
  Ce3+  Ce23  1  0.10891342  -0.01171092  0.44776251  1
  Ce3+  Ce24  1  0.37859998  0.25676980  0.94167742  1
  Ce3+  Ce25  1  0.24813954  0.88135047  0.06235263  1
  Pr3+  Pr26  1  0.75779496  0.62695964  0.05461650  1
  Pr3+  Pr27  1  -0.02055118  0.36675572  0.56448524  1
  Pr3+  Pr28  1  0.23586184  0.36427560  0.55067151  1
  Pr3+  Pr29  1  0.00742220  0.12477724  0.06667050  1
  Pr3+  Pr30  1  0.63084963  0.75640417  0.94599799  1
  Pr3+  Pr31  1  0.86382170  0.73939766  0.45112692  1
  Pr3+  Pr32  1  0.10634582  0.23607411  0.43799295  1
  Pr3+  Pr33  1  0.74165103  0.86498693  0.56257558  1
  Pr3+  Pr34  1  -0.00228238  0.60740390  0.59479520  1
  Pr3+  Pr35  1  0.23613502  0.86556787  0.56868185  1
  Pr3+  Pr36  1  0.01322332  0.38792581  0.08301717  1
  Pr3+  Pr37  1  0.74989143  0.88240744  0.06796100  1
  Pr3+  Pr38  1  0.10723798  0.48732129  0.43599859  1
  Nd3+  Nd39  1  0.10711119  0.73871731  0.44516409  1
  Nd3+  Nd40  1  0.35959244  0.74000227  0.44309485  1
  Nd3+  Nd41  1  0.75582621  0.13417217  0.06328592  1
  Nd3+  Nd42  1  0.25124480  0.13270563  0.05445206  1
  Nd3+  Nd43  1  0.25280356  0.38973552  0.06403389  1
  Nd3+  Nd44  1  -0.00328318  0.87867382  0.06540093  1
  Nd3+  Nd45  1  0.61088219  -0.01253722  0.44080305  1
  Nd3+  Nd46  1  0.74115521  0.61927687  0.56548828  1
  Nd3+  Nd47  1  0.50854941  0.89502694  0.08178112  1
  Nd3+  Nd48  1  0.86240976  -0.00652799  0.43694215  1
  Nd3+  Nd49  1  0.12690189  0.25875079  0.94198420  1
  Nd3+  Nd50  1  0.36551786  0.23562670  0.43064824  1
  Nd3+  Nd51  1  0.00543966  0.62952040  0.05387664  1
  Sm3+  Sm52  1  0.61450680  0.48992767  0.44057320  1
  Sm3+  Sm53  1  0.76109961  0.38295205  0.06158863  1
  Sm3+  Sm54  1  0.25343384  0.63709599  0.05400567  1
  Sm3+  Sm55  1  0.49214795  0.36515847  0.56222503  1
  Sm3+  Sm56  1  0.23718551  0.11799845  0.55384387  1
  Sm3+  Sm57  1  0.35983489  -0.01154603  0.44517307  1
  Sm3+  Sm58  1  0.63118942  0.00764796  0.94215246  1
  Sm3+  Sm59  1  0.11694690  0.00671761  0.93091104  1
  Sm3+  Sm60  1  0.48520757  0.86579464  0.55757993  1
  Sm3+  Sm61  1  0.62952510  0.25857142  0.94604576  1
  Sm3+  Sm62  1  0.61214805  0.73998880  0.44733326  1
  Sm3+  Sm63  1  0.38191758  0.75908895  0.94779477  1
  Bi2+  Bi64  1  0.00529099  0.13446540  0.29533959  1
  Bi2+  Bi65  1  0.02447722  0.13243341  0.73930636  1
  Bi2+  Bi66  1  0.01308039  0.39139552  0.28578336  1
  Bi2+  Bi67  1  0.00541777  0.35807836  0.79568360  1
  Bi2+  Bi68  1  0.00218187  0.64236820  0.30626654  1
  Bi2+  Bi69  1  -0.04813930  0.65937855  0.78759210  1
  Bi2+  Bi70  1  -0.01861371  0.86961699  0.27982804  1
  Bi2+  Bi71  1  0.02130583  0.89399873  0.79807364  1
  Bi2+  Bi72  1  0.27458767  0.16736771  0.30087892  1
  Bi2+  Bi73  1  0.29398623  0.17491612  0.75384663  1
  Bi2+  Bi74  1  0.29384641  0.36111758  0.27322908  1
  Bi2+  Bi75  1  0.22872098  0.33427254  0.81302514  1
  Bi2+  Bi76  1  0.30317904  0.64751065  0.23387913  1
  Bi2+  Bi77  1  0.28000310  0.58756429  0.80399094  1
  Bi2+  Bi78  1  0.24284749  0.83568812  0.29519468  1
  Bi2+  Bi79  1  0.33528017  0.87792949  0.78195413  1
  Bi2+  Bi80  1  0.48024714  0.13129464  0.28970771  1
  Bi2+  Bi81  1  0.48509087  0.12165409  0.79474418  1
  Bi2+  Bi82  1  0.49053920  0.39202796  0.28447668  1
  Bi2+  Bi83  1  0.46317459  0.40311643  0.75098729  1
  Bi2+  Bi84  1  0.46352202  0.60309899  0.29840470  1
  Bi2+  Bi85  1  0.44906738  0.67053698  0.78183306  1
  Bi2+  Bi86  1  0.50853599  0.85029964  0.29432074  1
  Bi2+  Bi87  1  0.53271863  0.92962873  0.80186152  1
  Bi2+  Bi88  1  0.73721366  0.09976709  0.29570614  1
  Bi2+  Bi89  1  0.74752450  0.14358158  0.79552671  1
  Bi2+  Bi90  1  0.74533307  0.35993067  0.28534369  1
  Bi2+  Bi91  1  0.72472048  0.39624172  0.81019967  1
  Bi2+  Bi92  1  0.73997577  0.72724426  0.28076384  1
  Bi2+  Bi93  1  0.71208736  0.65260046  0.77126674  1
  Bi2+  Bi94  1  0.79662409  0.91309380  0.31373350  1
  Bi2+  Bi95  1  0.72380472  0.86925960  0.79569142  1
  Bi2+  Bi96  1  0.16541363  0.01030312  0.26178252  1
  Bi2+  Bi97  1  0.21165010  -0.01174984  0.72148012  1
  Bi2+  Bi98  1  0.12299821  0.23335678  0.19716554  1
  Bi2+  Bi99  1  0.10657931  0.29338490  0.70275195  1
  Bi2+  Bi100  1  0.11907769  0.60130242  0.21017816  1
  Bi2+  Bi101  1  0.20745637  0.46483326  0.72595675  1
  Bi2+  Bi102  1  0.08339694  0.79147463  0.18906827  1
  Bi2+  Bi103  1  0.17398668  0.72565219  0.72275398  1
  Bi2+  Bi104  1  0.36703199  -0.03224314  0.24811159  1
  Bi2+  Bi105  1  0.40230589  0.03638574  0.69494317  1
  Bi2+  Bi106  1  0.34677669  0.22064167  0.19815939  1
  Bi2+  Bi107  1  0.40642561  0.27255635  0.67444950  1
  Bi2+  Bi108  1  0.38387374  0.47087095  0.19578813  1
  Bi2+  Bi109  1  0.38706633  0.55967780  0.68954027  1
  Bi2+  Bi110  1  0.41168298  0.80108954  0.18837693  1
  Bi2+  Bi111  1  0.35587388  0.76005100  0.68836971  1
  Bi2+  Bi112  1  0.64946959  -0.06037731  0.23680780  1
  Bi2+  Bi113  1  0.64048749  0.03528387  0.72442491  1
  Bi2+  Bi114  1  0.59804921  0.16235793  0.20129500  1
  Bi2+  Bi115  1  0.59067323  0.25475095  0.71524131  1
  Bi2+  Bi116  1  0.63224349  0.52553192  0.25672779  1
  Bi2+  Bi117  1  0.62099419  0.49790596  0.71254826  1
  Bi2+  Bi118  1  0.56599845  0.69280564  0.21113055  1
  Bi2+  Bi119  1  0.56720976  0.77447861  0.70772110  1
  Bi2+  Bi120  1  0.90972514  -0.00811829  0.20284078  1
  Bi2+  Bi121  1  0.87707528  0.00427613  0.70997309  1
  Bi2+  Bi122  1  0.84391878  0.24239917  0.20192266  1
  Bi2+  Bi123  1  0.85785695  0.23983976  0.72518177  1
  Bi2+  Bi124  1  0.85299957  0.49347438  0.18700281  1
  Bi2+  Bi125  1  0.88285342  0.47916997  0.70304629  1
  Bi2+  Bi126  1  0.89215881  0.73419492  0.20803574  1
  Bi2+  Bi127  1  0.76077079  0.78582438  0.69214651  1
  S2-  S128  1  -0.02293242  0.14934426  0.16545638  1
  S2-  S129  1  0.01858231  0.03495033  0.65316338  1
  S2-  S130  1  -0.03982589  0.34963122  0.18270624  1
  S2-  S131  1  0.01631096  0.45700630  0.65100679  1
  S2-  S132  1  0.00377885  0.54326044  0.14147388  1
  S2-  S133  1  -0.06612380  0.63907878  0.69123265  1
  S2-  S134  1  0.05031944  0.95467538  0.14969610  1
  S2-  S135  1  -0.05794154  0.85414740  0.70191838  1
  S2-  S136  1  0.22462183  0.12147483  0.15232461  1
  S2-  S137  1  0.24905954  0.10232779  0.65072656  1
  S2-  S138  1  0.16040803  0.36233872  0.14628211  1
  S2-  S139  1  0.24984972  0.35481297  0.65070815  1
  S2-  S140  1  0.25453541  0.56384450  0.14237046  1
  S2-  S141  1  0.15656988  0.62326658  0.64771869  1
  S2-  S142  1  0.24374845  0.82978975  0.15473038  1
  S2-  S143  1  0.15042055  0.85917249  0.65675632  1
  S2-  S144  1  0.50798928  0.04203379  0.14975467  1
  S2-  S145  1  0.60371739  0.12999610  0.64141408  1
  S2-  S146  1  0.49939841  0.26776127  0.14570888  1
  S2-  S147  1  0.60657967  0.36663871  0.63933605  1
  S2-  S148  1  0.51447723  0.51907726  0.13917803  1
  S2-  S149  1  0.54730605  0.61882074  0.65065363  1
  S2-  S150  1  0.63811556  0.87371279  0.14760926  1
  S2-  S151  1  0.49075352  0.90497117  0.65287232  1
  S2-  S152  1  0.75140033  0.10457256  0.16101796  1
  S2-  S153  1  0.84839845  0.13478939  0.64220638  1
  S2-  S154  1  0.73904304  0.36625208  0.15952202  1
  S2-  S155  1  0.85270645  0.34389238  0.64458651  1
  S2-  S156  1  0.77293686  0.62509691  0.15520238  1
  S2-  S157  1  0.74698734  0.52796770  0.65020624  1
  S2-  S158  1  0.86517890  0.86784950  0.14396926  1
  S2-  S159  1  0.73765676  0.94848293  0.65041315  1
  S2-  S160  1  0.10314768  0.03385310  0.35400529  1
  S2-  S161  1  0.15267520  -0.09559130  0.85359307  1
  S2-  S162  1  0.08843233  0.26353258  0.33793552  1
  S2-  S163  1  0.10320165  0.23346562  0.84419958  1
  S2-  S164  1  0.10391290  0.50463179  0.33533882  1
  S2-  S165  1  0.03498933  0.49252250  0.85111716  1
  S2-  S166  1  0.13007560  0.75119066  0.34623891  1
  S2-  S167  1  0.09887811  0.70320135  0.81999037  1
  S2-  S168  1  0.36470789  0.03447479  0.35101770  1
  S2-  S169  1  0.38664583  0.00165979  0.84808576  1
  S2-  S170  1  0.48042948  0.26013053  0.35707341  1
  S2-  S171  1  0.37481225  0.23051212  0.84529812  1
  S2-  S172  1  0.36729388  0.48349949  0.34640030  1
  S2-  S173  1  0.36780944  0.44895024  0.83798780  1
  S2-  S174  1  0.37416627  0.76036889  0.34569010  1
  S2-  S175  1  0.33642187  0.74472911  0.85353298  1
  S2-  S176  1  0.60403037  0.06995455  0.35432490  1
  S2-  S177  1  0.73814168  0.00844635  0.86312012  1
  S2-  S178  1  0.71393291  0.24798089  0.34944450  1
  S2-  S179  1  0.64547518  0.26286888  0.84744348  1
  S2-  S180  1  0.69366785  0.49131913  0.35209211  1
  S2-  S181  1  0.60165839  0.49098130  0.84181763  1
  S2-  S182  1  0.61715221  0.75179645  0.34977218  1
  S2-  S183  1  0.63614950  0.74927791  0.84570426  1
  S2-  S184  1  0.88140338  0.10831998  0.35881307  1
  S2-  S185  1  0.98908751  0.01907892  0.85533747  1
  S2-  S186  1  0.88645528  0.35336319  0.34657318  1
  S2-  S187  1  0.87346973  0.33771373  0.85961059  1
  S2-  S188  1  0.89766103  0.51822434  0.28501194  1
  S2-  S189  1  0.82180598  0.55301874  0.82321498  1
  S2-  S190  1  0.85322017  0.67601630  0.35660264  1
  S2-  S191  1  0.89399040  0.79876889  0.84375668  1
  S2-  S192  1  -0.01270328  0.11387759  0.46173142  1
  S2-  S193  1  0.00230227  0.13530968  0.95878662  1
  S2-  S194  1  -0.01175536  0.36493056  0.45577521  1
  S2-  S195  1  0.00765785  0.38192046  0.96171188  1
  S2-  S196  1  -0.01425837  0.61188919  0.44687939  1
  S2-  S197  1  0.00640321  0.63424501  0.94778310  1
  S2-  S198  1  -0.01479730  0.86551109  0.44321825  1
  S2-  S199  1  0.00411487  0.87857765  0.95706023  1
  S2-  S200  1  0.23837262  0.11502366  0.45120222  1
  S2-  S201  1  0.24839099  0.12868442  0.94737193  1
  S2-  S202  1  0.23829761  0.36020289  0.44360606  1
  S2-  S203  1  0.25341868  0.38208102  0.95460382  1
  S2-  S204  1  0.23553597  0.61515877  0.45191049  1
  S2-  S205  1  0.25293116  0.63535361  0.95013098  1
  S2-  S206  1  0.23663159  0.86484588  0.45829654  1
  S2-  S207  1  0.25729619  0.87992257  0.95736274  1
  S2-  S208  1  0.48192454  0.10914517  0.46010304  1
  S2-  S209  1  0.50849024  0.13320790  0.95729575  1
  S2-  S210  1  0.48773019  0.37048593  0.45789669  1
  S2-  S211  1  0.50406780  0.38054097  0.95563205  1
  S2-  S212  1  0.48854750  0.61706479  0.45217332  1
  S2-  S213  1  0.50381471  0.63275882  0.95281025  1
  S2-  S214  1  0.48464479  0.86429547  0.45289149  1
  S2-  S215  1  0.50740962  0.88253606  0.96065828  1
  S2-  S216  1  0.73441760  0.10871582  0.45930222  1
  S2-  S217  1  0.75362614  0.13811060  0.95782341  1
  S2-  S218  1  0.73622971  0.37443789  0.45651128  1
  S2-  S219  1  0.75292867  0.38256141  0.95693328  1
  S2-  S220  1  0.73369049  0.61722572  0.45913888  1
  S2-  S221  1  0.75752617  0.62827813  0.94736585  1
  S2-  S222  1  0.73639082  0.86432301  0.45535101  1
  S2-  S223  1  0.75210833  0.88021174  0.96070048  1
  S2-  S224  1  0.12953218  0.00516813  0.03726511  1
  S2-  S225  1  0.11531350  -0.00788238  0.55030948  1
  S2-  S226  1  0.12726232  0.25609327  0.04668417  1
  S2-  S227  1  0.11063367  0.23873208  0.54715029  1
  S2-  S228  1  0.13262472  0.51093826  0.03922134  1
  S2-  S229  1  0.11405854  0.49122430  0.54233235  1
  S2-  S230  1  0.12700925  0.75534701  0.04362305  1
  S2-  S231  1  0.10427593  0.74457195  0.55005314  1
  S2-  S232  1  0.37523586  0.00585283  0.05430808  1
  S2-  S233  1  0.36005642  -0.00963997  0.54932325  1
  S2-  S234  1  0.37163684  0.26014261  0.04626279  1
  S2-  S235  1  0.36313650  0.24038248  0.53895542  1
  S2-  S236  1  0.37534693  0.51043766  0.03937341  1
  S2-  S237  1  0.36281636  0.48873146  0.54955491  1
  S2-  S238  1  0.38248822  0.75830868  0.05134762  1
  S2-  S239  1  0.36112892  0.74142066  0.54934349  1
  S2-  S240  1  0.62899122  0.01254259  0.04515988  1
  S2-  S241  1  0.60755352  -0.01516768  0.54500243  1
  S2-  S242  1  0.63521068  0.26105012  0.04973499  1
  S2-  S243  1  0.60855193  0.24248402  0.53853139  1
  S2-  S244  1  0.63482066  0.50324116  0.04301572  1
  S2-  S245  1  0.60945569  0.49729682  0.54314031  1
  S2-  S246  1  0.62682657  0.75066004  0.05131630  1
  S2-  S247  1  0.61082486  0.74419900  0.55118980  1
  S2-  S248  1  0.87740648  0.00877361  0.04418901  1
  S2-  S249  1  0.87109044  -0.01865084  0.54466344  1
  S2-  S250  1  0.88372309  0.25883094  0.05439531  1
  S2-  S251  1  0.85703824  0.24212074  0.53665881  1
  S2-  S252  1  0.88232911  0.50196153  0.04097197  1
  S2-  S253  1  0.86965053  0.50428158  0.55028267  1
  S2-  S254  1  0.87899357  0.75173788  0.04365417  1
  S2-  S255  1  0.87232096  0.74229768  0.55908308  1
