# generated using pymatgen
data_La12Ce14Pr13Nd13Sm12(BiS2)64
_symmetry_space_group_name_H-M   'P 1'
_cell_length_a   16.03435532
_cell_length_b   16.07955492
_cell_length_c   27.41927331
_cell_angle_alpha   89.99421805
_cell_angle_beta   89.78761935
_cell_angle_gamma   90.00903137
_symmetry_Int_Tables_number   1
_chemical_formula_structural   La12Ce14Pr13Nd13Sm12(BiS2)64
_chemical_formula_sum   'La12 Ce14 Pr13 Nd13 Sm12 Bi64 S128'
_cell_volume   7069.33359072
_cell_formula_units_Z   1
loop_
 _symmetry_equiv_pos_site_id
 _symmetry_equiv_pos_as_xyz
  1  'x, y, z'
loop_
 _atom_type_symbol
 _atom_type_oxidation_number
  La3+  3.0
  Ce3+  3.0
  Pr3+  3.0
  Nd3+  3.0
  Sm3+  3.0
  Bi2+  2.0
  S2-  -2.0
loop_
 _atom_site_type_symbol
 _atom_site_label
 _atom_site_symmetry_multiplicity
 _atom_site_fract_x
 _atom_site_fract_y
 _atom_site_fract_z
 _atom_site_occupancy
  La3+  La0  1  0.35357962  0.25223213  0.88493906  1
  La3+  La1  1  0.49798067  0.36655971  0.56912359  1
  La3+  La2  1  0.87238184  0.01189914  0.93430574  1
  La3+  La3  1  0.25004403  0.61742890  0.10612059  1
  La3+  La4  1  0.38884137  0.73464660  0.40529898  1
  La3+  La5  1  -0.00322359  0.38448486  0.06301658  1
  La3+  La6  1  0.00635337  0.86845630  0.57930807  1
  La3+  La7  1  0.49274827  0.38528941  0.05827860  1
  La3+  La8  1  0.74607746  0.88382909  0.07603967  1
  La3+  La9  1  0.36965977  0.00295660  0.93430081  1
  La3+  La10  1  0.74099757  0.86856410  0.58446836  1
  La3+  La11  1  -0.00728127  0.87973629  0.07522830  1
  Ce3+  Ce12  1  0.36583080  0.24090114  0.43500875  1
  Ce3+  Ce13  1  0.49375470  0.11619544  0.56128247  1
  Ce3+  Ce14  1  0.61622147  -0.01231115  0.44465565  1
  Ce3+  Ce15  1  0.86865214  0.50540511  0.93662399  1
  Ce3+  Ce16  1  0.24938687  0.12686644  0.07098028  1
  Ce3+  Ce17  1  0.37797599  0.50554504  0.92137127  1
  Ce3+  Ce18  1  0.49222732  0.87968353  0.05825833  1
  Ce3+  Ce19  1  0.62292563  0.00850242  0.94331890  1
  Ce3+  Ce20  1  0.36555251  0.49073711  0.43462007  1
  Ce3+  Ce21  1  0.86657459  0.24012261  0.43119029  1
  Ce3+  Ce22  1  0.61540605  0.24071378  0.42949235  1
  Ce3+  Ce23  1  0.62244669  0.74275055  0.44692893  1
  Ce3+  Ce24  1  0.24753062  0.38596330  0.04660149  1
  Ce3+  Ce25  1  0.12266321  -0.01182035  0.43822029  1
  Pr3+  Pr26  1  0.11921787  0.48957873  0.43008242  1
  Pr3+  Pr27  1  0.11584895  0.50810735  0.93034072  1
  Pr3+  Pr28  1  -0.00651477  0.61607260  0.56476869  1
  Pr3+  Pr29  1  0.24519154  0.11684997  0.55880244  1
  Pr3+  Pr30  1  0.74380381  0.13150047  0.08859060  1
  Pr3+  Pr31  1  0.61595347  0.25684968  0.93476300  1
  Pr3+  Pr32  1  0.62803364  0.75785962  0.94344148  1
  Pr3+  Pr33  1  0.36895861  0.75639051  0.93356192  1
  Pr3+  Pr34  1  0.12185938  0.25409072  0.94284986  1
  Pr3+  Pr35  1  -0.00447653  0.13269353  0.06533583  1
  Pr3+  Pr36  1  0.87236419  0.48985856  0.42767997  1
  Pr3+  Pr37  1  0.11686542  0.23913645  0.42905296  1
  Pr3+  Pr38  1  0.37643915  -0.01192139  0.42863218  1
  Nd3+  Nd39  1  0.49417332  0.13191510  0.05786452  1
  Nd3+  Nd40  1  0.74759657  0.62888115  0.06536359  1
  Nd3+  Nd41  1  0.49266087  0.86481313  0.56916444  1
  Nd3+  Nd42  1  0.74620572  0.61568374  0.55587843  1
  Nd3+  Nd43  1  0.74433494  0.11959644  0.55872242  1
  Nd3+  Nd44  1  0.73819000  0.37835267  0.07008911  1
  Nd3+  Nd45  1  0.24556916  0.88030352  0.07537258  1
  Nd3+  Nd46  1  -0.00759161  0.63052495  0.06457565  1
  Nd3+  Nd47  1  0.87053667  0.74459988  0.44305697  1
  Nd3+  Nd48  1  0.87077589  -0.00959628  0.44693398  1
  Nd3+  Nd49  1  0.24277814  0.37073572  0.56061392  1
  Nd3+  Nd50  1  0.11316726  0.74162993  0.42574482  1
  Nd3+  Nd51  1  0.12293706  0.00590085  0.94913190  1
  Sm3+  Sm52  1  0.12119893  0.75559959  0.95170207  1
  Sm3+  Sm53  1  0.49092828  0.63385629  0.05064171  1
  Sm3+  Sm54  1  0.87335866  0.76152921  0.93922324  1
  Sm3+  Sm55  1  0.86634794  0.25576455  0.94238390  1
  Sm3+  Sm56  1  0.74125019  0.36658684  0.55233300  1
  Sm3+  Sm57  1  0.62386163  0.50584931  0.93414700  1
  Sm3+  Sm58  1  -0.00692703  0.36555992  0.56379036  1
  Sm3+  Sm59  1  0.49283785  0.61806438  0.56453573  1
  Sm3+  Sm60  1  0.24676756  0.86366064  0.54664705  1
  Sm3+  Sm61  1  0.24404255  0.61800977  0.54805294  1
  Sm3+  Sm62  1  -0.00435839  0.11966543  0.56398702  1
  Sm3+  Sm63  1  0.61378688  0.49477719  0.43808398  1
  Bi2+  Bi64  1  0.04189165  0.15783247  0.27699865  1
  Bi2+  Bi65  1  0.00745284  0.18474798  0.79217956  1
  Bi2+  Bi66  1  0.13905848  0.32662655  0.29660833  1
  Bi2+  Bi67  1  -0.07008139  0.36519349  0.81525002  1
  Bi2+  Bi68  1  -0.03282432  0.57873473  0.27576737  1
  Bi2+  Bi69  1  0.04705503  0.63225638  0.78799324  1
  Bi2+  Bi70  1  -0.04707467  0.88115241  0.30241636  1
  Bi2+  Bi71  1  0.02479762  0.88736777  0.79976241  1
  Bi2+  Bi72  1  0.29286095  0.13010457  0.27058291  1
  Bi2+  Bi73  1  0.22692471  0.11224685  0.78782927  1
  Bi2+  Bi74  1  0.29388133  0.35593332  0.22596527  1
  Bi2+  Bi75  1  0.18313285  0.49295493  0.80131747  1
  Bi2+  Bi76  1  0.29292691  0.59306183  0.30219879  1
  Bi2+  Bi77  1  0.31560265  0.64568603  0.81714648  1
  Bi2+  Bi78  1  0.21633392  0.87013851  0.30243667  1
  Bi2+  Bi79  1  0.25947202  0.82428258  0.78241432  1
  Bi2+  Bi80  1  0.57288317  0.14139061  0.29029403  1
  Bi2+  Bi81  1  0.48656492  0.13883963  0.77697020  1
  Bi2+  Bi82  1  0.47030162  0.33587018  0.28067403  1
  Bi2+  Bi83  1  0.46175377  0.42442720  0.76947273  1
  Bi2+  Bi84  1  0.55505794  0.57944799  0.27787048  1
  Bi2+  Bi85  1  0.47546896  0.65851505  0.74885829  1
  Bi2+  Bi86  1  0.50318002  0.88281141  0.29216115  1
  Bi2+  Bi87  1  0.50059390  0.85201433  0.79070140  1
  Bi2+  Bi88  1  0.76550569  0.11221153  0.28800653  1
  Bi2+  Bi89  1  0.74482696  0.23193547  0.81851077  1
  Bi2+  Bi90  1  0.78118824  0.37857720  0.29110667  1
  Bi2+  Bi91  1  0.64339194  0.39978719  0.80430625  1
  Bi2+  Bi92  1  0.78036816  0.57616859  0.31437177  1
  Bi2+  Bi93  1  0.72661547  0.62102268  0.79312317  1
  Bi2+  Bi94  1  0.73879518  0.76861525  0.31943983  1
  Bi2+  Bi95  1  0.74081620  0.85502681  0.81103183  1
  Bi2+  Bi96  1  0.13476267  0.01028084  0.21306879  1
  Bi2+  Bi97  1  0.07966152  0.01772719  0.72699846  1
  Bi2+  Bi98  1  0.16325043  0.20355000  0.18856878  1
  Bi2+  Bi99  1  0.09011526  0.34249285  0.74389920  1
  Bi2+  Bi100  1  0.10871956  0.48325321  0.20517746  1
  Bi2+  Bi101  1  0.11442631  0.51652428  0.68273255  1
  Bi2+  Bi102  1  0.13461335  0.74043503  0.21996017  1
  Bi2+  Bi103  1  0.14308244  0.74229722  0.70538960  1
  Bi2+  Bi104  1  0.46954992  0.03912892  0.21242999  1
  Bi2+  Bi105  1  0.27916309  -0.03515235  0.69729522  1
  Bi2+  Bi106  1  0.38982524  0.20144264  0.17373223  1
  Bi2+  Bi107  1  0.34060341  0.25385700  0.67563748  1
  Bi2+  Bi108  1  0.46656171  0.46900783  0.19827410  1
  Bi2+  Bi109  1  0.32355150  0.53210719  0.71642631  1
  Bi2+  Bi110  1  0.41095294  0.75204989  0.20315302  1
  Bi2+  Bi111  1  0.41085463  0.82075630  0.69149767  1
  Bi2+  Bi112  1  0.69591713  -0.06546505  0.25526008  1
  Bi2+  Bi113  1  0.67761550  0.07714939  0.76065926  1
  Bi2+  Bi114  1  0.63722759  0.30593701  0.22204697  1
  Bi2+  Bi115  1  0.62779298  0.22627345  0.69306101  1
  Bi2+  Bi116  1  0.69174647  0.57569409  0.19191315  1
  Bi2+  Bi117  1  0.69724126  0.49638060  0.70377710  1
  Bi2+  Bi118  1  0.63237713  0.75518935  0.21557032  1
  Bi2+  Bi119  1  0.65966048  0.74548165  0.69337105  1
  Bi2+  Bi120  1  0.87460268  -0.01651757  0.20628967  1
  Bi2+  Bi121  1  0.89715988  0.14742643  0.69386397  1
  Bi2+  Bi122  1  0.88868171  0.24999647  0.21957283  1
  Bi2+  Bi123  1  0.81477047  0.32649895  0.71886013  1
  Bi2+  Bi124  1  0.85507264  0.46734302  0.19572715  1
  Bi2+  Bi125  1  0.89865771  0.50832993  0.73542254  1
  Bi2+  Bi126  1  0.86346393  0.72641387  0.22614205  1
  Bi2+  Bi127  1  0.88867005  0.72403870  0.72017270  1
  S2-  S128  1  -0.09006505  0.12255187  0.15229778  1
  S2-  S129  1  -0.01241184  0.24352933  0.63540503  1
  S2-  S130  1  -0.00776974  0.36709806  0.16309092  1
  S2-  S131  1  -0.02610749  0.48569909  0.63701535  1
  S2-  S132  1  0.08133873  0.62557920  0.15047022  1
  S2-  S133  1  -0.00280256  0.72997506  0.64579024  1
  S2-  S134  1  0.07851473  0.87302934  0.16597788  1
  S2-  S135  1  -0.01027003  1.01148258  0.64371062  1
  S2-  S136  1  0.26013081  0.01079896  0.14546144  1
  S2-  S137  1  0.22501240  0.11829347  0.65867724  1
  S2-  S138  1  0.23545974  0.44191345  0.13763477  1
  S2-  S139  1  0.19813760  0.35443641  0.65743231  1
  S2-  S140  1  0.23791446  0.59746467  0.21374354  1
  S2-  S141  1  0.24501943  0.62994018  0.64713403  1
  S2-  S142  1  0.26884974  0.77685044  0.15627975  1
  S2-  S143  1  0.17074350  0.86423798  0.63490962  1
  S2-  S144  1  0.55965648  0.14662291  0.15002558  1
  S2-  S145  1  0.47883697  0.14212455  0.65838798  1
  S2-  S146  1  0.59719939  0.40101785  0.13946691  1
  S2-  S147  1  0.42549291  0.39575705  0.66135822  1
  S2-  S148  1  0.42546888  0.61419226  0.14108043  1
  S2-  S149  1  0.54617210  0.61483440  0.65798390  1
  S2-  S150  1  0.47898194  0.88538723  0.15574265  1
  S2-  S151  1  0.59437917  0.87612033  0.65163930  1
  S2-  S152  1  0.72644639  -0.00109851  0.15529007  1
  S2-  S153  1  0.73430666  0.08948375  0.65720603  1
  S2-  S154  1  0.75886632  0.26938384  0.15078727  1
  S2-  S155  1  0.64392686  0.36294703  0.63574723  1
  S2-  S156  1  0.86565130  0.62259539  0.14083841  1
  S2-  S157  1  0.78006739  0.62578057  0.65250375  1
  S2-  S158  1  0.86768704  0.84355039  0.15034229  1
  S2-  S159  1  0.80265985  0.84810016  0.68212919  1
  S2-  S160  1  0.08876458  -0.03805460  0.34337608  1
  S2-  S161  1  0.11969721  0.00176105  0.84928258  1
  S2-  S162  1  0.24389846  0.23443811  0.35516902  1
  S2-  S163  1  0.18151283  0.23426137  0.84972549  1
  S2-  S164  1  0.24578508  0.46848361  0.35689015  1
  S2-  S165  1  -0.01699133  0.52110928  0.86223941  1
  S2-  S166  1  0.16595803  0.70520580  0.33026746  1
  S2-  S167  1  0.09104616  0.76627724  0.85350925  1
  S2-  S168  1  0.30218558  -0.00166256  0.33463681  1
  S2-  S169  1  0.36719444  0.08613262  0.84535350  1
  S2-  S170  1  0.48172719  0.22865379  0.36065219  1
  S2-  S171  1  0.34355894  0.23979426  0.77053907  1
  S2-  S172  1  0.43690843  0.57299913  0.35644803  1
  S2-  S173  1  0.34282017  0.41179904  0.83980075  1
  S2-  S174  1  0.36260331  0.77381859  0.30581242  1
  S2-  S175  1  0.37388366  0.87348815  0.85680198  1
  S2-  S176  1  0.52051319  -0.00799728  0.36254816  1
  S2-  S177  1  0.62556651  -0.01877200  0.84547256  1
  S2-  S178  1  0.74197689  0.24363798  0.35730999  1
  S2-  S179  1  0.52102927  0.24480496  0.84664839  1
  S2-  S180  1  0.63898586  0.47066093  0.34124959  1
  S2-  S181  1  0.52126680  0.50752112  0.85237724  1
  S2-  S182  1  0.55918912  0.75732214  0.35827073  1
  S2-  S183  1  0.61050752  0.74471605  0.84320037  1
  S2-  S184  1  0.86047166  0.00557421  0.34752685  1
  S2-  S185  1  0.86847693  -0.06505385  0.84244005  1
  S2-  S186  1  0.98390530  0.23829098  0.35870944  1
  S2-  S187  1  0.88460139  0.15004183  0.86203944  1
  S2-  S188  1  0.99721264  0.48464937  0.35446271  1
  S2-  S189  1  0.75069309  0.50494872  0.86279335  1
  S2-  S190  1  0.96956055  0.75467209  0.36115613  1
  S2-  S191  1  0.83618934  0.72775993  0.84361369  1
  S2-  S192  1  -0.00385077  0.11226274  0.45882796  1
  S2-  S193  1  -0.00132697  0.13204222  0.96061837  1
  S2-  S194  1  -0.00679182  0.36445825  0.45947183  1
  S2-  S195  1  -0.00568386  0.37651023  0.95577689  1
  S2-  S196  1  -0.00686793  0.61566835  0.45676695  1
  S2-  S197  1  -0.00699945  0.63755946  0.95871187  1
  S2-  S198  1  -0.00407996  0.86878270  0.46409239  1
  S2-  S199  1  -0.00321039  0.88164846  0.96174815  1
  S2-  S200  1  0.24791345  0.10937821  0.45285610  1
  S2-  S201  1  0.24754591  0.13169756  0.96000453  1
  S2-  S202  1  0.24233081  0.36367352  0.45745687  1
  S2-  S203  1  0.24521781  0.38191794  0.94478586  1
  S2-  S204  1  0.24976884  0.62509269  0.44615110  1
  S2-  S205  1  0.24326961  0.63142136  0.93907263  1
  S2-  S206  1  0.25185312  0.85770887  0.44277320  1
  S2-  S207  1  0.24190471  0.87862319  0.96119699  1
  S2-  S208  1  0.49307518  0.11460321  0.45940029  1
  S2-  S209  1  0.49429104  0.12933399  0.95330233  1
  S2-  S210  1  0.49400171  0.37146861  0.45633658  1
  S2-  S211  1  0.49470616  0.38203467  0.95257770  1
  S2-  S212  1  0.49622576  0.61974543  0.46208766  1
  S2-  S213  1  0.49867528  0.63589938  0.94851750  1
  S2-  S214  1  0.49115863  0.86033950  0.46309139  1
  S2-  S215  1  0.50123358  0.87953632  0.95431931  1
  S2-  S216  1  0.74092988  0.11170470  0.45367872  1
  S2-  S217  1  0.74327058  0.13353133  0.95731364  1
  S2-  S218  1  0.73975091  0.37274633  0.45113171  1
  S2-  S219  1  0.74391871  0.37697497  0.96003360  1
  S2-  S220  1  0.74502199  0.61512003  0.45013657  1
  S2-  S221  1  0.74993983  0.63423538  0.96030359  1
  S2-  S222  1  0.74415617  0.86773300  0.45989921  1
  S2-  S223  1  0.74909143  0.88317963  0.96049393  1
  S2-  S224  1  0.11892973  0.00612342  0.05314342  1
  S2-  S225  1  0.12403738  -0.00662661  0.54170016  1
  S2-  S226  1  0.12317919  0.25691630  0.05006696  1
  S2-  S227  1  0.12127884  0.24291101  0.53951781  1
  S2-  S228  1  0.12026021  0.51051602  0.03797920  1
  S2-  S229  1  0.11986916  0.49269359  0.53945046  1
  S2-  S230  1  0.12164543  0.75484199  0.05282334  1
  S2-  S231  1  0.12251279  0.73870418  0.53479785  1
  S2-  S232  1  0.37193413  0.00436612  0.04358380  1
  S2-  S233  1  0.37034798  -0.01162146  0.54719574  1
  S2-  S234  1  0.36852516  0.25843762  0.05416529  1
  S2-  S235  1  0.36943558  0.24438865  0.54431430  1
  S2-  S236  1  0.36931727  0.51177675  0.03410657  1
  S2-  S237  1  0.36923880  0.49553407  0.54553892  1
  S2-  S238  1  0.36841803  0.75608715  0.04102040  1
  S2-  S239  1  0.36896684  0.74034106  0.55256025  1
  S2-  S240  1  0.61844141  0.00608894  0.04764328  1
  S2-  S241  1  0.61864953  -0.00701506  0.54872088  1
  S2-  S242  1  0.62036540  0.25431915  0.04219746  1
  S2-  S243  1  0.61865880  0.23922834  0.53763201  1
  S2-  S244  1  0.61999108  0.51391269  0.03915119  1
  S2-  S245  1  0.61852771  0.49666284  0.54257356  1
  S2-  S246  1  0.62165118  0.75418187  0.05262724  1
  S2-  S247  1  0.62042989  0.74014694  0.55115258  1
  S2-  S248  1  0.86979145  0.00807643  0.04697894  1
  S2-  S249  1  0.86501792  -0.00933386  0.55120453  1
  S2-  S250  1  0.86995491  0.25697317  0.04565709  1
  S2-  S251  1  0.86328919  0.24453647  0.53873802  1
  S2-  S252  1  0.86622399  0.50022557  0.04341828  1
  S2-  S253  1  0.86448508  0.48726838  0.53712448  1
  S2-  S254  1  0.86888882  0.75646080  0.04200259  1
  S2-  S255  1  0.86674847  0.74570523  0.54775408  1
