# generated using pymatgen
data_La12Ce14Pr13Nd13Sm12(BiS2)64
_symmetry_space_group_name_H-M   'P 1'
_cell_length_a   16.15482568
_cell_length_b   16.13417811
_cell_length_c   27.12833947
_cell_angle_alpha   89.86432912
_cell_angle_beta   89.89497415
_cell_angle_gamma   90.06305393
_symmetry_Int_Tables_number   1
_chemical_formula_structural   La12Ce14Pr13Nd13Sm12(BiS2)64
_chemical_formula_sum   'La12 Ce14 Pr13 Nd13 Sm12 Bi64 S128'
_cell_volume   7070.82554628
_cell_formula_units_Z   1
loop_
 _symmetry_equiv_pos_site_id
 _symmetry_equiv_pos_as_xyz
  1  'x, y, z'
loop_
 _atom_type_symbol
 _atom_type_oxidation_number
  La3+  3.0
  Ce3+  3.0
  Pr3+  3.0
  Nd3+  3.0
  Sm3+  3.0
  Bi2+  2.0
  S2-  -2.0
loop_
 _atom_site_type_symbol
 _atom_site_label
 _atom_site_symmetry_multiplicity
 _atom_site_fract_x
 _atom_site_fract_y
 _atom_site_fract_z
 _atom_site_occupancy
  La3+  La0  1  -0.00740961  0.63256174  0.56784959  1
  La3+  La1  1  0.25279945  0.61991615  0.60633645  1
  La3+  La2  1  0.37421298  -0.00392990  0.93015340  1
  La3+  La3  1  0.88487685  0.75437866  0.40265677  1
  La3+  La4  1  -0.00499726  0.12289737  0.07627824  1
  La3+  La5  1  0.50390224  0.87914021  0.57181044  1
  La3+  La6  1  0.12292245  0.76549616  0.88816042  1
  La3+  La7  1  0.25342660  0.36751138  0.57371737  1
  La3+  La8  1  0.49929278  0.38297462  0.55930718  1
  La3+  La9  1  0.49127014  0.12437340  0.06748574  1
  La3+  La10  1  0.62876284  0.00719626  0.92332898  1
  La3+  La11  1  0.74882932  0.61621394  0.10802827  1
  Ce3+  Ce12  1  0.12108010  -0.00023265  0.94814693  1
  Ce3+  Ce13  1  0.24985140  0.87828197  0.55971085  1
  Ce3+  Ce14  1  0.62641720  0.51141931  0.43324137  1
  Ce3+  Ce15  1  0.73370199  0.12157483  0.06825553  1
  Ce3+  Ce16  1  0.62699383  0.75942590  0.43729872  1
  Ce3+  Ce17  1  0.11881097  0.25450435  0.94110854  1
  Ce3+  Ce18  1  0.62435615  0.00571831  0.43755961  1
  Ce3+  Ce19  1  0.62101832  0.75220467  0.94168531  1
  Ce3+  Ce20  1  0.37099789  0.50421113  0.43920971  1
  Ce3+  Ce21  1  0.25409805  0.12974224  0.55476402  1
  Ce3+  Ce22  1  0.74936226  0.88762413  0.56072845  1
  Ce3+  Ce23  1  0.74484534  0.37572564  0.56366640  1
  Ce3+  Ce24  1  0.37483872  0.75631359  0.44523012  1
  Ce3+  Ce25  1  0.24731621  0.87250876  0.06721313  1
  Pr3+  Pr26  1  0.36822551  0.26171370  0.41459986  1
  Pr3+  Pr27  1  0.23744120  0.38585522  0.07263852  1
  Pr3+  Pr28  1  0.60676440  0.25589125  0.93022526  1
  Pr3+  Pr29  1  0.12351294  0.00410067  0.44155486  1
  Pr3+  Pr30  1  0.12387535  0.25785644  0.43215191  1
  Pr3+  Pr31  1  0.62189686  0.25834357  0.43333640  1
  Pr3+  Pr32  1  0.87183667  0.00252659  0.93738436  1
  Pr3+  Pr33  1  0.48675250  0.37879105  0.07706827  1
  Pr3+  Pr34  1  0.73906019  0.37091552  0.06305834  1
  Pr3+  Pr35  1  -0.01129782  0.87029904  0.06287520  1
  Pr3+  Pr36  1  0.00035905  0.37808058  0.56382926  1
  Pr3+  Pr37  1  0.75004028  0.63264050  0.56493078  1
  Pr3+  Pr38  1  0.24424624  0.12463422  0.06975375  1
  Nd3+  Nd39  1  0.87272467  0.00948477  0.43088779  1
  Nd3+  Nd40  1  -0.00754377  0.62404505  0.06507507  1
  Nd3+  Nd41  1  0.10696494  0.50313336  0.92439775  1
  Nd3+  Nd42  1  -0.00189476  0.13045495  0.55708700  1
  Nd3+  Nd43  1  0.86868026  0.50136799  0.94666759  1
  Nd3+  Nd44  1  0.49856488  0.62687086  0.55769509  1
  Nd3+  Nd45  1  0.12379399  0.50753301  0.44697235  1
  Nd3+  Nd46  1  0.49582068  0.62583366  0.05400833  1
  Nd3+  Nd47  1  0.48949365  0.87278454  0.06183006  1
  Nd3+  Nd48  1  -0.00293494  0.88064571  0.55958043  1
  Nd3+  Nd49  1  0.74497546  0.13396882  0.56617493  1
  Nd3+  Nd50  1  0.73506667  0.87845631  0.07184500  1
  Nd3+  Nd51  1  0.86701987  0.74976194  0.94515182  1
  Sm3+  Sm52  1  -0.00578346  0.37538208  0.06755266  1
  Sm3+  Sm53  1  0.49644403  0.13068705  0.55070797  1
  Sm3+  Sm54  1  0.86847015  0.24953850  0.95154793  1
  Sm3+  Sm55  1  0.36265957  0.50038854  0.94274130  1
  Sm3+  Sm56  1  0.61695045  0.49795575  0.94482496  1
  Sm3+  Sm57  1  0.37650808  -0.00485066  0.43284229  1
  Sm3+  Sm58  1  0.87294972  0.50647275  0.44596395  1
  Sm3+  Sm59  1  0.12257363  0.75235530  0.44436633  1
  Sm3+  Sm60  1  0.23751330  0.62594606  0.05155884  1
  Sm3+  Sm61  1  0.36417156  0.74755914  0.93762059  1
  Sm3+  Sm62  1  0.36566003  0.25389499  0.94771532  1
  Sm3+  Sm63  1  0.87327568  0.25454286  0.43620856  1
  Bi2+  Bi64  1  0.00146789  0.15033568  0.28660869  1
  Bi2+  Bi65  1  -0.02007741  0.11503595  0.80650953  1
  Bi2+  Bi66  1  -0.01439467  0.33103959  0.32857009  1
  Bi2+  Bi67  1  -0.02852333  0.37135442  0.79664058  1
  Bi2+  Bi68  1  0.01032823  0.61009495  0.29015166  1
  Bi2+  Bi69  1  -0.01489033  0.64032618  0.79326776  1
  Bi2+  Bi70  1  0.05016472  0.88684171  0.29171088  1
  Bi2+  Bi71  1  -0.01015268  0.91580416  0.79887411  1
  Bi2+  Bi72  1  0.23069629  0.10775364  0.28148913  1
  Bi2+  Bi73  1  0.17347258  0.17297325  0.81432135  1
  Bi2+  Bi74  1  0.16802762  0.37589241  0.29116975  1
  Bi2+  Bi75  1  0.21582594  0.35880010  0.77723065  1
  Bi2+  Bi76  1  0.25407261  0.63334324  0.29591777  1
  Bi2+  Bi77  1  0.30197110  0.62499446  0.79932613  1
  Bi2+  Bi78  1  0.24981055  0.83932047  0.29080941  1
  Bi2+  Bi79  1  0.29330345  0.95308035  0.75233896  1
  Bi2+  Bi80  1  0.51085528  0.09344145  0.30256633  1
  Bi2+  Bi81  1  0.48940701  0.10651656  0.80307281  1
  Bi2+  Bi82  1  0.53431078  0.35848505  0.29977020  1
  Bi2+  Bi83  1  0.47482574  0.38125015  0.79991557  1
  Bi2+  Bi84  1  0.44474501  0.63010522  0.27178316  1
  Bi2+  Bi85  1  0.52800887  0.60032671  0.79110696  1
  Bi2+  Bi86  1  0.51756273  0.83108986  0.29280780  1
  Bi2+  Bi87  1  0.50913086  0.78765128  0.82239051  1
  Bi2+  Bi88  1  0.76243751  0.14899400  0.27808251  1
  Bi2+  Bi89  1  0.77950635  0.12971675  0.79361642  1
  Bi2+  Bi90  1  0.80493623  0.35389289  0.28502496  1
  Bi2+  Bi91  1  0.72398210  0.39703228  0.78399491  1
  Bi2+  Bi92  1  0.74167891  0.60620144  0.30839397  1
  Bi2+  Bi93  1  0.72787353  0.59659639  0.78591423  1
  Bi2+  Bi94  1  0.79274030  0.95493002  0.27359918  1
  Bi2+  Bi95  1  0.73497556  0.88184168  0.77239117  1
  Bi2+  Bi96  1  0.16745085  -0.05166134  0.20086726  1
  Bi2+  Bi97  1  0.12648553  0.04149804  0.73229458  1
  Bi2+  Bi98  1  0.14905299  0.23923492  0.20918351  1
  Bi2+  Bi99  1  0.06445683  0.25557233  0.71323246  1
  Bi2+  Bi100  1  0.10968548  0.53097118  0.19635384  1
  Bi2+  Bi101  1  0.13638651  0.50674010  0.71940849  1
  Bi2+  Bi102  1  0.12825526  0.74382577  0.21307513  1
  Bi2+  Bi103  1  0.11563725  0.78067785  0.68783886  1
  Bi2+  Bi104  1  0.35498129  -0.00768031  0.21666650  1
  Bi2+  Bi105  1  0.38262065  0.07051420  0.67626588  1
  Bi2+  Bi106  1  0.39921980  0.25605311  0.20901204  1
  Bi2+  Bi107  1  0.32504674  0.21789331  0.73718872  1
  Bi2+  Bi108  1  0.34087552  0.46477567  0.25256703  1
  Bi2+  Bi109  1  0.44070134  0.48211142  0.70026244  1
  Bi2+  Bi110  1  0.32482417  0.72592682  0.19648733  1
  Bi2+  Bi111  1  0.47012405  0.75347540  0.71737272  1
  Bi2+  Bi112  1  0.63987357  0.00997043  0.20918019  1
  Bi2+  Bi113  1  0.62626535  -0.01474488  0.70036896  1
  Bi2+  Bi114  1  0.73537514  0.27354972  0.18713828  1
  Bi2+  Bi115  1  0.59586956  0.33412579  0.70187595  1
  Bi2+  Bi116  1  0.58509947  0.48906975  0.20518971  1
  Bi2+  Bi117  1  0.62416483  0.50838377  0.64839402  1
  Bi2+  Bi118  1  0.60336232  0.75176317  0.20510553  1
  Bi2+  Bi119  1  0.65869932  0.69926591  0.69565177  1
  Bi2+  Bi120  1  0.91299326  0.05486185  0.19976821  1
  Bi2+  Bi121  1  0.89019444  0.01330585  0.70857283  1
  Bi2+  Bi122  1  0.93214523  0.25664661  0.18276810  1
  Bi2+  Bi123  1  0.84990229  0.29824955  0.71388692  1
  Bi2+  Bi124  1  0.93759123  0.44755752  0.22336099  1
  Bi2+  Bi125  1  0.81969047  0.49346169  0.69943381  1
  Bi2+  Bi126  1  0.89128448  0.75973250  0.20920298  1
  Bi2+  Bi127  1  0.84962621  0.76266566  0.71446958  1
  S2-  S128  1  0.12668435  0.11181652  0.14769616  1
  S2-  S129  1  -0.02549572  0.13157438  0.65587041  1
  S2-  S130  1  0.10799786  0.37802213  0.14304578  1
  S2-  S131  1  0.03466449  0.39899113  0.66267655  1
  S2-  S132  1  -0.08904152  0.61729883  0.15530611  1
  S2-  S133  1  0.08671238  0.61983395  0.65255008  1
  S2-  S134  1  -0.03967604  0.88580545  0.16334320  1
  S2-  S135  1  -0.03496348  0.86673650  0.65911872  1
  S2-  S136  1  0.37025729  0.11752043  0.14746096  1
  S2-  S137  1  0.25447817  0.21835156  0.63856088  1
  S2-  S138  1  0.34988250  0.37863267  0.15353666  1
  S2-  S139  1  0.25922324  0.46558607  0.65767616  1
  S2-  S140  1  0.24250158  0.56633804  0.14404484  1
  S2-  S141  1  0.24775703  0.67128417  0.71297125  1
  S2-  S142  1  0.36739470  0.86850557  0.14091689  1
  S2-  S143  1  0.23077483  0.89118429  0.65706638  1
  S2-  S144  1  0.61246922  0.13371065  0.14284426  1
  S2-  S145  1  0.54239111  0.11129783  0.64705503  1
  S2-  S146  1  0.53928653  0.32800978  0.17238626  1
  S2-  S147  1  0.44573753  0.33043220  0.65061360  1
  S2-  S148  1  0.51041694  0.61787666  0.15360144  1
  S2-  S149  1  0.41912413  0.63381790  0.64713942  1
  S2-  S150  1  0.58304997  0.89020619  0.14587487  1
  S2-  S151  1  0.44791948  0.90945972  0.66878884  1
  S2-  S152  1  0.77175687  0.00660401  0.14219420  1
  S2-  S153  1  0.76212338  0.01460572  0.63975625  1
  S2-  S154  1  0.72871913  0.44641267  0.15384508  1
  S2-  S155  1  0.73761355  0.25985734  0.63999590  1
  S2-  S156  1  0.70248514  0.60988322  0.21298964  1
  S2-  S157  1  0.86596694  0.63841232  0.64536094  1
  S2-  S158  1  0.75359389  0.77591653  0.15518973  1
  S2-  S159  1  0.64372964  0.85134381  0.63906245  1
  S2-  S160  1  0.10835136  0.03241876  0.34175656  1
  S2-  S161  1  0.12439239  -0.06236008  0.85721444  1
  S2-  S162  1  0.22612765  0.24763975  0.35084822  1
  S2-  S163  1  0.11179671  0.36137719  0.86147092  1
  S2-  S164  1  0.13319581  0.52576060  0.34630042  1
  S2-  S165  1  0.13474018  0.60207939  0.84107952  1
  S2-  S166  1  0.04356207  0.74703000  0.35554011  1
  S2-  S167  1  0.09232136  0.77746182  0.78171524  1
  S2-  S168  1  0.36628332  0.04464350  0.33784019  1
  S2-  S169  1  0.33615286  0.03837341  0.83298596  1
  S2-  S170  1  0.42393273  0.23217161  0.31496888  1
  S2-  S171  1  0.44523244  0.24736573  0.85910805  1
  S2-  S172  1  0.38231340  0.42828856  0.35027354  1
  S2-  S173  1  0.34807643  0.46778339  0.84564592  1
  S2-  S174  1  0.38741559  0.84214041  0.35993349  1
  S2-  S175  1  0.29422341  0.76959443  0.84775591  1
  S2-  S176  1  0.60689870  -0.03964877  0.34264759  1
  S2-  S177  1  0.52005253  -0.03503756  0.84671674  1
  S2-  S178  1  0.62502430  0.21926528  0.33465168  1
  S2-  S179  1  0.63853957  0.15313585  0.84765805  1
  S2-  S180  1  0.64077232  0.46234234  0.33881899  1
  S2-  S181  1  0.60896010  0.39659088  0.86481130  1
  S2-  S182  1  0.60995890  0.70807697  0.34355609  1
  S2-  S183  1  0.67867013  0.77645548  0.84885144  1
  S2-  S184  1  0.89897034  -0.08398673  0.34682492  1
  S2-  S185  1  0.77178738  -0.00895169  0.85347074  1
  S2-  S186  1  0.86848457  0.14040936  0.36041765  1
  S2-  S187  1  0.87577671  0.24887286  0.85212656  1
  S2-  S188  1  0.89047136  0.56358436  0.35345111  1
  S2-  S189  1  0.94522319  0.50283436  0.85558493  1
  S2-  S190  1  0.81454660  0.74758126  0.30661452  1
  S2-  S191  1  0.93665663  0.75710786  0.85295486  1
  S2-  S192  1  0.00205351  0.13284388  0.45185182  1
  S2-  S193  1  -0.00459556  0.12753954  0.95956339  1
  S2-  S194  1  -0.00343737  0.38210239  0.45588674  1
  S2-  S195  1  -0.01093064  0.37327359  0.96352012  1
  S2-  S196  1  -0.00268907  0.62979701  0.45966050  1
  S2-  S197  1  -0.00795600  0.62786108  0.95897791  1
  S2-  S198  1  0.00042421  0.87833230  0.45464765  1
  S2-  S199  1  -0.00554300  0.87382060  0.95620522  1
  S2-  S200  1  0.25307165  0.12427488  0.44945571  1
  S2-  S201  1  0.24535036  0.12706778  0.95675914  1
  S2-  S202  1  0.24680236  0.38151372  0.45669205  1
  S2-  S203  1  0.24348041  0.37730176  0.96030503  1
  S2-  S204  1  0.24803202  0.63297773  0.44739901  1
  S2-  S205  1  0.24029262  0.62497234  0.94905551  1
  S2-  S206  1  0.24499962  0.87782063  0.45265183  1
  S2-  S207  1  0.24395847  0.87145390  0.95855036  1
  S2-  S208  1  0.49461436  0.12888239  0.44435366  1
  S2-  S209  1  0.48913292  0.12577682  0.95687202  1
  S2-  S210  1  0.50087226  0.38420411  0.45011628  1
  S2-  S211  1  0.48433001  0.38222177  0.96512125  1
  S2-  S212  1  0.49696976  0.62984592  0.44951855  1
  S2-  S213  1  0.49187941  0.62181555  0.94712758  1
  S2-  S214  1  0.50278813  0.87985397  0.46040679  1
  S2-  S215  1  0.49081081  0.86665496  0.95573238  1
  S2-  S216  1  0.74503195  0.13362322  0.45700326  1
  S2-  S217  1  0.74686781  0.13048283  0.95988573  1
  S2-  S218  1  0.75207825  0.37949857  0.45052277  1
  S2-  S219  1  0.74703399  0.37487335  0.95609571  1
  S2-  S220  1  0.75404810  0.63399894  0.45212024  1
  S2-  S221  1  0.74179134  0.62018022  0.94500681  1
  S2-  S222  1  0.75197749  0.88131665  0.44831083  1
  S2-  S223  1  0.74607271  0.87590365  0.96082476  1
  S2-  S224  1  0.11808055  -0.00646175  0.05136639  1
  S2-  S225  1  0.12386078  0.00634236  0.55026272  1
  S2-  S226  1  0.11667828  0.25001351  0.04607107  1
  S2-  S227  1  0.12201499  0.25307473  0.54106297  1
  S2-  S228  1  0.11248145  0.50264277  0.03815007  1
  S2-  S229  1  0.12749520  0.50238082  0.55087022  1
  S2-  S230  1  0.11870083  0.74843856  0.06447014  1
  S2-  S231  1  0.12527659  0.75523852  0.54928524  1
  S2-  S232  1  0.36548599  -0.00136630  0.04019496  1
  S2-  S233  1  0.37558193  0.00261920  0.54137051  1
  S2-  S234  1  0.36370123  0.25500834  0.05000274  1
  S2-  S235  1  0.37663900  0.25198775  0.53130896  1
  S2-  S236  1  0.36737979  0.50578760  0.04653071  1
  S2-  S237  1  0.36992784  0.50551642  0.54510414  1
  S2-  S238  1  0.36586849  0.74232468  0.04234532  1
  S2-  S239  1  0.37215039  0.75433764  0.55056128  1
  S2-  S240  1  0.61370626  -0.00135327  0.03693417  1
  S2-  S241  1  0.62112793  0.00945848  0.54132445  1
  S2-  S242  1  0.61018313  0.25704061  0.04097447  1
  S2-  S243  1  0.61789273  0.25411058  0.54005390  1
  S2-  S244  1  0.61965421  0.50265078  0.04861027  1
  S2-  S245  1  0.62776931  0.50644141  0.53663345  1
  S2-  S246  1  0.62123551  0.74449992  0.04768889  1
  S2-  S247  1  0.62353472  0.74883970  0.54080842  1
  S2-  S248  1  0.87339611  0.00187263  0.04320721  1
  S2-  S249  1  0.87795464  0.00802171  0.53830508  1
  S2-  S250  1  0.86902262  0.24817247  0.05579358  1
  S2-  S251  1  0.87519587  0.25489668  0.54159509  1
  S2-  S252  1  0.86773589  0.49692292  0.05210552  1
  S2-  S253  1  0.87065029  0.49821039  0.54978728  1
  S2-  S254  1  0.86363291  0.74504166  0.05000912  1
  S2-  S255  1  0.86948990  0.76300408  0.54570367  1
